MODEL 1
REMARK minimizedAffinity -5.89306211
REMARK minimizedRMSD -1
REMARK  0 active torsions:
REMARK  status: ('A' for Active; 'I' for Inactive)
ROOT
ATOM      1  C2' OXE d   1       0.444  -0.586  -0.654  0.00  0.00     0.078 C 
ATOM      2  C1' OXE d   1      -1.915   0.590   0.314  0.00  0.00     0.078 C 
ATOM      3  C1  OXE d   1      -0.743   0.484   1.257  0.00  0.00    -0.078 A 
ATOM      4  C2  OXE d   1       0.392  -0.135   0.790  0.00  0.00    -0.078 A 
ATOM      5  C3  OXE d   1       1.520  -0.209   1.601  0.00  0.00     0.003 A 
ATOM      6  C4  OXE d   1       1.460   0.201   2.938  0.00  0.00    -0.002 A 
ATOM      7  C5  OXE d   1       0.302   0.799   3.446  0.00  0.00    -0.002 A 
ATOM      8  C6  OXE d   1      -0.792   0.986   2.608  0.00  0.00     0.003 A 
ENDROOT
TORSDOF 0
ENDMDL
