MODEL 1
REMARK minimizedAffinity 9.50376987
REMARK minimizedRMSD -1
REMARK  1 active torsions:
REMARK  status: ('A' for Active; 'I' for Inactive)
REMARK    1  A    between atoms: C1_2  and  C2_3 
ROOT
ATOM      1  C2  UNL d   1       1.831  -2.923   1.365  0.00  0.00    -0.073 A 
ATOM      2  C3  UNL d   1       0.827  -1.967   1.557  0.00  0.00    -0.002 A 
ATOM      3  C4  UNL d   1       0.887  -1.090   2.641  0.00  0.00     0.004 A 
ATOM      4  C5  UNL d   1       1.953  -1.156   3.539  0.00  0.00    -0.004 A 
ATOM      5  C6  UNL d   1       2.971  -2.096   3.357  0.00  0.00    -0.075 A 
ATOM      6  C7  UNL d   1       4.123  -2.181   4.315  0.00  0.00     0.076 C 
ATOM      7  C8  UNL d   1       2.903  -2.975   2.268  0.00  0.00     0.001 A 
ENDROOT
BRANCH   1   8
ATOM      8  C1  UNL d   1       1.774  -3.867   0.192  0.00  0.00     0.053 C 
ATOM      9  C   UNL d   1       1.886  -5.320   0.624  0.00  0.00     0.018 C 
ENDBRANCH   1   8
TORSDOF 1
ENDMDL
