MODEL 1
REMARK minimizedAffinity 14.4890213
REMARK minimizedRMSD -1
REMARK  1 active torsions:
REMARK  status: ('A' for Active; 'I' for Inactive)
REMARK    1  A    between atoms: C1_2  and  C2_3 
ROOT
ATOM      1  C2  UNL d   1       3.323  -1.617   2.965  0.00  0.00    -0.073 A 
ATOM      2  C3  UNL d   1       4.319  -1.570   1.983  0.00  0.00    -0.002 A 
ATOM      3  C4  UNL d   1       3.978  -1.606   0.630  0.00  0.00     0.004 A 
ATOM      4  C5  UNL d   1       2.639  -1.681   0.246  0.00  0.00    -0.004 A 
ATOM      5  C6  UNL d   1       1.629  -1.717   1.212  0.00  0.00    -0.075 A 
ATOM      6  C7  UNL d   1       0.184  -1.801   0.815  0.00  0.00     0.076 C 
ATOM      7  C8  UNL d   1       1.980  -1.684   2.568  0.00  0.00     0.001 A 
ENDROOT
BRANCH   1   8
ATOM      8  C1  UNL d   1       3.687  -1.573   4.426  0.00  0.00     0.053 C 
ATOM      9  C   UNL d   1       4.103  -2.938   4.952  0.00  0.00     0.018 C 
ENDBRANCH   1   8
TORSDOF 1
ENDMDL
