MODEL 1
REMARK minimizedAffinity 16.7075691
REMARK minimizedRMSD -1
REMARK  1 active torsions:
REMARK  status: ('A' for Active; 'I' for Inactive)
REMARK    1  A    between atoms: C1_2  and  C2_3 
ROOT
ATOM      1  C2  UNL d   1       2.531  -2.028   2.958  0.00  0.00    -0.073 A 
ATOM      2  C3  UNL d   1       1.587  -1.171   2.380  0.00  0.00    -0.002 A 
ATOM      3  C4  UNL d   1       1.068  -1.446   1.114  0.00  0.00     0.004 A 
ATOM      4  C5  UNL d   1       1.481  -2.582   0.417  0.00  0.00    -0.004 A 
ATOM      5  C6  UNL d   1       2.414  -3.456   0.983  0.00  0.00    -0.075 A 
ATOM      6  C7  UNL d   1       2.871  -4.681   0.246  0.00  0.00     0.076 C 
ATOM      7  C8  UNL d   1       2.933  -3.172   2.254  0.00  0.00     0.001 A 
ENDROOT
BRANCH   1   8
ATOM      8  C1  UNL d   1       3.089  -1.738   4.327  0.00  0.00     0.053 C 
ATOM      9  C   UNL d   1       4.316  -2.583   4.633  0.00  0.00     0.018 C 
ENDBRANCH   1   8
TORSDOF 1
ENDMDL
