MODEL 1
REMARK minimizedAffinity 11.7589417
REMARK minimizedRMSD -1
REMARK  1 active torsions:
REMARK  status: ('A' for Active; 'I' for Inactive)
REMARK    1  A    between atoms: C1_2  and  C2_3 
ROOT
ATOM      1  C2  UNL d   1       5.051   3.684  -5.292  0.00  0.00    -0.073 A 
ATOM      2  C3  UNL d   1       5.660   4.893  -5.646  0.00  0.00    -0.002 A 
ATOM      3  C4  UNL d   1       4.882   5.998  -5.997  0.00  0.00     0.004 A 
ATOM      4  C5  UNL d   1       3.490   5.907  -5.990  0.00  0.00    -0.004 A 
ATOM      5  C6  UNL d   1       2.863   4.711  -5.628  0.00  0.00    -0.075 A 
ATOM      6  C7  UNL d   1       1.367   4.596  -5.618  0.00  0.00     0.076 C 
ATOM      7  C8  UNL d   1       3.651   3.605  -5.280  0.00  0.00     0.001 A 
ENDROOT
BRANCH   1   8
ATOM      8  C1  UNL d   1       5.886   2.490  -4.907  0.00  0.00     0.053 C 
ATOM      9  C   UNL d   1       5.990   2.330  -3.398  0.00  0.00     0.018 C 
ENDBRANCH   1   8
TORSDOF 1
ENDMDL
