MODEL 1
REMARK minimizedAffinity 9.31301975
REMARK minimizedRMSD -1
REMARK  1 active torsions:
REMARK  status: ('A' for Active; 'I' for Inactive)
REMARK    1  A    between atoms: C1_2  and  C2_3 
ROOT
ATOM      1  C2  UNL d   1       2.388  -3.179   1.428  0.00  0.00    -0.073 A 
ATOM      2  C3  UNL d   1       1.342  -2.251   1.482  0.00  0.00    -0.002 A 
ATOM      3  C4  UNL d   1       1.348  -1.238   2.442  0.00  0.00     0.004 A 
ATOM      4  C5  UNL d   1       2.400  -1.139   3.352  0.00  0.00    -0.004 A 
ATOM      5  C6  UNL d   1       3.460  -2.050   3.306  0.00  0.00    -0.075 A 
ATOM      6  C7  UNL d   1       4.599  -1.959   4.279  0.00  0.00     0.076 C 
ATOM      7  C8  UNL d   1       3.446  -3.066   2.341  0.00  0.00     0.001 A 
ENDROOT
BRANCH   1   8
ATOM      8  C1  UNL d   1       2.389  -4.271   0.389  0.00  0.00     0.053 C 
ATOM      9  C   UNL d   1       2.977  -5.567   0.924  0.00  0.00     0.018 C 
ENDBRANCH   1   8
TORSDOF 1
ENDMDL
