MODEL 1
REMARK minimizedAffinity 7.79314327
REMARK minimizedRMSD -1
REMARK  1 active torsions:
REMARK  status: ('A' for Active; 'I' for Inactive)
REMARK    1  A    between atoms: C1_2  and  C2_3 
ROOT
ATOM      1  C2  UNL d   1       2.051  -4.073   0.611  0.00  0.00    -0.073 A 
ATOM      2  C3  UNL d   1       2.922  -3.401   1.476  0.00  0.00    -0.002 A 
ATOM      3  C4  UNL d   1       2.820  -2.019   1.646  0.00  0.00     0.004 A 
ATOM      4  C5  UNL d   1       1.844  -1.298   0.959  0.00  0.00    -0.004 A 
ATOM      5  C6  UNL d   1       0.956  -1.953   0.100  0.00  0.00    -0.075 A 
ATOM      6  C7  UNL d   1      -0.098  -1.192  -0.648  0.00  0.00     0.076 C 
ATOM      7  C8  UNL d   1       1.067  -3.340  -0.068  0.00  0.00     0.001 A 
ENDROOT
BRANCH   1   8
ATOM      8  C1  UNL d   1       2.153  -5.565   0.430  0.00  0.00     0.053 C 
ATOM      9  C   UNL d   1       3.563  -6.000   0.061  0.00  0.00     0.018 C 
ENDBRANCH   1   8
TORSDOF 1
ENDMDL
