MODEL 1
REMARK minimizedAffinity -3.46015835
REMARK minimizedRMSD -1
REMARK  0 active torsions:
REMARK  status: ('A' for Active; 'I' for Inactive)
ROOT
ATOM      1  C   UNL d   1       0.875   0.179  -0.933  0.00  0.00     0.023 A 
ATOM      2  C1  UNL d   1       0.833   0.960   0.223  0.00  0.00     0.003 A 
ATOM      3  C2  UNL d   1       1.176   2.312   0.166  0.00  0.00     0.048 A 
ATOM      4  C3  UNL d   1       1.560   2.877  -1.049  0.00  0.00     0.023 A 
ATOM      5  C4  UNL d   1       1.603   2.100  -2.208  0.00  0.00     0.048 A 
ATOM      6  C5  UNL d   1       1.260   0.749  -2.146  0.00  0.00     0.003 A 
ATOM      7  I   UNL d   1       2.072   4.890  -1.136  0.00  0.00    -0.146 I 
ENDROOT
TORSDOF 0
ENDMDL
