MODEL 1
REMARK minimizedAffinity -0.396877617
REMARK minimizedRMSD -1
REMARK  0 active torsions:
REMARK  status: ('A' for Active; 'I' for Inactive)
ROOT
ATOM      1  C   UNL d   1       0.767   0.918  -1.092  0.00  0.00     0.023 A 
ATOM      2  C1  UNL d   1       1.323   1.592  -2.180  0.00  0.00     0.003 A 
ATOM      3  C2  UNL d   1       1.541   2.969  -2.112  0.00  0.00     0.048 A 
ATOM      4  C3  UNL d   1       1.203   3.666  -0.952  0.00  0.00     0.023 A 
ATOM      5  C4  UNL d   1       0.647   2.996   0.138  0.00  0.00     0.048 A 
ATOM      6  C5  UNL d   1       0.429   1.619   0.065  0.00  0.00     0.003 A 
ATOM      7  I   UNL d   1       1.528   5.717  -0.848  0.00  0.00    -0.146 I 
ENDROOT
TORSDOF 0
ENDMDL
