MODEL 1
REMARK minimizedAffinity -4.43693972
REMARK minimizedRMSD -1
REMARK  0 active torsions:
REMARK  status: ('A' for Active; 'I' for Inactive)
ROOT
ATOM      1  C   UNL d   1       1.364   2.989  -0.637  0.00  0.00     0.023 A 
ATOM      2  C1  UNL d   1       1.381   2.352  -1.878  0.00  0.00     0.003 A 
ATOM      3  C2  UNL d   1       1.284   0.961  -1.951  0.00  0.00     0.048 A 
ATOM      4  C3  UNL d   1       1.169   0.213  -0.780  0.00  0.00     0.023 A 
ATOM      5  C4  UNL d   1       1.150   0.846   0.464  0.00  0.00     0.048 A 
ATOM      6  C5  UNL d   1       1.248   2.237   0.532  0.00  0.00     0.003 A 
ATOM      7  I   UNL d   1       1.024  -1.857  -0.887  0.00  0.00    -0.146 I 
ENDROOT
TORSDOF 0
ENDMDL
