MODEL 1
REMARK minimizedAffinity 0.362279475
REMARK minimizedRMSD -1
REMARK  0 active torsions:
REMARK  status: ('A' for Active; 'I' for Inactive)
ROOT
ATOM      1  C   UNL d   1       2.151  -0.424  -1.248  0.00  0.00     0.023 A 
ATOM      2  C1  UNL d   1       1.675  -0.342   0.061  0.00  0.00     0.003 A 
ATOM      3  C2  UNL d   1       1.290   0.891   0.589  0.00  0.00     0.048 A 
ATOM      4  C3  UNL d   1       1.381   2.039  -0.197  0.00  0.00     0.023 A 
ATOM      5  C4  UNL d   1       1.856   1.962  -1.508  0.00  0.00     0.048 A 
ATOM      6  C5  UNL d   1       2.241   0.727  -2.031  0.00  0.00     0.003 A 
ATOM      7  I   UNL d   1       0.808   3.877   0.587  0.00  0.00    -0.146 I 
ENDROOT
TORSDOF 0
ENDMDL
