MODEL 1
REMARK minimizedAffinity 2.72654223
REMARK minimizedRMSD -1
REMARK  0 active torsions:
REMARK  status: ('A' for Active; 'I' for Inactive)
ROOT
ATOM      1  C   UNL d   1       1.044  -0.740  -0.522  0.00  0.00     0.023 A 
ATOM      2  C1  UNL d   1       0.969  -0.395  -1.872  0.00  0.00     0.003 A 
ATOM      3  C2  UNL d   1       1.267   0.908  -2.278  0.00  0.00     0.048 A 
ATOM      4  C3  UNL d   1       1.639   1.860  -1.330  0.00  0.00     0.023 A 
ATOM      5  C4  UNL d   1       1.717   1.519   0.021  0.00  0.00     0.048 A 
ATOM      6  C5  UNL d   1       1.417   0.216   0.423  0.00  0.00     0.003 A 
ATOM      7  I   UNL d   1       2.083   3.799  -1.933  0.00  0.00    -0.146 I 
ENDROOT
TORSDOF 0
ENDMDL
