MODEL 1
REMARK minimizedAffinity 5.24197531
REMARK minimizedRMSD -1
REMARK  0 active torsions:
REMARK  status: ('A' for Active; 'I' for Inactive)
ROOT
ATOM      1  C   UNL d   1       1.419   3.720  -2.203  0.00  0.00     0.023 A 
ATOM      2  C1  UNL d   1       1.539   4.956  -1.566  0.00  0.00     0.003 A 
ATOM      3  C2  UNL d   1       1.688   5.017  -0.179  0.00  0.00     0.048 A 
ATOM      4  C3  UNL d   1       1.719   3.838   0.565  0.00  0.00     0.023 A 
ATOM      5  C4  UNL d   1       1.600   2.600  -0.067  0.00  0.00     0.048 A 
ATOM      6  C5  UNL d   1       1.450   2.544  -1.454  0.00  0.00     0.003 A 
ATOM      7  I   UNL d   1       1.941   3.926   2.630  0.00  0.00    -0.146 I 
ENDROOT
TORSDOF 0
ENDMDL
