MODEL 1
REMARK minimizedAffinity 0.0982937515
REMARK minimizedRMSD -1
REMARK  0 active torsions:
REMARK  status: ('A' for Active; 'I' for Inactive)
ROOT
ATOM      1  C   UNL d   1       1.753  -0.038  -1.879  0.00  0.00     0.023 A 
ATOM      2  C1  UNL d   1       1.085   1.056  -2.429  0.00  0.00     0.003 A 
ATOM      3  C2  UNL d   1       0.917   2.222  -1.680  0.00  0.00     0.048 A 
ATOM      4  C3  UNL d   1       1.420   2.288  -0.381  0.00  0.00     0.023 A 
ATOM      5  C4  UNL d   1       2.090   1.196   0.173  0.00  0.00     0.048 A 
ATOM      6  C5  UNL d   1       2.255   0.032  -0.579  0.00  0.00     0.003 A 
ATOM      7  I   UNL d   1       1.172   4.023   0.736  0.00  0.00    -0.146 I 
ENDROOT
TORSDOF 0
ENDMDL
