MODEL 1
REMARK minimizedAffinity -1.62353432
REMARK minimizedRMSD -1
REMARK  0 active torsions:
REMARK  status: ('A' for Active; 'I' for Inactive)
ROOT
ATOM      1  C   UNL d   1       1.323   3.340  -0.431  0.00  0.00     0.023 A 
ATOM      2  C1  UNL d   1       1.452   2.823  -1.720  0.00  0.00     0.003 A 
ATOM      3  C2  UNL d   1       1.389   1.444  -1.930  0.00  0.00     0.048 A 
ATOM      4  C3  UNL d   1       1.197   0.588  -0.846  0.00  0.00     0.023 A 
ATOM      5  C4  UNL d   1       1.067   1.101   0.445  0.00  0.00     0.048 A 
ATOM      6  C5  UNL d   1       1.131   2.481   0.650  0.00  0.00     0.003 A 
ATOM      7  I   UNL d   1       1.103  -1.465  -1.156  0.00  0.00    -0.146 I 
ENDROOT
TORSDOF 0
ENDMDL
