MODEL 1
REMARK minimizedAffinity 1.93927157
REMARK minimizedRMSD -1
REMARK  0 active torsions:
REMARK  status: ('A' for Active; 'I' for Inactive)
ROOT
ATOM      1  C   UNL d   1      -1.628  -4.155  -0.876  0.00  0.00     0.023 A 
ATOM      2  C1  UNL d   1      -2.393  -3.177  -1.513  0.00  0.00     0.003 A 
ATOM      3  C2  UNL d   1      -2.459  -3.140  -2.907  0.00  0.00     0.048 A 
ATOM      4  C3  UNL d   1      -1.759  -4.084  -3.658  0.00  0.00     0.023 A 
ATOM      5  C4  UNL d   1      -0.994  -5.065  -3.025  0.00  0.00     0.048 A 
ATOM      6  C5  UNL d   1      -0.930  -5.097  -1.630  0.00  0.00     0.003 A 
ATOM      7  I   UNL d   1      -1.856  -4.031  -5.734  0.00  0.00    -0.146 I 
ENDROOT
TORSDOF 0
ENDMDL
