MODEL 1
REMARK minimizedAffinity 2.82250762
REMARK minimizedRMSD -1
REMARK  0 active torsions:
REMARK  status: ('A' for Active; 'I' for Inactive)
ROOT
ATOM      1  C   UNL d   1      -3.583   3.062   1.429  0.00  0.00     0.023 A 
ATOM      2  C1  UNL d   1      -2.672   3.840   2.144  0.00  0.00     0.003 A 
ATOM      3  C2  UNL d   1      -2.334   3.495   3.454  0.00  0.00     0.048 A 
ATOM      4  C3  UNL d   1      -2.909   2.370   4.043  0.00  0.00     0.023 A 
ATOM      5  C4  UNL d   1      -3.820   1.587   3.331  0.00  0.00     0.048 A 
ATOM      6  C5  UNL d   1      -4.156   1.937   2.022  0.00  0.00     0.003 A 
ATOM      7  I   UNL d   1      -2.407   1.854   5.993  0.00  0.00    -0.146 I 
ENDROOT
TORSDOF 0
ENDMDL
