MODEL 1
REMARK minimizedAffinity -4.74978876
REMARK minimizedRMSD -1
REMARK  0 active torsions:
REMARK  status: ('A' for Active; 'I' for Inactive)
ROOT
ATOM      1  C   UNL d   1       0.746   1.153  -0.249  0.00  0.00     0.023 A 
ATOM      2  C1  UNL d   1       0.797   2.079   0.793  0.00  0.00     0.003 A 
ATOM      3  C2  UNL d   1       1.182   3.397   0.539  0.00  0.00     0.048 A 
ATOM      4  C3  UNL d   1       1.512   3.783  -0.759  0.00  0.00     0.023 A 
ATOM      5  C4  UNL d   1       1.461   2.860  -1.805  0.00  0.00     0.048 A 
ATOM      6  C5  UNL d   1       1.077   1.543  -1.546  0.00  0.00     0.003 A 
ATOM      7  I   UNL d   1       2.084   5.744  -1.140  0.00  0.00    -0.146 I 
ENDROOT
TORSDOF 0
ENDMDL
