MODEL 1
REMARK minimizedAffinity 7.30992937
REMARK minimizedRMSD -1
REMARK  0 active torsions:
REMARK  status: ('A' for Active; 'I' for Inactive)
ROOT
ATOM      1  C1  BNZ d   1       1.879   0.904   3.455  0.00  0.00     0.000 A 
ATOM      2  C2  BNZ d   1       2.014  -0.344   2.910  0.00  0.00     0.000 A 
ATOM      3  C3  BNZ d   1       2.819  -0.551   1.824  0.00  0.00     0.000 A 
ATOM      4  C4  BNZ d   1       3.456   0.497   1.262  0.00  0.00     0.000 A 
ATOM      5  C5  BNZ d   1       3.323   1.764   1.795  0.00  0.00     0.000 A 
ATOM      6  C6  BNZ d   1       2.542   1.961   2.911  0.00  0.00     0.000 A 
ENDROOT
TORSDOF 0
ENDMDL
