MODEL 1
REMARK minimizedAffinity 4.4591074
REMARK minimizedRMSD -1
REMARK  0 active torsions:
REMARK  status: ('A' for Active; 'I' for Inactive)
ROOT
ATOM      1  C1  BNZ d   1      -2.870   1.036  -2.237  0.00  0.00     0.000 A 
ATOM      2  C2  BNZ d   1      -3.540   2.200  -2.503  0.00  0.00     0.000 A 
ATOM      3  C3  BNZ d   1      -4.084   2.429  -3.737  0.00  0.00     0.000 A 
ATOM      4  C4  BNZ d   1      -3.923   1.512  -4.712  0.00  0.00     0.000 A 
ATOM      5  C5  BNZ d   1      -3.242   0.337  -4.462  0.00  0.00     0.000 A 
ATOM      6  C6  BNZ d   1      -2.730   0.093  -3.209  0.00  0.00     0.000 A 
ENDROOT
TORSDOF 0
ENDMDL
