MODEL 1
REMARK minimizedAffinity -0.580024898
REMARK minimizedRMSD -1
REMARK  0 active torsions:
REMARK  status: ('A' for Active; 'I' for Inactive)
ROOT
ATOM      1  C1  BNZ d   1       3.430  -2.796   4.710  0.00  0.00     0.000 A 
ATOM      2  C2  BNZ d   1       2.620  -1.959   3.989  0.00  0.00     0.000 A 
ATOM      3  C3  BNZ d   1       1.846  -2.440   2.970  0.00  0.00     0.000 A 
ATOM      4  C4  BNZ d   1       1.912  -3.748   2.648  0.00  0.00     0.000 A 
ATOM      5  C5  BNZ d   1       2.730  -4.602   3.359  0.00  0.00     0.000 A 
ATOM      6  C6  BNZ d   1       3.479  -4.122   4.409  0.00  0.00     0.000 A 
ENDROOT
TORSDOF 0
ENDMDL
