MODEL 1
REMARK minimizedAffinity -2.17688131
REMARK minimizedRMSD -1
REMARK  0 active torsions:
REMARK  status: ('A' for Active; 'I' for Inactive)
ROOT
ATOM      1  C1  BNZ d   1       1.930  -5.993  -4.491  0.00  0.00     0.000 A 
ATOM      2  C2  BNZ d   1       2.456  -5.990  -3.227  0.00  0.00     0.000 A 
ATOM      3  C3  BNZ d   1       3.809  -5.967  -3.032  0.00  0.00     0.000 A 
ATOM      4  C4  BNZ d   1       4.633  -5.987  -4.100  0.00  0.00     0.000 A 
ATOM      5  C5  BNZ d   1       4.118  -5.999  -5.381  0.00  0.00     0.000 A 
ATOM      6  C6  BNZ d   1       2.755  -5.983  -5.573  0.00  0.00     0.000 A 
ENDROOT
TORSDOF 0
ENDMDL
