MODEL 1
REMARK minimizedAffinity -1.25426078
REMARK minimizedRMSD -1
REMARK  0 active torsions:
REMARK  status: ('A' for Active; 'I' for Inactive)
ROOT
ATOM      1  C1  BNZ d   1       3.893  -4.941   2.677  0.00  0.00     0.000 A 
ATOM      2  C2  BNZ d   1       3.917  -3.698   3.251  0.00  0.00     0.000 A 
ATOM      3  C3  BNZ d   1       4.962  -2.845   3.029  0.00  0.00     0.000 A 
ATOM      4  C4  BNZ d   1       5.999  -3.250   2.268  0.00  0.00     0.000 A 
ATOM      5  C5  BNZ d   1       5.994  -4.504   1.690  0.00  0.00     0.000 A 
ATOM      6  C6  BNZ d   1       4.922  -5.345   1.883  0.00  0.00     0.000 A 
ENDROOT
TORSDOF 0
ENDMDL
