MODEL 1
REMARK minimizedAffinity 0.00460045924
REMARK minimizedRMSD -1
REMARK  0 active torsions:
REMARK  status: ('A' for Active; 'I' for Inactive)
ROOT
ATOM      1  C1  BNZ d   1       1.881  -1.060   2.231  0.00  0.00     0.000 A 
ATOM      2  C2  BNZ d   1       1.120  -1.187   3.362  0.00  0.00     0.000 A 
ATOM      3  C3  BNZ d   1       1.583  -1.883   4.443  0.00  0.00     0.000 A 
ATOM      4  C4  BNZ d   1       2.788  -2.485   4.377  0.00  0.00     0.000 A 
ATOM      5  C5  BNZ d   1       3.563  -2.375   3.241  0.00  0.00     0.000 A 
ATOM      6  C6  BNZ d   1       3.111  -1.640   2.169  0.00  0.00     0.000 A 
ENDROOT
TORSDOF 0
ENDMDL
