MODEL 1
REMARK minimizedAffinity 3.83447599
REMARK minimizedRMSD -1
REMARK  0 active torsions:
REMARK  status: ('A' for Active; 'I' for Inactive)
ROOT
ATOM      1  C1  BNZ d   1       2.998  -5.773  -1.080  0.00  0.00     0.000 A 
ATOM      2  C2  BNZ d   1       4.317  -5.999  -0.790  0.00  0.00     0.000 A 
ATOM      3  C3  BNZ d   1       5.261  -6.000  -1.779  0.00  0.00     0.000 A 
ATOM      4  C4  BNZ d   1       4.879  -5.815  -3.060  0.00  0.00     0.000 A 
ATOM      5  C5  BNZ d   1       3.552  -5.596  -3.369  0.00  0.00     0.000 A 
ATOM      6  C6  BNZ d   1       2.610  -5.557  -2.366  0.00  0.00     0.000 A 
ENDROOT
TORSDOF 0
ENDMDL
