MODEL 1
REMARK minimizedAffinity -2.32491422
REMARK minimizedRMSD -1
REMARK  0 active torsions:
REMARK  status: ('A' for Active; 'I' for Inactive)
ROOT
ATOM      1  C1  BNZ d   1       1.399  -1.049   3.199  0.00  0.00     0.000 A 
ATOM      2  C2  BNZ d   1       1.336  -1.832   4.321  0.00  0.00     0.000 A 
ATOM      3  C3  BNZ d   1       1.776  -3.126   4.297  0.00  0.00     0.000 A 
ATOM      4  C4  BNZ d   1       2.240  -3.647   3.142  0.00  0.00     0.000 A 
ATOM      5  C5  BNZ d   1       2.301  -2.873   2.001  0.00  0.00     0.000 A 
ATOM      6  C6  BNZ d   1       1.894  -1.560   2.038  0.00  0.00     0.000 A 
ENDROOT
TORSDOF 0
ENDMDL
