MODEL 1
REMARK minimizedAffinity 9.55984211
REMARK minimizedRMSD -1
REMARK  0 active torsions:
REMARK  status: ('A' for Active; 'I' for Inactive)
ROOT
ATOM      1  C1  DEN d   1      -0.333  -0.663   4.129  0.00  0.00     0.130 A 
ATOM      2  C2  DEN d   1       0.215  -1.894   3.566  0.00  0.00    -0.031 A 
ATOM      3  C3  DEN d   1      -0.766  -2.433   2.603  0.00  0.00     0.027 A 
ATOM      4  C4  DEN d   1      -3.068  -1.484   1.930  0.00  0.00     0.027 A 
ATOM      5  C5  DEN d   1      -3.970  -0.466   2.148  0.00  0.00    -0.003 A 
ATOM      6  C6  DEN d   1      -3.740   0.531   3.059  0.00  0.00     0.001 A 
ATOM      7  C7  DEN d   1      -2.559   0.556   3.753  0.00  0.00     0.017 A 
ATOM      8  C8  DEN d   1      -1.648  -0.471   3.544  0.00  0.00    -0.094 A 
ATOM      9  C9  DEN d   1      -1.894  -1.463   2.610  0.00  0.00    -0.072 A 
ENDROOT
TORSDOF 0
ENDMDL
