MODEL 1
REMARK minimizedAffinity 13.0730658
REMARK minimizedRMSD -1
REMARK  0 active torsions:
REMARK  status: ('A' for Active; 'I' for Inactive)
ROOT
ATOM      1  C1  DEN d   1       5.366   0.251  -1.894  0.00  0.00     0.130 A 
ATOM      2  C2  DEN d   1       5.476   0.119  -3.344  0.00  0.00    -0.031 A 
ATOM      3  C3  DEN d   1       4.154   0.414  -3.931  0.00  0.00     0.027 A 
ATOM      4  C4  DEN d   1       1.959   1.064  -2.742  0.00  0.00     0.027 A 
ATOM      5  C5  DEN d   1       1.370   1.290  -1.517  0.00  0.00    -0.003 A 
ATOM      6  C6  DEN d   1       2.057   1.153  -0.340  0.00  0.00     0.001 A 
ATOM      7  C7  DEN d   1       3.387   0.824  -0.365  0.00  0.00     0.017 A 
ATOM      8  C8  DEN d   1       3.986   0.588  -1.595  0.00  0.00    -0.094 A 
ATOM      9  C9  DEN d   1       3.277   0.743  -2.774  0.00  0.00    -0.072 A 
ENDROOT
TORSDOF 0
ENDMDL
