MODEL 1
REMARK minimizedAffinity 8.14870644
REMARK minimizedRMSD -1
REMARK  0 active torsions:
REMARK  status: ('A' for Active; 'I' for Inactive)
ROOT
ATOM      1  C1  DEN d   1      -4.916   4.905  -5.361  0.00  0.00     0.130 A 
ATOM      2  C2  DEN d   1      -5.730   3.705  -5.187  0.00  0.00    -0.031 A 
ATOM      3  C3  DEN d   1      -4.838   2.532  -5.271  0.00  0.00     0.027 A 
ATOM      4  C4  DEN d   1      -2.288   2.456  -5.647  0.00  0.00     0.027 A 
ATOM      5  C5  DEN d   1      -1.161   3.220  -5.860  0.00  0.00    -0.003 A 
ATOM      6  C6  DEN d   1      -1.212   4.585  -5.955  0.00  0.00     0.001 A 
ATOM      7  C7  DEN d   1      -2.408   5.233  -5.792  0.00  0.00     0.017 A 
ATOM      8  C8  DEN d   1      -3.549   4.469  -5.584  0.00  0.00    -0.094 A 
ATOM      9  C9  DEN d   1      -3.475   3.091  -5.479  0.00  0.00    -0.072 A 
ENDROOT
TORSDOF 0
ENDMDL
