MODEL 1
REMARK minimizedAffinity 15.555295
REMARK minimizedRMSD -1
REMARK  0 active torsions:
REMARK  status: ('A' for Active; 'I' for Inactive)
ROOT
ATOM      1  C1  DEN d   1      -2.438   1.122  -1.682  0.00  0.00     0.130 A 
ATOM      2  C2  DEN d   1      -3.086  -0.183  -1.590  0.00  0.00    -0.031 A 
ATOM      3  C3  DEN d   1      -2.055  -1.181  -1.241  0.00  0.00     0.027 A 
ATOM      4  C4  DEN d   1       0.468  -0.833  -0.834  0.00  0.00     0.027 A 
ATOM      5  C5  DEN d   1       1.483   0.097  -0.811  0.00  0.00    -0.003 A 
ATOM      6  C6  DEN d   1       1.271   1.417  -1.107  0.00  0.00     0.001 A 
ATOM      7  C7  DEN d   1       0.005   1.853  -1.396  0.00  0.00     0.017 A 
ATOM      8  C8  DEN d   1      -1.023   0.920  -1.428  0.00  0.00    -0.094 A 
ATOM      9  C9  DEN d   1      -0.791  -0.408  -1.114  0.00  0.00    -0.072 A 
ENDROOT
TORSDOF 0
ENDMDL
