MODEL 1
REMARK minimizedAffinity 15.9027939
REMARK minimizedRMSD -1
REMARK  0 active torsions:
REMARK  status: ('A' for Active; 'I' for Inactive)
ROOT
ATOM      1  C1  DEN d   1       2.711  -1.781   2.013  0.00  0.00     0.130 A 
ATOM      2  C2  DEN d   1       1.909  -2.994   2.146  0.00  0.00    -0.031 A 
ATOM      3  C3  DEN d   1       0.761  -2.886   1.224  0.00  0.00     0.027 A 
ATOM      4  C4  DEN d   1       0.153  -0.971  -0.393  0.00  0.00     0.027 A 
ATOM      5  C5  DEN d   1       0.527   0.274  -0.850  0.00  0.00    -0.003 A 
ATOM      6  C6  DEN d   1       1.627   0.930  -0.365  0.00  0.00     0.001 A 
ATOM      7  C7  DEN d   1       2.418   0.325   0.576  0.00  0.00     0.017 A 
ATOM      8  C8  DEN d   1       2.043  -0.927   1.047  0.00  0.00    -0.094 A 
ATOM      9  C9  DEN d   1       0.934  -1.579   0.535  0.00  0.00    -0.072 A 
ENDROOT
TORSDOF 0
ENDMDL
