MODEL 1
REMARK minimizedAffinity 16.8609676
REMARK minimizedRMSD -1
REMARK  0 active torsions:
REMARK  status: ('A' for Active; 'I' for Inactive)
ROOT
ATOM      1  C1  DEN d   1      -2.730  -1.909  -1.457  0.00  0.00     0.130 A 
ATOM      2  C2  DEN d   1      -2.597  -0.648  -0.732  0.00  0.00    -0.031 A 
ATOM      3  C3  DEN d   1      -3.570   0.308  -1.296  0.00  0.00     0.027 A 
ATOM      4  C4  DEN d   1      -5.266  -0.039  -3.208  0.00  0.00     0.027 A 
ATOM      5  C5  DEN d   1      -5.742  -0.939  -4.136  0.00  0.00    -0.003 A 
ATOM      6  C6  DEN d   1      -5.229  -2.203  -4.259  0.00  0.00     0.001 A 
ATOM      7  C7  DEN d   1      -4.238  -2.618  -3.409  0.00  0.00     0.017 A 
ATOM      8  C8  DEN d   1      -3.748  -1.715  -2.475  0.00  0.00    -0.094 A 
ATOM      9  C9  DEN d   1      -4.288  -0.445  -2.359  0.00  0.00    -0.072 A 
ENDROOT
TORSDOF 0
ENDMDL
