MODEL 1
REMARK minimizedAffinity 12.4448042
REMARK minimizedRMSD -1
REMARK  0 active torsions:
REMARK  status: ('A' for Active; 'I' for Inactive)
ROOT
ATOM      1  C1  DEN d   1       1.777  -0.918   2.094  0.00  0.00     0.130 A 
ATOM      2  C2  DEN d   1       0.794  -1.982   2.284  0.00  0.00    -0.031 A 
ATOM      3  C3  DEN d   1      -0.003  -2.092   1.046  0.00  0.00     0.027 A 
ATOM      4  C4  DEN d   1       0.190  -0.730  -1.136  0.00  0.00     0.027 A 
ATOM      5  C5  DEN d   1       0.868   0.290  -1.766  0.00  0.00    -0.003 A 
ATOM      6  C6  DEN d   1       1.865   0.996  -1.146  0.00  0.00     0.001 A 
ATOM      7  C7  DEN d   1       2.244   0.661   0.127  0.00  0.00     0.017 A 
ATOM      8  C8  DEN d   1       1.560  -0.362   0.771  0.00  0.00    -0.094 A 
ATOM      9  C9  DEN d   1       0.563  -1.072   0.124  0.00  0.00    -0.072 A 
ENDROOT
TORSDOF 0
ENDMDL
