MODEL 1
REMARK minimizedAffinity 12.9072371
REMARK minimizedRMSD -1
REMARK  0 active torsions:
REMARK  status: ('A' for Active; 'I' for Inactive)
ROOT
ATOM      1  C1  DEN d   1       0.392  -2.724   1.115  0.00  0.00     0.130 A 
ATOM      2  C2  DEN d   1       1.486  -2.828   2.077  0.00  0.00    -0.031 A 
ATOM      3  C3  DEN d   1       2.460  -1.759   1.778  0.00  0.00     0.027 A 
ATOM      4  C4  DEN d   1       2.379   0.040  -0.068  0.00  0.00     0.027 A 
ATOM      5  C5  DEN d   1       1.653   0.522  -1.135  0.00  0.00    -0.003 A 
ATOM      6  C6  DEN d   1       0.483  -0.060  -1.544  0.00  0.00     0.001 A 
ATOM      7  C7  DEN d   1      -0.020  -1.131  -0.854  0.00  0.00     0.017 A 
ATOM      8  C8  DEN d   1       0.710  -1.627   0.218  0.00  0.00    -0.094 A 
ATOM      9  C9  DEN d   1       1.885  -1.017   0.623  0.00  0.00    -0.072 A 
ENDROOT
TORSDOF 0
ENDMDL
