MODEL 1
REMARK minimizedAffinity 7.44547749
REMARK minimizedRMSD -1
REMARK  0 active torsions:
REMARK  status: ('A' for Active; 'I' for Inactive)
ROOT
ATOM      1  C1  DEN d   1       6.000  -3.814   0.595  0.00  0.00     0.130 A 
ATOM      2  C2  DEN d   1       6.000  -5.107  -0.084  0.00  0.00    -0.031 A 
ATOM      3  C3  DEN d   1       4.627  -5.648  -0.037  0.00  0.00     0.027 A 
ATOM      4  C4  DEN d   1       2.510  -4.612   1.012  0.00  0.00     0.027 A 
ATOM      5  C5  DEN d   1       2.017  -3.532   1.711  0.00  0.00    -0.003 A 
ATOM      6  C6  DEN d   1       2.817  -2.496   2.114  0.00  0.00     0.001 A 
ATOM      7  C7  DEN d   1       4.146  -2.495   1.780  0.00  0.00     0.017 A 
ATOM      8  C8  DEN d   1       4.652  -3.583   1.082  0.00  0.00    -0.094 A 
ATOM      9  C9  DEN d   1       3.825  -4.616   0.674  0.00  0.00    -0.072 A 
ENDROOT
TORSDOF 0
ENDMDL
