MODEL 1
REMARK minimizedAffinity 6.39453745
REMARK minimizedRMSD -1
REMARK  0 active torsions:
REMARK  status: ('A' for Active; 'I' for Inactive)
ROOT
ATOM      1  C1  DEN d   1       1.603   3.310   2.845  0.00  0.00     0.130 A 
ATOM      2  C2  DEN d   1       2.933   2.727   3.006  0.00  0.00    -0.031 A 
ATOM      3  C3  DEN d   1       3.573   3.365   4.173  0.00  0.00     0.027 A 
ATOM      4  C4  DEN d   1       2.638   5.185   5.744  0.00  0.00     0.027 A 
ATOM      5  C5  DEN d   1       1.557   6.000   6.000  0.00  0.00    -0.003 A 
ATOM      6  C6  DEN d   1       0.439   5.999   5.209  0.00  0.00     0.001 A 
ATOM      7  C7  DEN d   1       0.357   5.135   4.149  0.00  0.00     0.017 A 
ATOM      8  C8  DEN d   1       1.446   4.316   3.880  0.00  0.00    -0.094 A 
ATOM      9  C9  DEN d   1       2.563   4.323   4.699  0.00  0.00    -0.072 A 
ENDROOT
TORSDOF 0
ENDMDL
