MODEL 1
REMARK minimizedAffinity 14.8534737
REMARK minimizedRMSD -1
REMARK  0 active torsions:
REMARK  status: ('A' for Active; 'I' for Inactive)
ROOT
ATOM      1  C   UNL d   1       2.287  -3.892  -2.747  0.00  0.00    -0.002 A 
ATOM      2  C1  UNL d   1       2.158  -3.419  -1.449  0.00  0.00     0.010 A 
ATOM      3  C2  UNL d   1       2.684  -2.176  -1.090  0.00  0.00     0.041 A 
ATOM      4  C3  UNL d   1       3.348  -1.409  -2.068  0.00  0.00    -0.075 A 
ATOM      5  S   UNL d   1       4.072   0.141  -1.858  0.00  0.00     0.015 SA
ATOM      6  C4  UNL d   1       4.569   0.212  -3.487  0.00  0.00     0.022 A 
ATOM      7  C5  UNL d   1       4.200  -0.911  -4.188  0.00  0.00     0.026 A 
ATOM      8  C6  UNL d   1       3.490  -1.864  -3.382  0.00  0.00    -0.082 A 
ATOM      9  C7  UNL d   1       2.946  -3.128  -3.714  0.00  0.00     0.045 A 
ENDROOT
TORSDOF 0
ENDMDL
