MODEL 1
REMARK minimizedAffinity 8.5170536
REMARK minimizedRMSD -1
REMARK  0 active torsions:
REMARK  status: ('A' for Active; 'I' for Inactive)
ROOT
ATOM      1  C   UNL d   1       4.102   4.989  -1.122  0.00  0.00    -0.002 A 
ATOM      2  C1  UNL d   1       5.344   5.607  -1.125  0.00  0.00     0.010 A 
ATOM      3  C2  UNL d   1       5.965   5.949  -2.327  0.00  0.00     0.041 A 
ATOM      4  C3  UNL d   1       5.309   5.658  -3.540  0.00  0.00    -0.075 A 
ATOM      5  S   UNL d   1       5.878   5.986  -5.134  0.00  0.00     0.015 SA
ATOM      6  C4  UNL d   1       4.485   5.315  -5.850  0.00  0.00     0.022 A 
ATOM      7  C5  UNL d   1       3.597   4.847  -4.910  0.00  0.00     0.026 A 
ATOM      8  C6  UNL d   1       4.057   5.038  -3.563  0.00  0.00    -0.082 A 
ATOM      9  C7  UNL d   1       3.454   4.703  -2.327  0.00  0.00     0.045 A 
ENDROOT
TORSDOF 0
ENDMDL
