MODEL 1
REMARK minimizedAffinity 17.7928467
REMARK minimizedRMSD -1
REMARK  0 active torsions:
REMARK  status: ('A' for Active; 'I' for Inactive)
ROOT
ATOM      1  C   UNL d   1       3.589   1.345  -2.993  0.00  0.00    -0.002 A 
ATOM      2  C1  UNL d   1       3.793   0.307  -2.095  0.00  0.00     0.010 A 
ATOM      3  C2  UNL d   1       4.490  -0.840  -2.483  0.00  0.00     0.041 A 
ATOM      4  C3  UNL d   1       4.984  -0.924  -3.799  0.00  0.00    -0.075 A 
ATOM      5  S   UNL d   1       5.868  -2.231  -4.495  0.00  0.00     0.015 SA
ATOM      6  C4  UNL d   1       5.995  -1.441  -6.000  0.00  0.00     0.022 A 
ATOM      7  C5  UNL d   1       5.385  -0.210  -5.989  0.00  0.00     0.026 A 
ATOM      8  C6  UNL d   1       4.792   0.109  -4.720  0.00  0.00    -0.082 A 
ATOM      9  C7  UNL d   1       4.081   1.258  -4.298  0.00  0.00     0.045 A 
ENDROOT
TORSDOF 0
ENDMDL
