MODEL 1
REMARK minimizedAffinity 4.35645533
REMARK minimizedRMSD -1
REMARK  0 active torsions:
REMARK  status: ('A' for Active; 'I' for Inactive)
ROOT
ATOM      1  C   UNL d   1      -4.844  -5.260  -0.376  0.00  0.00    -0.002 A 
ATOM      2  C1  UNL d   1      -5.618  -4.114  -0.262  0.00  0.00     0.010 A 
ATOM      3  C2  UNL d   1      -6.000  -3.399  -1.399  0.00  0.00     0.041 A 
ATOM      4  C3  UNL d   1      -5.589  -3.861  -2.665  0.00  0.00    -0.075 A 
ATOM      5  S   UNL d   1      -5.938  -3.148  -4.195  0.00  0.00     0.015 SA
ATOM      6  C4  UNL d   1      -5.069  -4.349  -5.037  0.00  0.00     0.022 A 
ATOM      7  C5  UNL d   1      -4.519  -5.279  -4.186  0.00  0.00     0.026 A 
ATOM      8  C6  UNL d   1      -4.810  -5.013  -2.805  0.00  0.00    -0.082 A 
ATOM      9  C7  UNL d   1      -4.438  -5.715  -1.634  0.00  0.00     0.045 A 
ENDROOT
TORSDOF 0
ENDMDL
