MODEL 1
REMARK minimizedAffinity 6.76506329
REMARK minimizedRMSD -1
REMARK  0 active torsions:
REMARK  status: ('A' for Active; 'I' for Inactive)
ROOT
ATOM      1  C   UNL d   1      -2.381  -1.922   1.256  0.00  0.00    -0.002 A 
ATOM      2  C1  UNL d   1      -1.967  -0.686   0.781  0.00  0.00     0.010 A 
ATOM      3  C2  UNL d   1      -0.815  -0.574  -0.001  0.00  0.00     0.041 A 
ATOM      4  C3  UNL d   1      -0.081  -1.738  -0.302  0.00  0.00    -0.075 A 
ATOM      5  S   UNL d   1       1.360  -1.844  -1.242  0.00  0.00     0.015 SA
ATOM      6  C4  UNL d   1       1.460  -3.533  -1.037  0.00  0.00     0.022 A 
ATOM      7  C5  UNL d   1       0.427  -4.021  -0.272  0.00  0.00     0.026 A 
ATOM      8  C6  UNL d   1      -0.478  -2.995   0.164  0.00  0.00    -0.082 A 
ATOM      9  C7  UNL d   1      -1.650  -3.074   0.955  0.00  0.00     0.045 A 
ENDROOT
TORSDOF 0
ENDMDL
