MODEL 1
REMARK minimizedAffinity 7.57679176
REMARK minimizedRMSD -1
REMARK  0 active torsions:
REMARK  status: ('A' for Active; 'I' for Inactive)
ROOT
ATOM      1  C   UNL d   1       1.350   0.327   4.202  0.00  0.00    -0.002 A 
ATOM      2  C1  UNL d   1       1.430  -0.791   5.021  0.00  0.00     0.010 A 
ATOM      3  C2  UNL d   1       1.842  -2.021   4.505  0.00  0.00     0.041 A 
ATOM      4  C3  UNL d   1       2.177  -2.109   3.139  0.00  0.00    -0.075 A 
ATOM      5  S   UNL d   1       2.708  -3.512   2.288  0.00  0.00     0.015 SA
ATOM      6  C4  UNL d   1       2.841  -2.660   0.818  0.00  0.00     0.022 A 
ATOM      7  C5  UNL d   1       2.493  -1.337   0.955  0.00  0.00     0.026 A 
ATOM      8  C6  UNL d   1       2.105  -0.998   2.295  0.00  0.00    -0.082 A 
ATOM      9  C7  UNL d   1       1.683   0.235   2.848  0.00  0.00     0.045 A 
ENDROOT
TORSDOF 0
ENDMDL
