MODEL 1
REMARK minimizedAffinity -5.15781927
REMARK minimizedRMSD -1
REMARK  0 active torsions:
REMARK  status: ('A' for Active; 'I' for Inactive)
ROOT
ATOM      1  C   UNL d   1      -4.504  -3.958  -1.501  0.00  0.00    -0.002 A 
ATOM      2  C1  UNL d   1      -4.217  -5.311  -1.608  0.00  0.00     0.010 A 
ATOM      3  C2  UNL d   1      -4.470  -5.999  -2.797  0.00  0.00     0.041 A 
ATOM      4  C3  UNL d   1      -5.020  -5.297  -3.887  0.00  0.00    -0.075 A 
ATOM      5  S   UNL d   1      -5.414  -5.932  -5.441  0.00  0.00     0.015 SA
ATOM      6  C4  UNL d   1      -5.971  -4.421  -5.999  0.00  0.00     0.022 A 
ATOM      7  C5  UNL d   1      -5.867  -3.445  -5.037  0.00  0.00     0.026 A 
ATOM      8  C6  UNL d   1      -5.317  -3.933  -3.804  0.00  0.00    -0.082 A 
ATOM      9  C7  UNL d   1      -5.050  -3.264  -2.585  0.00  0.00     0.045 A 
ENDROOT
TORSDOF 0
ENDMDL
