MODEL 1
REMARK minimizedAffinity 4.12272358
REMARK minimizedRMSD -1
REMARK  0 active torsions:
REMARK  status: ('A' for Active; 'I' for Inactive)
ROOT
ATOM      1  C   UNL d   1      -4.122   2.767  -3.892  0.00  0.00    -0.002 A 
ATOM      2  C1  UNL d   1      -4.471   2.259  -2.649  0.00  0.00     0.010 A 
ATOM      3  C2  UNL d   1      -5.057   0.997  -2.536  0.00  0.00     0.041 A 
ATOM      4  C3  UNL d   1      -5.287   0.245  -3.706  0.00  0.00    -0.075 A 
ATOM      5  S   UNL d   1      -5.991  -1.325  -3.811  0.00  0.00     0.015 SA
ATOM      6  C4  UNL d   1      -5.845  -1.358  -5.509  0.00  0.00     0.022 A 
ATOM      7  C5  UNL d   1      -5.275  -0.208  -6.000  0.00  0.00     0.026 A 
ATOM      8  C6  UNL d   1      -4.943   0.735  -4.969  0.00  0.00    -0.082 A 
ATOM      9  C7  UNL d   1      -4.352   2.019  -5.050  0.00  0.00     0.045 A 
ENDROOT
TORSDOF 0
ENDMDL
