MODEL 1
REMARK minimizedAffinity -2.75073123
REMARK minimizedRMSD -1
REMARK  0 active torsions:
REMARK  status: ('A' for Active; 'I' for Inactive)
ROOT
ATOM      1  O1  BZF d   1      -1.125  -2.539   1.134  0.00  0.00    -0.204 OA
ATOM      2  C2  BZF d   1      -0.748  -3.546   0.266  0.00  0.00     0.174 A 
ATOM      3  C3  BZF d   1      -0.106  -3.038  -0.806  0.00  0.00    -0.012 A 
ATOM      4  C3A BZF d   1       0.001  -1.634  -0.551  0.00  0.00    -0.107 A 
ATOM      5  C4  BZF d   1       0.553  -0.594  -1.242  0.00  0.00     0.055 A 
ATOM      6  C5  BZF d   1       0.423   0.667  -0.751  0.00  0.00    -0.016 A 
ATOM      7  C6  BZF d   1      -0.255   0.924   0.422  0.00  0.00     0.022 A 
ATOM      8  C7  BZF d   1      -0.815  -0.076   1.145  0.00  0.00     0.029 A 
ATOM      9  C7A BZF d   1      -0.658  -1.355   0.669  0.00  0.00     0.058 A 
ENDROOT
TORSDOF 0
ENDMDL
