MODEL 1
REMARK minimizedAffinity -5.57240438
REMARK minimizedRMSD -1
REMARK  0 active torsions:
REMARK  status: ('A' for Active; 'I' for Inactive)
ROOT
ATOM      1  O1  BZF d   1       0.029   0.142  -1.401  0.00  0.00    -0.204 OA
ATOM      2  C2  BZF d   1      -0.316   0.916  -0.310  0.00  0.00     0.174 A 
ATOM      3  C3  BZF d   1      -0.535   0.143   0.774  0.00  0.00    -0.012 A 
ATOM      4  C3A BZF d   1      -0.223  -1.189   0.355  0.00  0.00    -0.107 A 
ATOM      5  C4  BZF d   1      -0.230  -2.399   0.990  0.00  0.00     0.055 A 
ATOM      6  C5  BZF d   1       0.057  -3.520   0.278  0.00  0.00    -0.016 A 
ATOM      7  C6  BZF d   1       0.350  -3.469  -1.070  0.00  0.00     0.022 A 
ATOM      8  C7  BZF d   1       0.374  -2.292  -1.741  0.00  0.00     0.029 A 
ATOM      9  C7A BZF d   1       0.117  -1.154  -1.017  0.00  0.00     0.058 A 
ENDROOT
TORSDOF 0
ENDMDL
