MODEL 1
REMARK minimizedAffinity -2.99827814
REMARK minimizedRMSD -1
REMARK  0 active torsions:
REMARK  status: ('A' for Active; 'I' for Inactive)
ROOT
ATOM      1  O1  BZF d   1      -0.577   0.021   0.706  0.00  0.00    -0.204 OA
ATOM      2  C2  BZF d   1       0.001   0.990  -0.091  0.00  0.00     0.174 A 
ATOM      3  C3  BZF d   1       0.729   0.427  -1.077  0.00  0.00    -0.012 A 
ATOM      4  C3A BZF d   1       0.523  -0.982  -0.939  0.00  0.00    -0.107 A 
ATOM      5  C4  BZF d   1       0.969  -2.068  -1.635  0.00  0.00     0.055 A 
ATOM      6  C5  BZF d   1       0.643  -3.313  -1.198  0.00  0.00    -0.016 A 
ATOM      7  C6  BZF d   1      -0.123  -3.507  -0.067  0.00  0.00     0.022 A 
ATOM      8  C7  BZF d   1      -0.594  -2.460   0.653  0.00  0.00     0.029 A 
ATOM      9  C7A BZF d   1      -0.293  -1.201   0.195  0.00  0.00     0.058 A 
ENDROOT
TORSDOF 0
ENDMDL
