MODEL 1
REMARK minimizedAffinity -6.49947929
REMARK minimizedRMSD -1
REMARK  0 active torsions:
REMARK  status: ('A' for Active; 'I' for Inactive)
ROOT
ATOM      1  O1  BZF d   1       0.268   0.406  -0.941  0.00  0.00    -0.204 OA
ATOM      2  C2  BZF d   1       0.006   0.898   0.323  0.00  0.00     0.174 A 
ATOM      3  C3  BZF d   1      -0.383  -0.093   1.151  0.00  0.00    -0.012 A 
ATOM      4  C3A BZF d   1      -0.274  -1.293   0.380  0.00  0.00    -0.107 A 
ATOM      5  C4  BZF d   1      -0.505  -2.610   0.654  0.00  0.00     0.055 A 
ATOM      6  C5  BZF d   1      -0.373  -3.526  -0.341  0.00  0.00    -0.016 A 
ATOM      7  C6  BZF d   1      -0.017  -3.159  -1.622  0.00  0.00     0.022 A 
ATOM      8  C7  BZF d   1       0.228  -1.864  -1.942  0.00  0.00     0.029 A 
ATOM      9  C7A BZF d   1       0.127  -0.941  -0.930  0.00  0.00     0.058 A 
ENDROOT
TORSDOF 0
ENDMDL
