MODEL 1
REMARK minimizedAffinity -4.31989956
REMARK minimizedRMSD -1
REMARK  0 active torsions:
REMARK  status: ('A' for Active; 'I' for Inactive)
ROOT
ATOM      1  O1  BZF d   1       0.538   0.470  -1.648  0.00  0.00    -0.204 OA
ATOM      2  C2  BZF d   1       0.233   1.078  -0.445  0.00  0.00     0.174 A 
ATOM      3  C3  BZF d   1      -0.198   0.169   0.454  0.00  0.00    -0.012 A 
ATOM      4  C3A BZF d   1      -0.073  -1.097  -0.200  0.00  0.00    -0.107 A 
ATOM      5  C4  BZF d   1      -0.329  -2.382   0.185  0.00  0.00     0.055 A 
ATOM      6  C5  BZF d   1      -0.169  -3.386  -0.718  0.00  0.00    -0.016 A 
ATOM      7  C6  BZF d   1       0.239  -3.140  -2.012  0.00  0.00     0.022 A 
ATOM      8  C7  BZF d   1       0.510  -1.882  -2.439  0.00  0.00     0.029 A 
ATOM      9  C7A BZF d   1       0.382  -0.870  -1.520  0.00  0.00     0.058 A 
ENDROOT
TORSDOF 0
ENDMDL
