MODEL 1
REMARK minimizedAffinity -6.35887003
REMARK minimizedRMSD -1
REMARK  0 active torsions:
REMARK  status: ('A' for Active; 'I' for Inactive)
ROOT
ATOM      1  O1  BZF d   1       0.011   0.282   0.389  0.00  0.00    -0.204 OA
ATOM      2  C2  BZF d   1       0.186   1.082  -0.724  0.00  0.00     0.174 A 
ATOM      3  C3  BZF d   1       0.448   0.334  -1.815  0.00  0.00    -0.012 A 
ATOM      4  C3A BZF d   1       0.344  -1.023  -1.374  0.00  0.00    -0.107 A 
ATOM      5  C4  BZF d   1       0.480  -2.228  -2.003  0.00  0.00     0.055 A 
ATOM      6  C5  BZF d   1       0.388  -3.369  -1.270  0.00  0.00    -0.016 A 
ATOM      7  C6  BZF d   1       0.166  -3.343   0.091  0.00  0.00     0.022 A 
ATOM      8  C7  BZF d   1       0.019  -2.172   0.758  0.00  0.00     0.029 A 
ATOM      9  C7A BZF d   1       0.079  -1.018   0.015  0.00  0.00     0.058 A 
ENDROOT
TORSDOF 0
ENDMDL
