MODEL 1
REMARK minimizedAffinity -5.39726686
REMARK minimizedRMSD -1
REMARK  0 active torsions:
REMARK  status: ('A' for Active; 'I' for Inactive)
ROOT
ATOM      1  O1  BZF d   1      -0.553  -1.515   0.769  0.00  0.00    -0.204 OA
ATOM      2  C2  BZF d   1      -0.717  -2.885   0.821  0.00  0.00     0.174 A 
ATOM      3  C3  BZF d   1      -0.502  -3.439  -0.389  0.00  0.00    -0.012 A 
ATOM      4  C3A BZF d   1      -0.093  -2.357  -1.231  0.00  0.00    -0.107 A 
ATOM      5  C4  BZF d   1       0.276  -2.276  -2.543  0.00  0.00     0.055 A 
ATOM      6  C5  BZF d   1       0.547  -1.056  -3.079  0.00  0.00    -0.016 A 
ATOM      7  C6  BZF d   1       0.453   0.101  -2.334  0.00  0.00     0.022 A 
ATOM      8  C7  BZF d   1       0.096   0.070  -1.027  0.00  0.00     0.029 A 
ATOM      9  C7A BZF d   1      -0.146  -1.164  -0.474  0.00  0.00     0.058 A 
ENDROOT
TORSDOF 0
ENDMDL
