MODEL 1
REMARK minimizedAffinity -5.9297328
REMARK minimizedRMSD -1
REMARK  0 active torsions:
REMARK  status: ('A' for Active; 'I' for Inactive)
ROOT
ATOM      1  O1  BZF d   1       0.424   0.286  -1.650  0.00  0.00    -0.204 OA
ATOM      2  C2  BZF d   1      -0.026   1.189  -0.706  0.00  0.00     0.174 A 
ATOM      3  C3  BZF d   1      -0.475   0.550   0.393  0.00  0.00    -0.012 A 
ATOM      4  C3A BZF d   1      -0.209  -0.836   0.156  0.00  0.00    -0.107 A 
ATOM      5  C4  BZF d   1      -0.414  -1.970   0.889  0.00  0.00     0.055 A 
ATOM      6  C5  BZF d   1      -0.109  -3.175   0.341  0.00  0.00    -0.016 A 
ATOM      7  C6  BZF d   1       0.396  -3.284  -0.938  0.00  0.00     0.022 A 
ATOM      8  C7  BZF d   1       0.621  -2.188  -1.702  0.00  0.00     0.029 A 
ATOM      9  C7A BZF d   1       0.345  -0.966  -1.139  0.00  0.00     0.058 A 
ENDROOT
TORSDOF 0
ENDMDL
