MODEL 1
REMARK minimizedAffinity -0.670873642
REMARK minimizedRMSD -1
REMARK  0 active torsions:
REMARK  status: ('A' for Active; 'I' for Inactive)
ROOT
ATOM      1  O1  BZF d   1       0.279   2.389   1.079  0.00  0.00    -0.204 OA
ATOM      2  C2  BZF d   1       1.073   2.834   0.039  0.00  0.00     0.174 A 
ATOM      3  C3  BZF d   1       1.381   1.820  -0.795  0.00  0.00    -0.012 A 
ATOM      4  C3A BZF d   1       0.663   0.689  -0.294  0.00  0.00    -0.107 A 
ATOM      5  C4  BZF d   1       0.551  -0.609  -0.704  0.00  0.00     0.055 A 
ATOM      6  C5  BZF d   1      -0.171  -1.480   0.049  0.00  0.00    -0.016 A 
ATOM      7  C6  BZF d   1      -0.789  -1.089   1.219  0.00  0.00     0.022 A 
ATOM      8  C7  BZF d   1      -0.710   0.189   1.664  0.00  0.00     0.029 A 
ATOM      9  C7A BZF d   1      -0.008   1.079   0.888  0.00  0.00     0.058 A 
ENDROOT
TORSDOF 0
ENDMDL
