MODEL 1
REMARK minimizedAffinity -6.40107632
REMARK minimizedRMSD -1
REMARK  0 active torsions:
REMARK  status: ('A' for Active; 'I' for Inactive)
ROOT
ATOM      1  O1  BZF d   1      -0.036   0.229  -0.833  0.00  0.00    -0.204 OA
ATOM      2  C2  BZF d   1      -0.302   0.800   0.397  0.00  0.00     0.174 A 
ATOM      3  C3  BZF d   1      -0.453  -0.150   1.343  0.00  0.00    -0.012 A 
ATOM      4  C3A BZF d   1      -0.178  -1.388   0.680  0.00  0.00    -0.107 A 
ATOM      5  C4  BZF d   1      -0.151  -2.689   1.094  0.00  0.00     0.055 A 
ATOM      6  C5  BZF d   1       0.080  -3.668   0.181  0.00  0.00    -0.016 A 
ATOM      7  C6  BZF d   1       0.283  -3.384  -1.154  0.00  0.00     0.022 A 
ATOM      8  C7  BZF d   1       0.270  -2.108  -1.611  0.00  0.00     0.029 A 
ATOM      9  C7A BZF d   1       0.069  -1.114  -0.685  0.00  0.00     0.058 A 
ENDROOT
TORSDOF 0
ENDMDL
