MODEL 1
REMARK minimizedAffinity -4.1336894
REMARK minimizedRMSD -1
REMARK  0 active torsions:
REMARK  status: ('A' for Active; 'I' for Inactive)
ROOT
ATOM      1  O1  BZF d   1       0.651  -0.635   1.475  0.00  0.00    -0.204 OA
ATOM      2  C2  BZF d   1      -0.618  -1.010   1.077  0.00  0.00     0.174 A 
ATOM      3  C3  BZF d   1      -1.207  -0.025   0.369  0.00  0.00    -0.012 A 
ATOM      4  C3A BZF d   1      -0.212   0.995   0.243  0.00  0.00    -0.107 A 
ATOM      5  C4  BZF d   1      -0.191   2.216  -0.369  0.00  0.00     0.055 A 
ATOM      6  C5  BZF d   1       0.913   2.999  -0.244  0.00  0.00    -0.016 A 
ATOM      7  C6  BZF d   1       2.010   2.595   0.488  0.00  0.00     0.022 A 
ATOM      8  C7  BZF d   1       2.038   1.390   1.108  0.00  0.00     0.029 A 
ATOM      9  C7A BZF d   1       0.937   0.583   0.956  0.00  0.00     0.058 A 
ENDROOT
TORSDOF 0
ENDMDL
