MODEL 1
REMARK minimizedAffinity -5.96985626
REMARK minimizedRMSD -1
REMARK  0 active torsions:
REMARK  status: ('A' for Active; 'I' for Inactive)
ROOT
ATOM      1  O1  BZF d   1       0.625  -0.397  -0.911  0.00  0.00    -0.204 OA
ATOM      2  C2  BZF d   1       0.596   0.162   0.352  0.00  0.00     0.174 A 
ATOM      3  C3  BZF d   1       0.122  -0.720   1.255  0.00  0.00    -0.012 A 
ATOM      4  C3A BZF d   1      -0.077  -1.935   0.526  0.00  0.00    -0.107 A 
ATOM      5  C4  BZF d   1      -0.517  -3.179   0.876  0.00  0.00     0.055 A 
ATOM      6  C5  BZF d   1      -0.665  -4.124  -0.089  0.00  0.00    -0.016 A 
ATOM      7  C6  BZF d   1      -0.387  -3.858  -1.414  0.00  0.00     0.022 A 
ATOM      8  C7  BZF d   1       0.057  -2.640  -1.809  0.00  0.00     0.029 A 
ATOM      9  C7A BZF d   1       0.239  -1.693  -0.831  0.00  0.00     0.058 A 
ENDROOT
TORSDOF 0
ENDMDL
