MODEL 1
REMARK minimizedAffinity -2.86792469
REMARK minimizedRMSD -1
REMARK  0 active torsions:
REMARK  status: ('A' for Active; 'I' for Inactive)
ROOT
ATOM      1  O1  BZF d   1      -0.254   1.492   1.452  0.00  0.00    -0.204 OA
ATOM      2  C2  BZF d   1       0.500   2.090   0.461  0.00  0.00     0.174 A 
ATOM      3  C3  BZF d   1       0.955   1.171  -0.414  0.00  0.00    -0.012 A 
ATOM      4  C3A BZF d   1       0.376  -0.068   0.007  0.00  0.00    -0.107 A 
ATOM      5  C4  BZF d   1       0.440  -1.346  -0.472  0.00  0.00     0.055 A 
ATOM      6  C5  BZF d   1      -0.182  -2.340   0.213  0.00  0.00    -0.016 A 
ATOM      7  C6  BZF d   1      -0.872  -2.095   1.383  0.00  0.00     0.022 A 
ATOM      8  C7  BZF d   1      -0.968  -0.843   1.894  0.00  0.00     0.029 A 
ATOM      9  C7A BZF d   1      -0.368   0.169   1.186  0.00  0.00     0.058 A 
ENDROOT
TORSDOF 0
ENDMDL
