MODEL 1
REMARK minimizedAffinity -4.56896782
REMARK minimizedRMSD -1
REMARK  0 active torsions:
REMARK  status: ('A' for Active; 'I' for Inactive)
ROOT
ATOM      1  O1  BZF d   1       0.401  -1.608  -2.287  0.00  0.00    -0.204 OA
ATOM      2  C2  BZF d   1       0.353  -2.978  -2.461  0.00  0.00     0.174 A 
ATOM      3  C3  BZF d   1       0.101  -3.600  -1.291  0.00  0.00    -0.012 A 
ATOM      4  C3A BZF d   1      -0.107  -2.549  -0.343  0.00  0.00    -0.107 A 
ATOM      5  C4  BZF d   1      -0.410  -2.532   0.989  0.00  0.00     0.055 A 
ATOM      6  C5  BZF d   1      -0.472  -1.339   1.637  0.00  0.00    -0.016 A 
ATOM      7  C6  BZF d   1      -0.231  -0.147   0.987  0.00  0.00     0.022 A 
ATOM      8  C7  BZF d   1       0.069  -0.113  -0.335  0.00  0.00     0.029 A 
ATOM      9  C7A BZF d   1       0.099  -1.314  -1.000  0.00  0.00     0.058 A 
ENDROOT
TORSDOF 0
ENDMDL
