MODEL 1
REMARK minimizedAffinity -3.80071592
REMARK minimizedRMSD -1
REMARK  0 active torsions:
REMARK  status: ('A' for Active; 'I' for Inactive)
ROOT
ATOM      1  O1  BZF d   1       0.805   0.451  -1.111  0.00  0.00    -0.204 OA
ATOM      2  C2  BZF d   1       0.268   1.536  -0.444  0.00  0.00     0.174 A 
ATOM      3  C3  BZF d   1      -0.548   1.131   0.550  0.00  0.00    -0.012 A 
ATOM      4  C3A BZF d   1      -0.448  -0.297   0.561  0.00  0.00    -0.107 A 
ATOM      5  C4  BZF d   1      -1.012  -1.272   1.333  0.00  0.00     0.055 A 
ATOM      6  C5  BZF d   1      -0.765  -2.574   1.037  0.00  0.00    -0.016 A 
ATOM      7  C6  BZF d   1       0.036  -2.938  -0.026  0.00  0.00     0.022 A 
ATOM      8  C7  BZF d   1       0.622  -2.007  -0.817  0.00  0.00     0.029 A 
ATOM      9  C7A BZF d   1       0.401  -0.689  -0.500  0.00  0.00     0.058 A 
ENDROOT
TORSDOF 0
ENDMDL
