MODEL 1
REMARK minimizedAffinity -5.46571302
REMARK minimizedRMSD -1
REMARK  0 active torsions:
REMARK  status: ('A' for Active; 'I' for Inactive)
ROOT
ATOM      1  O1  BZF d   1       0.270  -1.267  -2.260  0.00  0.00    -0.204 OA
ATOM      2  C2  BZF d   1       0.390  -2.625  -2.483  0.00  0.00     0.174 A 
ATOM      3  C3  BZF d   1       0.114  -3.320  -1.360  0.00  0.00    -0.012 A 
ATOM      4  C3A BZF d   1      -0.287  -2.339  -0.399  0.00  0.00    -0.107 A 
ATOM      5  C4  BZF d   1      -0.699  -2.411   0.901  0.00  0.00     0.055 A 
ATOM      6  C5  BZF d   1      -0.946  -1.261   1.580  0.00  0.00    -0.016 A 
ATOM      7  C6  BZF d   1      -0.788  -0.022   0.994  0.00  0.00     0.022 A 
ATOM      8  C7  BZF d   1      -0.387   0.100  -0.295  0.00  0.00     0.029 A 
ATOM      9  C7A BZF d   1      -0.168  -1.062  -0.995  0.00  0.00     0.058 A 
ENDROOT
TORSDOF 0
ENDMDL
