MODEL 1
REMARK minimizedAffinity -6.0561738
REMARK minimizedRMSD -1
REMARK  0 active torsions:
REMARK  status: ('A' for Active; 'I' for Inactive)
ROOT
ATOM      1  O1  BZF d   1       0.241  -0.077  -1.115  0.00  0.00    -0.204 OA
ATOM      2  C2  BZF d   1      -0.176   0.423   0.103  0.00  0.00     0.174 A 
ATOM      3  C3  BZF d   1      -0.619  -0.570   0.901  0.00  0.00    -0.012 A 
ATOM      4  C3A BZF d   1      -0.384  -1.776   0.168  0.00  0.00    -0.107 A 
ATOM      5  C4  BZF d   1      -0.598  -3.097   0.440  0.00  0.00     0.055 A 
ATOM      6  C5  BZF d   1      -0.325  -4.021  -0.519  0.00  0.00    -0.016 A 
ATOM      7  C6  BZF d   1       0.157  -3.659  -1.760  0.00  0.00     0.022 A 
ATOM      8  C7  BZF d   1       0.390  -2.362  -2.074  0.00  0.00     0.029 A 
ATOM      9  C7A BZF d   1       0.147  -1.428  -1.096  0.00  0.00     0.058 A 
ENDROOT
TORSDOF 0
ENDMDL
