MODEL 1
REMARK minimizedAffinity -6.12682247
REMARK minimizedRMSD -1
REMARK  0 active torsions:
REMARK  status: ('A' for Active; 'I' for Inactive)
ROOT
ATOM      1  O1  BZF d   1      -0.040  -1.262  -2.378  0.00  0.00    -0.204 OA
ATOM      2  C2  BZF d   1      -0.120  -2.620  -2.619  0.00  0.00     0.174 A 
ATOM      3  C3  BZF d   1      -0.234  -3.305  -1.463  0.00  0.00    -0.012 A 
ATOM      4  C3A BZF d   1      -0.319  -2.307  -0.441  0.00  0.00    -0.107 A 
ATOM      5  C4  BZF d   1      -0.461  -2.362   0.916  0.00  0.00     0.055 A 
ATOM      6  C5  BZF d   1      -0.436  -1.206   1.631  0.00  0.00    -0.016 A 
ATOM      7  C6  BZF d   1      -0.265   0.020   1.022  0.00  0.00     0.022 A 
ATOM      8  C7  BZF d   1      -0.126   0.126  -0.322  0.00  0.00     0.029 A 
ATOM      9  C7A BZF d   1      -0.184  -1.038  -1.050  0.00  0.00     0.058 A 
ENDROOT
TORSDOF 0
ENDMDL
