MODEL 1
REMARK minimizedAffinity -4.06096411
REMARK minimizedRMSD -1
REMARK  0 active torsions:
REMARK  status: ('A' for Active; 'I' for Inactive)
ROOT
ATOM      1  C   UNL d   1      -0.549  -1.659   0.344  0.00  0.00     0.078 C 
ATOM      2  C1  UNL d   1      -0.135  -0.220   0.409  0.00  0.00    -0.077 A 
ATOM      3  C2  UNL d   1      -1.076   0.793   0.630  0.00  0.00    -0.001 A 
ATOM      4  C3  UNL d   1      -0.677   2.129   0.678  0.00  0.00     0.003 A 
ATOM      5  C4  UNL d   1       0.664   2.466   0.505  0.00  0.00    -0.005 A 
ATOM      6  C5  UNL d   1       1.607   1.466   0.282  0.00  0.00     0.003 A 
ATOM      7  C6  UNL d   1       1.211   0.129   0.233  0.00  0.00    -0.001 A 
ENDROOT
TORSDOF 0
ENDMDL
