MODEL 1
REMARK minimizedAffinity -1.02291262
REMARK minimizedRMSD -1
REMARK  0 active torsions:
REMARK  status: ('A' for Active; 'I' for Inactive)
ROOT
ATOM      1  C   UNL d   1      -0.735  -2.705  -1.003  0.00  0.00     0.078 C 
ATOM      2  C1  UNL d   1      -0.477  -1.368  -0.376  0.00  0.00    -0.077 A 
ATOM      3  C2  UNL d   1      -1.399  -0.322  -0.502  0.00  0.00    -0.001 A 
ATOM      4  C3  UNL d   1      -1.142   0.921   0.079  0.00  0.00     0.003 A 
ATOM      5  C4  UNL d   1       0.038   1.130   0.789  0.00  0.00    -0.005 A 
ATOM      6  C5  UNL d   1       0.963   0.096   0.919  0.00  0.00     0.003 A 
ATOM      7  C6  UNL d   1       0.707  -1.148   0.338  0.00  0.00    -0.001 A 
ENDROOT
TORSDOF 0
ENDMDL
