MODEL 1
REMARK minimizedAffinity -5.78591061
REMARK minimizedRMSD -1
REMARK  0 active torsions:
REMARK  status: ('A' for Active; 'I' for Inactive)
ROOT
ATOM      1  C   UNL d   1      -2.032   3.104   3.197  0.00  0.00     0.078 C 
ATOM      2  C1  UNL d   1      -1.375   2.488   1.998  0.00  0.00    -0.077 A 
ATOM      3  C2  UNL d   1      -0.376   3.170   1.293  0.00  0.00    -0.001 A 
ATOM      4  C3  UNL d   1       0.220   2.588   0.173  0.00  0.00     0.003 A 
ATOM      5  C4  UNL d   1      -0.178   1.321  -0.252  0.00  0.00    -0.005 A 
ATOM      6  C5  UNL d   1      -1.173   0.636   0.442  0.00  0.00     0.003 A 
ATOM      7  C6  UNL d   1      -1.770   1.217   1.562  0.00  0.00    -0.001 A 
ENDROOT
TORSDOF 0
ENDMDL
