MODEL 1
REMARK minimizedAffinity -4.21783924
REMARK minimizedRMSD -1
REMARK  0 active torsions:
REMARK  status: ('A' for Active; 'I' for Inactive)
ROOT
ATOM      1  C   UNL d   1      -0.192  -1.172   0.043  0.00  0.00     0.078 C 
ATOM      2  C1  UNL d   1      -0.173   0.327   0.038  0.00  0.00    -0.077 A 
ATOM      3  C2  UNL d   1       0.753   1.034  -0.739  0.00  0.00    -0.001 A 
ATOM      4  C3  UNL d   1       0.765   2.430  -0.726  0.00  0.00     0.003 A 
ATOM      5  C4  UNL d   1      -0.145   3.131   0.063  0.00  0.00    -0.005 A 
ATOM      6  C5  UNL d   1      -1.068   2.436   0.841  0.00  0.00     0.003 A 
ATOM      7  C6  UNL d   1      -1.082   1.040   0.830  0.00  0.00    -0.001 A 
ENDROOT
TORSDOF 0
ENDMDL
