MODEL 1
REMARK minimizedAffinity -3.3629539
REMARK minimizedRMSD -1
REMARK  0 active torsions:
REMARK  status: ('A' for Active; 'I' for Inactive)
ROOT
ATOM      1  C   UNL d   1      -3.317  -3.449  -1.537  0.00  0.00     0.078 C 
ATOM      2  C1  UNL d   1      -1.931  -2.878  -1.566  0.00  0.00    -0.077 A 
ATOM      3  C2  UNL d   1      -1.104  -3.047  -2.683  0.00  0.00    -0.001 A 
ATOM      4  C3  UNL d   1       0.187  -2.518  -2.693  0.00  0.00     0.003 A 
ATOM      5  C4  UNL d   1       0.665  -1.818  -1.587  0.00  0.00    -0.005 A 
ATOM      6  C5  UNL d   1      -0.149  -1.646  -0.470  0.00  0.00     0.003 A 
ATOM      7  C6  UNL d   1      -1.441  -2.174  -0.458  0.00  0.00    -0.001 A 
ENDROOT
TORSDOF 0
ENDMDL
