MODEL 1
REMARK minimizedAffinity -4.65644026
REMARK minimizedRMSD -1
REMARK  0 active torsions:
REMARK  status: ('A' for Active; 'I' for Inactive)
ROOT
ATOM      1  C   UNL d   1      -0.646  -1.794  -0.067  0.00  0.00     0.078 C 
ATOM      2  C1  UNL d   1      -0.431  -0.310  -0.024  0.00  0.00    -0.077 A 
ATOM      3  C2  UNL d   1      -1.399   0.543   0.521  0.00  0.00    -0.001 A 
ATOM      4  C3  UNL d   1      -1.190   1.923   0.546  0.00  0.00     0.003 A 
ATOM      5  C4  UNL d   1      -0.015   2.462   0.026  0.00  0.00    -0.005 A 
ATOM      6  C5  UNL d   1       0.953   1.621  -0.520  0.00  0.00     0.003 A 
ATOM      7  C6  UNL d   1       0.746   0.241  -0.546  0.00  0.00    -0.001 A 
ENDROOT
TORSDOF 0
ENDMDL
