MODEL 1
REMARK minimizedAffinity 4.39254522
REMARK minimizedRMSD -1
REMARK  0 active torsions:
REMARK  status: ('A' for Active; 'I' for Inactive)
ROOT
ATOM      1  C   UNL d   1       2.424   2.419   0.524  0.00  0.00     0.078 C 
ATOM      2  C1  UNL d   1       0.935   2.499   0.680  0.00  0.00    -0.077 A 
ATOM      3  C2  UNL d   1       0.311   2.083   1.863  0.00  0.00    -0.001 A 
ATOM      4  C3  UNL d   1      -1.077   2.154   1.991  0.00  0.00     0.003 A 
ATOM      5  C4  UNL d   1      -1.853   2.639   0.940  0.00  0.00    -0.005 A 
ATOM      6  C5  UNL d   1      -1.241   3.053  -0.242  0.00  0.00     0.003 A 
ATOM      7  C6  UNL d   1       0.147   2.983  -0.372  0.00  0.00    -0.001 A 
ENDROOT
TORSDOF 0
ENDMDL
