MODEL 1
REMARK minimizedAffinity 1.6633172
REMARK minimizedRMSD -1
REMARK  0 active torsions:
REMARK  status: ('A' for Active; 'I' for Inactive)
ROOT
ATOM      1  C   UNL d   1      -0.752   2.555   0.422  0.00  0.00     0.078 C 
ATOM      2  C1  UNL d   1       0.715   2.319   0.626  0.00  0.00    -0.077 A 
ATOM      3  C2  UNL d   1       1.533   3.307   1.187  0.00  0.00    -0.001 A 
ATOM      4  C3  UNL d   1       2.899   3.077   1.363  0.00  0.00     0.003 A 
ATOM      5  C4  UNL d   1       3.458   1.860   0.980  0.00  0.00    -0.005 A 
ATOM      6  C5  UNL d   1       2.652   0.871   0.419  0.00  0.00     0.003 A 
ATOM      7  C6  UNL d   1       1.287   1.099   0.242  0.00  0.00    -0.001 A 
ENDROOT
TORSDOF 0
ENDMDL
