MODEL 1
REMARK minimizedAffinity -3.06077051
REMARK minimizedRMSD -1
REMARK  0 active torsions:
REMARK  status: ('A' for Active; 'I' for Inactive)
ROOT
ATOM      1  C   UNL d   1       2.861   1.160   0.882  0.00  0.00     0.078 C 
ATOM      2  C1  UNL d   1       1.425   0.745   0.769  0.00  0.00    -0.077 A 
ATOM      3  C2  UNL d   1       1.066  -0.608   0.735  0.00  0.00    -0.001 A 
ATOM      4  C3  UNL d   1      -0.275  -0.980   0.620  0.00  0.00     0.003 A 
ATOM      5  C4  UNL d   1      -1.267  -0.005   0.536  0.00  0.00    -0.005 A 
ATOM      6  C5  UNL d   1      -0.919   1.344   0.566  0.00  0.00     0.003 A 
ATOM      7  C6  UNL d   1       0.421   1.718   0.682  0.00  0.00    -0.001 A 
ENDROOT
TORSDOF 0
ENDMDL
