MODEL 1
REMARK minimizedAffinity -5.47735882
REMARK minimizedRMSD -1
REMARK  0 active torsions:
REMARK  status: ('A' for Active; 'I' for Inactive)
ROOT
ATOM      1  C   UNL d   1       0.035  -0.954   0.429  0.00  0.00     0.078 C 
ATOM      2  C1  UNL d   1       0.401   0.497   0.340  0.00  0.00    -0.077 A 
ATOM      3  C2  UNL d   1       1.738   0.908   0.399  0.00  0.00    -0.001 A 
ATOM      4  C3  UNL d   1       2.064   2.263   0.324  0.00  0.00     0.003 A 
ATOM      5  C4  UNL d   1       1.058   3.218   0.192  0.00  0.00    -0.005 A 
ATOM      6  C5  UNL d   1      -0.276   2.819   0.135  0.00  0.00     0.003 A 
ATOM      7  C6  UNL d   1      -0.603   1.464   0.209  0.00  0.00    -0.001 A 
ENDROOT
TORSDOF 0
ENDMDL
