MODEL 1
REMARK minimizedAffinity -4.93316364
REMARK minimizedRMSD -1
REMARK  0 active torsions:
REMARK  status: ('A' for Active; 'I' for Inactive)
ROOT
ATOM      1  C   UNL d   1      -2.262  -2.839  -2.263  0.00  0.00     0.078 C 
ATOM      2  C1  UNL d   1      -1.449  -2.031  -1.296  0.00  0.00    -0.077 A 
ATOM      3  C2  UNL d   1      -1.181  -2.506  -0.006  0.00  0.00    -0.001 A 
ATOM      4  C3  UNL d   1      -0.431  -1.739   0.886  0.00  0.00     0.003 A 
ATOM      5  C4  UNL d   1       0.056  -0.492   0.499  0.00  0.00    -0.005 A 
ATOM      6  C5  UNL d   1      -0.207  -0.011  -0.781  0.00  0.00     0.003 A 
ATOM      7  C6  UNL d   1      -0.957  -0.776  -1.675  0.00  0.00    -0.001 A 
ENDROOT
TORSDOF 0
ENDMDL
