MODEL 1
REMARK minimizedAffinity -4.91265965
REMARK minimizedRMSD -1
REMARK  0 active torsions:
REMARK  status: ('A' for Active; 'I' for Inactive)
ROOT
ATOM      1  C   UNL d   1       0.280  -0.754   0.150  0.00  0.00     0.078 C 
ATOM      2  C1  UNL d   1       0.496   0.730   0.171  0.00  0.00    -0.077 A 
ATOM      3  C2  UNL d   1       1.777   1.274   0.014  0.00  0.00    -0.001 A 
ATOM      4  C3  UNL d   1       1.965   2.657   0.046  0.00  0.00     0.003 A 
ATOM      5  C4  UNL d   1       0.878   3.507   0.236  0.00  0.00    -0.005 A 
ATOM      6  C5  UNL d   1      -0.400   2.974   0.395  0.00  0.00     0.003 A 
ATOM      7  C6  UNL d   1      -0.590   1.592   0.363  0.00  0.00    -0.001 A 
ENDROOT
TORSDOF 0
ENDMDL
