MODEL 1
REMARK minimizedAffinity 17.1924496
REMARK minimizedRMSD -1
REMARK  0 active torsions:
REMARK  status: ('A' for Active; 'I' for Inactive)
ROOT
ATOM      1  O1  BZF d   1      -0.788  -5.976  -3.546  0.00  0.00    -0.204 OA
ATOM      2  C2  BZF d   1      -0.605  -5.995  -4.915  0.00  0.00     0.174 A 
ATOM      3  C3  BZF d   1       0.707  -5.952  -5.223  0.00  0.00    -0.012 A 
ATOM      4  C3A BZF d   1       1.391  -5.995  -3.967  0.00  0.00    -0.107 A 
ATOM      5  C4  BZF d   1       2.710  -5.998  -3.615  0.00  0.00     0.055 A 
ATOM      6  C5  BZF d   1       3.043  -5.972  -2.298  0.00  0.00    -0.016 A 
ATOM      7  C6  BZF d   1       2.084  -5.939  -1.307  0.00  0.00     0.022 A 
ATOM      8  C7  BZF d   1       0.762  -5.941  -1.607  0.00  0.00     0.029 A 
ATOM      9  C7A BZF d   1       0.422  -6.000  -2.936  0.00  0.00     0.058 A 
ENDROOT
TORSDOF 0
ENDMDL
