MODEL 1
REMARK minimizedAffinity 9.09693527
REMARK minimizedRMSD -1
REMARK  0 active torsions:
REMARK  status: ('A' for Active; 'I' for Inactive)
ROOT
ATOM      1  O1  BZF d   1       1.839   4.942   0.403  0.00  0.00    -0.204 OA
ATOM      2  C2  BZF d   1       0.664   4.704  -0.283  0.00  0.00     0.174 A 
ATOM      3  C3  BZF d   1      -0.110   3.825   0.385  0.00  0.00    -0.012 A 
ATOM      4  C3A BZF d   1       0.586   3.563   1.607  0.00  0.00    -0.107 A 
ATOM      5  C4  BZF d   1       0.314   2.782   2.694  0.00  0.00     0.055 A 
ATOM      6  C5  BZF d   1       1.236   2.691   3.689  0.00  0.00    -0.016 A 
ATOM      7  C6  BZF d   1       2.440   3.361   3.627  0.00  0.00     0.022 A 
ATOM      8  C7  BZF d   1       2.752   4.152   2.572  0.00  0.00     0.029 A 
ATOM      9  C7A BZF d   1       1.809   4.273   1.580  0.00  0.00     0.058 A 
ENDROOT
TORSDOF 0
ENDMDL
