MODEL 1
REMARK minimizedAffinity 9.54391193
REMARK minimizedRMSD -1
REMARK  0 active torsions:
REMARK  status: ('A' for Active; 'I' for Inactive)
ROOT
ATOM      1  O1  BZF d   1       0.684   4.544  -1.600  0.00  0.00    -0.204 OA
ATOM      2  C2  BZF d   1       0.685   5.867  -1.204  0.00  0.00     0.174 A 
ATOM      3  C3  BZF d   1       0.317   5.980   0.089  0.00  0.00    -0.012 A 
ATOM      4  C3A BZF d   1       0.161   4.636   0.554  0.00  0.00    -0.107 A 
ATOM      5  C4  BZF d   1      -0.178   4.094   1.761  0.00  0.00     0.055 A 
ATOM      6  C5  BZF d   1      -0.314   2.746   1.864  0.00  0.00    -0.016 A 
ATOM      7  C6  BZF d   1      -0.123   1.912   0.782  0.00  0.00     0.022 A 
ATOM      8  C7  BZF d   1       0.219   2.403  -0.434  0.00  0.00     0.029 A 
ATOM      9  C7A BZF d   1       0.389   3.762  -0.534  0.00  0.00     0.058 A 
ENDROOT
TORSDOF 0
ENDMDL
