MODEL 1
REMARK minimizedAffinity 13.9095688
REMARK minimizedRMSD -1
REMARK  0 active torsions:
REMARK  status: ('A' for Active; 'I' for Inactive)
ROOT
ATOM      1  O1  BZF d   1       0.757   4.717  -1.370  0.00  0.00    -0.204 OA
ATOM      2  C2  BZF d   1       0.454   6.000  -0.957  0.00  0.00     0.174 A 
ATOM      3  C3  BZF d   1       0.007   5.999   0.316  0.00  0.00    -0.012 A 
ATOM      4  C3A BZF d   1       0.121   4.642   0.754  0.00  0.00    -0.107 A 
ATOM      5  C4  BZF d   1      -0.152   4.010   1.934  0.00  0.00     0.055 A 
ATOM      6  C5  BZF d   1       0.000   2.662   2.011  0.00  0.00    -0.016 A 
ATOM      7  C6  BZF d   1       0.418   1.915   0.930  0.00  0.00     0.022 A 
ATOM      8  C7  BZF d   1       0.706   2.498  -0.259  0.00  0.00     0.029 A 
ATOM      9  C7A BZF d   1       0.585   3.864  -0.332  0.00  0.00     0.058 A 
ENDROOT
TORSDOF 0
ENDMDL
