MODEL 1
REMARK minimizedAffinity 6.9609108
REMARK minimizedRMSD -1
REMARK  0 active torsions:
REMARK  status: ('A' for Active; 'I' for Inactive)
ROOT
ATOM      1  O1  BZF d   1       4.118  -1.156  -1.686  0.00  0.00    -0.204 OA
ATOM      2  C2  BZF d   1       2.979  -0.818  -0.981  0.00  0.00     0.174 A 
ATOM      3  C3  BZF d   1       2.706  -1.745  -0.041  0.00  0.00    -0.012 A 
ATOM      4  C3A BZF d   1       3.791  -2.677  -0.105  0.00  0.00    -0.107 A 
ATOM      5  C4  BZF d   1       4.097  -3.811   0.592  0.00  0.00     0.055 A 
ATOM      6  C5  BZF d   1       5.192  -4.530   0.234  0.00  0.00    -0.016 A 
ATOM      7  C6  BZF d   1       6.000  -4.149  -0.817  0.00  0.00     0.022 A 
ATOM      8  C7  BZF d   1       5.739  -3.029  -1.535  0.00  0.00     0.029 A 
ATOM      9  C7A BZF d   1       4.652  -2.282  -1.154  0.00  0.00     0.058 A 
ENDROOT
TORSDOF 0
ENDMDL
