MODEL 1
REMARK minimizedAffinity 14.7469063
REMARK minimizedRMSD -1
REMARK  0 active torsions:
REMARK  status: ('A' for Active; 'I' for Inactive)
ROOT
ATOM      1  O1  BZF d   1       5.939  -2.622  -3.970  0.00  0.00    -0.204 OA
ATOM      2  C2  BZF d   1       5.358  -3.697  -4.615  0.00  0.00     0.174 A 
ATOM      3  C3  BZF d   1       4.728  -4.500  -3.734  0.00  0.00    -0.012 A 
ATOM      4  C3A BZF d   1       4.848  -3.840  -2.470  0.00  0.00    -0.107 A 
ATOM      5  C4  BZF d   1       4.411  -4.137  -1.211  0.00  0.00     0.055 A 
ATOM      6  C5  BZF d   1       4.759  -3.321  -0.182  0.00  0.00    -0.016 A 
ATOM      7  C6  BZF d   1       5.547  -2.205  -0.374  0.00  0.00     0.022 A 
ATOM      8  C7  BZF d   1       6.000  -1.867  -1.606  0.00  0.00     0.029 A 
ATOM      9  C7A BZF d   1       5.622  -2.671  -2.653  0.00  0.00     0.058 A 
ENDROOT
TORSDOF 0
ENDMDL
