MODEL 1
REMARK minimizedAffinity 14.6479359
REMARK minimizedRMSD -1
REMARK  0 active torsions:
REMARK  status: ('A' for Active; 'I' for Inactive)
ROOT
ATOM      1  O1  BZF d   1      -0.910   3.340   2.807  0.00  0.00    -0.204 OA
ATOM      2  C2  BZF d   1      -0.240   2.144   2.639  0.00  0.00     0.174 A 
ATOM      3  C3  BZF d   1       0.400   2.116   1.452  0.00  0.00    -0.012 A 
ATOM      4  C3A BZF d   1       0.188   3.410   0.880  0.00  0.00    -0.107 A 
ATOM      5  C4  BZF d   1       0.590   3.999  -0.285  0.00  0.00     0.055 A 
ATOM      6  C5  BZF d   1       0.151   5.251  -0.577  0.00  0.00    -0.016 A 
ATOM      7  C6  BZF d   1      -0.692   5.941   0.269  0.00  0.00     0.022 A 
ATOM      8  C7  BZF d   1      -1.113   5.401   1.438  0.00  0.00     0.029 A 
ATOM      9  C7A BZF d   1      -0.645   4.148   1.752  0.00  0.00     0.058 A 
ENDROOT
TORSDOF 0
ENDMDL
