MODEL 1
REMARK minimizedAffinity 10.696229
REMARK minimizedRMSD -1
REMARK  0 active torsions:
REMARK  status: ('A' for Active; 'I' for Inactive)
ROOT
ATOM      1  O1  BZF d   1       0.362   4.406  -2.113  0.00  0.00    -0.204 OA
ATOM      2  C2  BZF d   1      -0.344   5.278  -2.920  0.00  0.00     0.174 A 
ATOM      3  C3  BZF d   1      -1.220   6.000  -2.192  0.00  0.00    -0.012 A 
ATOM      4  C3A BZF d   1      -0.987   5.617  -0.834  0.00  0.00    -0.107 A 
ATOM      5  C4  BZF d   1      -1.536   5.999   0.357  0.00  0.00     0.055 A 
ATOM      6  C5  BZF d   1      -1.135   5.379   1.498  0.00  0.00    -0.016 A 
ATOM      7  C6  BZF d   1      -0.193   4.371   1.485  0.00  0.00     0.022 A 
ATOM      8  C7  BZF d   1       0.383   3.961   0.328  0.00  0.00     0.029 A 
ATOM      9  C7A BZF d   1       0.005   4.608  -0.822  0.00  0.00     0.058 A 
ENDROOT
TORSDOF 0
ENDMDL
