MODEL 1
REMARK minimizedAffinity 3.81030273
REMARK minimizedRMSD -1
REMARK  0 active torsions:
REMARK  status: ('A' for Active; 'I' for Inactive)
ROOT
ATOM      1  O1  BZF d   1      -0.702   3.904   2.950  0.00  0.00    -0.204 OA
ATOM      2  C2  BZF d   1      -0.177   2.626   2.950  0.00  0.00     0.174 A 
ATOM      3  C3  BZF d   1       0.349   2.325   1.745  0.00  0.00    -0.012 A 
ATOM      4  C3A BZF d   1       0.223   3.521   0.970  0.00  0.00    -0.107 A 
ATOM      5  C4  BZF d   1       0.578   3.856  -0.306  0.00  0.00     0.055 A 
ATOM      6  C5  BZF d   1       0.246   5.084  -0.783  0.00  0.00    -0.016 A 
ATOM      7  C6  BZF d   1      -0.443   5.999  -0.016  0.00  0.00     0.022 A 
ATOM      8  C7  BZF d   1      -0.813   5.715   1.257  0.00  0.00     0.029 A 
ATOM      9  C7A BZF d   1      -0.450   4.487   1.753  0.00  0.00     0.058 A 
ENDROOT
TORSDOF 0
ENDMDL
