MODEL 1
REMARK minimizedAffinity 9.50997925
REMARK minimizedRMSD -1
REMARK  0 active torsions:
REMARK  status: ('A' for Active; 'I' for Inactive)
ROOT
ATOM      1  O1  BZF d   1      -0.240   4.721  -1.576  0.00  0.00    -0.204 OA
ATOM      2  C2  BZF d   1      -0.109   6.000  -1.070  0.00  0.00     0.174 A 
ATOM      3  C3  BZF d   1       0.124   5.967   0.258  0.00  0.00    -0.012 A 
ATOM      4  C3A BZF d   1       0.231   4.579   0.587  0.00  0.00    -0.107 A 
ATOM      5  C4  BZF d   1       0.473   3.907   1.751  0.00  0.00     0.055 A 
ATOM      6  C5  BZF d   1       0.440   2.548   1.748  0.00  0.00    -0.016 A 
ATOM      7  C6  BZF d   1       0.163   1.831   0.602  0.00  0.00     0.022 A 
ATOM      8  C7  BZF d   1      -0.079   2.454  -0.577  0.00  0.00     0.029 A 
ATOM      9  C7A BZF d   1      -0.013   3.826  -0.584  0.00  0.00     0.058 A 
ENDROOT
TORSDOF 0
ENDMDL
