MODEL 1
REMARK minimizedAffinity -3.14093781
REMARK minimizedRMSD -1
REMARK  2 active torsions:
REMARK  status: ('A' for Active; 'I' for Inactive)
REMARK    1  A    between atoms: C2'_3  and  C1'_4 
REMARK    2  A    between atoms: C1'_4  and  C1_5 
ROOT
ATOM      1  C1  I4B d   1       0.447  -0.298   0.555  0.00  0.00    -0.075 A 
ATOM      2  C2  I4B d   1      -0.008  -1.190   1.493  0.00  0.00     0.003 A 
ATOM      3  C3  I4B d   1      -1.377  -1.552   1.527  0.00  0.00     0.002 A 
ATOM      4  C4  I4B d   1      -2.258  -0.963   0.644  0.00  0.00    -0.004 A 
ATOM      5  C5  I4B d   1      -1.791  -0.075  -0.321  0.00  0.00     0.002 A 
ATOM      6  C6  I4B d   1      -0.428   0.250  -0.374  0.00  0.00     0.003 A 
ENDROOT
BRANCH   1   7
ATOM      7  C1' I4B d   1       1.892   0.087   0.568  0.00  0.00     0.060 C 
BRANCH   7   8
ATOM      8  C2' I4B d   1       1.986   1.535   1.005  0.00  0.00    -0.013 C 
ATOM      9  C4' I4B d   1       2.333   1.642   2.467  0.00  0.00     0.013 C 
ATOM     10  C3' I4B d   1       3.018   2.210   0.152  0.00  0.00     0.013 C 
ENDBRANCH   7   8
ENDBRANCH   1   7
TORSDOF 2
ENDMDL
