MODEL 1
REMARK minimizedAffinity -2.71777678
REMARK minimizedRMSD -1
REMARK  2 active torsions:
REMARK  status: ('A' for Active; 'I' for Inactive)
REMARK    1  A    between atoms: C2'_3  and  C1'_4 
REMARK    2  A    between atoms: C1'_4  and  C1_5 
ROOT
ATOM      1  C1  I4B d   1       1.482   1.199   0.304  0.00  0.00    -0.075 A 
ATOM      2  C2  I4B d   1       1.288   1.519   1.625  0.00  0.00     0.003 A 
ATOM      3  C3  I4B d   1       1.906   2.667   2.178  0.00  0.00     0.002 A 
ATOM      4  C4  I4B d   1       2.743   3.433   1.393  0.00  0.00    -0.004 A 
ATOM      5  C5  I4B d   1       2.920   3.120   0.048  0.00  0.00     0.002 A 
ATOM      6  C6  I4B d   1       2.276   2.003  -0.503  0.00  0.00     0.003 A 
ENDROOT
BRANCH   1   7
ATOM      7  C1' I4B d   1       0.841  -0.039  -0.239  0.00  0.00     0.060 C 
BRANCH   7   8
ATOM      8  C2' I4B d   1      -0.490  -0.221   0.462  0.00  0.00    -0.013 C 
ATOM      9  C4' I4B d   1      -1.622  -0.298  -0.529  0.00  0.00     0.013 C 
ATOM     10  C3' I4B d   1      -0.409  -1.469   1.290  0.00  0.00     0.013 C 
ENDBRANCH   7   8
ENDBRANCH   1   7
TORSDOF 2
ENDMDL
