MODEL 1
REMARK minimizedAffinity -2.01799035
REMARK minimizedRMSD -1
REMARK  2 active torsions:
REMARK  status: ('A' for Active; 'I' for Inactive)
REMARK    1  A    between atoms: C2'_3  and  C1'_4 
REMARK    2  A    between atoms: C1'_4  and  C1_5 
ROOT
ATOM      1  C1  I4B d   1       0.196   1.848   0.998  0.00  0.00    -0.075 A 
ATOM      2  C2  I4B d   1       1.049   0.848   0.602  0.00  0.00     0.003 A 
ATOM      3  C3  I4B d   1       0.556  -0.459   0.372  0.00  0.00     0.002 A 
ATOM      4  C4  I4B d   1      -0.778  -0.732   0.596  0.00  0.00    -0.004 A 
ATOM      5  C5  I4B d   1      -1.646   0.288   0.975  0.00  0.00     0.002 A 
ATOM      6  C6  I4B d   1      -1.159   1.590   1.165  0.00  0.00     0.003 A 
ENDROOT
BRANCH   1   7
ATOM      7  C1' I4B d   1       0.755   3.210   1.265  0.00  0.00     0.060 C 
BRANCH   7   8
ATOM      8  C2' I4B d   1       2.266   3.098   1.278  0.00  0.00    -0.013 C 
ATOM      9  C4' I4B d   1       2.886   3.952   0.204  0.00  0.00     0.013 C 
ATOM     10  C3' I4B d   1       2.748   3.506   2.639  0.00  0.00     0.013 C 
ENDBRANCH   7   8
ENDBRANCH   1   7
TORSDOF 2
ENDMDL
