MODEL 1
REMARK minimizedAffinity -1.41752398
REMARK minimizedRMSD -1
REMARK  2 active torsions:
REMARK  status: ('A' for Active; 'I' for Inactive)
REMARK    1  A    between atoms: C2'_3  and  C1'_4 
REMARK    2  A    between atoms: C1'_4  and  C1_5 
ROOT
ATOM      1  C1  I4B d   1      -0.035  -0.334  -0.855  0.00  0.00    -0.075 A 
ATOM      2  C2  I4B d   1       0.064  -0.733   0.454  0.00  0.00     0.003 A 
ATOM      3  C3  I4B d   1      -1.072  -1.236   1.134  0.00  0.00     0.002 A 
ATOM      4  C4  I4B d   1      -2.290  -1.275   0.486  0.00  0.00    -0.004 A 
ATOM      5  C5  I4B d   1      -2.383  -0.891  -0.849  0.00  0.00     0.002 A 
ATOM      6  C6  I4B d   1      -1.246  -0.429  -1.528  0.00  0.00     0.003 A 
ENDROOT
BRANCH   1   7
ATOM      7  C1' I4B d   1       1.177   0.223  -1.532  0.00  0.00     0.060 C 
BRANCH   7   8
ATOM      8  C2' I4B d   1       1.767  -0.866  -2.404  0.00  0.00    -0.013 C 
ATOM      9  C4' I4B d   1       1.258  -0.768  -3.819  0.00  0.00     0.013 C 
ATOM     10  C3' I4B d   1       3.260  -0.740  -2.356  0.00  0.00     0.013 C 
ENDBRANCH   7   8
ENDBRANCH   1   7
TORSDOF 2
ENDMDL
