MODEL 1
REMARK minimizedAffinity 0.115576789
REMARK minimizedRMSD -1
REMARK  2 active torsions:
REMARK  status: ('A' for Active; 'I' for Inactive)
REMARK    1  A    between atoms: C2'_3  and  C1'_4 
REMARK    2  A    between atoms: C1'_4  and  C1_5 
ROOT
ATOM      1  C1  I4B d   1       1.426   1.437   0.946  0.00  0.00    -0.075 A 
ATOM      2  C2  I4B d   1       1.972   2.356   0.085  0.00  0.00     0.003 A 
ATOM      3  C3  I4B d   1       2.638   3.498   0.591  0.00  0.00     0.002 A 
ATOM      4  C4  I4B d   1       2.689   3.707   1.954  0.00  0.00    -0.004 A 
ATOM      5  C5  I4B d   1       2.154   2.763   2.826  0.00  0.00     0.002 A 
ATOM      6  C6  I4B d   1       1.529   1.614   2.320  0.00  0.00     0.003 A 
ENDROOT
BRANCH   1   7
ATOM      7  C1' I4B d   1       0.701   0.258   0.377  0.00  0.00     0.060 C 
BRANCH   7   8
ATOM      8  C2' I4B d   1       0.339  -0.665   1.523  0.00  0.00    -0.013 C 
ATOM      9  C4' I4B d   1      -0.933  -1.418   1.234  0.00  0.00     0.013 C 
ATOM     10  C3' I4B d   1       1.487  -1.604   1.742  0.00  0.00     0.013 C 
ENDBRANCH   7   8
ENDBRANCH   1   7
TORSDOF 2
ENDMDL
