MODEL 1
REMARK minimizedAffinity -3.65077138
REMARK minimizedRMSD -1
REMARK  2 active torsions:
REMARK  status: ('A' for Active; 'I' for Inactive)
REMARK    1  A    between atoms: C2'_3  and  C1'_4 
REMARK    2  A    between atoms: C1'_4  and  C1_5 
ROOT
ATOM      1  C1  I4B d   1       0.195   0.104  -1.731  0.00  0.00    -0.075 A 
ATOM      2  C2  I4B d   1       0.495  -0.184  -3.039  0.00  0.00     0.003 A 
ATOM      3  C3  I4B d   1       1.829  -0.465  -3.420  0.00  0.00     0.002 A 
ATOM      4  C4  I4B d   1       2.834  -0.398  -2.476  0.00  0.00    -0.004 A 
ATOM      5  C5  I4B d   1       2.525  -0.129  -1.145  0.00  0.00     0.002 A 
ATOM      6  C6  I4B d   1       1.196   0.112  -0.768  0.00  0.00     0.003 A 
ENDROOT
BRANCH   1   7
ATOM      7  C1' I4B d   1      -1.220   0.428  -1.370  0.00  0.00     0.060 C 
BRANCH   7   8
ATOM      8  C2' I4B d   1      -1.831  -0.800  -0.726  0.00  0.00    -0.013 C 
ATOM      9  C4' I4B d   1      -1.566  -0.828   0.756  0.00  0.00     0.013 C 
ATOM     10  C3' I4B d   1      -3.303  -0.789  -1.014  0.00  0.00     0.013 C 
ENDBRANCH   7   8
ENDBRANCH   1   7
TORSDOF 2
ENDMDL
