MODEL 1
REMARK minimizedAffinity -2.382303
REMARK minimizedRMSD -1
REMARK  2 active torsions:
REMARK  status: ('A' for Active; 'I' for Inactive)
REMARK    1  A    between atoms: C2'_3  and  C1'_4 
REMARK    2  A    between atoms: C1'_4  and  C1_5 
ROOT
ATOM      1  C1  I4B d   1       1.112   0.250   0.202  0.00  0.00    -0.075 A 
ATOM      2  C2  I4B d   1       1.096  -0.711   1.181  0.00  0.00     0.003 A 
ATOM      3  C3  I4B d   1      -0.062  -1.501   1.386  0.00  0.00     0.002 A 
ATOM      4  C4  I4B d   1      -1.190  -1.262   0.628  0.00  0.00    -0.004 A 
ATOM      5  C5  I4B d   1      -1.164  -0.303  -0.380  0.00  0.00     0.002 A 
ATOM      6  C6  I4B d   1      -0.002   0.450  -0.603  0.00  0.00     0.003 A 
ENDROOT
BRANCH   1   7
ATOM      7  C1' I4B d   1       2.340   1.088   0.034  0.00  0.00     0.060 C 
BRANCH   7   8
ATOM      8  C2' I4B d   1       2.141   2.370   0.817  0.00  0.00    -0.013 C 
ATOM      9  C4' I4B d   1       2.596   2.214   2.244  0.00  0.00     0.013 C 
ATOM     10  C3' I4B d   1       2.901   3.459   0.122  0.00  0.00     0.013 C 
ENDBRANCH   7   8
ENDBRANCH   1   7
TORSDOF 2
ENDMDL
