MODEL 1
REMARK minimizedAffinity -4.94069242
REMARK minimizedRMSD -1
REMARK  2 active torsions:
REMARK  status: ('A' for Active; 'I' for Inactive)
REMARK    1  A    between atoms: C2'_3  and  C1'_4 
REMARK    2  A    between atoms: C1'_4  and  C1_5 
ROOT
ATOM      1  C1  I4B d   1      -0.194  -0.073  -1.565  0.00  0.00    -0.075 A 
ATOM      2  C2  I4B d   1       0.530  -0.146  -0.401  0.00  0.00     0.003 A 
ATOM      3  C3  I4B d   1      -0.087  -0.583   0.796  0.00  0.00     0.002 A 
ATOM      4  C4  I4B d   1      -1.433  -0.887   0.795  0.00  0.00    -0.004 A 
ATOM      5  C5  I4B d   1      -2.160  -0.834  -0.390  0.00  0.00     0.002 A 
ATOM      6  C6  I4B d   1      -1.534  -0.436  -1.581  0.00  0.00     0.003 A 
ENDROOT
BRANCH   1   7
ATOM      7  C1' I4B d   1       0.481   0.425  -2.804  0.00  0.00     0.060 C 
BRANCH   7   8
ATOM      8  C2' I4B d   1       1.428  -0.656  -3.285  0.00  0.00    -0.013 C 
ATOM      9  C4' I4B d   1       1.590  -0.612  -4.782  0.00  0.00     0.013 C 
ATOM     10  C3' I4B d   1       2.744  -0.460  -2.592  0.00  0.00     0.013 C 
ENDBRANCH   7   8
ENDBRANCH   1   7
TORSDOF 2
ENDMDL
