MODEL 1
REMARK minimizedAffinity -6.05830002
REMARK minimizedRMSD -1
REMARK  2 active torsions:
REMARK  status: ('A' for Active; 'I' for Inactive)
REMARK    1  A    between atoms: C2'_3  and  C1'_4 
REMARK    2  A    between atoms: C1'_4  and  C1_5 
ROOT
ATOM      1  C1  I4B d   1       0.440   0.215  -0.935  0.00  0.00    -0.075 A 
ATOM      2  C2  I4B d   1       0.139   0.237  -2.274  0.00  0.00     0.003 A 
ATOM      3  C3  I4B d   1       1.150  -0.004  -3.237  0.00  0.00     0.002 A 
ATOM      4  C4  I4B d   1       2.449  -0.212  -2.820  0.00  0.00    -0.004 A 
ATOM      5  C5  I4B d   1       2.748  -0.257  -1.462  0.00  0.00     0.002 A 
ATOM      6  C6  I4B d   1       1.736  -0.055  -0.513  0.00  0.00     0.003 A 
ENDROOT
BRANCH   1   7
ATOM      7  C1' I4B d   1      -0.644   0.506   0.053  0.00  0.00     0.060 C 
BRANCH   7   8
ATOM      8  C2' I4B d   1      -1.460  -0.757   0.237  0.00  0.00    -0.013 C 
ATOM      9  C4' I4B d   1      -1.081  -1.470   1.508  0.00  0.00     0.013 C 
ATOM     10  C3' I4B d   1      -2.910  -0.376   0.241  0.00  0.00     0.013 C 
ENDBRANCH   7   8
ENDBRANCH   1   7
TORSDOF 2
ENDMDL
