MODEL 1
REMARK minimizedAffinity -5.10851383
REMARK minimizedRMSD -1
REMARK  2 active torsions:
REMARK  status: ('A' for Active; 'I' for Inactive)
REMARK    1  A    between atoms: C2'_3  and  C1'_4 
REMARK    2  A    between atoms: C1'_4  and  C1_5 
ROOT
ATOM      1  C1  I4B d   1      -0.850   0.530  -0.088  0.00  0.00    -0.075 A 
ATOM      2  C2  I4B d   1      -1.680   0.043   0.891  0.00  0.00     0.003 A 
ATOM      3  C3  I4B d   1      -2.642  -0.949   0.582  0.00  0.00     0.002 A 
ATOM      4  C4  I4B d   1      -2.773  -1.386  -0.720  0.00  0.00    -0.004 A 
ATOM      5  C5  I4B d   1      -1.916  -0.908  -1.707  0.00  0.00     0.002 A 
ATOM      6  C6  I4B d   1      -0.940   0.047  -1.387  0.00  0.00     0.003 A 
ENDROOT
BRANCH   1   7
ATOM      7  C1' I4B d   1       0.132   1.601   0.266  0.00  0.00     0.060 C 
BRANCH   7   8
ATOM      8  C2' I4B d   1       1.271   0.955   1.029  0.00  0.00    -0.013 C 
ATOM      9  C4' I4B d   1       1.912  -0.145   0.224  0.00  0.00     0.013 C 
ATOM     10  C3' I4B d   1       2.265   2.025   1.370  0.00  0.00     0.013 C 
ENDBRANCH   7   8
ENDBRANCH   1   7
TORSDOF 2
ENDMDL
