MODEL 1
REMARK minimizedAffinity -3.58637261
REMARK minimizedRMSD -1
REMARK  2 active torsions:
REMARK  status: ('A' for Active; 'I' for Inactive)
REMARK    1  A    between atoms: C2'_3  and  C1'_4 
REMARK    2  A    between atoms: C1'_4  and  C1_5 
ROOT
ATOM      1  C1  I4B d   1       0.276  -0.053   0.644  0.00  0.00    -0.075 A 
ATOM      2  C2  I4B d   1      -0.940   0.243   0.080  0.00  0.00     0.003 A 
ATOM      3  C3  I4B d   1      -2.049  -0.613   0.287  0.00  0.00     0.002 A 
ATOM      4  C4  I4B d   1      -1.885  -1.772   1.019  0.00  0.00    -0.004 A 
ATOM      5  C5  I4B d   1      -0.658  -2.058   1.609  0.00  0.00     0.002 A 
ATOM      6  C6  I4B d   1       0.427  -1.187   1.431  0.00  0.00     0.003 A 
ENDROOT
BRANCH   1   7
ATOM      7  C1' I4B d   1       1.434   0.856   0.378  0.00  0.00     0.060 C 
BRANCH   7   8
ATOM      8  C2' I4B d   1       1.597   1.768   1.576  0.00  0.00    -0.013 C 
ATOM      9  C4' I4B d   1       2.732   1.314   2.456  0.00  0.00     0.013 C 
ATOM     10  C3' I4B d   1       1.828   3.161   1.070  0.00  0.00     0.013 C 
ENDBRANCH   7   8
ENDBRANCH   1   7
TORSDOF 2
ENDMDL
