MODEL 1
REMARK minimizedAffinity -1.68360972
REMARK minimizedRMSD -1
REMARK  3 active torsions:
REMARK  status: ('A' for Active; 'I' for Inactive)
REMARK    1  A    between atoms: C3'_2  and  C2'_3 
REMARK    2  A    between atoms: C2'_3  and  C1'_4 
REMARK    3  A    between atoms: C1'_4  and  C1_5 
ROOT
ATOM      1  C1  N4B d   1       0.183  -0.369  -0.697  0.00  0.00    -0.075 A 
ATOM      2  C2  N4B d   1       1.485  -0.698  -1.134  0.00  0.00     0.002 A 
ATOM      3  C3  N4B d   1       1.942  -1.988  -1.020  0.00  0.00     0.002 A 
ATOM      4  C4  N4B d   1       1.125  -2.958  -0.459  0.00  0.00    -0.004 A 
ATOM      5  C5  N4B d   1      -0.141  -2.638  -0.064  0.00  0.00     0.002 A 
ATOM      6  C6  N4B d   1      -0.614  -1.346  -0.175  0.00  0.00     0.002 A 
ENDROOT
BRANCH   1   7
ATOM      7  C1' N4B d   1      -0.330   1.045  -0.722  0.00  0.00     0.057 C 
BRANCH   7   8
ATOM      8  C2' N4B d   1       0.800   1.980  -1.146  0.00  0.00     0.009 C 
BRANCH   8   9
ATOM      9  C3' N4B d   1       1.430   2.685   0.043  0.00  0.00     0.004 C 
ATOM     10  C4' N4B d   1       0.449   3.521   0.809  0.00  0.00     0.003 C 
ENDBRANCH   8   9
ENDBRANCH   7   8
ENDBRANCH   1   7
TORSDOF 3
ENDMDL
