MODEL 1
REMARK minimizedAffinity 7.10839415
REMARK minimizedRMSD -1
REMARK  3 active torsions:
REMARK  status: ('A' for Active; 'I' for Inactive)
REMARK    1  A    between atoms: C3'_2  and  C2'_3 
REMARK    2  A    between atoms: C2'_3  and  C1'_4 
REMARK    3  A    between atoms: C1'_4  and  C1_5 
ROOT
ATOM      1  C1  N4B d   1       1.925   1.115  -4.612  0.00  0.00    -0.075 A 
ATOM      2  C2  N4B d   1       1.308   1.972  -3.675  0.00  0.00     0.002 A 
ATOM      3  C3  N4B d   1       1.234   3.321  -3.924  0.00  0.00     0.002 A 
ATOM      4  C4  N4B d   1       1.785   3.835  -5.088  0.00  0.00    -0.004 A 
ATOM      5  C5  N4B d   1       2.357   2.996  -6.000  0.00  0.00     0.002 A 
ATOM      6  C6  N4B d   1       2.435   1.638  -5.765  0.00  0.00     0.002 A 
ENDROOT
BRANCH   1   7
ATOM      7  C1' N4B d   1       2.106  -0.355  -4.344  0.00  0.00     0.057 C 
BRANCH   7   8
ATOM      8  C2' N4B d   1       1.782  -0.641  -2.881  0.00  0.00     0.009 C 
BRANCH   8   9
ATOM      9  C3' N4B d   1       1.854  -2.124  -2.563  0.00  0.00     0.004 C 
ATOM     10  C4' N4B d   1       1.511  -2.429  -1.135  0.00  0.00     0.003 C 
ENDBRANCH   8   9
ENDBRANCH   7   8
ENDBRANCH   1   7
TORSDOF 3
ENDMDL
