MODEL 1
REMARK minimizedAffinity 1.74219131
REMARK minimizedRMSD -1
REMARK  3 active torsions:
REMARK  status: ('A' for Active; 'I' for Inactive)
REMARK    1  A    between atoms: C3'_2  and  C2'_3 
REMARK    2  A    between atoms: C2'_3  and  C1'_4 
REMARK    3  A    between atoms: C1'_4  and  C1_5 
ROOT
ATOM      1  C1  N4B d   1       1.409  -0.303  -3.425  0.00  0.00    -0.075 A 
ATOM      2  C2  N4B d   1       1.903  -0.735  -2.174  0.00  0.00     0.002 A 
ATOM      3  C3  N4B d   1       1.820  -2.060  -1.823  0.00  0.00     0.002 A 
ATOM      4  C4  N4B d   1       1.232  -2.965  -2.695  0.00  0.00    -0.004 A 
ATOM      5  C5  N4B d   1       0.781  -2.544  -3.911  0.00  0.00     0.002 A 
ATOM      6  C6  N4B d   1       0.861  -1.216  -4.279  0.00  0.00     0.002 A 
ENDROOT
BRANCH   1   7
ATOM      7  C1' N4B d   1       1.400   1.149  -3.817  0.00  0.00     0.057 C 
BRANCH   7   8
ATOM      8  C2' N4B d   1       2.211   1.327  -5.096  0.00  0.00     0.009 C 
BRANCH   8   9
ATOM      9  C3' N4B d   1       2.223   2.772  -5.565  0.00  0.00     0.004 C 
ATOM     10  C4' N4B d   1       1.157   3.602  -4.914  0.00  0.00     0.003 C 
ENDBRANCH   8   9
ENDBRANCH   7   8
ENDBRANCH   1   7
TORSDOF 3
ENDMDL
