MODEL 1
REMARK minimizedAffinity 3.90573835
REMARK minimizedRMSD -1
REMARK  3 active torsions:
REMARK  status: ('A' for Active; 'I' for Inactive)
REMARK    1  A    between atoms: C3'_2  and  C2'_3 
REMARK    2  A    between atoms: C2'_3  and  C1'_4 
REMARK    3  A    between atoms: C1'_4  and  C1_5 
ROOT
ATOM      1  C1  N4B d   1      -0.554  -1.121   0.015  0.00  0.00    -0.075 A 
ATOM      2  C2  N4B d   1       0.295  -0.201  -0.640  0.00  0.00     0.002 A 
ATOM      3  C3  N4B d   1       1.479  -0.629  -1.188  0.00  0.00     0.002 A 
ATOM      4  C4  N4B d   1       1.843  -1.963  -1.078  0.00  0.00    -0.004 A 
ATOM      5  C5  N4B d   1       1.006  -2.850  -0.467  0.00  0.00     0.002 A 
ATOM      6  C6  N4B d   1      -0.189  -2.434   0.085  0.00  0.00     0.002 A 
ENDROOT
BRANCH   1   7
ATOM      7  C1' N4B d   1      -1.817  -0.683   0.704  0.00  0.00     0.057 C 
BRANCH   7   8
ATOM      8  C2' N4B d   1      -1.572  -0.625   2.209  0.00  0.00     0.009 C 
BRANCH   8   9
ATOM      9  C3' N4B d   1      -2.803  -0.160   2.968  0.00  0.00     0.004 C 
ATOM     10  C4' N4B d   1      -3.673  -1.296   3.415  0.00  0.00     0.003 C 
ENDBRANCH   8   9
ENDBRANCH   7   8
ENDBRANCH   1   7
TORSDOF 3
ENDMDL
