MODEL 1
REMARK minimizedAffinity -0.715598047
REMARK minimizedRMSD -1
REMARK  3 active torsions:
REMARK  status: ('A' for Active; 'I' for Inactive)
REMARK    1  A    between atoms: C3'_2  and  C2'_3 
REMARK    2  A    between atoms: C2'_3  and  C1'_4 
REMARK    3  A    between atoms: C1'_4  and  C1_5 
ROOT
ATOM      1  C1  N4B d   1       5.464   2.914   5.280  0.00  0.00    -0.075 A 
ATOM      2  C2  N4B d   1       5.654   2.970   3.882  0.00  0.00     0.002 A 
ATOM      3  C3  N4B d   1       5.775   4.185   3.254  0.00  0.00     0.002 A 
ATOM      4  C4  N4B d   1       5.691   5.353   3.997  0.00  0.00    -0.004 A 
ATOM      5  C5  N4B d   1       5.534   5.289   5.351  0.00  0.00     0.002 A 
ATOM      6  C6  N4B d   1       5.414   4.075   5.996  0.00  0.00     0.002 A 
ENDROOT
BRANCH   1   7
ATOM      7  C1' N4B d   1       5.241   1.612   6.000  0.00  0.00     0.057 C 
BRANCH   7   8
ATOM      8  C2' N4B d   1       5.999   0.503   5.276  0.00  0.00     0.009 C 
BRANCH   8   9
ATOM      9  C3' N4B d   1       5.187  -0.778   5.191  0.00  0.00     0.004 C 
ATOM     10  C4' N4B d   1       5.799  -1.906   5.967  0.00  0.00     0.003 C 
ENDBRANCH   8   9
ENDBRANCH   7   8
ENDBRANCH   1   7
TORSDOF 3
ENDMDL
