MODEL 1
REMARK minimizedAffinity 2.75229096
REMARK minimizedRMSD -1
REMARK  3 active torsions:
REMARK  status: ('A' for Active; 'I' for Inactive)
REMARK    1  A    between atoms: C3'_2  and  C2'_3 
REMARK    2  A    between atoms: C2'_3  and  C1'_4 
REMARK    3  A    between atoms: C1'_4  and  C1_5 
ROOT
ATOM      1  C1  N4B d   1       1.522  -1.910  -2.294  0.00  0.00    -0.075 A 
ATOM      2  C2  N4B d   1       1.183  -2.858  -3.285  0.00  0.00     0.002 A 
ATOM      3  C3  N4B d   1       1.071  -2.469  -4.597  0.00  0.00     0.002 A 
ATOM      4  C4  N4B d   1       1.274  -1.140  -4.938  0.00  0.00    -0.004 A 
ATOM      5  C5  N4B d   1       1.626  -0.236  -3.979  0.00  0.00     0.002 A 
ATOM      6  C6  N4B d   1       1.746  -0.614  -2.656  0.00  0.00     0.002 A 
ENDROOT
BRANCH   1   7
ATOM      7  C1' N4B d   1       1.572  -2.271  -0.834  0.00  0.00     0.057 C 
BRANCH   7   8
ATOM      8  C2' N4B d   1       0.359  -1.673  -0.129  0.00  0.00     0.009 C 
BRANCH   8   9
ATOM      9  C3' N4B d   1      -0.205  -2.611   0.925  0.00  0.00     0.004 C 
ATOM     10  C4' N4B d   1      -1.083  -3.679   0.343  0.00  0.00     0.003 C 
ENDBRANCH   8   9
ENDBRANCH   7   8
ENDBRANCH   1   7
TORSDOF 3
ENDMDL
