MODEL 1
REMARK minimizedAffinity 8.29870987
REMARK minimizedRMSD -1
REMARK  3 active torsions:
REMARK  status: ('A' for Active; 'I' for Inactive)
REMARK    1  A    between atoms: C3'_2  and  C2'_3 
REMARK    2  A    between atoms: C2'_3  and  C1'_4 
REMARK    3  A    between atoms: C1'_4  and  C1_5 
ROOT
ATOM      1  C1  N4B d   1       5.209   0.565   5.301  0.00  0.00    -0.075 A 
ATOM      2  C2  N4B d   1       4.382   0.078   4.266  0.00  0.00     0.002 A 
ATOM      3  C3  N4B d   1       4.381  -1.262   3.962  0.00  0.00     0.002 A 
ATOM      4  C4  N4B d   1       5.209  -2.125   4.663  0.00  0.00    -0.004 A 
ATOM      5  C5  N4B d   1       5.987  -1.650   5.678  0.00  0.00     0.002 A 
ATOM      6  C6  N4B d   1       5.995  -0.307   5.998  0.00  0.00     0.002 A 
ENDROOT
BRANCH   1   7
ATOM      7  C1' N4B d   1       5.308   2.034   5.613  0.00  0.00     0.057 C 
BRANCH   7   8
ATOM      8  C2' N4B d   1       4.925   2.836   4.374  0.00  0.00     0.009 C 
BRANCH   8   9
ATOM      9  C3' N4B d   1       4.635   4.290   4.705  0.00  0.00     0.004 C 
ATOM     10  C4' N4B d   1       5.739   4.939   5.485  0.00  0.00     0.003 C 
ENDBRANCH   8   9
ENDBRANCH   7   8
ENDBRANCH   1   7
TORSDOF 3
ENDMDL
