MODEL 1
REMARK minimizedAffinity 3.35592985
REMARK minimizedRMSD -1
REMARK  3 active torsions:
REMARK  status: ('A' for Active; 'I' for Inactive)
REMARK    1  A    between atoms: C3'_2  and  C2'_3 
REMARK    2  A    between atoms: C2'_3  and  C1'_4 
REMARK    3  A    between atoms: C1'_4  and  C1_5 
ROOT
ATOM      1  C1  N4B d   1      -0.226  -1.113   0.011  0.00  0.00    -0.075 A 
ATOM      2  C2  N4B d   1       0.371  -2.384   0.156  0.00  0.00     0.002 A 
ATOM      3  C3  N4B d   1       1.447  -2.730  -0.625  0.00  0.00     0.002 A 
ATOM      4  C4  N4B d   1       1.928  -1.833  -1.567  0.00  0.00    -0.004 A 
ATOM      5  C5  N4B d   1       1.361  -0.598  -1.683  0.00  0.00     0.002 A 
ATOM      6  C6  N4B d   1       0.282  -0.235  -0.902  0.00  0.00     0.002 A 
ENDROOT
BRANCH   1   7
ATOM      7  C1' N4B d   1      -1.457  -0.721   0.781  0.00  0.00     0.057 C 
BRANCH   7   8
ATOM      8  C2' N4B d   1      -1.126  -0.686   2.270  0.00  0.00     0.009 C 
BRANCH   8   9
ATOM      9  C3' N4B d   1      -2.225  -0.023   3.082  0.00  0.00     0.004 C 
ATOM     10  C4' N4B d   1      -3.476  -0.848   3.149  0.00  0.00     0.003 C 
ENDBRANCH   8   9
ENDBRANCH   7   8
ENDBRANCH   1   7
TORSDOF 3
ENDMDL
