MODEL 1
REMARK minimizedAffinity 2.89098525
REMARK minimizedRMSD -1
REMARK  3 active torsions:
REMARK  status: ('A' for Active; 'I' for Inactive)
REMARK    1  A    between atoms: C3'_2  and  C2'_3 
REMARK    2  A    between atoms: C2'_3  and  C1'_4 
REMARK    3  A    between atoms: C1'_4  and  C1_5 
ROOT
ATOM      1  C1  N4B d   1       1.392   2.121  -3.508  0.00  0.00    -0.075 A 
ATOM      2  C2  N4B d   1       1.459   3.433  -4.026  0.00  0.00     0.002 A 
ATOM      3  C3  N4B d   1       2.001   3.654  -5.268  0.00  0.00     0.002 A 
ATOM      4  C4  N4B d   1       2.498   2.585  -5.999  0.00  0.00    -0.004 A 
ATOM      5  C5  N4B d   1       2.407   1.318  -5.502  0.00  0.00     0.002 A 
ATOM      6  C6  N4B d   1       1.861   1.081  -4.257  0.00  0.00     0.002 A 
ENDROOT
BRANCH   1   7
ATOM      7  C1' N4B d   1       0.887   1.840  -2.119  0.00  0.00     0.057 C 
BRANCH   7   8
ATOM      8  C2' N4B d   1       1.527   2.824  -1.145  0.00  0.00     0.009 C 
BRANCH   8   9
ATOM      9  C3' N4B d   1       1.257   2.448   0.302  0.00  0.00     0.004 C 
ATOM     10  C4' N4B d   1       0.805   3.613   1.131  0.00  0.00     0.003 C 
ENDBRANCH   8   9
ENDBRANCH   7   8
ENDBRANCH   1   7
TORSDOF 3
ENDMDL
