MODEL 1
REMARK minimizedAffinity -1.04678214
REMARK minimizedRMSD -1
REMARK  3 active torsions:
REMARK  status: ('A' for Active; 'I' for Inactive)
REMARK    1  A    between atoms: C3'_2  and  C2'_3 
REMARK    2  A    between atoms: C2'_3  and  C1'_4 
REMARK    3  A    between atoms: C1'_4  and  C1_5 
ROOT
ATOM      1  C1  N4B d   1       5.460  -0.215   5.249  0.00  0.00    -0.075 A 
ATOM      2  C2  N4B d   1       5.995  -0.527   3.980  0.00  0.00     0.002 A 
ATOM      3  C3  N4B d   1       5.952  -1.820   3.517  0.00  0.00     0.002 A 
ATOM      4  C4  N4B d   1       5.398  -2.814   4.308  0.00  0.00    -0.004 A 
ATOM      5  C5  N4B d   1       4.861  -2.499   5.522  0.00  0.00     0.002 A 
ATOM      6  C6  N4B d   1       4.893  -1.204   5.999  0.00  0.00     0.002 A 
ENDROOT
BRANCH   1   7
ATOM      7  C1' N4B d   1       5.561   1.167   5.835  0.00  0.00     0.057 C 
BRANCH   7   8
ATOM      8  C2' N4B d   1       4.401   2.015   5.321  0.00  0.00     0.009 C 
BRANCH   8   9
ATOM      9  C3' N4B d   1       4.882   3.303   4.674  0.00  0.00     0.004 C 
ATOM     10  C4' N4B d   1       5.996   3.955   5.437  0.00  0.00     0.003 C 
ENDBRANCH   8   9
ENDBRANCH   7   8
ENDBRANCH   1   7
TORSDOF 3
ENDMDL
