MODEL 1
REMARK minimizedAffinity 13.9424715
REMARK minimizedRMSD -1
REMARK  0 active torsions:
REMARK  status: ('A' for Active; 'I' for Inactive)
ROOT
ATOM      1  C1  DEN d   1       1.130   0.065  -3.237  0.00  0.00     0.130 A 
ATOM      2  C2  DEN d   1       1.169   0.576  -1.869  0.00  0.00    -0.031 A 
ATOM      3  C3  DEN d   1       1.914   1.851  -1.878  0.00  0.00     0.027 A 
ATOM      4  C4  DEN d   1       3.002   3.079  -3.868  0.00  0.00     0.027 A 
ATOM      5  C5  DEN d   1       3.242   3.028  -5.223  0.00  0.00    -0.003 A 
ATOM      6  C6  DEN d   1       2.828   1.978  -5.999  0.00  0.00     0.001 A 
ATOM      7  C7  DEN d   1       2.112   0.957  -5.433  0.00  0.00     0.017 A 
ATOM      8  C8  DEN d   1       1.872   0.998  -4.066  0.00  0.00    -0.094 A 
ATOM      9  C9  DEN d   1       2.288   2.074  -3.301  0.00  0.00    -0.072 A 
ENDROOT
TORSDOF 0
ENDMDL
