MODEL 1
REMARK minimizedAffinity 10.3403959
REMARK minimizedRMSD -1
REMARK  0 active torsions:
REMARK  status: ('A' for Active; 'I' for Inactive)
ROOT
ATOM      1  C1  DEN d   1       0.415   0.727  -2.554  0.00  0.00     0.130 A 
ATOM      2  C2  DEN d   1       1.110   0.034  -1.473  0.00  0.00    -0.031 A 
ATOM      3  C3  DEN d   1       2.544  -0.031  -1.819  0.00  0.00     0.027 A 
ATOM      4  C4  DEN d   1       3.751   0.874  -3.911  0.00  0.00     0.027 A 
ATOM      5  C5  DEN d   1       3.579   1.527  -5.111  0.00  0.00    -0.003 A 
ATOM      6  C6  DEN d   1       2.346   1.926  -5.556  0.00  0.00     0.001 A 
ATOM      7  C7  DEN d   1       1.242   1.715  -4.773  0.00  0.00     0.017 A 
ATOM      8  C8  DEN d   1       1.406   1.051  -3.565  0.00  0.00    -0.094 A 
ATOM      9  C9  DEN d   1       2.662   0.667  -3.127  0.00  0.00    -0.072 A 
ENDROOT
TORSDOF 0
ENDMDL
