MODEL 1
REMARK minimizedAffinity 2.58345246
REMARK minimizedRMSD -1
REMARK  0 active torsions:
REMARK  status: ('A' for Active; 'I' for Inactive)
ROOT
ATOM      1  C1  DEN d   1       5.743   0.808   5.937  0.00  0.00     0.130 A 
ATOM      2  C2  DEN d   1       6.000  -0.628   6.000  0.00  0.00    -0.031 A 
ATOM      3  C3  DEN d   1       5.694  -1.205   4.675  0.00  0.00     0.027 A 
ATOM      4  C4  DEN d   1       4.857  -0.019   2.543  0.00  0.00     0.027 A 
ATOM      5  C5  DEN d   1       4.483   1.193   2.007  0.00  0.00    -0.003 A 
ATOM      6  C6  DEN d   1       4.470   2.346   2.746  0.00  0.00     0.001 A 
ATOM      7  C7  DEN d   1       4.882   2.320   4.052  0.00  0.00     0.017 A 
ATOM      8  C8  DEN d   1       5.254   1.101   4.602  0.00  0.00    -0.094 A 
ATOM      9  C9  DEN d   1       5.272  -0.052   3.835  0.00  0.00    -0.072 A 
ENDROOT
TORSDOF 0
ENDMDL
