MODEL 1
REMARK minimizedAffinity 7.88159466
REMARK minimizedRMSD -1
REMARK  0 active torsions:
REMARK  status: ('A' for Active; 'I' for Inactive)
ROOT
ATOM      1  C1  DEN d   1       4.709   2.394   2.387  0.00  0.00     0.130 A 
ATOM      2  C2  DEN d   1       4.351   1.095   2.950  0.00  0.00    -0.031 A 
ATOM      3  C3  DEN d   1       2.970   0.781   2.531  0.00  0.00     0.027 A 
ATOM      4  C4  DEN d   1       1.363   2.170   1.068  0.00  0.00     0.027 A 
ATOM      5  C5  DEN d   1       1.216   3.347   0.369  0.00  0.00    -0.003 A 
ATOM      6  C6  DEN d   1       2.202   4.297   0.321  0.00  0.00     0.001 A 
ATOM      7  C7  DEN d   1       3.398   4.065   0.949  0.00  0.00     0.017 A 
ATOM      8  C8  DEN d   1       3.551   2.884   1.662  0.00  0.00    -0.094 A 
ATOM      9  C9  DEN d   1       2.547   1.931   1.688  0.00  0.00    -0.072 A 
ENDROOT
TORSDOF 0
ENDMDL
