MODEL 1
REMARK minimizedAffinity 1.10483587
REMARK minimizedRMSD -1
REMARK  0 active torsions:
REMARK  status: ('A' for Active; 'I' for Inactive)
ROOT
ATOM      1  C1  DEN d   1       2.257   3.981  -1.081  0.00  0.00     0.130 A 
ATOM      2  C2  DEN d   1       3.050   4.571  -2.156  0.00  0.00    -0.031 A 
ATOM      3  C3  DEN d   1       2.928   3.702  -3.344  0.00  0.00     0.027 A 
ATOM      4  C4  DEN d   1       1.592   1.514  -3.623  0.00  0.00     0.027 A 
ATOM      5  C5  DEN d   1       0.772   0.610  -2.985  0.00  0.00    -0.003 A 
ATOM      6  C6  DEN d   1       0.419   0.748  -1.668  0.00  0.00     0.001 A 
ATOM      7  C7  DEN d   1       0.852   1.837  -0.960  0.00  0.00     0.017 A 
ATOM      8  C8  DEN d   1       1.686   2.749  -1.594  0.00  0.00    -0.094 A 
ATOM      9  C9  DEN d   1       2.021   2.599  -2.930  0.00  0.00    -0.072 A 
ENDROOT
TORSDOF 0
ENDMDL
