MODEL 1
REMARK minimizedAffinity 10.6022053
REMARK minimizedRMSD -1
REMARK  0 active torsions:
REMARK  status: ('A' for Active; 'I' for Inactive)
ROOT
ATOM      1  C1  DEN d   1      -1.965  -1.457   2.720  0.00  0.00     0.130 A 
ATOM      2  C2  DEN d   1      -1.937   0.002   2.778  0.00  0.00    -0.031 A 
ATOM      3  C3  DEN d   1      -3.171   0.456   3.449  0.00  0.00     0.027 A 
ATOM      4  C4  DEN d   1      -5.110  -0.951   4.405  0.00  0.00     0.027 A 
ATOM      5  C5  DEN d   1      -5.588  -2.231   4.580  0.00  0.00    -0.003 A 
ATOM      6  C6  DEN d   1      -4.914  -3.331   4.121  0.00  0.00     0.001 A 
ATOM      7  C7  DEN d   1      -3.701  -3.176   3.504  0.00  0.00     0.017 A 
ATOM      8  C8  DEN d   1      -3.216  -1.888   3.317  0.00  0.00    -0.094 A 
ATOM      9  C9  DEN d   1      -3.907  -0.789   3.799  0.00  0.00    -0.072 A 
ENDROOT
TORSDOF 0
ENDMDL
