MODEL 1
REMARK minimizedAffinity 12.4082918
REMARK minimizedRMSD -1
REMARK  0 active torsions:
REMARK  status: ('A' for Active; 'I' for Inactive)
ROOT
ATOM      1  C1  DEN d   1      -1.274  -0.339   0.077  0.00  0.00     0.130 A 
ATOM      2  C2  DEN d   1      -0.439   0.794  -0.310  0.00  0.00    -0.031 A 
ATOM      3  C3  DEN d   1       0.913   0.283  -0.614  0.00  0.00     0.027 A 
ATOM      4  C4  DEN d   1       1.787  -2.142  -0.527  0.00  0.00     0.027 A 
ATOM      5  C5  DEN d   1       1.451  -3.447  -0.243  0.00  0.00    -0.003 A 
ATOM      6  C6  DEN d   1       0.203  -3.800   0.197  0.00  0.00     0.001 A 
ATOM      7  C7  DEN d   1      -0.769  -2.843   0.323  0.00  0.00     0.017 A 
ATOM      8  C8  DEN d   1      -0.435  -1.524   0.045  0.00  0.00    -0.094 A 
ATOM      9  C9  DEN d   1       0.829  -1.189  -0.410  0.00  0.00    -0.072 A 
ENDROOT
TORSDOF 0
ENDMDL
