MODEL 1
REMARK minimizedAffinity 6.93318319
REMARK minimizedRMSD -1
REMARK  0 active torsions:
REMARK  status: ('A' for Active; 'I' for Inactive)
ROOT
ATOM      1  C1  DEN d   1       1.867   0.332  -3.741  0.00  0.00     0.130 A 
ATOM      2  C2  DEN d   1       1.509   0.504  -5.146  0.00  0.00    -0.031 A 
ATOM      3  C3  DEN d   1       1.149  -0.821  -5.690  0.00  0.00     0.027 A 
ATOM      4  C4  DEN d   1       1.105  -3.108  -4.499  0.00  0.00     0.027 A 
ATOM      5  C5  DEN d   1       1.339  -3.757  -3.306  0.00  0.00    -0.003 A 
ATOM      6  C6  DEN d   1       1.794  -3.100  -2.194  0.00  0.00     0.001 A 
ATOM      7  C7  DEN d   1       1.987  -1.744  -2.238  0.00  0.00     0.017 A 
ATOM      8  C8  DEN d   1       1.760  -1.084  -3.439  0.00  0.00    -0.094 A 
ATOM      9  C9  DEN d   1       1.288  -1.764  -4.548  0.00  0.00    -0.072 A 
ENDROOT
TORSDOF 0
ENDMDL
