MODEL 1
REMARK minimizedAffinity 1.92509782
REMARK minimizedRMSD -1
REMARK  0 active torsions:
REMARK  status: ('A' for Active; 'I' for Inactive)
ROOT
ATOM      1  C1  DEN d   1       5.999   3.376   5.999  0.00  0.00     0.130 A 
ATOM      2  C2  DEN d   1       5.708   4.364   4.964  0.00  0.00    -0.031 A 
ATOM      3  C3  DEN d   1       5.280   3.640   3.750  0.00  0.00     0.027 A 
ATOM      4  C4  DEN d   1       5.037   1.099   3.377  0.00  0.00     0.027 A 
ATOM      5  C5  DEN d   1       5.182  -0.140   3.961  0.00  0.00    -0.003 A 
ATOM      6  C6  DEN d   1       5.638  -0.294   5.243  0.00  0.00     0.001 A 
ATOM      7  C7  DEN d   1       5.923   0.812   6.000  0.00  0.00     0.017 A 
ATOM      8  C8  DEN d   1       5.786   2.064   5.416  0.00  0.00    -0.094 A 
ATOM      9  C9  DEN d   1       5.312   2.200   4.122  0.00  0.00    -0.072 A 
ENDROOT
TORSDOF 0
ENDMDL
