MODEL 1
REMARK minimizedAffinity 10.1023417
REMARK minimizedRMSD -1
REMARK  0 active torsions:
REMARK  status: ('A' for Active; 'I' for Inactive)
ROOT
ATOM      1  C1  DEN d   1      -0.916  -1.327   0.217  0.00  0.00     0.130 A 
ATOM      2  C2  DEN d   1      -0.882  -2.691   0.737  0.00  0.00    -0.031 A 
ATOM      3  C3  DEN d   1       0.220  -3.409   0.066  0.00  0.00     0.027 A 
ATOM      4  C4  DEN d   1       1.872  -2.545  -1.716  0.00  0.00     0.027 A 
ATOM      5  C5  DEN d   1       2.229  -1.457  -2.482  0.00  0.00    -0.003 A 
ATOM      6  C6  DEN d   1       1.548  -0.270  -2.427  0.00  0.00     0.001 A 
ATOM      7  C7  DEN d   1       0.500  -0.128  -1.555  0.00  0.00     0.017 A 
ATOM      8  C8  DEN d   1       0.130  -1.223  -0.786  0.00  0.00    -0.094 A 
ATOM      9  C9  DEN d   1       0.839  -2.410  -0.847  0.00  0.00    -0.072 A 
ENDROOT
TORSDOF 0
ENDMDL
