MODEL 1
REMARK minimizedAffinity 3.51671124
REMARK minimizedRMSD -1
REMARK  0 active torsions:
REMARK  status: ('A' for Active; 'I' for Inactive)
ROOT
ATOM      1  C1  DEN d   1       5.412   2.988   3.654  0.00  0.00     0.130 A 
ATOM      2  C2  DEN d   1       5.717   3.804   4.825  0.00  0.00    -0.031 A 
ATOM      3  C3  DEN d   1       6.000   2.895   5.954  0.00  0.00     0.027 A 
ATOM      4  C4  DEN d   1       5.999   0.316   6.000  0.00  0.00     0.027 A 
ATOM      5  C5  DEN d   1       5.788  -0.820   5.250  0.00  0.00    -0.003 A 
ATOM      6  C6  DEN d   1       5.407  -0.767   3.935  0.00  0.00     0.001 A 
ATOM      7  C7  DEN d   1       5.269   0.448   3.317  0.00  0.00     0.017 A 
ATOM      8  C8  DEN d   1       5.473   1.598   4.069  0.00  0.00    -0.094 A 
ATOM      9  C9  DEN d   1       5.869   1.523   5.393  0.00  0.00    -0.072 A 
ENDROOT
TORSDOF 0
ENDMDL
