MODEL 1
REMARK minimizedAffinity 3.8277235
REMARK minimizedRMSD -1
REMARK  0 active torsions:
REMARK  status: ('A' for Active; 'I' for Inactive)
ROOT
ATOM      1  C1  DEN d   1      -1.287   0.037   0.012  0.00  0.00     0.130 A 
ATOM      2  C2  DEN d   1      -0.512   1.137  -0.553  0.00  0.00    -0.031 A 
ATOM      3  C3  DEN d   1       0.709   0.571  -1.161  0.00  0.00     0.027 A 
ATOM      4  C4  DEN d   1       1.468  -1.891  -1.284  0.00  0.00     0.027 A 
ATOM      5  C5  DEN d   1       1.146  -3.184  -0.934  0.00  0.00    -0.003 A 
ATOM      6  C6  DEN d   1       0.017  -3.487  -0.220  0.00  0.00     0.001 A 
ATOM      7  C7  DEN d   1      -0.855  -2.490   0.128  0.00  0.00     0.017 A 
ATOM      8  C8  DEN d   1      -0.533  -1.183  -0.215  0.00  0.00    -0.094 A 
ATOM      9  C9  DEN d   1       0.606  -0.898  -0.948  0.00  0.00    -0.072 A 
ENDROOT
TORSDOF 0
ENDMDL
