MODEL 1
REMARK minimizedAffinity 12.2671862
REMARK minimizedRMSD -1
REMARK  0 active torsions:
REMARK  status: ('A' for Active; 'I' for Inactive)
ROOT
ATOM      1  C1  DEN d   1      -5.153  -0.851   4.357  0.00  0.00     0.130 A 
ATOM      2  C2  DEN d   1      -5.105  -2.242   3.914  0.00  0.00    -0.031 A 
ATOM      3  C3  DEN d   1      -3.801  -2.468   3.260  0.00  0.00     0.027 A 
ATOM      4  C4  DEN d   1      -1.859  -0.810   2.896  0.00  0.00     0.027 A 
ATOM      5  C5  DEN d   1      -1.440   0.488   3.089  0.00  0.00    -0.003 A 
ATOM      6  C6  DEN d   1      -2.236   1.431   3.683  0.00  0.00     0.001 A 
ATOM      7  C7  DEN d   1      -3.476   1.079   4.146  0.00  0.00     0.017 A 
ATOM      8  C8  DEN d   1      -3.908  -0.226   3.948  0.00  0.00    -0.094 A 
ATOM      9  C9  DEN d   1      -3.084  -1.168   3.357  0.00  0.00    -0.072 A 
ENDROOT
TORSDOF 0
ENDMDL
