MODEL 1
REMARK minimizedAffinity 0.515102148
REMARK minimizedRMSD -1
REMARK  0 active torsions:
REMARK  status: ('A' for Active; 'I' for Inactive)
ROOT
ATOM      1  C1  DEN d   1       1.185  -2.369  -1.494  0.00  0.00     0.130 A 
ATOM      2  C2  DEN d   1       0.315  -2.540  -0.334  0.00  0.00    -0.031 A 
ATOM      3  C3  DEN d   1      -0.323  -1.239  -0.047  0.00  0.00     0.027 A 
ATOM      4  C4  DEN d   1      -0.053   1.008  -1.283  0.00  0.00     0.027 A 
ATOM      5  C5  DEN d   1       0.586   1.649  -2.322  0.00  0.00    -0.003 A 
ATOM      6  C6  DEN d   1       1.489   1.008  -3.129  0.00  0.00     0.001 A 
ATOM      7  C7  DEN d   1       1.743  -0.324  -2.940  0.00  0.00     0.017 A 
ATOM      8  C8  DEN d   1       1.108  -0.975  -1.890  0.00  0.00    -0.094 A 
ATOM      9  C9  DEN d   1       0.189  -0.313  -1.093  0.00  0.00    -0.072 A 
ENDROOT
TORSDOF 0
ENDMDL
