MODEL 1
REMARK minimizedAffinity -2.30310297
REMARK minimizedRMSD -1
REMARK  0 active torsions:
REMARK  status: ('A' for Active; 'I' for Inactive)
ROOT
ATOM      1  C1  DEN d   1       4.523   2.132   3.881  0.00  0.00     0.130 A 
ATOM      2  C2  DEN d   1       5.285   3.020   4.755  0.00  0.00    -0.031 A 
ATOM      3  C3  DEN d   1       5.999   2.185   5.743  0.00  0.00     0.027 A 
ATOM      4  C4  DEN d   1       6.000  -0.381   6.000  0.00  0.00     0.027 A 
ATOM      5  C5  DEN d   1       5.494  -1.560   5.498  0.00  0.00    -0.003 A 
ATOM      6  C6  DEN d   1       4.609  -1.588   4.452  0.00  0.00     0.001 A 
ATOM      7  C7  DEN d   1       4.239  -0.417   3.845  0.00  0.00     0.017 A 
ATOM      8  C8  DEN d   1       4.739   0.775   4.350  0.00  0.00    -0.094 A 
ATOM      9  C9  DEN d   1       5.641   0.782   5.400  0.00  0.00    -0.072 A 
ENDROOT
TORSDOF 0
ENDMDL
