MODEL 1
REMARK minimizedAffinity -3.71516848
REMARK minimizedRMSD -1
REMARK  0 active torsions:
REMARK  status: ('A' for Active; 'I' for Inactive)
ROOT
ATOM      1  C   UNL d   1      -2.446  -2.693   0.545  0.00  0.00    -0.002 A 
ATOM      2  C1  UNL d   1      -1.480  -2.937   1.511  0.00  0.00     0.010 A 
ATOM      3  C2  UNL d   1      -0.455  -2.016   1.740  0.00  0.00     0.041 A 
ATOM      4  C3  UNL d   1      -0.418  -0.835   0.974  0.00  0.00    -0.075 A 
ATOM      5  S   UNL d   1       0.743   0.436   1.080  0.00  0.00     0.015 SA
ATOM      6  C4  UNL d   1      -0.016   1.333  -0.155  0.00  0.00     0.022 A 
ATOM      7  C5  UNL d   1      -1.129   0.693  -0.647  0.00  0.00     0.026 A 
ATOM      8  C6  UNL d   1      -1.379  -0.566  -0.004  0.00  0.00    -0.082 A 
ATOM      9  C7  UNL d   1      -2.405  -1.519  -0.212  0.00  0.00     0.045 A 
ENDROOT
TORSDOF 0
ENDMDL
