MODEL 1
REMARK minimizedAffinity -3.09814548
REMARK minimizedRMSD -1
REMARK  0 active torsions:
REMARK  status: ('A' for Active; 'I' for Inactive)
ROOT
ATOM      1  C   UNL d   1      -2.488  -0.734  -0.743  0.00  0.00    -0.002 A 
ATOM      2  C1  UNL d   1      -2.217  -1.872   0.002  0.00  0.00     0.010 A 
ATOM      3  C2  UNL d   1      -0.976  -2.036   0.622  0.00  0.00     0.041 A 
ATOM      4  C3  UNL d   1      -0.005  -1.026   0.480  0.00  0.00    -0.075 A 
ATOM      5  S   UNL d   1       1.583  -1.010   1.151  0.00  0.00     0.015 SA
ATOM      6  C4  UNL d   1       1.939   0.509   0.464  0.00  0.00     0.022 A 
ATOM      7  C5  UNL d   1       0.882   1.006  -0.262  0.00  0.00     0.026 A 
ATOM      8  C6  UNL d   1      -0.255   0.130  -0.264  0.00  0.00    -0.082 A 
ATOM      9  C7  UNL d   1      -1.522   0.266  -0.881  0.00  0.00     0.045 A 
ENDROOT
TORSDOF 0
ENDMDL
