MODEL 1
REMARK minimizedAffinity -0.795857072
REMARK minimizedRMSD -1
REMARK  0 active torsions:
REMARK  status: ('A' for Active; 'I' for Inactive)
ROOT
ATOM      1  C   UNL d   1      -2.999  -2.447   0.758  0.00  0.00    -0.002 A 
ATOM      2  C1  UNL d   1      -2.073  -2.981   1.643  0.00  0.00     0.010 A 
ATOM      3  C2  UNL d   1      -0.815  -2.394   1.794  0.00  0.00     0.041 A 
ATOM      4  C3  UNL d   1      -0.502  -1.250   1.034  0.00  0.00    -0.075 A 
ATOM      5  S   UNL d   1       0.976  -0.362   1.054  0.00  0.00     0.015 SA
ATOM      6  C4  UNL d   1       0.412   0.747  -0.112  0.00  0.00     0.022 A 
ATOM      7  C5  UNL d   1      -0.870   0.461  -0.517  0.00  0.00     0.026 A 
ATOM      8  C6  UNL d   1      -1.418  -0.694   0.137  0.00  0.00    -0.082 A 
ATOM      9  C7  UNL d   1      -2.685  -1.312   0.006  0.00  0.00     0.045 A 
ENDROOT
TORSDOF 0
ENDMDL
