MODEL 1
REMARK minimizedAffinity -2.23743558
REMARK minimizedRMSD -1
REMARK  0 active torsions:
REMARK  status: ('A' for Active; 'I' for Inactive)
ROOT
ATOM      1  C   UNL d   1      -0.794   0.371   1.020  0.00  0.00    -0.002 A 
ATOM      2  C1  UNL d   1      -0.218  -0.230  -0.090  0.00  0.00     0.010 A 
ATOM      3  C2  UNL d   1       1.067   0.128  -0.505  0.00  0.00     0.041 A 
ATOM      4  C3  UNL d   1       1.769   1.109   0.222  0.00  0.00    -0.075 A 
ATOM      5  S   UNL d   1       3.354   1.706  -0.100  0.00  0.00     0.015 SA
ATOM      6  C4  UNL d   1       3.304   2.772   1.228  0.00  0.00     0.022 A 
ATOM      7  C5  UNL d   1       2.114   2.688   1.912  0.00  0.00     0.026 A 
ATOM      8  C6  UNL d   1       1.210   1.728   1.344  0.00  0.00    -0.082 A 
ATOM      9  C7  UNL d   1      -0.094   1.343   1.739  0.00  0.00     0.045 A 
ENDROOT
TORSDOF 0
ENDMDL
