MODEL 1
REMARK minimizedAffinity -4.36804724
REMARK minimizedRMSD -1
REMARK  0 active torsions:
REMARK  status: ('A' for Active; 'I' for Inactive)
ROOT
ATOM      1  C   UNL d   1      -2.862  -2.829   0.483  0.00  0.00    -0.002 A 
ATOM      2  C1  UNL d   1      -1.750  -2.914   1.308  0.00  0.00     0.010 A 
ATOM      3  C2  UNL d   1      -0.669  -2.046   1.135  0.00  0.00     0.041 A 
ATOM      4  C3  UNL d   1      -0.728  -1.081   0.111  0.00  0.00    -0.075 A 
ATOM      5  S   UNL d   1       0.476   0.088  -0.285  0.00  0.00     0.015 SA
ATOM      6  C4  UNL d   1      -0.459   0.729  -1.558  0.00  0.00     0.022 A 
ATOM      7  C5  UNL d   1      -1.663   0.079  -1.691  0.00  0.00     0.026 A 
ATOM      8  C6  UNL d   1      -1.838  -0.975  -0.731  0.00  0.00    -0.082 A 
ATOM      9  C7  UNL d   1      -2.917  -1.870  -0.532  0.00  0.00     0.045 A 
ENDROOT
TORSDOF 0
ENDMDL
