MODEL 1
REMARK minimizedAffinity -4.17331457
REMARK minimizedRMSD -1
REMARK  0 active torsions:
REMARK  status: ('A' for Active; 'I' for Inactive)
ROOT
ATOM      1  C   UNL d   1      -2.287  -2.501   1.120  0.00  0.00    -0.002 A 
ATOM      2  C1  UNL d   1      -2.780  -2.280  -0.158  0.00  0.00     0.010 A 
ATOM      3  C2  UNL d   1      -2.268  -1.248  -0.948  0.00  0.00     0.041 A 
ATOM      4  C3  UNL d   1      -1.242  -0.436  -0.427  0.00  0.00    -0.075 A 
ATOM      5  S   UNL d   1      -0.462   0.886  -1.213  0.00  0.00     0.015 SA
ATOM      6  C4  UNL d   1       0.544   1.188   0.130  0.00  0.00     0.022 A 
ATOM      7  C5  UNL d   1       0.304   0.311   1.161  0.00  0.00     0.026 A 
ATOM      8  C6  UNL d   1      -0.729  -0.639   0.857  0.00  0.00    -0.082 A 
ATOM      9  C7  UNL d   1      -1.269  -1.693   1.634  0.00  0.00     0.045 A 
ENDROOT
TORSDOF 0
ENDMDL
