MODEL 1
REMARK minimizedAffinity -2.5662086
REMARK minimizedRMSD -1
REMARK  0 active torsions:
REMARK  status: ('A' for Active; 'I' for Inactive)
ROOT
ATOM      1  C   UNL d   1      -2.320  -0.338  -1.618  0.00  0.00    -0.002 A 
ATOM      2  C1  UNL d   1      -2.584  -0.769  -0.325  0.00  0.00     0.010 A 
ATOM      3  C2  UNL d   1      -1.617  -0.650   0.675  0.00  0.00     0.041 A 
ATOM      4  C3  UNL d   1      -0.368  -0.084   0.351  0.00  0.00    -0.075 A 
ATOM      5  S   UNL d   1       0.967   0.163   1.413  0.00  0.00     0.015 SA
ATOM      6  C4  UNL d   1       1.920   0.847   0.176  0.00  0.00     0.022 A 
ATOM      7  C5  UNL d   1       1.251   0.893  -1.024  0.00  0.00     0.026 A 
ATOM      8  C6  UNL d   1      -0.079   0.358  -0.943  0.00  0.00    -0.082 A 
ATOM      9  C7  UNL d   1      -1.080   0.223  -1.935  0.00  0.00     0.045 A 
ENDROOT
TORSDOF 0
ENDMDL
