MODEL 1
REMARK minimizedAffinity -2.4667747
REMARK minimizedRMSD -1
REMARK  0 active torsions:
REMARK  status: ('A' for Active; 'I' for Inactive)
ROOT
ATOM      1  C   UNL d   1      -0.699  -0.299  -0.650  0.00  0.00    -0.002 A 
ATOM      2  C1  UNL d   1      -1.426   0.879  -0.546  0.00  0.00     0.010 A 
ATOM      3  C2  UNL d   1      -0.846   2.025   0.002  0.00  0.00     0.041 A 
ATOM      4  C3  UNL d   1       0.490   1.967   0.445  0.00  0.00    -0.075 A 
ATOM      5  S   UNL d   1       1.408   3.246   1.148  0.00  0.00     0.015 SA
ATOM      6  C4  UNL d   1       2.787   2.259   1.325  0.00  0.00     0.022 A 
ATOM      7  C5  UNL d   1       2.569   0.982   0.864  0.00  0.00     0.026 A 
ATOM      8  C6  UNL d   1       1.243   0.793   0.349  0.00  0.00    -0.082 A 
ATOM      9  C7  UNL d   1       0.626  -0.352  -0.210  0.00  0.00     0.045 A 
ENDROOT
TORSDOF 0
ENDMDL
