MODEL 1
REMARK minimizedAffinity 4.6920619
REMARK minimizedRMSD -1
REMARK  0 active torsions:
REMARK  status: ('A' for Active; 'I' for Inactive)
ROOT
ATOM      1  C   UNL d   1       0.001  -0.563  -0.202  0.00  0.00    -0.002 A 
ATOM      2  C1  UNL d   1      -0.736   0.494  -0.717  0.00  0.00     0.010 A 
ATOM      3  C2  UNL d   1      -0.280   1.808  -0.587  0.00  0.00     0.041 A 
ATOM      4  C3  UNL d   1       0.941   2.043   0.073  0.00  0.00    -0.075 A 
ATOM      5  S   UNL d   1       1.697   3.568   0.350  0.00  0.00     0.015 SA
ATOM      6  C4  UNL d   1       3.016   2.852   1.157  0.00  0.00     0.022 A 
ATOM      7  C5  UNL d   1       2.899   1.484   1.224  0.00  0.00     0.026 A 
ATOM      8  C6  UNL d   1       1.702   0.995   0.600  0.00  0.00    -0.082 A 
ATOM      9  C7  UNL d   1       1.212  -0.326   0.453  0.00  0.00     0.045 A 
ENDROOT
TORSDOF 0
ENDMDL
