MODEL 1
REMARK minimizedAffinity -0.713843465
REMARK minimizedRMSD -1
REMARK  0 active torsions:
REMARK  status: ('A' for Active; 'I' for Inactive)
ROOT
ATOM      1  C   UNL d   1      -2.070  -0.487  -2.093  0.00  0.00    -0.002 A 
ATOM      2  C1  UNL d   1      -2.859  -0.559  -0.954  0.00  0.00     0.010 A 
ATOM      3  C2  UNL d   1      -2.326  -0.254   0.300  0.00  0.00     0.041 A 
ATOM      4  C3  UNL d   1      -0.973   0.130   0.390  0.00  0.00    -0.075 A 
ATOM      5  S   UNL d   1      -0.105   0.551   1.819  0.00  0.00     0.015 SA
ATOM      6  C4  UNL d   1       1.333   0.837   0.951  0.00  0.00     0.022 A 
ATOM      7  C5  UNL d   1       1.173   0.621  -0.398  0.00  0.00     0.026 A 
ATOM      8  C6  UNL d   1      -0.159   0.211  -0.743  0.00  0.00    -0.082 A 
ATOM      9  C7  UNL d   1      -0.729  -0.105  -2.000  0.00  0.00     0.045 A 
ENDROOT
TORSDOF 0
ENDMDL
