MODEL 1
REMARK minimizedAffinity -2.67727017
REMARK minimizedRMSD -1
REMARK  0 active torsions:
REMARK  status: ('A' for Active; 'I' for Inactive)
ROOT
ATOM      1  C   UNL d   1      -2.644  -0.170  -0.931  0.00  0.00    -0.002 A 
ATOM      2  C1  UNL d   1      -2.724  -0.620   0.379  0.00  0.00     0.010 A 
ATOM      3  C2  UNL d   1      -1.588  -0.645   1.192  0.00  0.00     0.041 A 
ATOM      4  C3  UNL d   1      -0.360  -0.203   0.661  0.00  0.00    -0.075 A 
ATOM      5  S   UNL d   1       1.161  -0.143   1.470  0.00  0.00     0.015 SA
ATOM      6  C4  UNL d   1       1.951   0.484   0.096  0.00  0.00     0.022 A 
ATOM      7  C5  UNL d   1       1.091   0.649  -0.963  0.00  0.00     0.026 A 
ATOM      8  C6  UNL d   1      -0.256   0.256  -0.655  0.00  0.00    -0.082 A 
ATOM      9  C7  UNL d   1      -1.425   0.268  -1.454  0.00  0.00     0.045 A 
ENDROOT
TORSDOF 0
ENDMDL
