MODEL 1
REMARK minimizedAffinity -0.77919054
REMARK minimizedRMSD -1
REMARK  0 active torsions:
REMARK  status: ('A' for Active; 'I' for Inactive)
ROOT
ATOM      1  C   UNL d   1       0.720   0.799   0.641  0.00  0.00    -0.002 A 
ATOM      2  C1  UNL d   1       0.952   0.513  -0.697  0.00  0.00     0.010 A 
ATOM      3  C2  UNL d   1      -0.001  -0.174  -1.452  0.00  0.00     0.041 A 
ATOM      4  C3  UNL d   1      -1.203  -0.570  -0.834  0.00  0.00    -0.075 A 
ATOM      5  S   UNL d   1      -2.515  -1.420  -1.561  0.00  0.00     0.015 SA
ATOM      6  C4  UNL d   1      -3.414  -1.422  -0.113  0.00  0.00     0.022 A 
ATOM      7  C5  UNL d   1      -2.745  -0.794   0.910  0.00  0.00     0.026 A 
ATOM      8  C6  UNL d   1      -1.460  -0.292   0.512  0.00  0.00    -0.082 A 
ATOM      9  C7  UNL d   1      -0.474   0.405   1.250  0.00  0.00     0.045 A 
ENDROOT
TORSDOF 0
ENDMDL
