MODEL 1
REMARK minimizedAffinity -3.88604569
REMARK minimizedRMSD -1
REMARK  0 active torsions:
REMARK  status: ('A' for Active; 'I' for Inactive)
ROOT
ATOM      1  C   UNL d   1      -1.046   0.412   0.060  0.00  0.00    -0.002 A 
ATOM      2  C1  UNL d   1      -0.029  -0.494  -0.208  0.00  0.00     0.010 A 
ATOM      3  C2  UNL d   1       1.309  -0.124  -0.057  0.00  0.00     0.041 A 
ATOM      4  C3  UNL d   1       1.610   1.184   0.373  0.00  0.00    -0.075 A 
ATOM      5  S   UNL d   1       3.176   1.859   0.628  0.00  0.00     0.015 SA
ATOM      6  C4  UNL d   1       2.531   3.365   1.099  0.00  0.00     0.022 A 
ATOM      7  C5  UNL d   1       1.157   3.370   1.068  0.00  0.00     0.026 A 
ATOM      8  C6  UNL d   1       0.603   2.113   0.649  0.00  0.00    -0.082 A 
ATOM      9  C7  UNL d   1      -0.743   1.708   0.486  0.00  0.00     0.045 A 
ENDROOT
TORSDOF 0
ENDMDL
