MODEL 1
REMARK minimizedAffinity -3.6552074
REMARK minimizedRMSD -1
REMARK  0 active torsions:
REMARK  status: ('A' for Active; 'I' for Inactive)
ROOT
ATOM      1  C   UNL d   1      -2.953  -0.861  -0.558  0.00  0.00    -0.002 A 
ATOM      2  C1  UNL d   1      -2.795  -1.441   0.692  0.00  0.00     0.010 A 
ATOM      3  C2  UNL d   1      -1.537  -1.498   1.294  0.00  0.00     0.041 A 
ATOM      4  C3  UNL d   1      -0.429  -0.956   0.612  0.00  0.00    -0.075 A 
ATOM      5  S   UNL d   1       1.206  -0.913   1.155  0.00  0.00     0.015 SA
ATOM      6  C4  UNL d   1       1.733  -0.122  -0.260  0.00  0.00     0.022 A 
ATOM      7  C5  UNL d   1       0.700   0.110  -1.136  0.00  0.00     0.026 A 
ATOM      8  C6  UNL d   1      -0.564  -0.366  -0.648  0.00  0.00    -0.082 A 
ATOM      9  C7  UNL d   1      -1.853  -0.324  -1.232  0.00  0.00     0.045 A 
ENDROOT
TORSDOF 0
ENDMDL
