MODEL 1
REMARK minimizedAffinity -3.02678704
REMARK minimizedRMSD -1
REMARK  0 active torsions:
REMARK  status: ('A' for Active; 'I' for Inactive)
ROOT
ATOM      1  C   UNL d   1      -2.274   0.016  -1.567  0.00  0.00    -0.002 A 
ATOM      2  C1  UNL d   1      -2.451  -1.033  -0.676  0.00  0.00     0.010 A 
ATOM      3  C2  UNL d   1      -1.441  -1.379   0.223  0.00  0.00     0.041 A 
ATOM      4  C3  UNL d   1      -0.239  -0.645   0.214  0.00  0.00    -0.075 A 
ATOM      5  S   UNL d   1       1.136  -0.888   1.226  0.00  0.00     0.015 SA
ATOM      6  C4  UNL d   1       1.990   0.396   0.500  0.00  0.00     0.022 A 
ATOM      7  C5  UNL d   1       1.260   1.006  -0.492  0.00  0.00     0.026 A 
ATOM      8  C6  UNL d   1      -0.037   0.416  -0.673  0.00  0.00    -0.082 A 
ATOM      9  C7  UNL d   1      -1.080   0.742  -1.574  0.00  0.00     0.045 A 
ENDROOT
TORSDOF 0
ENDMDL
