MODEL 1
REMARK minimizedAffinity 1.46142411
REMARK minimizedRMSD -1
REMARK  0 active torsions:
REMARK  status: ('A' for Active; 'I' for Inactive)
ROOT
ATOM      1  C   UNL d   1      -2.150  -0.799  -1.925  0.00  0.00    -0.002 A 
ATOM      2  C1  UNL d   1      -2.614  -1.292  -0.714  0.00  0.00     0.010 A 
ATOM      3  C2  UNL d   1      -1.878  -1.104   0.458  0.00  0.00     0.041 A 
ATOM      4  C3  UNL d   1      -0.657  -0.405   0.392  0.00  0.00    -0.075 A 
ATOM      5  S   UNL d   1       0.412  -0.055   1.698  0.00  0.00     0.015 SA
ATOM      6  C4  UNL d   1       1.510   0.759   0.678  0.00  0.00     0.022 A 
ATOM      7  C5  UNL d   1       1.087   0.772  -0.629  0.00  0.00     0.026 A 
ATOM      8  C6  UNL d   1      -0.170   0.102  -0.816  0.00  0.00    -0.082 A 
ATOM      9  C7  UNL d   1      -0.938  -0.105  -1.987  0.00  0.00     0.045 A 
ENDROOT
TORSDOF 0
ENDMDL
