MODEL 1
REMARK minimizedAffinity -5.07607174
REMARK minimizedRMSD -1
REMARK  0 active torsions:
REMARK  status: ('A' for Active; 'I' for Inactive)
ROOT
ATOM      1  C   UNL d   1      -3.019  -2.677   1.019  0.00  0.00    -0.002 A 
ATOM      2  C1  UNL d   1      -1.894  -2.863   1.810  0.00  0.00     0.010 A 
ATOM      3  C2  UNL d   1      -0.760  -2.068   1.630  0.00  0.00     0.041 A 
ATOM      4  C3  UNL d   1      -0.777  -1.073   0.633  0.00  0.00    -0.075 A 
ATOM      5  S   UNL d   1       0.496   0.019   0.232  0.00  0.00     0.015 SA
ATOM      6  C4  UNL d   1      -0.424   0.758  -0.997  0.00  0.00     0.022 A 
ATOM      7  C5  UNL d   1      -1.674   0.198  -1.113  0.00  0.00     0.026 A 
ATOM      8  C6  UNL d   1      -1.898  -0.866  -0.176  0.00  0.00    -0.082 A 
ATOM      9  C7  UNL d   1      -3.032  -1.689   0.031  0.00  0.00     0.045 A 
ENDROOT
TORSDOF 0
ENDMDL
