MODEL 1
REMARK minimizedAffinity 11.2777834
REMARK minimizedRMSD -1
REMARK  0 active torsions:
REMARK  status: ('A' for Active; 'I' for Inactive)
ROOT
ATOM      1  C4' PXY d   1      -1.116  -3.083   1.275  0.00  0.00     0.077 C 
ATOM      2  C1' PXY d   1       2.851   1.122   1.277  0.00  0.00     0.077 C 
ATOM      3  C1  PXY d   1       1.803   0.027   1.283  0.00  0.00    -0.082 A 
ATOM      4  C2  PXY d   1       2.176  -1.237   1.166  0.00  0.00     0.003 A 
ATOM      5  C3  PXY d   1       1.239  -2.237   1.137  0.00  0.00     0.003 A 
ATOM      6  C4  PXY d   1      -0.091  -1.945   1.283  0.00  0.00    -0.082 A 
ATOM      7  C5  PXY d   1      -0.479  -0.659   1.414  0.00  0.00     0.003 A 
ATOM      8  C6  PXY d   1       0.485   0.345   1.399  0.00  0.00     0.003 A 
ENDROOT
TORSDOF 0
ENDMDL
