MODEL 1
REMARK minimizedAffinity 10.4328213
REMARK minimizedRMSD -1
REMARK  0 active torsions:
REMARK  status: ('A' for Active; 'I' for Inactive)
ROOT
ATOM      1  C4' PXY d   1       3.078  -0.019  -0.571  0.00  0.00     0.077 C 
ATOM      2  C1' PXY d   1       0.833  -2.201   4.288  0.00  0.00     0.077 C 
ATOM      3  C1  PXY d   1       1.410  -1.624   3.011  0.00  0.00    -0.082 A 
ATOM      4  C2  PXY d   1       2.475  -2.185   2.462  0.00  0.00     0.003 A 
ATOM      5  C3  PXY d   1       3.029  -1.656   1.325  0.00  0.00     0.003 A 
ATOM      6  C4  PXY d   1       2.456  -0.574   0.713  0.00  0.00    -0.082 A 
ATOM      7  C5  PXY d   1       1.363  -0.002   1.261  0.00  0.00     0.003 A 
ATOM      8  C6  PXY d   1       0.840  -0.529   2.439  0.00  0.00     0.003 A 
ENDROOT
TORSDOF 0
ENDMDL
