MODEL 1
REMARK minimizedAffinity 6.72651052
REMARK minimizedRMSD -1
REMARK  0 active torsions:
REMARK  status: ('A' for Active; 'I' for Inactive)
ROOT
ATOM      1  C4' PXY d   1      -5.792  -1.713  -1.172  0.00  0.00     0.077 C 
ATOM      2  C1' PXY d   1      -2.956   3.037  -2.848  0.00  0.00     0.077 C 
ATOM      3  C1  PXY d   1      -3.706   1.798  -2.400  0.00  0.00    -0.082 A 
ATOM      4  C2  PXY d   1      -3.169   0.604  -2.590  0.00  0.00     0.003 A 
ATOM      5  C3  PXY d   1      -3.849  -0.529  -2.219  0.00  0.00     0.003 A 
ATOM      6  C4  PXY d   1      -5.066  -0.435  -1.600  0.00  0.00    -0.082 A 
ATOM      7  C5  PXY d   1      -5.615   0.781  -1.393  0.00  0.00     0.003 A 
ATOM      8  C6  PXY d   1      -4.928   1.916  -1.814  0.00  0.00     0.003 A 
ENDROOT
TORSDOF 0
ENDMDL
