MODEL 1
REMARK minimizedAffinity 10.6563902
REMARK minimizedRMSD -1
REMARK  0 active torsions:
REMARK  status: ('A' for Active; 'I' for Inactive)
ROOT
ATOM      1  C4' PXY d   1      -5.815  -0.058  -0.759  0.00  0.00     0.077 C 
ATOM      2  C1' PXY d   1      -4.741   3.320  -5.324  0.00  0.00     0.077 C 
ATOM      3  C1  PXY d   1      -5.021   2.424  -4.134  0.00  0.00    -0.082 A 
ATOM      4  C2  PXY d   1      -5.762   2.875  -3.136  0.00  0.00     0.003 A 
ATOM      5  C3  PXY d   1      -5.998   2.089  -2.037  0.00  0.00     0.003 A 
ATOM      6  C4  PXY d   1      -5.515   0.809  -1.984  0.00  0.00    -0.082 A 
ATOM      7  C5  PXY d   1      -4.766   0.338  -3.004  0.00  0.00     0.003 A 
ATOM      8  C6  PXY d   1      -4.504   1.166  -4.092  0.00  0.00     0.003 A 
ENDROOT
TORSDOF 0
ENDMDL
