MODEL 1
REMARK minimizedAffinity 16.8357773
REMARK minimizedRMSD -1
REMARK  0 active torsions:
REMARK  status: ('A' for Active; 'I' for Inactive)
ROOT
ATOM      1  C4' PXY d   1      -5.064   2.811  -5.289  0.00  0.00     0.077 C 
ATOM      2  C1' PXY d   1      -5.294  -1.175  -1.109  0.00  0.00     0.077 C 
ATOM      3  C1  PXY d   1      -5.243  -0.122  -2.199  0.00  0.00    -0.082 A 
ATOM      4  C2  PXY d   1      -4.839  -0.458  -3.413  0.00  0.00     0.003 A 
ATOM      5  C3  PXY d   1      -4.756   0.488  -4.403  0.00  0.00     0.003 A 
ATOM      6  C4  PXY d   1      -5.141   1.779  -4.160  0.00  0.00    -0.082 A 
ATOM      7  C5  PXY d   1      -5.564   2.127  -2.926  0.00  0.00     0.003 A 
ATOM      8  C6  PXY d   1      -5.602   1.161  -1.925  0.00  0.00     0.003 A 
ENDROOT
TORSDOF 0
ENDMDL
