MODEL 1
REMARK minimizedAffinity -1.76122379
REMARK minimizedRMSD -1
REMARK  0 active torsions:
REMARK  status: ('A' for Active; 'I' for Inactive)
ROOT
ATOM      1  C4' PXY d   1       5.027   5.890  -5.562  0.00  0.00     0.077 C 
ATOM      2  C1' PXY d   1       4.430   0.140  -5.572  0.00  0.00     0.077 C 
ATOM      3  C1  PXY d   1       4.600   1.647  -5.569  0.00  0.00    -0.082 A 
ATOM      4  C2  PXY d   1       3.605   2.416  -5.158  0.00  0.00     0.003 A 
ATOM      5  C3  PXY d   1       3.729   3.781  -5.179  0.00  0.00     0.003 A 
ATOM      6  C4  PXY d   1       4.904   4.364  -5.573  0.00  0.00    -0.082 A 
ATOM      7  C5  PXY d   1       5.928   3.585  -5.984  0.00  0.00     0.003 A 
ATOM      8  C6  PXY d   1       5.766   2.203  -5.994  0.00  0.00     0.003 A 
ENDROOT
TORSDOF 0
ENDMDL
