MODEL 1
REMARK minimizedAffinity 16.7224083
REMARK minimizedRMSD -1
REMARK  0 active torsions:
REMARK  status: ('A' for Active; 'I' for Inactive)
ROOT
ATOM      1  C4' PXY d   1      -5.534  -5.560  -5.987  0.00  0.00     0.077 C 
ATOM      2  C1' PXY d   1      -4.591  -0.454  -3.447  0.00  0.00     0.077 C 
ATOM      3  C1  PXY d   1      -4.826  -1.797  -4.110  0.00  0.00    -0.082 A 
ATOM      4  C2  PXY d   1      -5.752  -1.909  -5.049  0.00  0.00     0.003 A 
ATOM      5  C3  PXY d   1      -6.000  -3.123  -5.636  0.00  0.00     0.003 A 
ATOM      6  C4  PXY d   1      -5.256  -4.222  -5.297  0.00  0.00    -0.082 A 
ATOM      7  C5  PXY d   1      -4.303  -4.112  -4.348  0.00  0.00     0.003 A 
ATOM      8  C6  PXY d   1      -4.095  -2.880  -3.734  0.00  0.00     0.003 A 
ENDROOT
TORSDOF 0
ENDMDL
