MODEL 1
REMARK minimizedAffinity 8.84888077
REMARK minimizedRMSD -1
REMARK  0 active torsions:
REMARK  status: ('A' for Active; 'I' for Inactive)
ROOT
ATOM      1  C4' PXY d   1      -5.536   3.961   0.477  0.00  0.00     0.077 C 
ATOM      2  C1' PXY d   1      -0.050   2.289   1.200  0.00  0.00     0.077 C 
ATOM      3  C1  PXY d   1      -1.486   2.734   0.999  0.00  0.00    -0.082 A 
ATOM      4  C2  PXY d   1      -2.292   2.831   2.044  0.00  0.00     0.003 A 
ATOM      5  C3  PXY d   1      -3.602   3.201   1.876  0.00  0.00     0.003 A 
ATOM      6  C4  PXY d   1      -4.077   3.525   0.634  0.00  0.00    -0.082 A 
ATOM      7  C5  PXY d   1      -3.258   3.439  -0.435  0.00  0.00     0.003 A 
ATOM      8  C6  PXY d   1      -1.943   3.022  -0.250  0.00  0.00     0.003 A 
ENDROOT
TORSDOF 0
ENDMDL
