MODEL 1
REMARK minimizedAffinity 16.4863701
REMARK minimizedRMSD -1
REMARK  1 active torsions:
REMARK  status: ('A' for Active; 'I' for Inactive)
REMARK    1  A    between atoms: C1_2  and  C2_3 
ROOT
ATOM      1  C2  UNL d   1      -0.258   3.277   0.225  0.00  0.00    -0.076 A 
ATOM      2  C3  UNL d   1      -0.107   4.673   0.168  0.00  0.00     0.004 A 
ATOM      3  C4  UNL d   1      -0.346   5.374  -1.013  0.00  0.00    -0.003 A 
ATOM      4  C5  UNL d   1      -0.742   4.689  -2.156  0.00  0.00     0.000 A 
ATOM      5  C6  UNL d   1      -0.915   3.306  -2.114  0.00  0.00     0.000 A 
ATOM      6  C7  UNL d   1      -0.693   2.587  -0.927  0.00  0.00    -0.073 A 
ATOM      7  C8  UNL d   1      -0.888   1.095  -0.940  0.00  0.00     0.078 C 
ENDROOT
BRANCH   1   8
ATOM      8  C1  UNL d   1       0.042   2.568   1.526  0.00  0.00     0.053 C 
ATOM      9  C   UNL d   1      -1.198   2.377   2.385  0.00  0.00     0.018 C 
ENDBRANCH   1   8
TORSDOF 1
ENDMDL
