MODEL 1
REMARK minimizedAffinity 10.3057394
REMARK minimizedRMSD -1
REMARK  1 active torsions:
REMARK  status: ('A' for Active; 'I' for Inactive)
REMARK    1  A    between atoms: C1_2  and  C2_3 
ROOT
ATOM      1  C2  UNL d   1       2.783  -4.758  -3.842  0.00  0.00    -0.076 A 
ATOM      2  C3  UNL d   1       1.501  -4.204  -3.688  0.00  0.00     0.004 A 
ATOM      3  C4  UNL d   1       0.956  -3.373  -4.666  0.00  0.00    -0.003 A 
ATOM      4  C5  UNL d   1       1.684  -3.084  -5.814  0.00  0.00     0.000 A 
ATOM      5  C6  UNL d   1       2.951  -3.640  -5.992  0.00  0.00     0.000 A 
ATOM      6  C7  UNL d   1       3.508  -4.492  -5.024  0.00  0.00    -0.073 A 
ATOM      7  C8  UNL d   1       4.881  -5.059  -5.264  0.00  0.00     0.078 C 
ENDROOT
BRANCH   1   8
ATOM      8  C1  UNL d   1       3.333  -5.630  -2.736  0.00  0.00     0.053 C 
ATOM      9  C   UNL d   1       2.277  -6.000  -1.706  0.00  0.00     0.018 C 
ENDBRANCH   1   8
TORSDOF 1
ENDMDL
