MODEL 1
REMARK minimizedAffinity 7.66116524
REMARK minimizedRMSD -1
REMARK  1 active torsions:
REMARK  status: ('A' for Active; 'I' for Inactive)
REMARK    1  A    between atoms: C1_2  and  C2_3 
ROOT
ATOM      1  C2  UNL d   1       0.304   2.245   2.717  0.00  0.00    -0.076 A 
ATOM      2  C3  UNL d   1      -0.439   2.096   1.533  0.00  0.00     0.004 A 
ATOM      3  C4  UNL d   1      -0.401   3.069   0.535  0.00  0.00    -0.003 A 
ATOM      4  C5  UNL d   1       0.381   4.206   0.705  0.00  0.00     0.000 A 
ATOM      5  C6  UNL d   1       1.138   4.362   1.866  0.00  0.00     0.000 A 
ATOM      6  C7  UNL d   1       1.124   3.383   2.874  0.00  0.00    -0.073 A 
ATOM      7  C8  UNL d   1       1.956   3.605   4.108  0.00  0.00     0.078 C 
ENDROOT
BRANCH   1   8
ATOM      8  C1  UNL d   1       0.202   1.170   3.775  0.00  0.00     0.053 C 
ATOM      9  C   UNL d   1       1.075  -0.037   3.466  0.00  0.00     0.018 C 
ENDBRANCH   1   8
TORSDOF 1
ENDMDL
