MODEL 1
REMARK minimizedAffinity 10.4523983
REMARK minimizedRMSD -1
REMARK  1 active torsions:
REMARK  status: ('A' for Active; 'I' for Inactive)
REMARK    1  A    between atoms: C1_2  and  C2_3 
ROOT
ATOM      1  C2  UNL d   1      -0.795   0.568  -1.214  0.00  0.00    -0.076 A 
ATOM      2  C3  UNL d   1       0.412   0.075  -1.740  0.00  0.00     0.004 A 
ATOM      3  C4  UNL d   1       0.428  -1.041  -2.576  0.00  0.00    -0.003 A 
ATOM      4  C5  UNL d   1      -0.763  -1.680  -2.901  0.00  0.00     0.000 A 
ATOM      5  C6  UNL d   1      -1.972  -1.194  -2.403  0.00  0.00     0.000 A 
ATOM      6  C7  UNL d   1      -2.007  -0.061  -1.571  0.00  0.00    -0.073 A 
ATOM      7  C8  UNL d   1      -3.337   0.417  -1.058  0.00  0.00     0.078 C 
ENDROOT
BRANCH   1   8
ATOM      8  C1  UNL d   1      -0.747   1.764  -0.291  0.00  0.00     0.053 C 
ATOM      9  C   UNL d   1      -0.328   3.038  -1.008  0.00  0.00     0.018 C 
ENDBRANCH   1   8
TORSDOF 1
ENDMDL
