MODEL 1
REMARK minimizedAffinity 6.81144714
REMARK minimizedRMSD -1
REMARK  1 active torsions:
REMARK  status: ('A' for Active; 'I' for Inactive)
REMARK    1  A    between atoms: C1_2  and  C2_3 
ROOT
ATOM      1  C2  UNL d   1      -1.130   0.729  -0.616  0.00  0.00    -0.076 A 
ATOM      2  C3  UNL d   1      -2.529   0.783  -0.485  0.00  0.00     0.004 A 
ATOM      3  C4  UNL d   1      -3.338  -0.226  -1.004  0.00  0.00    -0.003 A 
ATOM      4  C5  UNL d   1      -2.761  -1.307  -1.663  0.00  0.00     0.000 A 
ATOM      5  C6  UNL d   1      -1.375  -1.386  -1.786  0.00  0.00     0.000 A 
ATOM      6  C7  UNL d   1      -0.544  -0.385  -1.254  0.00  0.00    -0.073 A 
ATOM      7  C8  UNL d   1       0.945  -0.518  -1.422  0.00  0.00     0.078 C 
ENDROOT
BRANCH   1   8
ATOM      8  C1  UNL d   1      -0.306   1.866  -0.057  0.00  0.00     0.053 C 
ATOM      9  C   UNL d   1      -0.472   3.152  -0.852  0.00  0.00     0.018 C 
ENDBRANCH   1   8
TORSDOF 1
ENDMDL
