MODEL 1
REMARK minimizedAffinity 9.90666294
REMARK minimizedRMSD -1
REMARK  1 active torsions:
REMARK  status: ('A' for Active; 'I' for Inactive)
REMARK    1  A    between atoms: C1_2  and  C2_3 
ROOT
ATOM      1  C2  UNL d   1      -0.896   0.896  -0.850  0.00  0.00    -0.076 A 
ATOM      2  C3  UNL d   1      -2.280   1.118  -0.753  0.00  0.00     0.004 A 
ATOM      3  C4  UNL d   1      -3.193   0.122  -1.096  0.00  0.00    -0.003 A 
ATOM      4  C5  UNL d   1      -2.735  -1.113  -1.542  0.00  0.00     0.000 A 
ATOM      5  C6  UNL d   1      -1.365  -1.357  -1.627  0.00  0.00     0.000 A 
ATOM      6  C7  UNL d   1      -0.432  -0.369  -1.269  0.00  0.00    -0.073 A 
ATOM      7  C8  UNL d   1       1.034  -0.685  -1.386  0.00  0.00     0.078 C 
ENDROOT
BRANCH   1   8
ATOM      8  C1  UNL d   1       0.046   2.023  -0.490  0.00  0.00     0.053 C 
ATOM      9  C   UNL d   1      -0.304   3.323  -1.197  0.00  0.00     0.018 C 
ENDBRANCH   1   8
TORSDOF 1
ENDMDL
