MODEL 1
REMARK minimizedAffinity 5.13335228
REMARK minimizedRMSD -1
REMARK  0 active torsions:
REMARK  status: ('A' for Active; 'I' for Inactive)
ROOT
ATOM      1  C1  DEN d   1       2.339  -1.313   1.970  0.00  0.00     0.130 A 
ATOM      2  C2  DEN d   1       1.613  -1.745   3.162  0.00  0.00    -0.031 A 
ATOM      3  C3  DEN d   1       1.433  -0.571   4.038  0.00  0.00     0.027 A 
ATOM      4  C4  DEN d   1       2.198   1.864   3.666  0.00  0.00     0.027 A 
ATOM      5  C5  DEN d   1       2.861   2.714   2.808  0.00  0.00    -0.003 A 
ATOM      6  C6  DEN d   1       3.421   2.278   1.637  0.00  0.00     0.001 A 
ATOM      7  C7  DEN d   1       3.289   0.965   1.269  0.00  0.00     0.017 A 
ATOM      8  C8  DEN d   1       2.629   0.101   2.132  0.00  0.00    -0.094 A 
ATOM      9  C9  DEN d   1       2.059   0.563   3.306  0.00  0.00    -0.072 A 
ENDROOT
TORSDOF 0
ENDMDL
