MODEL 1
REMARK minimizedAffinity 1.98925602
REMARK minimizedRMSD -1
REMARK  0 active torsions:
REMARK  status: ('A' for Active; 'I' for Inactive)
ROOT
ATOM      1  C1  DEN d   1       2.674   1.244   1.859  0.00  0.00     0.130 A 
ATOM      2  C2  DEN d   1       2.357   1.712   0.512  0.00  0.00    -0.031 A 
ATOM      3  C3  DEN d   1       1.447   0.730  -0.110  0.00  0.00     0.027 A 
ATOM      4  C4  DEN d   1       0.498  -1.456   0.877  0.00  0.00     0.027 A 
ATOM      5  C5  DEN d   1       0.491  -2.279   1.981  0.00  0.00    -0.003 A 
ATOM      6  C6  DEN d   1       1.232  -2.005   3.100  0.00  0.00     0.001 A 
ATOM      7  C7  DEN d   1       1.977  -0.856   3.157  0.00  0.00     0.017 A 
ATOM      8  C8  DEN d   1       1.994  -0.025   2.045  0.00  0.00    -0.094 A 
ATOM      9  C9  DEN d   1       1.228  -0.313   0.928  0.00  0.00    -0.072 A 
ENDROOT
TORSDOF 0
ENDMDL
