MODEL 1
REMARK minimizedAffinity -0.716614306
REMARK minimizedRMSD -1
REMARK  0 active torsions:
REMARK  status: ('A' for Active; 'I' for Inactive)
ROOT
ATOM      1  C1  DEN d   1       2.385  -0.848   3.731  0.00  0.00     0.130 A 
ATOM      2  C2  DEN d   1       1.491  -2.002   3.751  0.00  0.00    -0.031 A 
ATOM      3  C3  DEN d   1       0.652  -1.952   2.536  0.00  0.00     0.027 A 
ATOM      4  C4  DEN d   1       0.656  -0.210   0.634  0.00  0.00     0.027 A 
ATOM      5  C5  DEN d   1       1.231   0.956   0.181  0.00  0.00    -0.003 A 
ATOM      6  C6  DEN d   1       2.199   1.616   0.890  0.00  0.00     0.001 A 
ATOM      7  C7  DEN d   1       2.654   1.089   2.070  0.00  0.00     0.017 A 
ATOM      8  C8  DEN d   1       2.074  -0.083   2.537  0.00  0.00    -0.094 A 
ATOM      9  C9  DEN d   1       1.104  -0.741   1.799  0.00  0.00    -0.072 A 
ENDROOT
TORSDOF 0
ENDMDL
