MODEL 1
REMARK minimizedAffinity 7.38580751
REMARK minimizedRMSD -1
REMARK  0 active torsions:
REMARK  status: ('A' for Active; 'I' for Inactive)
ROOT
ATOM      1  C1  DEN d   1      -1.096   0.276  -1.067  0.00  0.00     0.130 A 
ATOM      2  C2  DEN d   1      -0.932   1.084   0.138  0.00  0.00    -0.031 A 
ATOM      3  C3  DEN d   1      -0.602   0.176   1.255  0.00  0.00     0.027 A 
ATOM      4  C4  DEN d   1      -0.326  -2.388   1.235  0.00  0.00     0.027 A 
ATOM      5  C5  DEN d   1      -0.380  -3.517   0.447  0.00  0.00    -0.003 A 
ATOM      6  C6  DEN d   1      -0.707  -3.465  -0.882  0.00  0.00     0.001 A 
ATOM      7  C7  DEN d   1      -0.949  -2.253  -1.474  0.00  0.00     0.017 A 
ATOM      8  C8  DEN d   1      -0.903  -1.112  -0.685  0.00  0.00    -0.094 A 
ATOM      9  C9  DEN d   1      -0.559  -1.184   0.654  0.00  0.00    -0.072 A 
ENDROOT
TORSDOF 0
ENDMDL
