MODEL 1
REMARK minimizedAffinity -1.02351236
REMARK minimizedRMSD -1
REMARK  0 active torsions:
REMARK  status: ('A' for Active; 'I' for Inactive)
ROOT
ATOM      1  C1  DEN d   1       2.991  -1.711   4.264  0.00  0.00     0.130 A 
ATOM      2  C2  DEN d   1       2.959  -1.465   5.703  0.00  0.00    -0.031 A 
ATOM      3  C3  DEN d   1       2.845  -0.008   5.915  0.00  0.00     0.027 A 
ATOM      4  C4  DEN d   1       2.712   1.881   4.164  0.00  0.00     0.027 A 
ATOM      5  C5  DEN d   1       2.714   2.164   2.816  0.00  0.00    -0.003 A 
ATOM      6  C6  DEN d   1       2.842   1.187   1.865  0.00  0.00     0.001 A 
ATOM      7  C7  DEN d   1       2.927  -0.125   2.247  0.00  0.00     0.017 A 
ATOM      8  C8  DEN d   1       2.933  -0.418   3.605  0.00  0.00    -0.094 A 
ATOM      9  C9  DEN d   1       2.791   0.583   4.551  0.00  0.00    -0.072 A 
ENDROOT
TORSDOF 0
ENDMDL
