MODEL 1
REMARK minimizedAffinity 3.50762749
REMARK minimizedRMSD -1
REMARK  0 active torsions:
REMARK  status: ('A' for Active; 'I' for Inactive)
ROOT
ATOM      1  C1  DEN d   1       0.713  -1.206   1.175  0.00  0.00     0.130 A 
ATOM      2  C2  DEN d   1      -0.399  -0.268   1.050  0.00  0.00    -0.031 A 
ATOM      3  C3  DEN d   1      -1.351  -0.817   0.064  0.00  0.00     0.027 A 
ATOM      4  C4  DEN d   1      -1.214  -3.019  -1.272  0.00  0.00     0.027 A 
ATOM      5  C5  DEN d   1      -0.451  -4.140  -1.512  0.00  0.00    -0.003 A 
ATOM      6  C6  DEN d   1       0.760  -4.344  -0.904  0.00  0.00     0.001 A 
ATOM      7  C7  DEN d   1       1.222  -3.434   0.009  0.00  0.00     0.017 A 
ATOM      8  C8  DEN d   1       0.462  -2.297   0.251  0.00  0.00    -0.094 A 
ATOM      9  C9  DEN d   1      -0.765  -2.116  -0.364  0.00  0.00    -0.072 A 
ENDROOT
TORSDOF 0
ENDMDL
