MODEL 1
REMARK minimizedAffinity 5.91727734
REMARK minimizedRMSD -1
REMARK  0 active torsions:
REMARK  status: ('A' for Active; 'I' for Inactive)
ROOT
ATOM      1  C1  DEN d   1       2.442   1.307   0.410  0.00  0.00     0.130 A 
ATOM      2  C2  DEN d   1       2.105   0.108   1.173  0.00  0.00    -0.031 A 
ATOM      3  C3  DEN d   1       0.689   0.207   1.577  0.00  0.00     0.027 A 
ATOM      4  C4  DEN d   1      -1.009   2.088   1.094  0.00  0.00     0.027 A 
ATOM      5  C5  DEN d   1      -1.184   3.315   0.493  0.00  0.00    -0.003 A 
ATOM      6  C6  DEN d   1      -0.162   3.969  -0.142  0.00  0.00     0.001 A 
ATOM      7  C7  DEN d   1       1.071   3.378  -0.231  0.00  0.00     0.017 A 
ATOM      8  C8  DEN d   1       1.257   2.144   0.378  0.00  0.00    -0.094 A 
ATOM      9  C9  DEN d   1       0.208   1.493   1.005  0.00  0.00    -0.072 A 
ENDROOT
TORSDOF 0
ENDMDL
