MODEL 1
REMARK minimizedAffinity 6.50429535
REMARK minimizedRMSD -1
REMARK  0 active torsions:
REMARK  status: ('A' for Active; 'I' for Inactive)
ROOT
ATOM      1  C1  DEN d   1      -1.150  -0.220  -0.678  0.00  0.00     0.130 A 
ATOM      2  C2  DEN d   1      -0.422   0.375   0.439  0.00  0.00    -0.031 A 
ATOM      3  C3  DEN d   1       0.497  -0.646   0.981  0.00  0.00     0.027 A 
ATOM      4  C4  DEN d   1       0.866  -3.076   0.199  0.00  0.00     0.027 A 
ATOM      5  C5  DEN d   1       0.470  -4.036  -0.705  0.00  0.00    -0.003 A 
ATOM      6  C6  DEN d   1      -0.510  -3.805  -1.634  0.00  0.00     0.001 A 
ATOM      7  C7  DEN d   1      -1.095  -2.569  -1.710  0.00  0.00     0.017 A 
ATOM      8  C8  DEN d   1      -0.707  -1.598  -0.796  0.00  0.00    -0.094 A 
ATOM      9  C9  DEN d   1       0.294  -1.847   0.127  0.00  0.00    -0.072 A 
ENDROOT
TORSDOF 0
ENDMDL
