MODEL 1
REMARK minimizedAffinity 10.0501328
REMARK minimizedRMSD -1
REMARK  1 active torsions:
REMARK  status: ('A' for Active; 'I' for Inactive)
REMARK    1  A    between atoms: C1_2  and  C2_3 
ROOT
ATOM      1  C2  UNL d   1       3.212   4.177  -4.496  0.00  0.00    -0.081 A 
ATOM      2  C3  UNL d   1       3.753   2.955  -4.914  0.00  0.00     0.006 A 
ATOM      3  C4  UNL d   1       4.061   1.961  -3.982  0.00  0.00     0.002 A 
ATOM      4  C5  UNL d   1       3.827   2.169  -2.619  0.00  0.00    -0.080 A 
ATOM      5  C6  UNL d   1       4.125   1.099  -1.611  0.00  0.00     0.076 C 
ATOM      6  C7  UNL d   1       3.303   3.396  -2.199  0.00  0.00     0.002 A 
ATOM      7  C8  UNL d   1       2.995   4.391  -3.130  0.00  0.00     0.006 A 
ENDROOT
BRANCH   1   8
ATOM      8  C1  UNL d   1       2.818   5.226  -5.504  0.00  0.00     0.054 C 
ATOM      9  C   UNL d   1       4.031   6.000  -6.000  0.00  0.00     0.018 C 
ENDBRANCH   1   8
TORSDOF 1
ENDMDL
