MODEL 1
REMARK minimizedAffinity 4.61158514
REMARK minimizedRMSD -1
REMARK  1 active torsions:
REMARK  status: ('A' for Active; 'I' for Inactive)
REMARK    1  A    between atoms: C1_2  and  C2_3 
ROOT
ATOM      1  C2  UNL d   1       4.453   3.334  -4.262  0.00  0.00    -0.081 A 
ATOM      2  C3  UNL d   1       3.093   3.001  -4.244  0.00  0.00     0.006 A 
ATOM      3  C4  UNL d   1       2.144   3.866  -4.794  0.00  0.00     0.002 A 
ATOM      4  C5  UNL d   1       2.540   5.074  -5.378  0.00  0.00    -0.080 A 
ATOM      5  C6  UNL d   1       1.534   5.998  -5.999  0.00  0.00     0.076 C 
ATOM      6  C7  UNL d   1       3.896   5.415  -5.381  0.00  0.00     0.002 A 
ATOM      7  C8  UNL d   1       4.845   4.551  -4.830  0.00  0.00     0.006 A 
ENDROOT
BRANCH   1   8
ATOM      8  C1  UNL d   1       5.485   2.374  -3.727  0.00  0.00     0.054 C 
ATOM      9  C   UNL d   1       5.362   2.214  -2.219  0.00  0.00     0.018 C 
ENDBRANCH   1   8
TORSDOF 1
ENDMDL
