MODEL 1
REMARK minimizedAffinity 2.22582984
REMARK minimizedRMSD -1
REMARK  1 active torsions:
REMARK  status: ('A' for Active; 'I' for Inactive)
REMARK    1  A    between atoms: C1_2  and  C2_3 
ROOT
ATOM      1  C2  UNL d   1       4.407   3.733  -3.699  0.00  0.00    -0.081 A 
ATOM      2  C3  UNL d   1       4.818   4.852  -4.434  0.00  0.00     0.006 A 
ATOM      3  C4  UNL d   1       3.896   5.580  -5.190  0.00  0.00     0.002 A 
ATOM      4  C5  UNL d   1       2.548   5.208  -5.217  0.00  0.00    -0.080 A 
ATOM      5  C6  UNL d   1       1.543   5.999  -6.000  0.00  0.00     0.076 C 
ATOM      6  C7  UNL d   1       2.141   4.080  -4.496  0.00  0.00     0.002 A 
ATOM      7  C8  UNL d   1       3.062   3.351  -3.741  0.00  0.00     0.006 A 
ENDROOT
BRANCH   1   8
ATOM      8  C1  UNL d   1       5.386   2.984  -2.831  0.00  0.00     0.054 C 
ATOM      9  C   UNL d   1       4.713   1.826  -2.110  0.00  0.00     0.018 C 
ENDBRANCH   1   8
TORSDOF 1
ENDMDL
