MODEL 1
REMARK minimizedAffinity 6.69793558
REMARK minimizedRMSD -1
REMARK  1 active torsions:
REMARK  status: ('A' for Active; 'I' for Inactive)
REMARK    1  A    between atoms: C1_2  and  C2_3 
ROOT
ATOM      1  C2  UNL d   1       4.198   2.665  -4.055  0.00  0.00    -0.081 A 
ATOM      2  C3  UNL d   1       4.900   3.857  -4.277  0.00  0.00     0.006 A 
ATOM      3  C4  UNL d   1       4.282   4.934  -4.917  0.00  0.00     0.002 A 
ATOM      4  C5  UNL d   1       2.951   4.841  -5.338  0.00  0.00    -0.080 A 
ATOM      5  C6  UNL d   1       2.267   6.000  -5.999  0.00  0.00     0.076 C 
ATOM      6  C7  UNL d   1       2.256   3.644  -5.132  0.00  0.00     0.002 A 
ATOM      7  C8  UNL d   1       2.873   2.567  -4.493  0.00  0.00     0.006 A 
ENDROOT
BRANCH   1   8
ATOM      8  C1  UNL d   1       4.841   1.525  -3.308  0.00  0.00     0.054 C 
ATOM      9  C   UNL d   1       5.255   1.946  -1.905  0.00  0.00     0.018 C 
ENDBRANCH   1   8
TORSDOF 1
ENDMDL
