MODEL 1
REMARK minimizedAffinity -4.91569376
REMARK minimizedRMSD -1
REMARK  1 active torsions:
REMARK  status: ('A' for Active; 'I' for Inactive)
REMARK    1  A    between atoms: C1_2  and  C2_3 
ROOT
ATOM      1  C2  UNL d   1      -2.640   0.962   2.798  0.00  0.00    -0.081 A 
ATOM      2  C3  UNL d   1      -1.826   2.101   2.814  0.00  0.00     0.006 A 
ATOM      3  C4  UNL d   1      -0.571   2.083   2.201  0.00  0.00     0.002 A 
ATOM      4  C5  UNL d   1      -0.112   0.930   1.557  0.00  0.00    -0.080 A 
ATOM      5  C6  UNL d   1       1.221   0.907   0.869  0.00  0.00     0.076 C 
ATOM      6  C7  UNL d   1      -0.917  -0.214   1.556  0.00  0.00     0.002 A 
ATOM      7  C8  UNL d   1      -2.172  -0.197   2.169  0.00  0.00     0.006 A 
ENDROOT
BRANCH   1   8
ATOM      8  C1  UNL d   1      -4.021   0.997   3.402  0.00  0.00     0.054 C 
ATOM      9  C   UNL d   1      -4.081   1.947   4.590  0.00  0.00     0.018 C 
ENDBRANCH   1   8
TORSDOF 1
ENDMDL
