MODEL 1
REMARK minimizedAffinity 5.49021912
REMARK minimizedRMSD -1
REMARK  1 active torsions:
REMARK  status: ('A' for Active; 'I' for Inactive)
REMARK    1  A    between atoms: C1_2  and  C2_3 
ROOT
ATOM      1  C2  UNL d   1      -3.729   1.612   3.908  0.00  0.00    -0.081 A 
ATOM      2  C3  UNL d   1      -2.551   2.020   3.269  0.00  0.00     0.006 A 
ATOM      3  C4  UNL d   1      -1.719   1.082   2.653  0.00  0.00     0.002 A 
ATOM      4  C5  UNL d   1      -2.053  -0.276   2.658  0.00  0.00    -0.080 A 
ATOM      5  C6  UNL d   1      -1.183  -1.289   1.974  0.00  0.00     0.076 C 
ATOM      6  C7  UNL d   1      -3.220  -0.686   3.311  0.00  0.00     0.002 A 
ATOM      7  C8  UNL d   1      -4.053   0.251   3.928  0.00  0.00     0.006 A 
ENDROOT
BRANCH   1   8
ATOM      8  C1  UNL d   1      -4.661   2.627   4.517  0.00  0.00     0.054 C 
ATOM      9  C   UNL d   1      -4.892   2.349   5.996  0.00  0.00     0.018 C 
ENDBRANCH   1   8
TORSDOF 1
ENDMDL
