MODEL 1
REMARK minimizedAffinity 5.94498587
REMARK minimizedRMSD -1
REMARK  1 active torsions:
REMARK  status: ('A' for Active; 'I' for Inactive)
REMARK    1  A    between atoms: C3_4  and  O_7 
ROOT
ATOM      1  C   UNL d   1       6.000   3.562   5.999  0.00  0.00    -0.033 A 
ATOM      2  C1  UNL d   1       4.884   4.363   5.750  0.00  0.00     0.039 A 
ATOM      3  C2  UNL d   1       3.757   3.820   5.131  0.00  0.00    -0.080 A 
ATOM      4  C3  UNL d   1       3.758   2.476   4.767  0.00  0.00     0.150 A 
ATOM      5  C4  UNL d   1       4.865   1.671   5.015  0.00  0.00    -0.007 A 
ATOM      6  C5  UNL d   1       5.990   2.216   5.633  0.00  0.00     0.039 A 
ENDROOT
BRANCH   4   7
ATOM      7  O   UNL d   1       2.683   1.902   4.155  0.00  0.00    -0.526 OA
ATOM      8  H5  UNL d   1       2.004   2.585   4.022  0.00  0.00     0.418 HD
ENDBRANCH   4   7
TORSDOF 1
ENDMDL
