MODEL 1
REMARK minimizedAffinity 2.76872921
REMARK minimizedRMSD -1
REMARK  1 active torsions:
REMARK  status: ('A' for Active; 'I' for Inactive)
REMARK    1  A    between atoms: C3_4  and  O_7 
ROOT
ATOM      1  C   UNL d   1       5.983  -0.248  -4.682  0.00  0.00    -0.033 A 
ATOM      2  C1  UNL d   1       5.971   0.488  -5.869  0.00  0.00     0.039 A 
ATOM      3  C2  UNL d   1       5.971   1.883  -5.828  0.00  0.00    -0.080 A 
ATOM      4  C3  UNL d   1       5.984   2.530  -4.596  0.00  0.00     0.150 A 
ATOM      5  C4  UNL d   1       6.000   1.804  -3.409  0.00  0.00    -0.007 A 
ATOM      6  C5  UNL d   1       5.999   0.411  -3.452  0.00  0.00     0.039 A 
ENDROOT
BRANCH   4   7
ATOM      7  O   UNL d   1       5.980   3.891  -4.505  0.00  0.00    -0.526 OA
ATOM      8  H5  UNL d   1       5.940   4.259  -5.404  0.00  0.00     0.418 HD
ENDBRANCH   4   7
TORSDOF 1
ENDMDL
