MODEL 1
REMARK minimizedAffinity 3.89595175
REMARK minimizedRMSD -1
REMARK  1 active torsions:
REMARK  status: ('A' for Active; 'I' for Inactive)
REMARK    1  A    between atoms: C3_4  and  O_7 
ROOT
ATOM      1  C   UNL d   1       3.910   3.530   3.510  0.00  0.00    -0.033 A 
ATOM      2  C1  UNL d   1       3.567   3.473   2.158  0.00  0.00     0.039 A 
ATOM      3  C2  UNL d   1       2.531   2.639   1.733  0.00  0.00    -0.080 A 
ATOM      4  C3  UNL d   1       1.846   1.869   2.669  0.00  0.00     0.150 A 
ATOM      5  C4  UNL d   1       2.180   1.924   4.019  0.00  0.00    -0.007 A 
ATOM      6  C5  UNL d   1       3.215   2.757   4.441  0.00  0.00     0.039 A 
ENDROOT
BRANCH   4   7
ATOM      7  O   UNL d   1       0.831   1.037   2.302  0.00  0.00    -0.526 OA
ATOM      8  H5  UNL d   1       0.731   1.081   1.336  0.00  0.00     0.418 HD
ENDBRANCH   4   7
TORSDOF 1
ENDMDL
