MODEL 1
REMARK minimizedAffinity 5.57166243
REMARK minimizedRMSD -1
REMARK  1 active torsions:
REMARK  status: ('A' for Active; 'I' for Inactive)
REMARK    1  A    between atoms: C3_4  and  O_7 
ROOT
ATOM      1  C   UNL d   1      -3.223  -5.663   4.544  0.00  0.00    -0.033 A 
ATOM      2  C1  UNL d   1      -4.238  -5.886   3.612  0.00  0.00     0.039 A 
ATOM      3  C2  UNL d   1      -3.930  -5.999   2.255  0.00  0.00    -0.080 A 
ATOM      4  C3  UNL d   1      -2.604  -5.889   1.844  0.00  0.00     0.150 A 
ATOM      5  C4  UNL d   1      -1.587  -5.671   2.768  0.00  0.00    -0.007 A 
ATOM      6  C5  UNL d   1      -1.897  -5.557   4.122  0.00  0.00     0.039 A 
ENDROOT
BRANCH   4   7
ATOM      7  O   UNL d   1      -2.255  -5.987   0.530  0.00  0.00    -0.526 OA
ATOM      8  H5  UNL d   1      -3.064  -6.109   0.005  0.00  0.00     0.418 HD
ENDBRANCH   4   7
TORSDOF 1
ENDMDL
