MODEL 1
REMARK minimizedAffinity -1.23162091
REMARK minimizedRMSD -1
REMARK  1 active torsions:
REMARK  status: ('A' for Active; 'I' for Inactive)
REMARK    1  A    between atoms: C3_4  and  O_7 
ROOT
ATOM      1  C   UNL d   1      -2.797  -3.673  -0.351  0.00  0.00    -0.033 A 
ATOM      2  C1  UNL d   1      -2.784  -4.530  -1.454  0.00  0.00     0.039 A 
ATOM      3  C2  UNL d   1      -1.883  -4.313  -2.498  0.00  0.00    -0.080 A 
ATOM      4  C3  UNL d   1      -1.001  -3.239  -2.428  0.00  0.00     0.150 A 
ATOM      5  C4  UNL d   1      -1.005  -2.384  -1.330  0.00  0.00    -0.007 A 
ATOM      6  C5  UNL d   1      -1.906  -2.601  -0.289  0.00  0.00     0.039 A 
ENDROOT
BRANCH   4   7
ATOM      7  O   UNL d   1      -0.107  -2.984  -3.425  0.00  0.00    -0.526 OA
ATOM      8  H5  UNL d   1      -0.238  -3.639  -4.130  0.00  0.00     0.418 HD
ENDBRANCH   4   7
TORSDOF 1
ENDMDL
