MODEL 1
REMARK minimizedAffinity 3.49419761
REMARK minimizedRMSD -1
REMARK  1 active torsions:
REMARK  status: ('A' for Active; 'I' for Inactive)
REMARK    1  A    between atoms: C3_4  and  O_7 
ROOT
ATOM      1  C   UNL d   1       4.135   1.348  -5.978  0.00  0.00    -0.033 A 
ATOM      2  C1  UNL d   1       3.247   2.426  -5.976  0.00  0.00     0.039 A 
ATOM      3  C2  UNL d   1       3.735   3.734  -5.979  0.00  0.00    -0.080 A 
ATOM      4  C3  UNL d   1       5.110   3.951  -5.986  0.00  0.00     0.150 A 
ATOM      5  C4  UNL d   1       6.000   2.882  -5.993  0.00  0.00    -0.007 A 
ATOM      6  C5  UNL d   1       5.511   1.576  -5.988  0.00  0.00     0.039 A 
ENDROOT
BRANCH   4   7
ATOM      7  O   UNL d   1       5.633   5.210  -5.985  0.00  0.00    -0.526 OA
ATOM      8  H5  UNL d   1       4.900   5.848  -5.950  0.00  0.00     0.418 HD
ENDBRANCH   4   7
TORSDOF 1
ENDMDL
