MODEL 1
REMARK minimizedAffinity 4.56616163
REMARK minimizedRMSD -1
REMARK  1 active torsions:
REMARK  status: ('A' for Active; 'I' for Inactive)
REMARK    1  A    between atoms: C3_4  and  O_7 
ROOT
ATOM      1  C   UNL d   1       4.615   1.619  -5.690  0.00  0.00    -0.033 A 
ATOM      2  C1  UNL d   1       5.693   2.452  -5.993  0.00  0.00     0.039 A 
ATOM      3  C2  UNL d   1       5.527   3.838  -5.996  0.00  0.00    -0.080 A 
ATOM      4  C3  UNL d   1       4.280   4.378  -5.693  0.00  0.00     0.150 A 
ATOM      5  C4  UNL d   1       3.202   3.554  -5.386  0.00  0.00    -0.007 A 
ATOM      6  C5  UNL d   1       3.370   2.170  -5.385  0.00  0.00     0.039 A 
ENDROOT
BRANCH   4   7
ATOM      7  O   UNL d   1       4.069   5.725  -5.688  0.00  0.00    -0.526 OA
ATOM      8  H5  UNL d   1       4.895   6.167  -5.946  0.00  0.00     0.418 HD
ENDBRANCH   4   7
TORSDOF 1
ENDMDL
