MODEL 1
REMARK minimizedAffinity 0.444412678
REMARK minimizedRMSD -1
REMARK  1 active torsions:
REMARK  status: ('A' for Active; 'I' for Inactive)
REMARK    1  A    between atoms: C3_4  and  O_7 
ROOT
ATOM      1  C   UNL d   1      -2.211   4.175  -4.495  0.00  0.00    -0.033 A 
ATOM      2  C1  UNL d   1      -2.653   4.469  -5.787  0.00  0.00     0.039 A 
ATOM      3  C2  UNL d   1      -3.891   5.085  -5.980  0.00  0.00    -0.080 A 
ATOM      4  C3  UNL d   1      -4.676   5.402  -4.875  0.00  0.00     0.150 A 
ATOM      5  C4  UNL d   1      -4.240   5.116  -3.586  0.00  0.00    -0.007 A 
ATOM      6  C5  UNL d   1      -3.004   4.500  -3.395  0.00  0.00     0.039 A 
ENDROOT
BRANCH   4   7
ATOM      7  O   UNL d   1      -5.893   6.000  -5.015  0.00  0.00    -0.526 OA
ATOM      8  H5  UNL d   1      -6.075   6.111  -5.963  0.00  0.00     0.418 HD
ENDBRANCH   4   7
TORSDOF 1
ENDMDL
