MODEL 1
REMARK minimizedAffinity 5.09451151
REMARK minimizedRMSD -1
REMARK  1 active torsions:
REMARK  status: ('A' for Active; 'I' for Inactive)
REMARK    1  A    between atoms: C3_4  and  O_7 
ROOT
ATOM      1  C   UNL d   1       5.894   4.530   5.988  0.00  0.00    -0.033 A 
ATOM      2  C1  UNL d   1       5.996   3.314   5.310  0.00  0.00     0.039 A 
ATOM      3  C2  UNL d   1       4.924   2.844   4.549  0.00  0.00    -0.080 A 
ATOM      4  C3  UNL d   1       3.757   3.600   4.473  0.00  0.00     0.150 A 
ATOM      5  C4  UNL d   1       3.650   4.815   5.143  0.00  0.00    -0.007 A 
ATOM      6  C5  UNL d   1       4.721   5.281   5.903  0.00  0.00     0.039 A 
ENDROOT
BRANCH   4   7
ATOM      7  O   UNL d   1       2.682   3.181   3.746  0.00  0.00    -0.526 OA
ATOM      8  H5  UNL d   1       2.890   2.313   3.362  0.00  0.00     0.418 HD
ENDBRANCH   4   7
TORSDOF 1
ENDMDL
