MODEL 1
REMARK minimizedAffinity 4.69209051
REMARK minimizedRMSD -1
REMARK  1 active torsions:
REMARK  status: ('A' for Active; 'I' for Inactive)
REMARK    1  A    between atoms: C3_4  and  O_7 
ROOT
ATOM      1  C   UNL d   1       5.907   4.668   6.000  0.00  0.00    -0.033 A 
ATOM      2  C1  UNL d   1       4.775   5.417   5.673  0.00  0.00     0.039 A 
ATOM      3  C2  UNL d   1       3.735   4.834   4.946  0.00  0.00    -0.080 A 
ATOM      4  C3  UNL d   1       3.839   3.502   4.553  0.00  0.00     0.150 A 
ATOM      5  C4  UNL d   1       4.962   2.749   4.878  0.00  0.00    -0.007 A 
ATOM      6  C5  UNL d   1       6.000   3.333   5.603  0.00  0.00     0.039 A 
ENDROOT
BRANCH   4   7
ATOM      7  O   UNL d   1       2.852   2.891   3.838  0.00  0.00    -0.526 OA
ATOM      8  H5  UNL d   1       2.152   3.541   3.662  0.00  0.00     0.418 HD
ENDBRANCH   4   7
TORSDOF 1
ENDMDL
