MODEL 1
REMARK minimizedAffinity 4.63803768
REMARK minimizedRMSD -1
REMARK  1 active torsions:
REMARK  status: ('A' for Active; 'I' for Inactive)
REMARK    1  A    between atoms: C3_4  and  O_7 
ROOT
ATOM      1  C   UNL d   1       4.412   5.998   5.057  0.00  0.00    -0.033 A 
ATOM      2  C1  UNL d   1       3.900   5.003   4.222  0.00  0.00     0.039 A 
ATOM      3  C2  UNL d   1       4.422   3.709   4.273  0.00  0.00    -0.080 A 
ATOM      4  C3  UNL d   1       5.454   3.424   5.162  0.00  0.00     0.150 A 
ATOM      5  C4  UNL d   1       5.967   4.409   6.000  0.00  0.00    -0.007 A 
ATOM      6  C5  UNL d   1       5.445   5.701   5.947  0.00  0.00     0.039 A 
ENDROOT
BRANCH   4   7
ATOM      7  O   UNL d   1       6.000   2.177   5.245  0.00  0.00    -0.526 OA
ATOM      8  H5  UNL d   1       5.566   1.607   4.587  0.00  0.00     0.418 HD
ENDBRANCH   4   7
TORSDOF 1
ENDMDL
