MODEL 1
REMARK minimizedAffinity 5.31286287
REMARK minimizedRMSD -1
REMARK  1 active torsions:
REMARK  status: ('A' for Active; 'I' for Inactive)
REMARK    1  A    between atoms: C3_4  and  O_7 
ROOT
ATOM      1  C   UNL d   1      -3.541   1.322   0.692  0.00  0.00    -0.033 A 
ATOM      2  C1  UNL d   1      -4.867   1.308   1.130  0.00  0.00     0.039 A 
ATOM      3  C2  UNL d   1      -5.217   0.594   2.278  0.00  0.00    -0.080 A 
ATOM      4  C3  UNL d   1      -4.233  -0.099   2.978  0.00  0.00     0.150 A 
ATOM      5  C4  UNL d   1      -2.910  -0.086   2.550  0.00  0.00    -0.007 A 
ATOM      6  C5  UNL d   1      -2.563   0.626   1.403  0.00  0.00     0.039 A 
ENDROOT
BRANCH   4   7
ATOM      7  O   UNL d   1      -4.528  -0.814   4.101  0.00  0.00    -0.526 OA
ATOM      8  H5  UNL d   1      -5.484  -0.756   4.261  0.00  0.00     0.418 HD
ENDBRANCH   4   7
TORSDOF 1
ENDMDL
