MODEL 1
REMARK minimizedAffinity 3.16448021
REMARK minimizedRMSD -1
REMARK  1 active torsions:
REMARK  status: ('A' for Active; 'I' for Inactive)
REMARK    1  A    between atoms: C3_4  and  O_7 
ROOT
ATOM      1  C   UNL d   1      -4.245  -2.427   3.695  0.00  0.00    -0.033 A 
ATOM      2  C1  UNL d   1      -5.077  -1.313   3.565  0.00  0.00     0.039 A 
ATOM      3  C2  UNL d   1      -4.672  -0.222   2.794  0.00  0.00    -0.080 A 
ATOM      4  C3  UNL d   1      -3.434  -0.258   2.158  0.00  0.00     0.150 A 
ATOM      5  C4  UNL d   1      -2.601  -1.366   2.280  0.00  0.00    -0.007 A 
ATOM      6  C5  UNL d   1      -3.008  -2.453   3.051  0.00  0.00     0.039 A 
ENDROOT
BRANCH   4   7
ATOM      7  O   UNL d   1      -2.993   0.785   1.398  0.00  0.00    -0.526 OA
ATOM      8  H5  UNL d   1      -3.659   1.491   1.428  0.00  0.00     0.418 HD
ENDBRANCH   4   7
TORSDOF 1
ENDMDL
