MODEL 1
REMARK minimizedAffinity -0.299299091
REMARK minimizedRMSD -1
REMARK  1 active torsions:
REMARK  status: ('A' for Active; 'I' for Inactive)
REMARK    1  A    between atoms: C3_4  and  O_7 
ROOT
ATOM      1  C   UNL d   1       3.167   3.172  -4.849  0.00  0.00    -0.033 A 
ATOM      2  C1  UNL d   1       3.012   4.493  -4.422  0.00  0.00     0.039 A 
ATOM      3  C2  UNL d   1       3.955   5.459  -4.779  0.00  0.00    -0.080 A 
ATOM      4  C3  UNL d   1       5.045   5.093  -5.564  0.00  0.00     0.150 A 
ATOM      5  C4  UNL d   1       5.203   3.780  -5.997  0.00  0.00    -0.007 A 
ATOM      6  C5  UNL d   1       4.261   2.817  -5.638  0.00  0.00     0.039 A 
ENDROOT
BRANCH   4   7
ATOM      7  O   UNL d   1       5.993   6.000  -5.934  0.00  0.00    -0.526 OA
ATOM      8  H5  UNL d   1       5.768   6.858  -5.539  0.00  0.00     0.418 HD
ENDBRANCH   4   7
TORSDOF 1
ENDMDL
