MODEL 1
REMARK minimizedAffinity 2.39594388
REMARK minimizedRMSD -1
REMARK  1 active torsions:
REMARK  status: ('A' for Active; 'I' for Inactive)
REMARK    1  A    between atoms: C3_4  and  O_7 
ROOT
ATOM      1  C   UNL d   1       5.134   2.316  -5.895  0.00  0.00    -0.033 A 
ATOM      2  C1  UNL d   1       4.161   1.317  -5.824  0.00  0.00     0.039 A 
ATOM      3  C2  UNL d   1       2.807   1.656  -5.838  0.00  0.00    -0.080 A 
ATOM      4  C3  UNL d   1       2.439   2.996  -5.925  0.00  0.00     0.150 A 
ATOM      5  C4  UNL d   1       3.402   3.996  -6.000  0.00  0.00    -0.007 A 
ATOM      6  C5  UNL d   1       4.754   3.656  -5.984  0.00  0.00     0.039 A 
ENDROOT
BRANCH   4   7
ATOM      7  O   UNL d   1       1.130   3.376  -5.937  0.00  0.00    -0.526 OA
ATOM      8  H5  UNL d   1       0.578   2.580  -5.851  0.00  0.00     0.418 HD
ENDBRANCH   4   7
TORSDOF 1
ENDMDL
