MODEL 1
REMARK minimizedAffinity 2.47969508
REMARK minimizedRMSD -1
REMARK  1 active torsions:
REMARK  status: ('A' for Active; 'I' for Inactive)
REMARK    1  A    between atoms: C3_4  and  O_7 
ROOT
ATOM      1  C   UNL d   1       0.662   2.912   2.378  0.00  0.00    -0.033 A 
ATOM      2  C1  UNL d   1      -0.313   2.210   3.089  0.00  0.00     0.039 A 
ATOM      3  C2  UNL d   1      -1.605   2.090   2.573  0.00  0.00    -0.080 A 
ATOM      4  C3  UNL d   1      -1.907   2.674   1.346  0.00  0.00     0.150 A 
ATOM      5  C4  UNL d   1      -0.940   3.372   0.631  0.00  0.00    -0.007 A 
ATOM      6  C5  UNL d   1       0.349   3.492   1.148  0.00  0.00     0.039 A 
ENDROOT
BRANCH   4   7
ATOM      7  O   UNL d   1      -3.155   2.587   0.804  0.00  0.00    -0.526 OA
ATOM      8  H5  UNL d   1      -3.726   2.101   1.422  0.00  0.00     0.418 HD
ENDBRANCH   4   7
TORSDOF 1
ENDMDL
