MODEL 1
REMARK minimizedAffinity 10.3978882
REMARK minimizedRMSD -1
REMARK  3 active torsions:
REMARK  status: ('A' for Active; 'I' for Inactive)
REMARK    1  A    between atoms: C3'_2  and  C2'_3 
REMARK    2  A    between atoms: C2'_3  and  C1'_4 
REMARK    3  A    between atoms: C1'_4  and  C1_5 
ROOT
ATOM      1  C1  N4B d   1       0.900   3.005   1.621  0.00  0.00    -0.075 A 
ATOM      2  C2  N4B d   1       1.554   2.436   2.736  0.00  0.00     0.002 A 
ATOM      3  C3  N4B d   1       2.365   3.213   3.525  0.00  0.00     0.002 A 
ATOM      4  C4  N4B d   1       2.552   4.551   3.211  0.00  0.00    -0.004 A 
ATOM      5  C5  N4B d   1       1.897   5.099   2.147  0.00  0.00     0.002 A 
ATOM      6  C6  N4B d   1       1.075   4.331   1.347  0.00  0.00     0.002 A 
ENDROOT
BRANCH   1   7
ATOM      7  C1' N4B d   1       0.071   2.177   0.678  0.00  0.00     0.057 C 
BRANCH   7   8
ATOM      8  C2' N4B d   1       0.569   0.735   0.708  0.00  0.00     0.009 C 
BRANCH   8   9
ATOM      9  C3' N4B d   1      -0.577  -0.263   0.710  0.00  0.00     0.004 C 
ATOM     10  C4' N4B d   1      -1.921   0.398   0.773  0.00  0.00     0.003 C 
ENDBRANCH   8   9
ENDBRANCH   7   8
ENDBRANCH   1   7
TORSDOF 3
ENDMDL
