MODEL 1
REMARK minimizedAffinity 19.1914825
REMARK minimizedRMSD -1
REMARK  3 active torsions:
REMARK  status: ('A' for Active; 'I' for Inactive)
REMARK    1  A    between atoms: C3'_2  and  C2'_3 
REMARK    2  A    between atoms: C2'_3  and  C1'_4 
REMARK    3  A    between atoms: C1'_4  and  C1_5 
ROOT
ATOM      1  C1  N4B d   1      -5.222   3.751  -3.026  0.00  0.00    -0.075 A 
ATOM      2  C2  N4B d   1      -5.820   4.982  -3.375  0.00  0.00     0.002 A 
ATOM      3  C3  N4B d   1      -5.976   5.319  -4.697  0.00  0.00     0.002 A 
ATOM      4  C4  N4B d   1      -5.527   4.454  -5.683  0.00  0.00    -0.004 A 
ATOM      5  C5  N4B d   1      -4.973   3.256  -5.338  0.00  0.00     0.002 A 
ATOM      6  C6  N4B d   1      -4.813   2.902  -4.013  0.00  0.00     0.002 A 
ENDROOT
BRANCH   1   7
ATOM      7  C1' N4B d   1      -4.952   3.377  -1.594  0.00  0.00     0.057 C 
BRANCH   7   8
ATOM      8  C2' N4B d   1      -4.493   1.923  -1.535  0.00  0.00     0.009 C 
BRANCH   8   9
ATOM      9  C3' N4B d   1      -5.465   1.051  -0.759  0.00  0.00     0.004 C 
ATOM     10  C4' N4B d   1      -5.999  -0.090  -1.573  0.00  0.00     0.003 C 
ENDBRANCH   8   9
ENDBRANCH   7   8
ENDBRANCH   1   7
TORSDOF 3
ENDMDL
