MODEL 1
REMARK minimizedAffinity -6.30860901
REMARK minimizedRMSD -1
REMARK  3 active torsions:
REMARK  status: ('A' for Active; 'I' for Inactive)
REMARK    1  A    between atoms: C3'_2  and  C2'_3 
REMARK    2  A    between atoms: C2'_3  and  C1'_4 
REMARK    3  A    between atoms: C1'_4  and  C1_5 
ROOT
ATOM      1  C1  N4B d   1      -1.847   1.430  -0.637  0.00  0.00    -0.075 A 
ATOM      2  C2  N4B d   1      -2.038   1.891   0.684  0.00  0.00     0.002 A 
ATOM      3  C3  N4B d   1      -1.567   3.126   1.055  0.00  0.00     0.002 A 
ATOM      4  C4  N4B d   1      -0.888   3.907   0.132  0.00  0.00    -0.004 A 
ATOM      5  C5  N4B d   1      -0.730   3.466  -1.149  0.00  0.00     0.002 A 
ATOM      6  C6  N4B d   1      -1.202   2.228  -1.537  0.00  0.00     0.002 A 
ENDROOT
BRANCH   1   7
ATOM      7  C1' N4B d   1      -2.269   0.052  -1.066  0.00  0.00     0.057 C 
BRANCH   7   8
ATOM      8  C2' N4B d   1      -1.147  -0.585  -1.880  0.00  0.00     0.009 C 
BRANCH   8   9
ATOM      9  C3' N4B d   1      -0.302  -1.529  -1.042  0.00  0.00     0.004 C 
ATOM     10  C4' N4B d   1       0.871  -0.847  -0.403  0.00  0.00     0.003 C 
ENDBRANCH   8   9
ENDBRANCH   7   8
ENDBRANCH   1   7
TORSDOF 3
ENDMDL
