MODEL 1
REMARK minimizedAffinity 4.15015125
REMARK minimizedRMSD -1
REMARK  3 active torsions:
REMARK  status: ('A' for Active; 'I' for Inactive)
REMARK    1  A    between atoms: C3'_2  and  C2'_3 
REMARK    2  A    between atoms: C2'_3  and  C1'_4 
REMARK    3  A    between atoms: C1'_4  and  C1_5 
ROOT
ATOM      1  C1  N4B d   1       0.801   2.822   1.169  0.00  0.00    -0.075 A 
ATOM      2  C2  N4B d   1       1.466   2.901   2.412  0.00  0.00     0.002 A 
ATOM      3  C3  N4B d   1       2.243   3.995   2.706  0.00  0.00     0.002 A 
ATOM      4  C4  N4B d   1       2.384   5.008   1.770  0.00  0.00    -0.004 A 
ATOM      5  C5  N4B d   1       1.717   4.936   0.582  0.00  0.00     0.002 A 
ATOM      6  C6  N4B d   1       0.930   3.845   0.274  0.00  0.00     0.002 A 
ENDROOT
BRANCH   1   7
ATOM      7  C1' N4B d   1       0.010   1.607   0.767  0.00  0.00     0.057 C 
BRANCH   7   8
ATOM      8  C2' N4B d   1       0.086   1.438  -0.747  0.00  0.00     0.009 C 
BRANCH   8   9
ATOM      9  C3' N4B d   1       0.493   0.029  -1.142  0.00  0.00     0.004 C 
ATOM     10  C4' N4B d   1       1.097  -0.741  -0.005  0.00  0.00     0.003 C 
ENDBRANCH   8   9
ENDBRANCH   7   8
ENDBRANCH   1   7
TORSDOF 3
ENDMDL
