MODEL 1
REMARK minimizedAffinity 10.9050875
REMARK minimizedRMSD -1
REMARK  1 active torsions:
REMARK  status: ('A' for Active; 'I' for Inactive)
REMARK    1  A    between atoms: N_2  and  C1_3 
ROOT
ATOM      1  C1  UNL d   1      -2.904   0.318   1.533  0.00  0.00     0.143 A 
ATOM      2  C2  UNL d   1      -2.822   0.898   2.803  0.00  0.00    -0.057 A 
ATOM      3  C3  UNL d   1      -1.906   0.435   3.756  0.00  0.00     0.033 A 
ATOM      4  C4  UNL d   1      -1.074  -0.641   3.464  0.00  0.00    -0.042 A 
ATOM      5  C5  UNL d   1      -1.156  -1.250   2.216  0.00  0.00     0.033 A 
ATOM      6  C6  UNL d   1      -2.067  -0.778   1.267  0.00  0.00    -0.057 A 
ENDROOT
BRANCH   1   7
ATOM      7  N   UNL d   1      -3.860   0.669   0.578  0.00  0.00    -0.732 N 
ATOM      8  C   UNL d   1      -5.222   0.189   0.686  0.00  0.00     0.284 C 
ATOM      9  H3  UNL d   1      -3.784   1.642   0.291  0.00  0.00     0.395 HD
ENDBRANCH   1   7
TORSDOF 1
ENDMDL
