MODEL 1
REMARK minimizedAffinity 13.4031858
REMARK minimizedRMSD -1
REMARK  1 active torsions:
REMARK  status: ('A' for Active; 'I' for Inactive)
REMARK    1  A    between atoms: N_2  and  C1_3 
ROOT
ATOM      1  C1  UNL d   1      -3.421   1.741   5.317  0.00  0.00     0.143 A 
ATOM      2  C2  UNL d   1      -2.668   0.716   5.900  0.00  0.00    -0.057 A 
ATOM      3  C3  UNL d   1      -1.783  -0.058   5.140  0.00  0.00     0.033 A 
ATOM      4  C4  UNL d   1      -1.657   0.161   3.772  0.00  0.00    -0.042 A 
ATOM      5  C5  UNL d   1      -2.414   1.158   3.166  0.00  0.00     0.033 A 
ATOM      6  C6  UNL d   1      -3.291   1.932   3.932  0.00  0.00    -0.057 A 
ENDROOT
BRANCH   1   7
ATOM      7  N   UNL d   1      -4.391   2.479   6.000  0.00  0.00    -0.732 N 
ATOM      8  C   UNL d   1      -4.655   3.857   5.643  0.00  0.00     0.284 C 
ATOM      9  H3  UNL d   1      -5.226   1.934   6.199  0.00  0.00     0.395 HD
ENDBRANCH   1   7
TORSDOF 1
ENDMDL
