MODEL 1
REMARK minimizedAffinity 13.6360054
REMARK minimizedRMSD -1
REMARK  1 active torsions:
REMARK  status: ('A' for Active; 'I' for Inactive)
REMARK    1  A    between atoms: N_2  and  C1_3 
ROOT
ATOM      1  C1  UNL d   1      -3.587   1.890   5.297  0.00  0.00     0.143 A 
ATOM      2  C2  UNL d   1      -2.690   1.025   5.932  0.00  0.00    -0.057 A 
ATOM      3  C3  UNL d   1      -1.819   0.213   5.195  0.00  0.00     0.033 A 
ATOM      4  C4  UNL d   1      -1.850   0.231   3.804  0.00  0.00    -0.042 A 
ATOM      5  C5  UNL d   1      -2.752   1.065   3.152  0.00  0.00     0.033 A 
ATOM      6  C6  UNL d   1      -3.614   1.878   3.893  0.00  0.00    -0.057 A 
ENDROOT
BRANCH   1   7
ATOM      7  N   UNL d   1      -4.546   2.649   5.972  0.00  0.00    -0.732 N 
ATOM      8  C   UNL d   1      -4.460   4.093   5.996  0.00  0.00     0.284 C 
ATOM      9  H3  UNL d   1      -5.489   2.291   5.839  0.00  0.00     0.395 HD
ENDBRANCH   1   7
TORSDOF 1
ENDMDL
