MODEL 1
REMARK minimizedAffinity 18.1160641
REMARK minimizedRMSD -1
REMARK  1 active torsions:
REMARK  status: ('A' for Active; 'I' for Inactive)
REMARK    1  A    between atoms: N_2  and  C1_3 
ROOT
ATOM      1  C1  UNL d   1      -3.468   2.223   5.247  0.00  0.00     0.143 A 
ATOM      2  C2  UNL d   1      -2.582   1.385   5.934  0.00  0.00    -0.057 A 
ATOM      3  C3  UNL d   1      -1.617   0.634   5.253  0.00  0.00     0.033 A 
ATOM      4  C4  UNL d   1      -1.539   0.685   3.865  0.00  0.00    -0.042 A 
ATOM      5  C5  UNL d   1      -2.425   1.491   3.159  0.00  0.00     0.033 A 
ATOM      6  C6  UNL d   1      -3.383   2.244   3.846  0.00  0.00    -0.057 A 
ENDROOT
BRANCH   1   7
ATOM      7  N   UNL d   1      -4.513   2.919   5.858  0.00  0.00    -0.732 N 
ATOM      8  C   UNL d   1      -4.457   4.358   6.000  0.00  0.00     0.284 C 
ATOM      9  H3  UNL d   1      -5.427   2.563   5.588  0.00  0.00     0.395 HD
ENDBRANCH   1   7
TORSDOF 1
ENDMDL
