MODEL 1
REMARK minimizedAffinity 4.79594135
REMARK minimizedRMSD -1
REMARK  1 active torsions:
REMARK  status: ('A' for Active; 'I' for Inactive)
REMARK    1  A    between atoms: N_2  and  C1_3 
ROOT
ATOM      1  C1  UNL d   1      -0.678  -0.028   3.957  0.00  0.00     0.143 A 
ATOM      2  C2  UNL d   1       0.556  -0.515   4.401  0.00  0.00    -0.057 A 
ATOM      3  C3  UNL d   1       1.219  -1.543   3.721  0.00  0.00     0.033 A 
ATOM      4  C4  UNL d   1       0.642  -2.125   2.596  0.00  0.00    -0.042 A 
ATOM      5  C5  UNL d   1      -0.596  -1.675   2.152  0.00  0.00     0.033 A 
ATOM      6  C6  UNL d   1      -1.249  -0.642   2.832  0.00  0.00    -0.057 A 
ENDROOT
BRANCH   1   7
ATOM      7  N   UNL d   1      -1.432   0.925   4.646  0.00  0.00    -0.732 N 
ATOM      8  C   UNL d   1      -2.327   1.812   3.935  0.00  0.00     0.284 C 
ATOM      9  H3  UNL d   1      -1.811   0.564   5.519  0.00  0.00     0.395 HD
ENDBRANCH   1   7
TORSDOF 1
ENDMDL
