MODEL 1
REMARK minimizedAffinity 15.5012474
REMARK minimizedRMSD -1
REMARK  1 active torsions:
REMARK  status: ('A' for Active; 'I' for Inactive)
REMARK    1  A    between atoms: N_2  and  C1_3 
ROOT
ATOM      1  C1  UNL d   1       3.582  -4.865  -1.100  0.00  0.00     0.143 A 
ATOM      2  C2  UNL d   1       4.036  -5.996  -0.413  0.00  0.00    -0.057 A 
ATOM      3  C3  UNL d   1       5.223  -5.967   0.328  0.00  0.00     0.033 A 
ATOM      4  C4  UNL d   1       5.995  -4.810   0.371  0.00  0.00    -0.042 A 
ATOM      5  C5  UNL d   1       5.576  -3.682  -0.324  0.00  0.00     0.033 A 
ATOM      6  C6  UNL d   1       4.385  -3.715  -1.057  0.00  0.00    -0.057 A 
ENDROOT
BRANCH   1   7
ATOM      7  N   UNL d   1       2.461  -4.860  -1.934  0.00  0.00    -0.732 N 
ATOM      8  C   UNL d   1       2.465  -5.599  -3.179  0.00  0.00     0.284 C 
ATOM      9  H3  UNL d   1       1.589  -4.926  -1.414  0.00  0.00     0.395 HD
ENDBRANCH   1   7
TORSDOF 1
ENDMDL
