MODEL 1
REMARK minimizedAffinity 8.92043972
REMARK minimizedRMSD -1
REMARK  1 active torsions:
REMARK  status: ('A' for Active; 'I' for Inactive)
REMARK    1  A    between atoms: N_2  and  C1_3 
ROOT
ATOM      1  C1  UNL d   1      -2.478   0.476   3.463  0.00  0.00     0.143 A 
ATOM      2  C2  UNL d   1      -1.254  -0.101   3.109  0.00  0.00    -0.057 A 
ATOM      3  C3  UNL d   1      -1.171  -1.063   2.095  0.00  0.00     0.033 A 
ATOM      4  C4  UNL d   1      -2.319  -1.488   1.435  0.00  0.00    -0.042 A 
ATOM      5  C5  UNL d   1      -3.550  -0.946   1.788  0.00  0.00     0.033 A 
ATOM      6  C6  UNL d   1      -3.626   0.019   2.796  0.00  0.00    -0.057 A 
ENDROOT
BRANCH   1   7
ATOM      7  N   UNL d   1      -2.640   1.365   4.528  0.00  0.00    -0.732 N 
ATOM      8  C   UNL d   1      -3.857   1.364   5.311  0.00  0.00     0.284 C 
ATOM      9  H3  UNL d   1      -1.791   1.469   5.079  0.00  0.00     0.395 HD
ENDBRANCH   1   7
TORSDOF 1
ENDMDL
