MODEL 1
REMARK minimizedAffinity -0.747356772
REMARK minimizedRMSD -1
REMARK  1 active torsions:
REMARK  status: ('A' for Active; 'I' for Inactive)
REMARK    1  A    between atoms: N_2  and  C1_3 
ROOT
ATOM      1  C1  UNL d   1      -3.551   0.883   3.542  0.00  0.00     0.143 A 
ATOM      2  C2  UNL d   1      -4.778   0.699   2.895  0.00  0.00    -0.057 A 
ATOM      3  C3  UNL d   1      -5.990   0.910   3.563  0.00  0.00     0.033 A 
ATOM      4  C4  UNL d   1      -5.997   1.282   4.903  0.00  0.00    -0.042 A 
ATOM      5  C5  UNL d   1      -4.790   1.447   5.574  0.00  0.00     0.033 A 
ATOM      6  C6  UNL d   1      -3.583   1.241   4.899  0.00  0.00    -0.057 A 
ENDROOT
BRANCH   1   7
ATOM      7  N   UNL d   1      -2.314   0.594   2.961  0.00  0.00    -0.732 N 
ATOM      8  C   UNL d   1      -1.999  -0.750   2.528  0.00  0.00     0.284 C 
ATOM      9  H3  UNL d   1      -2.008   1.321   2.317  0.00  0.00     0.395 HD
ENDBRANCH   1   7
TORSDOF 1
ENDMDL
