MODEL 1
REMARK minimizedAffinity 7.85121346
REMARK minimizedRMSD -1
REMARK  1 active torsions:
REMARK  status: ('A' for Active; 'I' for Inactive)
REMARK    1  A    between atoms: N_2  and  C1_3 
ROOT
ATOM      1  C1  UNL d   1      -4.194   2.417   4.816  0.00  0.00     0.143 A 
ATOM      2  C2  UNL d   1      -4.235   3.327   5.878  0.00  0.00    -0.057 A 
ATOM      3  C3  UNL d   1      -5.138   4.398   5.882  0.00  0.00     0.033 A 
ATOM      4  C4  UNL d   1      -5.999   4.594   4.807  0.00  0.00    -0.042 A 
ATOM      5  C5  UNL d   1      -5.958   3.716   3.729  0.00  0.00     0.033 A 
ATOM      6  C6  UNL d   1      -5.059   2.645   3.734  0.00  0.00    -0.057 A 
ENDROOT
BRANCH   1   7
ATOM      7  N   UNL d   1      -3.253   1.390   4.708  0.00  0.00    -0.732 N 
ATOM      8  C   UNL d   1      -2.636   1.088   3.435  0.00  0.00     0.284 C 
ATOM      9  H3  UNL d   1      -2.611   1.367   5.497  0.00  0.00     0.395 HD
ENDBRANCH   1   7
TORSDOF 1
ENDMDL
