MODEL 1
REMARK minimizedAffinity 7.38110495
REMARK minimizedRMSD -1
REMARK  1 active torsions:
REMARK  status: ('A' for Active; 'I' for Inactive)
REMARK    1  A    between atoms: N_2  and  C1_3 
ROOT
ATOM      1  C1  UNL d   1       3.650   1.932  -0.367  0.00  0.00     0.143 A 
ATOM      2  C2  UNL d   1       4.862   2.629  -0.333  0.00  0.00    -0.057 A 
ATOM      3  C3  UNL d   1       5.288   3.290   0.825  0.00  0.00     0.033 A 
ATOM      4  C4  UNL d   1       4.492   3.290   1.966  0.00  0.00    -0.042 A 
ATOM      5  C5  UNL d   1       3.271   2.625   1.948  0.00  0.00     0.033 A 
ATOM      6  C6  UNL d   1       2.854   1.961   0.790  0.00  0.00    -0.057 A 
ENDROOT
BRANCH   1   7
ATOM      7  N   UNL d   1       3.125   1.339  -1.518  0.00  0.00    -0.732 N 
ATOM      8  C   UNL d   1       2.674   2.152  -2.626  0.00  0.00     0.284 C 
ATOM      9  H3  UNL d   1       3.641   0.507  -1.795  0.00  0.00     0.395 HD
ENDBRANCH   1   7
TORSDOF 1
ENDMDL
