MODEL 1
REMARK minimizedAffinity 7.14574194
REMARK minimizedRMSD -1
REMARK  1 active torsions:
REMARK  status: ('A' for Active; 'I' for Inactive)
REMARK    1  A    between atoms: N_2  and  C1_3 
ROOT
ATOM      1  C1  UNL d   1      -0.230   3.358  -3.357  0.00  0.00     0.143 A 
ATOM      2  C2  UNL d   1       0.409   4.370  -2.631  0.00  0.00    -0.057 A 
ATOM      3  C3  UNL d   1       1.288   4.068  -1.584  0.00  0.00     0.033 A 
ATOM      4  C4  UNL d   1       1.523   2.745  -1.224  0.00  0.00    -0.042 A 
ATOM      5  C5  UNL d   1       0.880   1.724  -1.915  0.00  0.00     0.033 A 
ATOM      6  C6  UNL d   1       0.008   2.031  -2.964  0.00  0.00    -0.057 A 
ENDROOT
BRANCH   1   7
ATOM      7  N   UNL d   1      -1.190   3.596  -4.343  0.00  0.00    -0.732 N 
ATOM      8  C   UNL d   1      -1.455   4.941  -4.805  0.00  0.00     0.284 C 
ATOM      9  H3  UNL d   1      -1.166   2.899  -5.084  0.00  0.00     0.395 HD
ENDBRANCH   1   7
TORSDOF 1
ENDMDL
