MODEL 1
REMARK minimizedAffinity 8.62773514
REMARK minimizedRMSD -1
REMARK  1 active torsions:
REMARK  status: ('A' for Active; 'I' for Inactive)
REMARK    1  A    between atoms: N_2  and  C1_3 
ROOT
ATOM      1  C1  UNL d   1      -3.052   5.252  -5.169  0.00  0.00     0.143 A 
ATOM      2  C2  UNL d   1      -2.420   4.320  -6.000  0.00  0.00    -0.057 A 
ATOM      3  C3  UNL d   1      -1.037   4.109  -5.932  0.00  0.00     0.033 A 
ATOM      4  C4  UNL d   1      -0.256   4.849  -5.050  0.00  0.00    -0.042 A 
ATOM      5  C5  UNL d   1      -0.860   5.798  -4.233  0.00  0.00     0.033 A 
ATOM      6  C6  UNL d   1      -2.242   6.000  -4.301  0.00  0.00    -0.057 A 
ENDROOT
BRANCH   1   7
ATOM      7  N   UNL d   1      -4.408   5.578  -5.258  0.00  0.00    -0.732 N 
ATOM      8  C   UNL d   1      -5.160   5.932  -4.073  0.00  0.00     0.284 C 
ATOM      9  H3  UNL d   1      -4.617   6.154  -6.070  0.00  0.00     0.395 HD
ENDBRANCH   1   7
TORSDOF 1
ENDMDL
