MODEL 1
REMARK minimizedAffinity 1.1316551
REMARK minimizedRMSD -1
REMARK  0 active torsions:
REMARK  status: ('A' for Active; 'I' for Inactive)
ROOT
ATOM      1  C   UNL d   1      -5.998   4.044   3.082  0.00  0.00     0.172 C 
ATOM      2  N   UNL d   1      -5.383   4.836   4.121  0.00  0.00    -0.070 N 
ATOM      3  C1  UNL d   1      -5.994   5.254   5.274  0.00  0.00    -0.004 A 
ATOM      4  C2  UNL d   1      -5.074   5.980   5.999  0.00  0.00    -0.047 A 
ATOM      5  C3  UNL d   1      -3.869   6.000   5.256  0.00  0.00    -0.047 A 
ATOM      6  C4  UNL d   1      -4.089   5.284   4.098  0.00  0.00    -0.004 A 
ENDROOT
TORSDOF 0
ENDMDL
