MODEL 1
REMARK minimizedAffinity 4.34168196
REMARK minimizedRMSD -1
REMARK  0 active torsions:
REMARK  status: ('A' for Active; 'I' for Inactive)
ROOT
ATOM      1  C   UNL d   1       2.562  -0.531  -0.027  0.00  0.00     0.172 C 
ATOM      2  N   UNL d   1       3.185   0.718  -0.398  0.00  0.00    -0.070 N 
ATOM      3  C1  UNL d   1       3.097   1.892   0.302  0.00  0.00    -0.004 A 
ATOM      4  C2  UNL d   1       3.827   2.844  -0.378  0.00  0.00    -0.047 A 
ATOM      5  C3  UNL d   1       4.370   2.220  -1.526  0.00  0.00    -0.047 A 
ATOM      6  C4  UNL d   1       3.957   0.905  -1.513  0.00  0.00    -0.004 A 
ENDROOT
TORSDOF 0
ENDMDL
