MODEL 1
REMARK minimizedAffinity 1.48133767
REMARK minimizedRMSD -1
REMARK  0 active torsions:
REMARK  status: ('A' for Active; 'I' for Inactive)
ROOT
ATOM      1  C   UNL d   1      -4.846   3.464   3.043  0.00  0.00     0.172 C 
ATOM      2  N   UNL d   1      -4.882   4.454   4.094  0.00  0.00    -0.070 N 
ATOM      3  C1  UNL d   1      -3.818   4.839   4.865  0.00  0.00    -0.004 A 
ATOM      4  C2  UNL d   1      -4.262   5.799   5.748  0.00  0.00    -0.047 A 
ATOM      5  C3  UNL d   1      -5.641   5.999   5.499  0.00  0.00    -0.047 A 
ATOM      6  C4  UNL d   1      -5.999   5.153   4.470  0.00  0.00    -0.004 A 
ENDROOT
TORSDOF 0
ENDMDL
