MODEL 1
REMARK minimizedAffinity -0.408688337
REMARK minimizedRMSD -1
REMARK  0 active torsions:
REMARK  status: ('A' for Active; 'I' for Inactive)
ROOT
ATOM      1  C   UNL d   1      -4.936   3.770   2.813  0.00  0.00     0.172 C 
ATOM      2  N   UNL d   1      -5.023   4.532   4.037  0.00  0.00    -0.070 N 
ATOM      3  C1  UNL d   1      -4.152   5.512   4.430  0.00  0.00    -0.004 A 
ATOM      4  C2  UNL d   1      -4.580   5.993   5.649  0.00  0.00    -0.047 A 
ATOM      5  C3  UNL d   1      -5.748   5.276   6.000  0.00  0.00    -0.047 A 
ATOM      6  C4  UNL d   1      -6.000   4.378   4.984  0.00  0.00    -0.004 A 
ENDROOT
TORSDOF 0
ENDMDL
