MODEL 1
REMARK minimizedAffinity 12.4744768
REMARK minimizedRMSD -1
REMARK  0 active torsions:
REMARK  status: ('A' for Active; 'I' for Inactive)
ROOT
ATOM      1  C   UNL d   1       4.692   3.597   3.459  0.00  0.00     0.172 C 
ATOM      2  N   UNL d   1       3.396   4.228   3.375  0.00  0.00    -0.070 N 
ATOM      3  C1  UNL d   1       2.201   3.579   3.212  0.00  0.00    -0.004 A 
ATOM      4  C2  UNL d   1       1.205   4.531   3.181  0.00  0.00    -0.047 A 
ATOM      5  C3  UNL d   1       1.822   5.795   3.329  0.00  0.00    -0.047 A 
ATOM      6  C4  UNL d   1       3.179   5.579   3.448  0.00  0.00    -0.004 A 
ENDROOT
TORSDOF 0
ENDMDL
