MODEL 1
REMARK minimizedAffinity 4.93830919
REMARK minimizedRMSD -1
REMARK  0 active torsions:
REMARK  status: ('A' for Active; 'I' for Inactive)
ROOT
ATOM      1  C   UNL d   1       4.203   2.027  -1.596  0.00  0.00     0.172 C 
ATOM      2  N   UNL d   1       3.381   1.120  -0.829  0.00  0.00    -0.070 N 
ATOM      3  C1  UNL d   1       2.311   0.414  -1.309  0.00  0.00    -0.004 A 
ATOM      4  C2  UNL d   1       1.797  -0.333  -0.271  0.00  0.00    -0.047 A 
ATOM      5  C3  UNL d   1       2.586  -0.065   0.873  0.00  0.00    -0.047 A 
ATOM      6  C4  UNL d   1       3.559   0.838   0.499  0.00  0.00    -0.004 A 
ENDROOT
TORSDOF 0
ENDMDL
