MODEL 1
REMARK minimizedAffinity 16.6268692
REMARK minimizedRMSD -1
REMARK  0 active torsions:
REMARK  status: ('A' for Active; 'I' for Inactive)
ROOT
ATOM      1  C   UNL d   1      -1.112  -5.722   6.000  0.00  0.00     0.172 C 
ATOM      2  N   UNL d   1      -0.519  -4.503   5.502  0.00  0.00    -0.070 N 
ATOM      3  C1  UNL d   1      -1.001  -3.745   4.469  0.00  0.00    -0.004 A 
ATOM      4  C2  UNL d   1      -0.155  -2.669   4.305  0.00  0.00    -0.047 A 
ATOM      5  C3  UNL d   1       0.872  -2.786   5.272  0.00  0.00    -0.047 A 
ATOM      6  C4  UNL d   1       0.622  -3.930   6.000  0.00  0.00    -0.004 A 
ENDROOT
TORSDOF 0
ENDMDL
