MODEL 1
REMARK minimizedAffinity 2.07493401
REMARK minimizedRMSD -1
REMARK  0 active torsions:
REMARK  status: ('A' for Active; 'I' for Inactive)
ROOT
ATOM      1  C   UNL d   1      -5.727   3.752   3.022  0.00  0.00     0.172 C 
ATOM      2  N   UNL d   1      -5.279   4.614   4.090  0.00  0.00    -0.070 N 
ATOM      3  C1  UNL d   1      -4.078   5.271   4.135  0.00  0.00    -0.004 A 
ATOM      4  C2  UNL d   1      -4.032   5.985   5.313  0.00  0.00    -0.047 A 
ATOM      5  C3  UNL d   1      -5.247   5.749   6.000  0.00  0.00    -0.047 A 
ATOM      6  C4  UNL d   1      -6.000   4.896   5.220  0.00  0.00    -0.004 A 
ENDROOT
TORSDOF 0
ENDMDL
