MODEL 1
REMARK minimizedAffinity 0.671379566
REMARK minimizedRMSD -1
REMARK  0 active torsions:
REMARK  status: ('A' for Active; 'I' for Inactive)
ROOT
ATOM      1  C   UNL d   1      -5.210   5.996   6.000  0.00  0.00     0.172 C 
ATOM      2  N   UNL d   1      -5.318   5.329   4.723  0.00  0.00    -0.070 N 
ATOM      3  C1  UNL d   1      -5.996   4.163   4.486  0.00  0.00    -0.004 A 
ATOM      4  C2  UNL d   1      -5.860   3.860   3.149  0.00  0.00    -0.047 A 
ATOM      5  C3  UNL d   1      -5.073   4.879   2.562  0.00  0.00    -0.047 A 
ATOM      6  C4  UNL d   1      -4.751   5.776   3.559  0.00  0.00    -0.004 A 
ENDROOT
TORSDOF 0
ENDMDL
