MODEL 1
REMARK minimizedAffinity 1.7172271
REMARK minimizedRMSD -1
REMARK  0 active torsions:
REMARK  status: ('A' for Active; 'I' for Inactive)
ROOT
ATOM      1  C   UNL d   1      -5.802   4.119   2.883  0.00  0.00     0.172 C 
ATOM      2  N   UNL d   1      -5.287   4.867   4.006  0.00  0.00    -0.070 N 
ATOM      3  C1  UNL d   1      -5.995   5.212   5.127  0.00  0.00    -0.004 A 
ATOM      4  C2  UNL d   1      -5.151   5.917   5.958  0.00  0.00    -0.047 A 
ATOM      5  C3  UNL d   1      -3.894   5.999   5.314  0.00  0.00    -0.047 A 
ATOM      6  C4  UNL d   1      -4.006   5.341   4.108  0.00  0.00    -0.004 A 
ENDROOT
TORSDOF 0
ENDMDL
