MODEL 1
REMARK minimizedAffinity -0.819547057
REMARK minimizedRMSD -1
REMARK  0 active torsions:
REMARK  status: ('A' for Active; 'I' for Inactive)
ROOT
ATOM      1  C   UNL d   1      -2.564   6.000   4.559  0.00  0.00     0.172 C 
ATOM      2  N   UNL d   1      -3.943   5.594   4.696  0.00  0.00    -0.070 N 
ATOM      3  C1  UNL d   1      -4.629   4.790   3.825  0.00  0.00    -0.004 A 
ATOM      4  C2  UNL d   1      -5.911   4.640   4.309  0.00  0.00    -0.047 A 
ATOM      5  C3  UNL d   1      -5.998   5.381   5.512  0.00  0.00    -0.047 A 
ATOM      6  C4  UNL d   1      -4.766   5.961   5.728  0.00  0.00    -0.004 A 
ENDROOT
TORSDOF 0
ENDMDL
