MODEL 1
REMARK minimizedAffinity 8.21533871
REMARK minimizedRMSD -1
REMARK  0 active torsions:
REMARK  status: ('A' for Active; 'I' for Inactive)
ROOT
ATOM      1  C   UNL d   1       0.678  -1.548   3.487  0.00  0.00     0.172 C 
ATOM      2  N   UNL d   1       0.208  -2.693   4.231  0.00  0.00    -0.070 N 
ATOM      3  C1  UNL d   1      -0.862  -3.479   3.895  0.00  0.00    -0.004 A 
ATOM      4  C2  UNL d   1      -0.982  -4.461   4.854  0.00  0.00    -0.047 A 
ATOM      5  C3  UNL d   1       0.051  -4.259   5.799  0.00  0.00    -0.047 A 
ATOM      6  C4  UNL d   1       0.773  -3.158   5.389  0.00  0.00    -0.004 A 
ENDROOT
TORSDOF 0
ENDMDL
