MODEL 1
REMARK minimizedAffinity 3.32306409
REMARK minimizedRMSD -1
REMARK  0 active torsions:
REMARK  status: ('A' for Active; 'I' for Inactive)
ROOT
ATOM      1  C   UNL d   1      -2.903   2.703  -3.232  0.00  0.00     0.020 A 
ATOM      2  C1  UNL d   1      -2.247   1.498  -2.987  0.00  0.00     0.020 A 
ATOM      3  C2  UNL d   1      -2.626   0.344  -3.676  0.00  0.00     0.034 A 
ATOM      4  C3  UNL d   1      -3.665   0.392  -4.612  0.00  0.00     0.017 A 
ATOM      5  C4  UNL d   1      -4.324   1.603  -4.857  0.00  0.00     0.017 A 
ATOM      6  C5  UNL d   1      -3.940   2.755  -4.165  0.00  0.00     0.034 A 
ATOM      7 Cl   UNL d   1      -5.615   1.741  -5.998  0.00  0.00    -0.070 Cl
ATOM      8 Cl1  UNL d   1      -4.082  -1.073  -5.427  0.00  0.00    -0.070 Cl
ENDROOT
TORSDOF 0
ENDMDL
