MODEL 1
REMARK minimizedAffinity 5.05078793
REMARK minimizedRMSD -1
REMARK  0 active torsions:
REMARK  status: ('A' for Active; 'I' for Inactive)
ROOT
ATOM      1  C   UNL d   1       1.936   2.520  -0.195  0.00  0.00     0.020 A 
ATOM      2  C1  UNL d   1       1.016   3.521   0.114  0.00  0.00     0.020 A 
ATOM      3  C2  UNL d   1      -0.191   3.600  -0.586  0.00  0.00     0.034 A 
ATOM      4  C3  UNL d   1      -0.480   2.676  -1.597  0.00  0.00     0.017 A 
ATOM      5  C4  UNL d   1       0.444   1.671  -1.905  0.00  0.00     0.017 A 
ATOM      6  C5  UNL d   1       1.651   1.597  -1.202  0.00  0.00     0.034 A 
ATOM      7 Cl   UNL d   1       0.158   0.496  -3.139  0.00  0.00    -0.070 Cl
ATOM      8 Cl1  UNL d   1      -1.991   2.833  -2.420  0.00  0.00    -0.070 Cl
ENDROOT
TORSDOF 0
ENDMDL
