MODEL 1
REMARK minimizedAffinity 10.2948065
REMARK minimizedRMSD -1
REMARK  0 active torsions:
REMARK  status: ('A' for Active; 'I' for Inactive)
ROOT
ATOM      1  C   UNL d   1      -0.299  -5.040  -3.668  0.00  0.00     0.020 A 
ATOM      2  C1  UNL d   1      -1.004  -3.975  -3.108  0.00  0.00     0.020 A 
ATOM      3  C2  UNL d   1      -0.416  -3.198  -2.108  0.00  0.00     0.034 A 
ATOM      4  C3  UNL d   1       0.881  -3.484  -1.665  0.00  0.00     0.017 A 
ATOM      5  C4  UNL d   1       1.588  -4.553  -2.229  0.00  0.00     0.017 A 
ATOM      6  C5  UNL d   1       0.994  -5.328  -3.230  0.00  0.00     0.034 A 
ATOM      7 Cl   UNL d   1       3.191  -4.967  -1.735  0.00  0.00    -0.070 Cl
ATOM      8 Cl1  UNL d   1       1.547  -2.481  -0.426  0.00  0.00    -0.070 Cl
ENDROOT
TORSDOF 0
ENDMDL
