MODEL 1
REMARK minimizedAffinity 0.189701647
REMARK minimizedRMSD -1
REMARK  0 active torsions:
REMARK  status: ('A' for Active; 'I' for Inactive)
ROOT
ATOM      1  C   UNL d   1       2.414   2.416  -1.046  0.00  0.00     0.020 A 
ATOM      2  C1  UNL d   1       1.912   1.293  -1.703  0.00  0.00     0.020 A 
ATOM      3  C2  UNL d   1       1.137   0.364  -1.006  0.00  0.00     0.034 A 
ATOM      4  C3  UNL d   1       0.862   0.556   0.353  0.00  0.00     0.017 A 
ATOM      5  C4  UNL d   1       1.366   1.683   1.012  0.00  0.00     0.017 A 
ATOM      6  C5  UNL d   1       2.142   2.610   0.308  0.00  0.00     0.034 A 
ATOM      7 Cl   UNL d   1       1.069   1.988   2.687  0.00  0.00    -0.070 Cl
ATOM      8 Cl1  UNL d   1      -0.104  -0.633   1.153  0.00  0.00    -0.070 Cl
ENDROOT
TORSDOF 0
ENDMDL
