MODEL 1
REMARK minimizedAffinity 15.0443077
REMARK minimizedRMSD -1
REMARK  0 active torsions:
REMARK  status: ('A' for Active; 'I' for Inactive)
ROOT
ATOM      1  C   UNL d   1       0.485  -2.473  -1.296  0.00  0.00     0.020 A 
ATOM      2  C1  UNL d   1       1.695  -2.301  -0.625  0.00  0.00     0.020 A 
ATOM      3  C2  UNL d   1       2.741  -3.204  -0.829  0.00  0.00     0.034 A 
ATOM      4  C3  UNL d   1       2.579  -4.283  -1.706  0.00  0.00     0.017 A 
ATOM      5  C4  UNL d   1       1.363  -4.455  -2.378  0.00  0.00     0.017 A 
ATOM      6  C5  UNL d   1       0.320  -3.548  -2.170  0.00  0.00     0.034 A 
ATOM      7 Cl   UNL d   1       1.088  -5.762  -3.475  0.00  0.00    -0.070 Cl
ATOM      8 Cl1  UNL d   1       3.914  -5.360  -1.910  0.00  0.00    -0.070 Cl
ENDROOT
TORSDOF 0
ENDMDL
