MODEL 1
REMARK minimizedAffinity 8.3754406
REMARK minimizedRMSD -1
REMARK  0 active torsions:
REMARK  status: ('A' for Active; 'I' for Inactive)
ROOT
ATOM      1  C   UNL d   1       2.010  -3.298  -1.509  0.00  0.00     0.020 A 
ATOM      2  C1  UNL d   1       1.370  -3.398  -2.743  0.00  0.00     0.020 A 
ATOM      3  C2  UNL d   1       0.580  -2.344  -3.207  0.00  0.00     0.034 A 
ATOM      4  C3  UNL d   1       0.428  -1.186  -2.436  0.00  0.00     0.017 A 
ATOM      5  C4  UNL d   1       1.071  -1.087  -1.197  0.00  0.00     0.017 A 
ATOM      6  C5  UNL d   1       1.861  -2.145  -0.738  0.00  0.00     0.034 A 
ATOM      7 Cl   UNL d   1       0.931   0.311  -0.190  0.00  0.00    -0.070 Cl
ATOM      8 Cl1  UNL d   1      -0.564   0.078  -3.072  0.00  0.00    -0.070 Cl
ENDROOT
TORSDOF 0
ENDMDL
