MODEL 1
REMARK minimizedAffinity 6.20090532
REMARK minimizedRMSD -1
REMARK  0 active torsions:
REMARK  status: ('A' for Active; 'I' for Inactive)
ROOT
ATOM      1  C   UNL d   1       0.780  -1.155  -0.776  0.00  0.00     0.020 A 
ATOM      2  C1  UNL d   1       0.308  -2.371  -1.268  0.00  0.00     0.020 A 
ATOM      3  C2  UNL d   1       1.209  -3.377  -1.625  0.00  0.00     0.034 A 
ATOM      4  C3  UNL d   1       2.586  -3.167  -1.491  0.00  0.00     0.017 A 
ATOM      5  C4  UNL d   1       3.059  -1.946  -0.998  0.00  0.00     0.017 A 
ATOM      6  C5  UNL d   1       2.152  -0.943  -0.641  0.00  0.00     0.034 A 
ATOM      7 Cl   UNL d   1       4.744  -1.614  -0.804  0.00  0.00    -0.070 Cl
ATOM      8 Cl1  UNL d   1       3.643  -4.454  -1.952  0.00  0.00    -0.070 Cl
ENDROOT
TORSDOF 0
ENDMDL
