MODEL 1
REMARK minimizedAffinity 2.65904689
REMARK minimizedRMSD -1
REMARK  0 active torsions:
REMARK  status: ('A' for Active; 'I' for Inactive)
ROOT
ATOM      1  C   UNL d   1       1.091  -1.026  -0.270  0.00  0.00     0.020 A 
ATOM      2  C1  UNL d   1       0.582  -1.602  -1.434  0.00  0.00     0.020 A 
ATOM      3  C2  UNL d   1       0.465  -0.838  -2.597  0.00  0.00     0.034 A 
ATOM      4  C3  UNL d   1       0.858   0.505  -2.600  0.00  0.00     0.017 A 
ATOM      5  C4  UNL d   1       1.369   1.082  -1.432  0.00  0.00     0.017 A 
ATOM      6  C5  UNL d   1       1.484   0.313  -0.270  0.00  0.00     0.034 A 
ATOM      7 Cl   UNL d   1       1.875   2.733  -1.358  0.00  0.00    -0.070 Cl
ATOM      8 Cl1  UNL d   1       0.686   1.390  -4.074  0.00  0.00    -0.070 Cl
ENDROOT
TORSDOF 0
ENDMDL
