MODEL 1
REMARK minimizedAffinity 11.1621304
REMARK minimizedRMSD -1
REMARK  0 active torsions:
REMARK  status: ('A' for Active; 'I' for Inactive)
ROOT
ATOM      1  C   UNL d   1       0.554  -2.394  -0.945  0.00  0.00     0.020 A 
ATOM      2  C1  UNL d   1       1.869  -2.723  -1.268  0.00  0.00     0.020 A 
ATOM      3  C2  UNL d   1       2.888  -1.785  -1.086  0.00  0.00     0.034 A 
ATOM      4  C3  UNL d   1       2.593  -0.514  -0.581  0.00  0.00     0.017 A 
ATOM      5  C4  UNL d   1       1.272  -0.185  -0.257  0.00  0.00     0.017 A 
ATOM      6  C5  UNL d   1       0.256  -1.127  -0.441  0.00  0.00     0.034 A 
ATOM      7 Cl   UNL d   1       0.830   1.364   0.372  0.00  0.00    -0.070 Cl
ATOM      8 Cl1  UNL d   1       3.903   0.595  -0.382  0.00  0.00    -0.070 Cl
ENDROOT
TORSDOF 0
ENDMDL
