MODEL 1
REMARK minimizedAffinity 3.1448462
REMARK minimizedRMSD -1
REMARK  0 active torsions:
REMARK  status: ('A' for Active; 'I' for Inactive)
ROOT
ATOM      1  C   UNL d   1       1.776  -1.307  -0.295  0.00  0.00     0.020 A 
ATOM      2  C1  UNL d   1       1.124  -1.953  -1.343  0.00  0.00     0.020 A 
ATOM      3  C2  UNL d   1       0.650  -1.217  -2.431  0.00  0.00     0.034 A 
ATOM      4  C3  UNL d   1       0.828   0.171  -2.473  0.00  0.00     0.017 A 
ATOM      5  C4  UNL d   1       1.484   0.819  -1.419  0.00  0.00     0.017 A 
ATOM      6  C5  UNL d   1       1.956   0.077  -0.333  0.00  0.00     0.034 A 
ATOM      7 Cl   UNL d   1       1.741   2.528  -1.400  0.00  0.00    -0.070 Cl
ATOM      8 Cl1  UNL d   1       0.218   1.019  -3.849  0.00  0.00    -0.070 Cl
ENDROOT
TORSDOF 0
ENDMDL
