MODEL 1
REMARK minimizedAffinity -2.18309379
REMARK minimizedRMSD -1
REMARK  0 active torsions:
REMARK  status: ('A' for Active; 'I' for Inactive)
ROOT
ATOM      1  C   UNL d   1      -1.033  -0.861  -2.018  0.00  0.00     0.020 A 
ATOM      2  C1  UNL d   1       0.078  -0.872  -2.861  0.00  0.00     0.020 A 
ATOM      3  C2  UNL d   1       1.245  -0.203  -2.487  0.00  0.00     0.034 A 
ATOM      4  C3  UNL d   1       1.305   0.480  -1.266  0.00  0.00     0.017 A 
ATOM      5  C4  UNL d   1       0.190   0.490  -0.421  0.00  0.00     0.017 A 
ATOM      6  C5  UNL d   1      -0.976  -0.181  -0.800  0.00  0.00     0.034 A 
ATOM      7 Cl   UNL d   1       0.188   1.310   1.101  0.00  0.00    -0.070 Cl
ATOM      8 Cl1  UNL d   1       2.781   1.284  -0.867  0.00  0.00    -0.070 Cl
ENDROOT
TORSDOF 0
ENDMDL
