MODEL 1
REMARK minimizedAffinity 1.83717942
REMARK minimizedRMSD -1
REMARK  0 active torsions:
REMARK  status: ('A' for Active; 'I' for Inactive)
ROOT
ATOM      1  C   UNL d   1       1.482  -2.039   0.182  0.00  0.00     0.020 A 
ATOM      2  C1  UNL d   1       0.864  -2.674  -0.895  0.00  0.00     0.020 A 
ATOM      3  C2  UNL d   1       0.492  -1.935  -2.020  0.00  0.00     0.034 A 
ATOM      4  C3  UNL d   1       0.738  -0.558  -2.071  0.00  0.00     0.017 A 
ATOM      5  C4  UNL d   1       1.358   0.078  -0.990  0.00  0.00     0.017 A 
ATOM      6  C5  UNL d   1       1.728  -0.667   0.135  0.00  0.00     0.034 A 
ATOM      7 Cl   UNL d   1       1.694   1.773  -0.979  0.00  0.00    -0.070 Cl
ATOM      8 Cl1  UNL d   1       0.252   0.292  -3.495  0.00  0.00    -0.070 Cl
ENDROOT
TORSDOF 0
ENDMDL
