MODEL 1
REMARK minimizedAffinity 8.93322754
REMARK minimizedRMSD -1
REMARK  0 active torsions:
REMARK  status: ('A' for Active; 'I' for Inactive)
ROOT
ATOM      1  C   UNL d   1       1.427   0.894  -0.664  0.00  0.00     0.020 A 
ATOM      2  C1  UNL d   1       1.834  -0.371  -0.241  0.00  0.00     0.020 A 
ATOM      3  C2  UNL d   1       1.434  -1.506  -0.948  0.00  0.00     0.034 A 
ATOM      4  C3  UNL d   1       0.625  -1.379  -2.084  0.00  0.00     0.017 A 
ATOM      5  C4  UNL d   1       0.218  -0.109  -2.508  0.00  0.00     0.017 A 
ATOM      6  C5  UNL d   1       0.621   1.024  -1.796  0.00  0.00     0.034 A 
ATOM      7 Cl   UNL d   1      -0.780   0.127  -3.899  0.00  0.00    -0.070 Cl
ATOM      8 Cl1  UNL d   1       0.168  -2.826  -2.911  0.00  0.00    -0.070 Cl
ENDROOT
TORSDOF 0
ENDMDL
