MODEL 1
REMARK minimizedAffinity 1.70444131
REMARK minimizedRMSD -1
REMARK  0 active torsions:
REMARK  status: ('A' for Active; 'I' for Inactive)
ROOT
ATOM      1  C   UNL d   1      -6.000  -1.597  -5.542  0.00  0.00     0.020 A 
ATOM      2  C1  UNL d   1      -5.646  -1.083  -4.295  0.00  0.00     0.020 A 
ATOM      3  C2  UNL d   1      -4.708  -1.751  -3.505  0.00  0.00     0.034 A 
ATOM      4  C3  UNL d   1      -4.122  -2.937  -3.960  0.00  0.00     0.017 A 
ATOM      5  C4  UNL d   1      -4.477  -3.453  -5.212  0.00  0.00     0.017 A 
ATOM      6  C5  UNL d   1      -5.417  -2.780  -5.999  0.00  0.00     0.034 A 
ATOM      7 Cl   UNL d   1      -3.796  -4.911  -5.841  0.00  0.00    -0.070 Cl
ATOM      8 Cl1  UNL d   1      -2.969  -3.710  -2.930  0.00  0.00    -0.070 Cl
ENDROOT
TORSDOF 0
ENDMDL
