MODEL 1
REMARK minimizedAffinity 4.44413948
REMARK minimizedRMSD -1
REMARK  0 active torsions:
REMARK  status: ('A' for Active; 'I' for Inactive)
ROOT
ATOM      1  C   UNL d   1       0.561  -0.680   0.144  0.00  0.00     0.020 A 
ATOM      2  C1  UNL d   1       1.475   0.002  -0.657  0.00  0.00     0.020 A 
ATOM      3  C2  UNL d   1       1.838   1.313  -0.341  0.00  0.00     0.034 A 
ATOM      4  C3  UNL d   1       1.288   1.945   0.780  0.00  0.00     0.017 A 
ATOM      5  C4  UNL d   1       0.370   1.259   1.584  0.00  0.00     0.017 A 
ATOM      6  C5  UNL d   1       0.010  -0.053   1.262  0.00  0.00     0.034 A 
ATOM      7 Cl   UNL d   1      -0.352   1.972   2.983  0.00  0.00    -0.070 Cl
ATOM      8 Cl1  UNL d   1       1.783   3.567   1.112  0.00  0.00    -0.070 Cl
ENDROOT
TORSDOF 0
ENDMDL
