MODEL 1
REMARK minimizedAffinity 7.11091375
REMARK minimizedRMSD -1
REMARK  0 active torsions:
REMARK  status: ('A' for Active; 'I' for Inactive)
ROOT
ATOM      1  C   UNL d   1      -2.331   1.649   5.683  0.00  0.00     0.020 A 
ATOM      2  C1  UNL d   1      -1.497   1.773   4.572  0.00  0.00     0.020 A 
ATOM      3  C2  UNL d   1      -2.049   1.918   3.298  0.00  0.00     0.034 A 
ATOM      4  C3  UNL d   1      -3.439   1.937   3.131  0.00  0.00     0.017 A 
ATOM      5  C4  UNL d   1      -4.274   1.812   4.246  0.00  0.00     0.017 A 
ATOM      6  C5  UNL d   1      -3.716   1.668   5.520  0.00  0.00     0.034 A 
ATOM      7 Cl   UNL d   1      -5.998   1.827   4.119  0.00  0.00    -0.070 Cl
ATOM      8 Cl1  UNL d   1      -4.052   2.119   1.526  0.00  0.00    -0.070 Cl
ENDROOT
TORSDOF 0
ENDMDL
