MODEL 1
REMARK minimizedAffinity 19.90485
REMARK minimizedRMSD -1
REMARK  0 active torsions:
REMARK  status: ('A' for Active; 'I' for Inactive)
ROOT
ATOM      1  C   UNL d   1      -3.008  -1.382  -4.092  0.00  0.00     0.020 A 
ATOM      2  C1  UNL d   1      -3.395  -1.284  -5.428  0.00  0.00     0.020 A 
ATOM      3  C2  UNL d   1      -3.626  -0.030  -5.998  0.00  0.00     0.034 A 
ATOM      4  C3  UNL d   1      -3.471   1.131  -5.231  0.00  0.00     0.017 A 
ATOM      5  C4  UNL d   1      -3.082   1.031  -3.890  0.00  0.00     0.017 A 
ATOM      6  C5  UNL d   1      -2.852  -0.227  -3.325  0.00  0.00     0.034 A 
ATOM      7 Cl   UNL d   1      -2.870   2.418  -2.881  0.00  0.00    -0.070 Cl
ATOM      8 Cl1  UNL d   1      -3.773   2.648  -6.000  0.00  0.00    -0.070 Cl
ENDROOT
TORSDOF 0
ENDMDL
