MODEL 1
REMARK minimizedAffinity 11.7607718
REMARK minimizedRMSD -1
REMARK  0 active torsions:
REMARK  status: ('A' for Active; 'I' for Inactive)
ROOT
ATOM      1  C   UNL d   1      -0.004  -2.059  -1.582  0.00  0.00     0.020 A 
ATOM      2  C1  UNL d   1       0.958  -2.996  -1.207  0.00  0.00     0.020 A 
ATOM      3  C2  UNL d   1       2.218  -2.570  -0.780  0.00  0.00     0.034 A 
ATOM      4  C3  UNL d   1       2.519  -1.204  -0.727  0.00  0.00     0.017 A 
ATOM      5  C4  UNL d   1       1.552  -0.265  -1.104  0.00  0.00     0.017 A 
ATOM      6  C5  UNL d   1       0.292  -0.696  -1.530  0.00  0.00     0.034 A 
ATOM      7 Cl   UNL d   1       1.850   1.437  -1.065  0.00  0.00    -0.070 Cl
ATOM      8 Cl1  UNL d   1       4.096  -0.749  -0.189  0.00  0.00    -0.070 Cl
ENDROOT
TORSDOF 0
ENDMDL
