MODEL 1
REMARK minimizedAffinity -1.94349527
REMARK minimizedRMSD -1
REMARK  0 active torsions:
REMARK  status: ('A' for Active; 'I' for Inactive)
ROOT
ATOM      1  C   UNL d   1       1.910   1.409  -1.786  0.00  0.00     0.020 A 
ATOM      2  C1  UNL d   1       1.490   0.938  -3.030  0.00  0.00     0.020 A 
ATOM      3  C2  UNL d   1       0.493  -0.036  -3.106  0.00  0.00     0.034 A 
ATOM      4  C3  UNL d   1      -0.088  -0.543  -1.938  0.00  0.00     0.017 A 
ATOM      5  C4  UNL d   1       0.334  -0.069  -0.691  0.00  0.00     0.017 A 
ATOM      6  C5  UNL d   1       1.333   0.907  -0.619  0.00  0.00     0.034 A 
ATOM      7 Cl   UNL d   1      -0.336  -0.645   0.795  0.00  0.00    -0.070 Cl
ATOM      8 Cl1  UNL d   1      -1.317  -1.746  -2.108  0.00  0.00    -0.070 Cl
ENDROOT
TORSDOF 0
ENDMDL
