MODEL 1
REMARK minimizedAffinity 14.2362518
REMARK minimizedRMSD -1
REMARK  0 active torsions:
REMARK  status: ('A' for Active; 'I' for Inactive)
ROOT
ATOM      1  C   UNL d   1       4.435   3.358   0.833  0.00  0.00     0.020 A 
ATOM      2  C1  UNL d   1       4.303   4.653   1.330  0.00  0.00     0.020 A 
ATOM      3  C2  UNL d   1       4.128   4.860   2.700  0.00  0.00     0.034 A 
ATOM      4  C3  UNL d   1       4.085   3.770   3.577  0.00  0.00     0.017 A 
ATOM      5  C4  UNL d   1       4.219   2.470   3.077  0.00  0.00     0.017 A 
ATOM      6  C5  UNL d   1       4.393   2.268   1.704  0.00  0.00     0.034 A 
ATOM      7 Cl   UNL d   1       4.176   1.075   4.096  0.00  0.00    -0.070 Cl
ATOM      8 Cl1  UNL d   1       3.867   4.100   5.259  0.00  0.00    -0.070 Cl
ENDROOT
TORSDOF 0
ENDMDL
