MODEL 1
REMARK minimizedAffinity 16.8191013
REMARK minimizedRMSD -1
REMARK  0 active torsions:
REMARK  status: ('A' for Active; 'I' for Inactive)
ROOT
ATOM      1  C   UNL d   1       5.123   5.999   2.461  0.00  0.00     0.020 A 
ATOM      2  C1  UNL d   1       5.464   5.620   3.758  0.00  0.00     0.020 A 
ATOM      3  C2  UNL d   1       5.199   4.322   4.199  0.00  0.00     0.034 A 
ATOM      4  C3  UNL d   1       4.591   3.398   3.341  0.00  0.00     0.017 A 
ATOM      5  C4  UNL d   1       4.248   3.779   2.039  0.00  0.00     0.017 A 
ATOM      6  C5  UNL d   1       4.517   5.081   1.603  0.00  0.00     0.034 A 
ATOM      7 Cl   UNL d   1       3.495   2.696   0.923  0.00  0.00    -0.070 Cl
ATOM      8 Cl1  UNL d   1       4.292   1.809   3.952  0.00  0.00    -0.070 Cl
ENDROOT
TORSDOF 0
ENDMDL
