MODEL 1
REMARK minimizedAffinity 5.50413942
REMARK minimizedRMSD -1
REMARK  0 active torsions:
REMARK  status: ('A' for Active; 'I' for Inactive)
ROOT
ATOM      1  C   UNL d   1       0.261  -0.285   3.214  0.00  0.00     0.020 A 
ATOM      2  C1  UNL d   1       0.074  -1.564   3.737  0.00  0.00     0.020 A 
ATOM      3  C2  UNL d   1      -1.192  -2.154   3.703  0.00  0.00     0.034 A 
ATOM      4  C3  UNL d   1      -2.274  -1.465   3.144  0.00  0.00     0.017 A 
ATOM      5  C4  UNL d   1      -2.085  -0.181   2.619  0.00  0.00     0.017 A 
ATOM      6  C5  UNL d   1      -0.816   0.404   2.656  0.00  0.00     0.034 A 
ATOM      7 Cl   UNL d   1      -3.373   0.731   1.914  0.00  0.00    -0.070 Cl
ATOM      8 Cl1  UNL d   1      -3.811  -2.255   3.135  0.00  0.00    -0.070 Cl
ENDROOT
TORSDOF 0
ENDMDL
