MODEL 1
REMARK minimizedAffinity 11.9410362
REMARK minimizedRMSD -1
REMARK  0 active torsions:
REMARK  status: ('A' for Active; 'I' for Inactive)
ROOT
ATOM      1  C   UNL d   1       1.620  -1.207   2.947  0.00  0.00     0.020 A 
ATOM      2  C1  UNL d   1       2.005   0.077   3.329  0.00  0.00     0.020 A 
ATOM      3  C2  UNL d   1       1.102   1.137   3.224  0.00  0.00     0.034 A 
ATOM      4  C3  UNL d   1      -0.190   0.915   2.735  0.00  0.00     0.017 A 
ATOM      5  C4  UNL d   1      -0.576  -0.374   2.352  0.00  0.00     0.017 A 
ATOM      6  C5  UNL d   1       0.332  -1.432   2.459  0.00  0.00     0.034 A 
ATOM      7 Cl   UNL d   1      -2.154  -0.726   1.740  0.00  0.00    -0.070 Cl
ATOM      8 Cl1  UNL d   1      -1.254   2.272   2.632  0.00  0.00    -0.070 Cl
ENDROOT
TORSDOF 0
ENDMDL
