MODEL 1
REMARK minimizedAffinity 16.8494663
REMARK minimizedRMSD -1
REMARK  0 active torsions:
REMARK  status: ('A' for Active; 'I' for Inactive)
ROOT
ATOM      1  C   UNL d   1       3.376  -1.274  -5.251  0.00  0.00     0.020 A 
ATOM      2  C1  UNL d   1       2.945  -0.230  -4.432  0.00  0.00     0.020 A 
ATOM      3  C2  UNL d   1       1.596  -0.127  -4.085  0.00  0.00     0.034 A 
ATOM      4  C3  UNL d   1       0.674  -1.068  -4.557  0.00  0.00     0.017 A 
ATOM      5  C4  UNL d   1       1.107  -2.114  -5.379  0.00  0.00     0.017 A 
ATOM      6  C5  UNL d   1       2.459  -2.214  -5.723  0.00  0.00     0.034 A 
ATOM      7 Cl   UNL d   1       0.028  -3.313  -5.999  0.00  0.00    -0.070 Cl
ATOM      8 Cl1  UNL d   1      -0.978  -0.878  -4.088  0.00  0.00    -0.070 Cl
ENDROOT
TORSDOF 0
ENDMDL
