MODEL 1
REMARK minimizedAffinity 9.67649174
REMARK minimizedRMSD -1
REMARK  0 active torsions:
REMARK  status: ('A' for Active; 'I' for Inactive)
ROOT
ATOM      1  C   UNL d   1       4.318   1.855   5.112  0.00  0.00     0.020 A 
ATOM      2  C1  UNL d   1       5.505   2.029   4.400  0.00  0.00     0.020 A 
ATOM      3  C2  UNL d   1       6.000   3.314   4.171  0.00  0.00     0.034 A 
ATOM      4  C3  UNL d   1       5.309   4.431   4.653  0.00  0.00     0.017 A 
ATOM      5  C4  UNL d   1       4.118   4.256   5.368  0.00  0.00     0.017 A 
ATOM      6  C5  UNL d   1       3.627   2.967   5.595  0.00  0.00     0.034 A 
ATOM      7 Cl   UNL d   1       3.210   5.586   5.995  0.00  0.00    -0.070 Cl
ATOM      8 Cl1  UNL d   1       5.979   5.991   4.333  0.00  0.00    -0.070 Cl
ENDROOT
TORSDOF 0
ENDMDL
