MODEL 1
REMARK minimizedAffinity 9.5333147
REMARK minimizedRMSD -1
REMARK  0 active torsions:
REMARK  status: ('A' for Active; 'I' for Inactive)
ROOT
ATOM      1  C   UNL d   1       0.082  -0.939  -5.999  0.00  0.00     0.020 A 
ATOM      2  C1  UNL d   1       0.049  -0.162  -4.842  0.00  0.00     0.020 A 
ATOM      3  C2  UNL d   1      -0.555  -0.657  -3.685  0.00  0.00     0.034 A 
ATOM      4  C3  UNL d   1      -1.129  -1.934  -3.682  0.00  0.00     0.017 A 
ATOM      5  C4  UNL d   1      -1.094  -2.714  -4.843  0.00  0.00     0.017 A 
ATOM      6  C5  UNL d   1      -0.488  -2.213  -5.999  0.00  0.00     0.034 A 
ATOM      7 Cl   UNL d   1      -1.780  -4.299  -4.916  0.00  0.00    -0.070 Cl
ATOM      8 Cl1  UNL d   1      -1.859  -2.484  -2.215  0.00  0.00    -0.070 Cl
ENDROOT
TORSDOF 0
ENDMDL
