MODEL 1
REMARK minimizedAffinity 16.1822033
REMARK minimizedRMSD -1
REMARK  0 active torsions:
REMARK  status: ('A' for Active; 'I' for Inactive)
ROOT
ATOM      1  C   UNL d   1      -1.127  -1.502   2.512  0.00  0.00     0.020 A 
ATOM      2  C1  UNL d   1      -0.922  -0.127   2.409  0.00  0.00     0.020 A 
ATOM      3  C2  UNL d   1       0.257   0.442   2.893  0.00  0.00     0.034 A 
ATOM      4  C3  UNL d   1       1.237  -0.365   3.483  0.00  0.00     0.017 A 
ATOM      5  C4  UNL d   1       1.031  -1.745   3.586  0.00  0.00     0.017 A 
ATOM      6  C5  UNL d   1      -0.152  -2.310   3.100  0.00  0.00     0.034 A 
ATOM      7 Cl   UNL d   1       2.194  -2.805   4.301  0.00  0.00    -0.070 Cl
ATOM      8 Cl1  UNL d   1       2.672   0.406   4.060  0.00  0.00    -0.070 Cl
ENDROOT
TORSDOF 0
ENDMDL
