MODEL 1
REMARK minimizedAffinity 9.39899063
REMARK minimizedRMSD -1
REMARK  0 active torsions:
REMARK  status: ('A' for Active; 'I' for Inactive)
ROOT
ATOM      1  C   UNL d   1      -0.616  -0.138   2.094  0.00  0.00     0.020 A 
ATOM      2  C1  UNL d   1      -1.093  -1.374   2.529  0.00  0.00     0.020 A 
ATOM      3  C2  UNL d   1      -0.283  -2.198   3.313  0.00  0.00     0.034 A 
ATOM      4  C3  UNL d   1       1.008  -1.788   3.664  0.00  0.00     0.017 A 
ATOM      5  C4  UNL d   1       1.486  -0.547   3.227  0.00  0.00     0.017 A 
ATOM      6  C5  UNL d   1       0.671   0.274   2.442  0.00  0.00     0.034 A 
ATOM      7 Cl   UNL d   1       3.068   0.027   3.620  0.00  0.00    -0.070 Cl
ATOM      8 Cl1  UNL d   1       1.954  -2.858   4.636  0.00  0.00    -0.070 Cl
ENDROOT
TORSDOF 0
ENDMDL
