MODEL 1
REMARK minimizedAffinity 6.04552889
REMARK minimizedRMSD -1
REMARK  0 active torsions:
REMARK  status: ('A' for Active; 'I' for Inactive)
ROOT
ATOM      1  C   UNL d   1      -0.742  -1.584   2.949  0.00  0.00     0.020 A 
ATOM      2  C1  UNL d   1      -0.437  -0.299   2.503  0.00  0.00     0.020 A 
ATOM      3  C2  UNL d   1       0.766   0.303   2.879  0.00  0.00     0.034 A 
ATOM      4  C3  UNL d   1       1.668  -0.381   3.702  0.00  0.00     0.017 A 
ATOM      5  C4  UNL d   1       1.361  -1.671   4.149  0.00  0.00     0.017 A 
ATOM      6  C5  UNL d   1       0.155  -2.269   3.769  0.00  0.00     0.034 A 
ATOM      7 Cl   UNL d   1       2.424  -2.578   5.167  0.00  0.00    -0.070 Cl
ATOM      8 Cl1  UNL d   1       3.137   0.424   4.127  0.00  0.00    -0.070 Cl
ENDROOT
TORSDOF 0
ENDMDL
