MODEL 1
REMARK minimizedAffinity 6.80467272
REMARK minimizedRMSD -1
REMARK  1 active torsions:
REMARK  status: ('A' for Active; 'I' for Inactive)
REMARK    1  A    between atoms: C1_2  and  C2_3 
ROOT
ATOM      1  C2  UNL d   1      -3.341  -2.325  -3.485  0.00  0.00    -0.073 A 
ATOM      2  C3  UNL d   1      -3.678  -2.836  -2.226  0.00  0.00    -0.002 A 
ATOM      3  C4  UNL d   1      -3.669  -2.007  -1.104  0.00  0.00     0.004 A 
ATOM      4  C5  UNL d   1      -3.330  -0.659  -1.229  0.00  0.00    -0.004 A 
ATOM      5  C6  UNL d   1      -3.002  -0.128  -2.480  0.00  0.00    -0.075 A 
ATOM      6  C7  UNL d   1      -2.633   1.319  -2.631  0.00  0.00     0.076 C 
ATOM      7  C8  UNL d   1      -3.011  -0.967  -3.602  0.00  0.00     0.001 A 
ENDROOT
BRANCH   1   8
ATOM      8  C1  UNL d   1      -3.356  -3.214  -4.701  0.00  0.00     0.053 C 
ATOM      9  C   UNL d   1      -4.669  -3.970  -4.839  0.00  0.00     0.018 C 
ENDBRANCH   1   8
TORSDOF 1
ENDMDL
