MODEL 1
REMARK minimizedAffinity 7.25715733
REMARK minimizedRMSD -1
REMARK  1 active torsions:
REMARK  status: ('A' for Active; 'I' for Inactive)
REMARK    1  A    between atoms: C1_2  and  C2_3 
ROOT
ATOM      1  C2  UNL d   1      -3.778   1.141  -3.246  0.00  0.00    -0.073 A 
ATOM      2  C3  UNL d   1      -2.805   1.272  -2.248  0.00  0.00    -0.002 A 
ATOM      3  C4  UNL d   1      -2.145   0.146  -1.754  0.00  0.00     0.004 A 
ATOM      4  C5  UNL d   1      -2.446  -1.120  -2.256  0.00  0.00    -0.004 A 
ATOM      5  C6  UNL d   1      -3.406  -1.271  -3.261  0.00  0.00    -0.075 A 
ATOM      6  C7  UNL d   1      -3.742  -2.626  -3.811  0.00  0.00     0.076 C 
ATOM      7  C8  UNL d   1      -4.066  -0.135  -3.751  0.00  0.00     0.001 A 
ENDROOT
BRANCH   1   8
ATOM      8  C1  UNL d   1      -4.488   2.354  -3.787  0.00  0.00     0.053 C 
ATOM      9  C   UNL d   1      -6.000   2.192  -3.755  0.00  0.00     0.018 C 
ENDBRANCH   1   8
TORSDOF 1
ENDMDL
