MODEL 1
REMARK minimizedAffinity 7.56618881
REMARK minimizedRMSD -1
REMARK  1 active torsions:
REMARK  status: ('A' for Active; 'I' for Inactive)
REMARK    1  A    between atoms: C1_2  and  C2_3 
ROOT
ATOM      1  C2  UNL d   1       2.864  -6.000  -0.560  0.00  0.00    -0.073 A 
ATOM      2  C3  UNL d   1       1.489  -5.999  -0.819  0.00  0.00    -0.002 A 
ATOM      3  C4  UNL d   1       0.573  -6.000   0.234  0.00  0.00     0.004 A 
ATOM      4  C5  UNL d   1       1.022  -5.994   1.554  0.00  0.00    -0.004 A 
ATOM      5  C6  UNL d   1       2.392  -5.983   1.834  0.00  0.00    -0.075 A 
ATOM      6  C7  UNL d   1       2.891  -5.980   3.249  0.00  0.00     0.076 C 
ATOM      7  C8  UNL d   1       3.305  -5.985   0.771  0.00  0.00     0.001 A 
ENDROOT
BRANCH   1   8
ATOM      8  C1  UNL d   1       3.856  -5.993  -1.694  0.00  0.00     0.053 C 
ATOM      9  C   UNL d   1       3.172  -5.938  -3.051  0.00  0.00     0.018 C 
ENDBRANCH   1   8
TORSDOF 1
ENDMDL
