MODEL 1
REMARK minimizedAffinity -2.02130651
REMARK minimizedRMSD -1
REMARK  1 active torsions:
REMARK  status: ('A' for Active; 'I' for Inactive)
REMARK    1  A    between atoms: C1_2  and  C2_3 
ROOT
ATOM      1  C2  UNL d   1       3.491  -5.985  -2.664  0.00  0.00    -0.073 A 
ATOM      2  C3  UNL d   1       2.195  -6.000  -3.193  0.00  0.00    -0.002 A 
ATOM      3  C4  UNL d   1       1.997  -5.992  -4.574  0.00  0.00     0.004 A 
ATOM      4  C5  UNL d   1       3.091  -5.978  -5.440  0.00  0.00    -0.004 A 
ATOM      5  C6  UNL d   1       4.394  -5.975  -4.931  0.00  0.00    -0.075 A 
ATOM      6  C7  UNL d   1       5.581  -5.957  -5.849  0.00  0.00     0.076 C 
ATOM      7  C8  UNL d   1       4.584  -5.980  -3.542  0.00  0.00     0.001 A 
ENDROOT
BRANCH   1   8
ATOM      8  C1  UNL d   1       3.709  -6.000  -1.173  0.00  0.00     0.053 C 
ATOM      9  C   UNL d   1       2.398  -5.956  -0.405  0.00  0.00     0.018 C 
ENDBRANCH   1   8
TORSDOF 1
ENDMDL
