MODEL 1
REMARK minimizedAffinity 2.26501775
REMARK minimizedRMSD -1
REMARK  1 active torsions:
REMARK  status: ('A' for Active; 'I' for Inactive)
REMARK    1  A    between atoms: C1_2  and  C2_3 
ROOT
ATOM      1  C2  UNL d   1       1.749   0.990   1.428  0.00  0.00    -0.073 A 
ATOM      2  C3  UNL d   1       2.394  -0.180   1.844  0.00  0.00    -0.002 A 
ATOM      3  C4  UNL d   1       1.663  -1.350   2.055  0.00  0.00     0.004 A 
ATOM      4  C5  UNL d   1       0.285  -1.365   1.844  0.00  0.00    -0.004 A 
ATOM      5  C6  UNL d   1      -0.376  -0.208   1.417  0.00  0.00    -0.075 A 
ATOM      6  C7  UNL d   1      -1.859  -0.207   1.188  0.00  0.00     0.076 C 
ATOM      7  C8  UNL d   1       0.364   0.964   1.210  0.00  0.00     0.001 A 
ENDROOT
BRANCH   1   8
ATOM      8  C1  UNL d   1       2.535   2.255   1.193  0.00  0.00     0.053 C 
ATOM      9  C   UNL d   1       1.953   3.085   0.059  0.00  0.00     0.018 C 
ENDBRANCH   1   8
TORSDOF 1
ENDMDL
