MODEL 1
REMARK minimizedAffinity -1.17658019
REMARK minimizedRMSD -1
REMARK  1 active torsions:
REMARK  status: ('A' for Active; 'I' for Inactive)
REMARK    1  A    between atoms: C1_2  and  C2_3 
ROOT
ATOM      1  C2  UNL d   1       5.787  -2.128  -5.286  0.00  0.00    -0.073 A 
ATOM      2  C3  UNL d   1       5.991  -0.942  -6.000  0.00  0.00    -0.002 A 
ATOM      3  C4  UNL d   1       5.800   0.295  -5.381  0.00  0.00     0.004 A 
ATOM      4  C5  UNL d   1       5.410   0.357  -4.043  0.00  0.00    -0.004 A 
ATOM      5  C6  UNL d   1       5.213  -0.817  -3.310  0.00  0.00    -0.075 A 
ATOM      6  C7  UNL d   1       4.791  -0.767  -1.871  0.00  0.00     0.076 C 
ATOM      7  C8  UNL d   1       5.404  -2.055  -3.939  0.00  0.00     0.001 A 
ENDROOT
BRANCH   1   8
ATOM      8  C1  UNL d   1       5.999  -3.465  -5.948  0.00  0.00     0.053 C 
ATOM      9  C   UNL d   1       4.872  -4.438  -5.641  0.00  0.00     0.018 C 
ENDBRANCH   1   8
TORSDOF 1
ENDMDL
