MODEL 1
REMARK minimizedAffinity -1.42156863
REMARK minimizedRMSD -1
REMARK  1 active torsions:
REMARK  status: ('A' for Active; 'I' for Inactive)
REMARK    1  A    between atoms: C1_2  and  C2_3 
ROOT
ATOM      1  C2  UNL d   1       5.596  -2.257  -5.286  0.00  0.00    -0.073 A 
ATOM      2  C3  UNL d   1       5.689  -1.056  -6.000  0.00  0.00    -0.002 A 
ATOM      3  C4  UNL d   1       5.320   0.149  -5.402  0.00  0.00     0.004 A 
ATOM      4  C5  UNL d   1       4.861   0.168  -4.085  0.00  0.00    -0.004 A 
ATOM      5  C6  UNL d   1       4.772  -1.020  -3.352  0.00  0.00    -0.075 A 
ATOM      6  C7  UNL d   1       4.278  -1.017  -1.935  0.00  0.00     0.076 C 
ATOM      7  C8  UNL d   1       5.142  -2.227  -3.960  0.00  0.00     0.001 A 
ENDROOT
BRANCH   1   8
ATOM      8  C1  UNL d   1       6.000  -3.560  -5.925  0.00  0.00     0.053 C 
ATOM      9  C   UNL d   1       4.846  -4.548  -5.984  0.00  0.00     0.018 C 
ENDBRANCH   1   8
TORSDOF 1
ENDMDL
