MODEL 1
REMARK minimizedAffinity -0.655971885
REMARK minimizedRMSD -1
REMARK  0 active torsions:
REMARK  status: ('A' for Active; 'I' for Inactive)
ROOT
ATOM      1  C1  BNZ d   1      -2.056  -2.046  -1.172  0.00  0.00     0.000 A 
ATOM      2  C2  BNZ d   1      -1.608  -2.349   0.086  0.00  0.00     0.000 A 
ATOM      3  C3  BNZ d   1      -0.290  -2.635   0.309  0.00  0.00     0.000 A 
ATOM      4  C4  BNZ d   1       0.569  -2.657  -0.730  0.00  0.00     0.000 A 
ATOM      5  C5  BNZ d   1       0.131  -2.363  -2.006  0.00  0.00     0.000 A 
ATOM      6  C6  BNZ d   1      -1.188  -2.037  -2.221  0.00  0.00     0.000 A 
ENDROOT
TORSDOF 0
ENDMDL
