MODEL 1
REMARK minimizedAffinity 8.61839581
REMARK minimizedRMSD -1
REMARK  0 active torsions:
REMARK  status: ('A' for Active; 'I' for Inactive)
ROOT
ATOM      1  C1  BNZ d   1       2.226   0.962   2.144  0.00  0.00     0.000 A 
ATOM      2  C2  BNZ d   1       1.800   2.197   1.735  0.00  0.00     0.000 A 
ATOM      3  C3  BNZ d   1       2.212   2.720   0.541  0.00  0.00     0.000 A 
ATOM      4  C4  BNZ d   1       3.080   2.025  -0.222  0.00  0.00     0.000 A 
ATOM      5  C5  BNZ d   1       3.526   0.782   0.181  0.00  0.00     0.000 A 
ATOM      6  C6  BNZ d   1       3.079   0.243   1.365  0.00  0.00     0.000 A 
ENDROOT
TORSDOF 0
ENDMDL
