MODEL 1
REMARK minimizedAffinity -0.171115026
REMARK minimizedRMSD -1
REMARK  0 active torsions:
REMARK  status: ('A' for Active; 'I' for Inactive)
ROOT
ATOM      1  C1  BNZ d   1      -1.157  -2.542  -2.322  0.00  0.00     0.000 A 
ATOM      2  C2  BNZ d   1      -1.944  -2.712  -1.214  0.00  0.00     0.000 A 
ATOM      3  C3  BNZ d   1      -1.446  -2.487   0.039  0.00  0.00     0.000 A 
ATOM      4  C4  BNZ d   1      -0.153  -2.133   0.185  0.00  0.00     0.000 A 
ATOM      5  C5  BNZ d   1       0.656  -1.967  -0.922  0.00  0.00     0.000 A 
ATOM      6  C6  BNZ d   1       0.141  -2.156  -2.184  0.00  0.00     0.000 A 
ENDROOT
TORSDOF 0
ENDMDL
