MODEL 1
REMARK minimizedAffinity -1.46670127
REMARK minimizedRMSD -1
REMARK  0 active torsions:
REMARK  status: ('A' for Active; 'I' for Inactive)
ROOT
ATOM      1  C1  BNZ d   1       4.420   6.000  -2.053  0.00  0.00     0.000 A 
ATOM      2  C2  BNZ d   1       5.691   5.997  -2.563  0.00  0.00     0.000 A 
ATOM      3  C3  BNZ d   1       6.000   5.254  -3.668  0.00  0.00     0.000 A 
ATOM      4  C4  BNZ d   1       5.050   4.483  -4.236  0.00  0.00     0.000 A 
ATOM      5  C5  BNZ d   1       3.766   4.468  -3.728  0.00  0.00     0.000 A 
ATOM      6  C6  BNZ d   1       3.449   5.248  -2.640  0.00  0.00     0.000 A 
ENDROOT
TORSDOF 0
ENDMDL
