MODEL 1
REMARK minimizedAffinity -0.966857612
REMARK minimizedRMSD -1
REMARK  0 active torsions:
REMARK  status: ('A' for Active; 'I' for Inactive)
ROOT
ATOM      1  C1  BNZ d   1       0.779   0.270   0.400  0.00  0.00     0.000 A 
ATOM      2  C2  BNZ d   1       1.772   1.204   0.269  0.00  0.00     0.000 A 
ATOM      3  C3  BNZ d   1       2.836   1.220   1.127  0.00  0.00     0.000 A 
ATOM      4  C4  BNZ d   1       2.885   0.330   2.139  0.00  0.00     0.000 A 
ATOM      5  C5  BNZ d   1       1.887  -0.612   2.290  0.00  0.00     0.000 A 
ATOM      6  C6  BNZ d   1       0.837  -0.650   1.401  0.00  0.00     0.000 A 
ENDROOT
TORSDOF 0
ENDMDL
