MODEL 1
REMARK minimizedAffinity 4.9300375
REMARK minimizedRMSD -1
REMARK  0 active torsions:
REMARK  status: ('A' for Active; 'I' for Inactive)
ROOT
ATOM      1  C1  BNZ d   1       3.016  -0.065   2.653  0.00  0.00     0.000 A 
ATOM      2  C2  BNZ d   1       2.113  -1.059   2.923  0.00  0.00     0.000 A 
ATOM      3  C3  BNZ d   1       0.991  -1.212   2.158  0.00  0.00     0.000 A 
ATOM      4  C4  BNZ d   1       0.752  -0.347   1.150  0.00  0.00     0.000 A 
ATOM      5  C5  BNZ d   1       1.648   0.666   0.872  0.00  0.00     0.000 A 
ATOM      6  C6  BNZ d   1       2.796   0.792   1.619  0.00  0.00     0.000 A 
ENDROOT
TORSDOF 0
ENDMDL
