MODEL 1
REMARK minimizedAffinity 6.10966682
REMARK minimizedRMSD -1
REMARK  0 active torsions:
REMARK  status: ('A' for Active; 'I' for Inactive)
ROOT
ATOM      1  C1  BNZ d   1       2.794  -0.012   2.989  0.00  0.00     0.000 A 
ATOM      2  C2  BNZ d   1       2.071  -1.162   3.157  0.00  0.00     0.000 A 
ATOM      3  C3  BNZ d   1       1.097  -1.514   2.265  0.00  0.00     0.000 A 
ATOM      4  C4  BNZ d   1       0.822  -0.697   1.228  0.00  0.00     0.000 A 
ATOM      5  C5  BNZ d   1       1.536   0.471   1.050  0.00  0.00     0.000 A 
ATOM      6  C6  BNZ d   1       2.541   0.803   1.929  0.00  0.00     0.000 A 
ENDROOT
TORSDOF 0
ENDMDL
