MODEL 1
REMARK minimizedAffinity 0.758554757
REMARK minimizedRMSD -1
REMARK  0 active torsions:
REMARK  status: ('A' for Active; 'I' for Inactive)
ROOT
ATOM      1  C1  BNZ d   1      -5.434   2.228  -1.494  0.00  0.00     0.000 A 
ATOM      2  C2  BNZ d   1      -4.865   3.049  -0.558  0.00  0.00     0.000 A 
ATOM      3  C3  BNZ d   1      -4.836   2.693   0.762  0.00  0.00     0.000 A 
ATOM      4  C4  BNZ d   1      -5.412   1.536   1.149  0.00  0.00     0.000 A 
ATOM      5  C5  BNZ d   1      -5.998   0.702   0.218  0.00  0.00     0.000 A 
ATOM      6  C6  BNZ d   1      -5.991   1.045  -1.114  0.00  0.00     0.000 A 
ENDROOT
TORSDOF 0
ENDMDL
