MODEL 1
REMARK minimizedAffinity -0.382859498
REMARK minimizedRMSD -1
REMARK  0 active torsions:
REMARK  status: ('A' for Active; 'I' for Inactive)
ROOT
ATOM      1  C1  BNZ d   1       0.639  -2.277   2.225  0.00  0.00     0.000 A 
ATOM      2  C2  BNZ d   1       1.568  -1.708   3.055  0.00  0.00     0.000 A 
ATOM      3  C3  BNZ d   1       1.981  -0.419   2.864  0.00  0.00     0.000 A 
ATOM      4  C4  BNZ d   1       1.497   0.285   1.820  0.00  0.00     0.000 A 
ATOM      5  C5  BNZ d   1       0.567  -0.278   0.969  0.00  0.00     0.000 A 
ATOM      6  C6  BNZ d   1       0.124  -1.562   1.188  0.00  0.00     0.000 A 
ENDROOT
TORSDOF 0
ENDMDL
