MODEL 1
REMARK minimizedAffinity 0.398776382
REMARK minimizedRMSD -1
REMARK  0 active torsions:
REMARK  status: ('A' for Active; 'I' for Inactive)
ROOT
ATOM      1  C   UNL d   1      -0.479  -3.579  -3.530  0.00  0.00     0.124 A 
ATOM      2  C1  UNL d   1      -0.918  -3.724  -2.221  0.00  0.00     0.062 A 
ATOM      3  C2  UNL d   1      -0.836  -2.656  -1.333  0.00  0.00     0.162 A 
ATOM      4  C3  UNL d   1      -0.313  -1.432  -1.750  0.00  0.00    -0.034 A 
ATOM      5  C4  UNL d   1       0.127  -1.294  -3.067  0.00  0.00     0.162 A 
ATOM      6  C5  UNL d   1       0.043  -2.364  -3.952  0.00  0.00     0.062 A 
ATOM      7  F   UNL d   1       0.468  -2.222  -5.216  0.00  0.00    -0.097 F 
ATOM      8  F1  UNL d   1       0.636  -0.131  -3.502  0.00  0.00    -0.096 F 
ATOM      9  I   UNL d   1      -0.188   0.168  -0.424  0.00  0.00    -0.060 I 
ATOM     10  F2  UNL d   1      -1.268  -2.825  -0.074  0.00  0.00    -0.096 F 
ATOM     11  F3  UNL d   1      -1.422  -4.897  -1.811  0.00  0.00    -0.097 F 
ATOM     12  F4  UNL d   1      -0.559  -4.608  -4.383  0.00  0.00    -0.092 F 
ENDROOT
TORSDOF 0
ENDMDL
