MODEL 1
REMARK minimizedAffinity -0.247144625
REMARK minimizedRMSD -1
REMARK  0 active torsions:
REMARK  status: ('A' for Active; 'I' for Inactive)
ROOT
ATOM      1  C   UNL d   1      -0.383   1.287   0.612  0.00  0.00     0.124 A 
ATOM      2  C1  UNL d   1      -0.949   0.064   0.945  0.00  0.00     0.062 A 
ATOM      3  C2  UNL d   1      -0.856  -1.013   0.068  0.00  0.00     0.162 A 
ATOM      4  C3  UNL d   1      -0.193  -0.871  -1.152  0.00  0.00    -0.034 A 
ATOM      5  C4  UNL d   1       0.373   0.362  -1.480  0.00  0.00     0.162 A 
ATOM      6  C5  UNL d   1       0.277   1.435  -0.599  0.00  0.00     0.062 A 
ATOM      7  F   UNL d   1       0.824   2.616  -0.923  0.00  0.00    -0.097 F 
ATOM      8  F1  UNL d   1       1.017   0.533  -2.644  0.00  0.00    -0.096 F 
ATOM      9  I   UNL d   1      -0.052  -2.478  -2.467  0.00  0.00    -0.060 I 
ATOM     10  F2  UNL d   1      -1.411  -2.183   0.415  0.00  0.00    -0.096 F 
ATOM     11  F3  UNL d   1      -1.588  -0.082   2.115  0.00  0.00    -0.097 F 
ATOM     12  F4  UNL d   1      -0.475   2.321   1.458  0.00  0.00    -0.092 F 
ENDROOT
TORSDOF 0
ENDMDL
