MODEL 1
REMARK minimizedAffinity -1.03364861
REMARK minimizedRMSD -1
REMARK  0 active torsions:
REMARK  status: ('A' for Active; 'I' for Inactive)
ROOT
ATOM      1  C   UNL d   1      -1.727   0.376   0.686  0.00  0.00     0.124 A 
ATOM      2  C1  UNL d   1      -1.280   1.690   0.707  0.00  0.00     0.062 A 
ATOM      3  C2  UNL d   1       0.047   1.983   0.406  0.00  0.00     0.162 A 
ATOM      4  C3  UNL d   1       0.937   0.959   0.081  0.00  0.00    -0.034 A 
ATOM      5  C4  UNL d   1       0.481  -0.360   0.062  0.00  0.00     0.162 A 
ATOM      6  C5  UNL d   1      -0.846  -0.647   0.364  0.00  0.00     0.062 A 
ATOM      7  F   UNL d   1      -1.276  -1.917   0.343  0.00  0.00    -0.097 F 
ATOM      8  F1  UNL d   1       1.310  -1.368  -0.246  0.00  0.00    -0.096 F 
ATOM      9  I   UNL d   1       2.922   1.393  -0.370  0.00  0.00    -0.060 I 
ATOM     10  F2  UNL d   1       0.451   3.261   0.434  0.00  0.00    -0.096 F 
ATOM     11  F3  UNL d   1      -2.129   2.680   1.019  0.00  0.00    -0.097 F 
ATOM     12  F4  UNL d   1      -3.004   0.097   0.976  0.00  0.00    -0.092 F 
ENDROOT
TORSDOF 0
ENDMDL
