MODEL 1
REMARK minimizedAffinity -4.97552729
REMARK minimizedRMSD -1
REMARK  0 active torsions:
REMARK  status: ('A' for Active; 'I' for Inactive)
ROOT
ATOM      1  C   UNL d   1       1.556   2.975   0.181  0.00  0.00     0.124 A 
ATOM      2  C1  UNL d   1       0.229   2.722  -0.134  0.00  0.00     0.062 A 
ATOM      3  C2  UNL d   1      -0.246   1.414  -0.167  0.00  0.00     0.162 A 
ATOM      4  C3  UNL d   1       0.607   0.348   0.118  0.00  0.00    -0.034 A 
ATOM      5  C4  UNL d   1       1.942   0.610   0.434  0.00  0.00     0.162 A 
ATOM      6  C5  UNL d   1       2.411   1.919   0.465  0.00  0.00     0.062 A 
ATOM      7  F   UNL d   1       3.695   2.162   0.770  0.00  0.00    -0.097 F 
ATOM      8  F1  UNL d   1       2.790  -0.391   0.713  0.00  0.00    -0.096 F 
ATOM      9  I   UNL d   1      -0.099  -1.609   0.071  0.00  0.00    -0.060 I 
ATOM     10  F2  UNL d   1      -1.534   1.199  -0.474  0.00  0.00    -0.096 F 
ATOM     11  F3  UNL d   1      -0.599   3.740  -0.410  0.00  0.00    -0.097 F 
ATOM     12  F4  UNL d   1       2.011   4.234   0.210  0.00  0.00    -0.092 F 
ENDROOT
TORSDOF 0
ENDMDL
