MODEL 1
REMARK minimizedAffinity 1.3948046
REMARK minimizedRMSD -1
REMARK  0 active torsions:
REMARK  status: ('A' for Active; 'I' for Inactive)
ROOT
ATOM      1  C   UNL d   1       0.499   1.832   1.020  0.00  0.00     0.124 A 
ATOM      2  C1  UNL d   1       1.372   0.764   0.870  0.00  0.00     0.062 A 
ATOM      3  C2  UNL d   1       0.952  -0.401   0.233  0.00  0.00     0.162 A 
ATOM      4  C3  UNL d   1      -0.349  -0.503  -0.259  0.00  0.00    -0.034 A 
ATOM      5  C4  UNL d   1      -1.223   0.575  -0.104  0.00  0.00     0.162 A 
ATOM      6  C5  UNL d   1      -0.798   1.737   0.533  0.00  0.00     0.062 A 
ATOM      7  F   UNL d   1      -1.643   2.768   0.677  0.00  0.00    -0.097 F 
ATOM      8  F1  UNL d   1      -2.480   0.511  -0.565  0.00  0.00    -0.096 F 
ATOM      9  I   UNL d   1      -0.982  -2.242  -1.212  0.00  0.00    -0.060 I 
ATOM     10  F2  UNL d   1       1.817  -1.417   0.102  0.00  0.00    -0.096 F 
ATOM     11  F3  UNL d   1       2.625   0.853   1.340  0.00  0.00    -0.097 F 
ATOM     12  F4  UNL d   1       0.906   2.950   1.633  0.00  0.00    -0.092 F 
ENDROOT
TORSDOF 0
ENDMDL
