MODEL 1
REMARK minimizedAffinity 0.0386773199
REMARK minimizedRMSD -1
REMARK  0 active torsions:
REMARK  status: ('A' for Active; 'I' for Inactive)
ROOT
ATOM      1  C   UNL d   1       0.748   1.631   0.425  0.00  0.00     0.124 A 
ATOM      2  C1  UNL d   1       1.532   0.544   0.788  0.00  0.00     0.062 A 
ATOM      3  C2  UNL d   1       1.110  -0.750   0.500  0.00  0.00     0.162 A 
ATOM      4  C3  UNL d   1      -0.103  -0.966  -0.155  0.00  0.00    -0.034 A 
ATOM      5  C4  UNL d   1      -0.886   0.132  -0.516  0.00  0.00     0.162 A 
ATOM      6  C5  UNL d   1      -0.459   1.424  -0.227  0.00  0.00     0.062 A 
ATOM      7  F   UNL d   1      -1.218   2.472  -0.579  0.00  0.00    -0.097 F 
ATOM      8  F1  UNL d   1      -2.057  -0.040  -1.148  0.00  0.00    -0.096 F 
ATOM      9  I   UNL d   1      -0.738  -2.900  -0.587  0.00  0.00    -0.060 I 
ATOM     10  F2  UNL d   1       1.887  -1.782   0.863  0.00  0.00    -0.096 F 
ATOM     11  F3  UNL d   1       2.699   0.742   1.418  0.00  0.00    -0.097 F 
ATOM     12  F4  UNL d   1       1.157   2.876   0.703  0.00  0.00    -0.092 F 
ENDROOT
TORSDOF 0
ENDMDL
