MODEL 1
REMARK minimizedAffinity 0.586597562
REMARK minimizedRMSD -1
REMARK  0 active torsions:
REMARK  status: ('A' for Active; 'I' for Inactive)
ROOT
ATOM      1  C   UNL d   1      -0.835   1.918   0.484  0.00  0.00     0.124 A 
ATOM      2  C1  UNL d   1      -1.489   0.733   0.790  0.00  0.00     0.062 A 
ATOM      3  C2  UNL d   1      -0.830  -0.486   0.656  0.00  0.00     0.162 A 
ATOM      4  C3  UNL d   1       0.492  -0.525   0.214  0.00  0.00    -0.034 A 
ATOM      5  C4  UNL d   1       1.144   0.671  -0.094  0.00  0.00     0.162 A 
ATOM      6  C5  UNL d   1       0.480   1.886   0.042  0.00  0.00     0.062 A 
ATOM      7  F   UNL d   1       1.114   3.030  -0.255  0.00  0.00    -0.097 F 
ATOM      8  F1  UNL d   1       2.415   0.668  -0.522  0.00  0.00    -0.096 F 
ATOM      9  I   UNL d   1       1.482  -2.345   0.012  0.00  0.00    -0.060 I 
ATOM     10  F2  UNL d   1      -1.487  -1.615   0.960  0.00  0.00    -0.096 F 
ATOM     11  F3  UNL d   1      -2.760   0.761   1.216  0.00  0.00    -0.097 F 
ATOM     12  F4  UNL d   1      -1.472   3.089   0.612  0.00  0.00    -0.092 F 
ENDROOT
TORSDOF 0
ENDMDL
