MODEL 1
REMARK minimizedAffinity 1.75451612
REMARK minimizedRMSD -1
REMARK  0 active torsions:
REMARK  status: ('A' for Active; 'I' for Inactive)
ROOT
ATOM      1  C   UNL d   1      -0.805  -0.237   0.151  0.00  0.00     0.124 A 
ATOM      2  C1  UNL d   1       0.297  -1.048   0.384  0.00  0.00     0.062 A 
ATOM      3  C2  UNL d   1       0.329  -2.347  -0.115  0.00  0.00     0.162 A 
ATOM      4  C3  UNL d   1      -0.745  -2.843  -0.854  0.00  0.00    -0.034 A 
ATOM      5  C4  UNL d   1      -1.851  -2.022  -1.084  0.00  0.00     0.162 A 
ATOM      6  C5  UNL d   1      -1.877  -0.724  -0.583  0.00  0.00     0.062 A 
ATOM      7  F   UNL d   1      -2.942   0.058  -0.810  0.00  0.00    -0.097 F 
ATOM      8  F1  UNL d   1      -2.900  -2.467  -1.790  0.00  0.00    -0.096 F 
ATOM      9  I   UNL d   1      -0.703  -4.785  -1.601  0.00  0.00    -0.060 I 
ATOM     10  F2  UNL d   1       1.406  -3.109   0.127  0.00  0.00    -0.096 F 
ATOM     11  F3  UNL d   1       1.334  -0.580   1.094  0.00  0.00    -0.097 F 
ATOM     12  F4  UNL d   1      -0.832   1.012   0.633  0.00  0.00    -0.092 F 
ENDROOT
TORSDOF 0
ENDMDL
