MODEL 1
REMARK minimizedAffinity -1.22472405
REMARK minimizedRMSD -1
REMARK  0 active torsions:
REMARK  status: ('A' for Active; 'I' for Inactive)
ROOT
ATOM      1  C   UNL d   1      -1.861   1.190   0.669  0.00  0.00     0.124 A 
ATOM      2  C1  UNL d   1      -1.032   2.169   0.140  0.00  0.00     0.062 A 
ATOM      3  C2  UNL d   1       0.340   1.950   0.048  0.00  0.00     0.162 A 
ATOM      4  C3  UNL d   1       0.890   0.745   0.484  0.00  0.00    -0.034 A 
ATOM      5  C4  UNL d   1       0.050  -0.235   1.016  0.00  0.00     0.162 A 
ATOM      6  C5  UNL d   1      -1.320  -0.010   1.106  0.00  0.00     0.062 A 
ATOM      7  F   UNL d   1      -2.120  -0.957   1.618  0.00  0.00    -0.097 F 
ATOM      8  F1  UNL d   1       0.546  -1.405   1.445  0.00  0.00    -0.096 F 
ATOM      9  I   UNL d   1       2.940   0.412   0.348  0.00  0.00    -0.060 I 
ATOM     10  F2  UNL d   1       1.117   2.913  -0.468  0.00  0.00    -0.096 F 
ATOM     11  F3  UNL d   1      -1.552   3.331  -0.282  0.00  0.00    -0.097 F 
ATOM     12  F4  UNL d   1      -3.180   1.405   0.758  0.00  0.00    -0.092 F 
ENDROOT
TORSDOF 0
ENDMDL
