MODEL 1
REMARK minimizedAffinity 0.234324887
REMARK minimizedRMSD -1
REMARK  0 active torsions:
REMARK  status: ('A' for Active; 'I' for Inactive)
ROOT
ATOM      1  C   UNL d   1       0.114  -1.713  -1.048  0.00  0.00     0.124 A 
ATOM      2  C1  UNL d   1       0.013  -2.685  -2.034  0.00  0.00     0.062 A 
ATOM      3  C2  UNL d   1      -1.017  -3.620  -1.992  0.00  0.00     0.162 A 
ATOM      4  C3  UNL d   1      -1.955  -3.589  -0.960  0.00  0.00    -0.034 A 
ATOM      5  C4  UNL d   1      -1.846  -2.609   0.029  0.00  0.00     0.162 A 
ATOM      6  C5  UNL d   1      -0.815  -1.677  -0.018  0.00  0.00     0.062 A 
ATOM      7  F   UNL d   1      -0.719  -0.739   0.936  0.00  0.00    -0.097 F 
ATOM      8  F1  UNL d   1      -2.730  -2.550   1.035  0.00  0.00    -0.096 F 
ATOM      9  I   UNL d   1      -3.496  -4.986  -0.894  0.00  0.00    -0.060 I 
ATOM     10  F2  UNL d   1      -1.091  -4.548  -2.958  0.00  0.00    -0.096 F 
ATOM     11  F3  UNL d   1       0.910  -2.723  -3.030  0.00  0.00    -0.097 F 
ATOM     12  F4  UNL d   1       1.106  -0.815  -1.090  0.00  0.00    -0.092 F 
ENDROOT
TORSDOF 0
ENDMDL
