MODEL 1
REMARK minimizedAffinity -4.36458111
REMARK minimizedRMSD -1
REMARK  0 active torsions:
REMARK  status: ('A' for Active; 'I' for Inactive)
ROOT
ATOM      1  C   UNL d   1       1.481   2.674   0.439  0.00  0.00     0.124 A 
ATOM      2  C1  UNL d   1       2.409   1.648   0.548  0.00  0.00     0.062 A 
ATOM      3  C2  UNL d   1       2.005   0.322   0.422  0.00  0.00     0.162 A 
ATOM      4  C3  UNL d   1       0.665   0.015   0.184  0.00  0.00    -0.034 A 
ATOM      5  C4  UNL d   1      -0.263   1.052   0.076  0.00  0.00     0.162 A 
ATOM      6  C5  UNL d   1       0.146   2.375   0.204  0.00  0.00     0.062 A 
ATOM      7  F   UNL d   1      -0.752   3.365   0.098  0.00  0.00    -0.097 F 
ATOM      8  F1  UNL d   1      -1.558   0.791  -0.152  0.00  0.00    -0.096 F 
ATOM      9  I   UNL d   1       0.057  -1.967  -0.006  0.00  0.00    -0.060 I 
ATOM     10  F2  UNL d   1       2.923  -0.649   0.532  0.00  0.00    -0.096 F 
ATOM     11  F3  UNL d   1       3.699   1.935   0.777  0.00  0.00    -0.097 F 
ATOM     12  F4  UNL d   1       1.872   3.949   0.562  0.00  0.00    -0.092 F 
ENDROOT
TORSDOF 0
ENDMDL
