MODEL 1
REMARK minimizedAffinity 1.22505617
REMARK minimizedRMSD -1
REMARK  0 active torsions:
REMARK  status: ('A' for Active; 'I' for Inactive)
ROOT
ATOM      1  C   UNL d   1       1.815   2.357  -0.201  0.00  0.00     0.124 A 
ATOM      2  C1  UNL d   1       0.657   2.253  -0.959  0.00  0.00     0.062 A 
ATOM      3  C2  UNL d   1       0.037   1.018  -1.123  0.00  0.00     0.162 A 
ATOM      4  C3  UNL d   1       0.574  -0.124  -0.528  0.00  0.00    -0.034 A 
ATOM      5  C4  UNL d   1       1.739  -0.011   0.232  0.00  0.00     0.162 A 
ATOM      6  C5  UNL d   1       2.355   1.226   0.393  0.00  0.00     0.062 A 
ATOM      7  F   UNL d   1       3.474   1.325   1.126  0.00  0.00    -0.097 F 
ATOM      8  F1  UNL d   1       2.282  -1.088   0.818  0.00  0.00    -0.096 F 
ATOM      9  I   UNL d   1      -0.350  -1.973  -0.771  0.00  0.00    -0.060 I 
ATOM     10  F2  UNL d   1      -1.081   0.946  -1.861  0.00  0.00    -0.096 F 
ATOM     11  F3  UNL d   1       0.134   3.345  -1.535  0.00  0.00    -0.097 F 
ATOM     12  F4  UNL d   1       2.410   3.547  -0.045  0.00  0.00    -0.092 F 
ENDROOT
TORSDOF 0
ENDMDL
