MODEL 1
REMARK minimizedAffinity -4.37908745
REMARK minimizedRMSD -1
REMARK  0 active torsions:
REMARK  status: ('A' for Active; 'I' for Inactive)
ROOT
ATOM      1  C   UNL d   1       1.013   2.487   0.572  0.00  0.00     0.124 A 
ATOM      2  C1  UNL d   1      -0.300   2.122   0.306  0.00  0.00     0.062 A 
ATOM      3  C2  UNL d   1      -0.621   0.790   0.060  0.00  0.00     0.162 A 
ATOM      4  C3  UNL d   1       0.373  -0.188   0.080  0.00  0.00    -0.034 A 
ATOM      5  C4  UNL d   1       1.691   0.186   0.347  0.00  0.00     0.162 A 
ATOM      6  C5  UNL d   1       2.007   1.519   0.592  0.00  0.00     0.062 A 
ATOM      7  F   UNL d   1       3.276   1.869   0.849  0.00  0.00    -0.097 F 
ATOM      8  F1  UNL d   1       2.672  -0.729   0.374  0.00  0.00    -0.096 F 
ATOM      9  I   UNL d   1      -0.102  -2.181  -0.286  0.00  0.00    -0.060 I 
ATOM     10  F2  UNL d   1      -1.898   0.467  -0.193  0.00  0.00    -0.096 F 
ATOM     11  F3  UNL d   1      -1.262   3.056   0.285  0.00  0.00    -0.097 F 
ATOM     12  F4  UNL d   1       1.319   3.769   0.807  0.00  0.00    -0.092 F 
ENDROOT
TORSDOF 0
ENDMDL
