MODEL 1
REMARK minimizedAffinity 0.357531637
REMARK minimizedRMSD -1
REMARK  0 active torsions:
REMARK  status: ('A' for Active; 'I' for Inactive)
ROOT
ATOM      1  C   UNL d   1       0.809   1.308   0.798  0.00  0.00     0.124 A 
ATOM      2  C1  UNL d   1       1.726   0.266   0.786  0.00  0.00     0.062 A 
ATOM      3  C2  UNL d   1       1.386  -0.958   0.218  0.00  0.00     0.162 A 
ATOM      4  C3  UNL d   1       0.123  -1.147  -0.344  0.00  0.00    -0.034 A 
ATOM      5  C4  UNL d   1      -0.794  -0.094  -0.327  0.00  0.00     0.162 A 
ATOM      6  C5  UNL d   1      -0.449   1.127   0.242  0.00  0.00     0.062 A 
ATOM      7  F   UNL d   1      -1.336   2.133   0.253  0.00  0.00    -0.097 F 
ATOM      8  F1  UNL d   1      -2.016  -0.242  -0.858  0.00  0.00    -0.096 F 
ATOM      9  I   UNL d   1      -0.389  -2.976  -1.195  0.00  0.00    -0.060 I 
ATOM     10  F2  UNL d   1       2.292  -1.948   0.220  0.00  0.00    -0.096 F 
ATOM     11  F3  UNL d   1       2.942   0.438   1.324  0.00  0.00    -0.097 F 
ATOM     12  F4  UNL d   1       1.138   2.485   1.347  0.00  0.00    -0.092 F 
ENDROOT
TORSDOF 0
ENDMDL
