MODEL 1
REMARK minimizedAffinity -3.32118368
REMARK minimizedRMSD -1
REMARK  0 active torsions:
REMARK  status: ('A' for Active; 'I' for Inactive)
ROOT
ATOM      1  C   UNL d   1       0.619   1.888   0.459  0.00  0.00     0.124 A 
ATOM      2  C1  UNL d   1       1.498   0.815   0.479  0.00  0.00     0.062 A 
ATOM      3  C2  UNL d   1       1.019  -0.485   0.353  0.00  0.00     0.162 A 
ATOM      4  C3  UNL d   1      -0.348  -0.720   0.205  0.00  0.00    -0.034 A 
ATOM      5  C4  UNL d   1      -1.227   0.364   0.187  0.00  0.00     0.162 A 
ATOM      6  C5  UNL d   1      -0.743   1.662   0.314  0.00  0.00     0.062 A 
ATOM      7  F   UNL d   1      -1.594   2.698   0.295  0.00  0.00    -0.097 F 
ATOM      8  F1  UNL d   1      -2.547   0.174   0.047  0.00  0.00    -0.096 F 
ATOM      9  I   UNL d   1      -1.069  -2.663   0.016  0.00  0.00    -0.060 I 
ATOM     10  F2  UNL d   1       1.892  -1.504   0.375  0.00  0.00    -0.096 F 
ATOM     11  F3  UNL d   1       2.814   1.031   0.620  0.00  0.00    -0.097 F 
ATOM     12  F4  UNL d   1       1.083   3.139   0.582  0.00  0.00    -0.092 F 
ENDROOT
TORSDOF 0
ENDMDL
