MODEL 1
REMARK minimizedAffinity 0.143446177
REMARK minimizedRMSD -1
REMARK  0 active torsions:
REMARK  status: ('A' for Active; 'I' for Inactive)
ROOT
ATOM      1  C   UNL d   1       0.635   2.752   0.160  0.00  0.00     0.124 A 
ATOM      2  C1  UNL d   1       1.589   1.788  -0.135  0.00  0.00     0.062 A 
ATOM      3  C2  UNL d   1       1.224   0.449  -0.234  0.00  0.00     0.162 A 
ATOM      4  C3  UNL d   1      -0.103   0.065  -0.037  0.00  0.00    -0.034 A 
ATOM      5  C4  UNL d   1      -1.056   1.040   0.261  0.00  0.00     0.162 A 
ATOM      6  C5  UNL d   1      -0.686   2.378   0.358  0.00  0.00     0.062 A 
ATOM      7  F   UNL d   1      -1.609   3.308   0.644  0.00  0.00    -0.097 F 
ATOM      8  F1  UNL d   1      -2.341   0.706   0.456  0.00  0.00    -0.096 F 
ATOM      9  I   UNL d   1      -0.654  -1.936  -0.183  0.00  0.00    -0.060 I 
ATOM     10  F2  UNL d   1       2.166  -0.461  -0.521  0.00  0.00    -0.096 F 
ATOM     11  F3  UNL d   1       2.867   2.148  -0.326  0.00  0.00    -0.097 F 
ATOM     12  F4  UNL d   1       0.990   4.040   0.255  0.00  0.00    -0.092 F 
ENDROOT
TORSDOF 0
ENDMDL
