MODEL 1
REMARK minimizedAffinity -0.149075732
REMARK minimizedRMSD -1
REMARK  0 active torsions:
REMARK  status: ('A' for Active; 'I' for Inactive)
ROOT
ATOM      1  C   UNL d   1       2.029   0.762  -0.479  0.00  0.00     0.124 A 
ATOM      2  C1  UNL d   1       0.973   1.648  -0.643  0.00  0.00     0.062 A 
ATOM      3  C2  UNL d   1      -0.270   1.368  -0.083  0.00  0.00     0.162 A 
ATOM      4  C3  UNL d   1      -0.464   0.197   0.648  0.00  0.00    -0.034 A 
ATOM      5  C4  UNL d   1       0.602  -0.691   0.809  0.00  0.00     0.162 A 
ATOM      6  C5  UNL d   1       1.842  -0.406   0.247  0.00  0.00     0.062 A 
ATOM      7  F   UNL d   1       2.860  -1.264   0.407  0.00  0.00    -0.097 F 
ATOM      8  F1  UNL d   1       0.449  -1.826   1.506  0.00  0.00    -0.096 F 
ATOM      9  I   UNL d   1      -2.321  -0.225   1.488  0.00  0.00    -0.060 I 
ATOM     10  F2  UNL d   1      -1.271   2.243  -0.258  0.00  0.00    -0.096 F 
ATOM     11  F3  UNL d   1       1.151   2.777  -1.345  0.00  0.00    -0.097 F 
ATOM     12  F4  UNL d   1       3.223   1.033  -1.020  0.00  0.00    -0.092 F 
ENDROOT
TORSDOF 0
ENDMDL
