MODEL 1
REMARK minimizedAffinity -5.73901796
REMARK minimizedRMSD -1
REMARK  1 active torsions:
REMARK  status: ('A' for Active; 'I' for Inactive)
REMARK    1  A    between atoms: C1_2  and  C2_3 
ROOT
ATOM      1  C2  UNL d   1       0.652  -0.629  -0.376  0.00  0.00    -0.077 A 
ATOM      2  C3  UNL d   1       1.316   0.472  -0.935  0.00  0.00     0.002 A 
ATOM      3  C4  UNL d   1       2.340   0.282  -1.864  0.00  0.00     0.002 A 
ATOM      4  C5  UNL d   1       2.707  -1.007  -2.245  0.00  0.00    -0.004 A 
ATOM      5  C6  UNL d   1       2.054  -2.109  -1.693  0.00  0.00     0.002 A 
ATOM      6  C7  UNL d   1       1.031  -1.920  -0.763  0.00  0.00     0.002 A 
ENDROOT
BRANCH   1   7
ATOM      7  C1  UNL d   1      -0.487  -0.424   0.589  0.00  0.00     0.055 C 
ATOM      8  C   UNL d   1      -1.643  -1.366   0.289  0.00  0.00     0.019 C 
ENDBRANCH   1   7
TORSDOF 1
ENDMDL
