MODEL 1
REMARK minimizedAffinity -5.22459841
REMARK minimizedRMSD -1
REMARK  1 active torsions:
REMARK  status: ('A' for Active; 'I' for Inactive)
REMARK    1  A    between atoms: C1_2  and  C2_3 
ROOT
ATOM      1  C2  UNL d   1       0.886  -1.145  -0.858  0.00  0.00    -0.077 A 
ATOM      2  C3  UNL d   1       1.557  -0.200  -1.647  0.00  0.00     0.002 A 
ATOM      3  C4  UNL d   1       1.373   1.166  -1.422  0.00  0.00     0.002 A 
ATOM      4  C5  UNL d   1       0.522   1.598  -0.408  0.00  0.00    -0.004 A 
ATOM      5  C6  UNL d   1      -0.152   0.666   0.381  0.00  0.00     0.002 A 
ATOM      6  C7  UNL d   1       0.030  -0.699   0.157  0.00  0.00     0.002 A 
ENDROOT
BRANCH   1   7
ATOM      7  C1  UNL d   1       1.121  -2.618  -1.066  0.00  0.00     0.055 C 
ATOM      8  C   UNL d   1       2.499  -2.881  -1.656  0.00  0.00     0.019 C 
ENDBRANCH   1   7
TORSDOF 1
ENDMDL
