MODEL 1
REMARK minimizedAffinity -0.789929569
REMARK minimizedRMSD -1
REMARK  1 active torsions:
REMARK  status: ('A' for Active; 'I' for Inactive)
REMARK    1  A    between atoms: C1_2  and  C2_3 
ROOT
ATOM      1  C2  UNL d   1       0.837  -0.437  -0.015  0.00  0.00    -0.077 A 
ATOM      2  C3  UNL d   1       1.803  -0.156  -0.991  0.00  0.00     0.002 A 
ATOM      3  C4  UNL d   1       2.046   1.161  -1.385  0.00  0.00     0.002 A 
ATOM      4  C5  UNL d   1       1.331   2.207  -0.806  0.00  0.00    -0.004 A 
ATOM      5  C6  UNL d   1       0.366   1.937   0.164  0.00  0.00     0.002 A 
ATOM      6  C7  UNL d   1       0.121   0.621   0.558  0.00  0.00     0.002 A 
ENDROOT
BRANCH   1   7
ATOM      7  C1  UNL d   1       0.608  -1.853   0.446  0.00  0.00     0.055 C 
ATOM      8  C   UNL d   1      -0.105  -2.674  -0.618  0.00  0.00     0.019 C 
ENDBRANCH   1   7
TORSDOF 1
ENDMDL
