MODEL 1
REMARK minimizedAffinity 3.03933024
REMARK minimizedRMSD -1
REMARK  1 active torsions:
REMARK  status: ('A' for Active; 'I' for Inactive)
REMARK    1  A    between atoms: C1_2  and  C2_3 
ROOT
ATOM      1  C2  UNL d   1       0.762   1.755  -2.896  0.00  0.00    -0.077 A 
ATOM      2  C3  UNL d   1       1.378   0.514  -2.685  0.00  0.00     0.002 A 
ATOM      3  C4  UNL d   1       2.080   0.266  -1.503  0.00  0.00     0.002 A 
ATOM      4  C5  UNL d   1       2.167   1.251  -0.523  0.00  0.00    -0.004 A 
ATOM      5  C6  UNL d   1       1.559   2.490  -0.724  0.00  0.00     0.002 A 
ATOM      6  C7  UNL d   1       0.858   2.740  -1.904  0.00  0.00     0.002 A 
ENDROOT
BRANCH   1   7
ATOM      7  C1  UNL d   1      -0.037   2.008  -4.148  0.00  0.00     0.055 C 
ATOM      8  C   UNL d   1      -1.525   2.110  -3.844  0.00  0.00     0.019 C 
ENDBRANCH   1   7
TORSDOF 1
ENDMDL
