MODEL 1
REMARK minimizedAffinity 0.756652474
REMARK minimizedRMSD -1
REMARK  1 active torsions:
REMARK  status: ('A' for Active; 'I' for Inactive)
REMARK    1  A    between atoms: C1_2  and  C2_3 
ROOT
ATOM      1  C2  UNL d   1       1.463   2.084  -1.805  0.00  0.00    -0.077 A 
ATOM      2  C3  UNL d   1       0.971   1.527  -2.994  0.00  0.00     0.002 A 
ATOM      3  C4  UNL d   1       1.108   0.160  -3.242  0.00  0.00     0.002 A 
ATOM      4  C5  UNL d   1       1.734  -0.661  -2.306  0.00  0.00    -0.004 A 
ATOM      5  C6  UNL d   1       2.228  -0.116  -1.122  0.00  0.00     0.002 A 
ATOM      6  C7  UNL d   1       2.093   1.251  -0.873  0.00  0.00     0.002 A 
ENDROOT
BRANCH   1   7
ATOM      7  C1  UNL d   1       1.272   3.550  -1.513  0.00  0.00     0.055 C 
ATOM      8  C   UNL d   1       1.296   3.823  -0.016  0.00  0.00     0.019 C 
ENDBRANCH   1   7
TORSDOF 1
ENDMDL
