MODEL 1
REMARK minimizedAffinity 3.84768963
REMARK minimizedRMSD -1
REMARK  1 active torsions:
REMARK  status: ('A' for Active; 'I' for Inactive)
REMARK    1  A    between atoms: C1_2  and  C2_3 
ROOT
ATOM      1  C2  UNL d   1       1.432   2.796  -1.698  0.00  0.00    -0.077 A 
ATOM      2  C3  UNL d   1       2.261   2.117  -0.794  0.00  0.00     0.002 A 
ATOM      3  C4  UNL d   1       2.463   0.741  -0.918  0.00  0.00     0.002 A 
ATOM      4  C5  UNL d   1       1.843   0.034  -1.945  0.00  0.00    -0.004 A 
ATOM      5  C6  UNL d   1       1.015   0.700  -2.848  0.00  0.00     0.002 A 
ATOM      6  C7  UNL d   1       0.811   2.075  -2.725  0.00  0.00     0.002 A 
ENDROOT
BRANCH   1   7
ATOM      7  C1  UNL d   1       1.253   4.289  -1.596  0.00  0.00     0.055 C 
ATOM      8  C   UNL d   1       1.149   4.736  -0.145  0.00  0.00     0.019 C 
ENDBRANCH   1   7
TORSDOF 1
ENDMDL
