MODEL 1
REMARK minimizedAffinity -4.81785917
REMARK minimizedRMSD -1
REMARK  1 active torsions:
REMARK  status: ('A' for Active; 'I' for Inactive)
REMARK    1  A    between atoms: C1_2  and  C2_3 
ROOT
ATOM      1  C2  UNL d   1      -1.512  -0.534   0.441  0.00  0.00    -0.077 A 
ATOM      2  C3  UNL d   1      -1.913   0.188   1.574  0.00  0.00     0.002 A 
ATOM      3  C4  UNL d   1      -3.208   0.701   1.663  0.00  0.00     0.002 A 
ATOM      4  C5  UNL d   1      -4.114   0.494   0.624  0.00  0.00    -0.004 A 
ATOM      5  C6  UNL d   1      -3.724  -0.222  -0.507  0.00  0.00     0.002 A 
ATOM      6  C7  UNL d   1      -2.429  -0.734  -0.598  0.00  0.00     0.002 A 
ENDROOT
BRANCH   1   7
ATOM      7  C1  UNL d   1      -0.130  -1.130   0.365  0.00  0.00     0.055 C 
ATOM      8  C   UNL d   1      -0.164  -2.635   0.586  0.00  0.00     0.019 C 
ENDBRANCH   1   7
TORSDOF 1
ENDMDL
