MODEL 1
REMARK minimizedAffinity -0.259998292
REMARK minimizedRMSD -1
REMARK  1 active torsions:
REMARK  status: ('A' for Active; 'I' for Inactive)
REMARK    1  A    between atoms: C1_2  and  C2_3 
ROOT
ATOM      1  C2  UNL d   1      -3.376   3.200  -5.537  0.00  0.00    -0.077 A 
ATOM      2  C3  UNL d   1      -2.203   3.876  -5.174  0.00  0.00     0.002 A 
ATOM      3  C4  UNL d   1      -2.146   5.270  -5.226  0.00  0.00     0.002 A 
ATOM      4  C5  UNL d   1      -3.260   6.000  -5.635  0.00  0.00    -0.004 A 
ATOM      5  C6  UNL d   1      -4.431   5.337  -6.000  0.00  0.00     0.002 A 
ATOM      6  C7  UNL d   1      -4.489   3.943  -5.950  0.00  0.00     0.002 A 
ENDROOT
BRANCH   1   7
ATOM      7  C1  UNL d   1      -3.455   1.699  -5.435  0.00  0.00     0.055 C 
ATOM      8  C   UNL d   1      -4.771   1.175  -5.990  0.00  0.00     0.019 C 
ENDBRANCH   1   7
TORSDOF 1
ENDMDL
