MODEL 1
REMARK minimizedAffinity -1.47163677
REMARK minimizedRMSD -1
REMARK  1 active torsions:
REMARK  status: ('A' for Active; 'I' for Inactive)
REMARK    1  A    between atoms: C1_2  and  C2_3 
ROOT
ATOM      1  C2  UNL d   1      -4.584   2.773  -5.881  0.00  0.00    -0.077 A 
ATOM      2  C3  UNL d   1      -5.781   3.495  -5.991  0.00  0.00     0.002 A 
ATOM      3  C4  UNL d   1      -5.772   4.890  -5.926  0.00  0.00     0.002 A 
ATOM      4  C5  UNL d   1      -4.570   5.574  -5.757  0.00  0.00    -0.004 A 
ATOM      5  C6  UNL d   1      -3.375   4.864  -5.645  0.00  0.00     0.002 A 
ATOM      6  C7  UNL d   1      -3.382   3.470  -5.708  0.00  0.00     0.002 A 
ENDROOT
BRANCH   1   7
ATOM      7  C1  UNL d   1      -4.586   1.271  -6.000  0.00  0.00     0.055 C 
ATOM      8  C   UNL d   1      -5.975   0.699  -5.761  0.00  0.00     0.019 C 
ENDBRANCH   1   7
TORSDOF 1
ENDMDL
