MODEL 1
REMARK minimizedAffinity 3.92288899
REMARK minimizedRMSD -1
REMARK  1 active torsions:
REMARK  status: ('A' for Active; 'I' for Inactive)
REMARK    1  A    between atoms: C1_2  and  C2_3 
ROOT
ATOM      1  C2  UNL d   1       4.181  -1.807  -2.818  0.00  0.00    -0.077 A 
ATOM      2  C3  UNL d   1       4.639  -3.103  -2.544  0.00  0.00     0.002 A 
ATOM      3  C4  UNL d   1       5.025  -3.950  -3.585  0.00  0.00     0.002 A 
ATOM      4  C5  UNL d   1       4.960  -3.509  -4.905  0.00  0.00    -0.004 A 
ATOM      5  C6  UNL d   1       4.504  -2.223  -5.188  0.00  0.00     0.002 A 
ATOM      6  C7  UNL d   1       4.116  -1.375  -4.149  0.00  0.00     0.002 A 
ENDROOT
BRANCH   1   7
ATOM      7  C1  UNL d   1       3.811  -0.875  -1.694  0.00  0.00     0.055 C 
ATOM      8  C   UNL d   1       3.235   0.430  -2.224  0.00  0.00     0.019 C 
ENDBRANCH   1   7
TORSDOF 1
ENDMDL
