MODEL 1
REMARK minimizedAffinity 0.433806092
REMARK minimizedRMSD -1
REMARK  1 active torsions:
REMARK  status: ('A' for Active; 'I' for Inactive)
REMARK    1  A    between atoms: C1_2  and  C2_3 
ROOT
ATOM      1  C2  UNL d   1       0.963  -1.030  -0.035  0.00  0.00    -0.077 A 
ATOM      2  C3  UNL d   1       2.058  -0.799  -0.879  0.00  0.00     0.002 A 
ATOM      3  C4  UNL d   1       2.471   0.506  -1.159  0.00  0.00     0.002 A 
ATOM      4  C5  UNL d   1       1.797   1.587  -0.596  0.00  0.00    -0.004 A 
ATOM      5  C6  UNL d   1       0.705   1.367   0.243  0.00  0.00     0.002 A 
ATOM      6  C7  UNL d   1       0.291   0.064   0.523  0.00  0.00     0.002 A 
ENDROOT
BRANCH   1   7
ATOM      7  C1  UNL d   1       0.547  -2.437   0.307  0.00  0.00     0.055 C 
ATOM      8  C   UNL d   1      -0.931  -2.662   0.025  0.00  0.00     0.019 C 
ENDBRANCH   1   7
TORSDOF 1
ENDMDL
