MODEL 1
REMARK minimizedAffinity -4.55678701
REMARK minimizedRMSD -1
REMARK  1 active torsions:
REMARK  status: ('A' for Active; 'I' for Inactive)
REMARK    1  A    between atoms: C1_2  and  C2_3 
ROOT
ATOM      1  C2  UNL d   1      -2.775   0.202   1.676  0.00  0.00    -0.077 A 
ATOM      2  C3  UNL d   1      -1.435   0.539   1.915  0.00  0.00     0.002 A 
ATOM      3  C4  UNL d   1      -0.407  -0.288   1.460  0.00  0.00     0.002 A 
ATOM      4  C5  UNL d   1      -0.707  -1.454   0.760  0.00  0.00    -0.004 A 
ATOM      5  C6  UNL d   1      -2.036  -1.799   0.518  0.00  0.00     0.002 A 
ATOM      6  C7  UNL d   1      -3.065  -0.974   0.974  0.00  0.00     0.002 A 
ENDROOT
BRANCH   1   7
ATOM      7  C1  UNL d   1      -3.884   1.118   2.123  0.00  0.00     0.055 C 
ATOM      8  C   UNL d   1      -3.365   2.521   2.402  0.00  0.00     0.019 C 
ENDBRANCH   1   7
TORSDOF 1
ENDMDL
