MODEL 1
REMARK minimizedAffinity -3.45408678
REMARK minimizedRMSD -1
REMARK  0 active torsions:
REMARK  status: ('A' for Active; 'I' for Inactive)
ROOT
ATOM      1  C   UNL d   1       4.888  -0.375   2.647  0.00  0.00     0.077 C 
ATOM      2  C1  UNL d   1       4.988  -1.309   3.816  0.00  0.00    -0.074 A 
ATOM      3  C2  UNL d   1       5.925  -1.092   4.831  0.00  0.00    -0.005 A 
ATOM      4  C3  UNL d   1       6.000  -1.964   5.917  0.00  0.00     0.006 A 
ATOM      5  C4  UNL d   1       5.140  -3.059   5.999  0.00  0.00    -0.005 A 
ATOM      6  C5  UNL d   1       4.195  -3.292   4.994  0.00  0.00    -0.074 A 
ATOM      7  C6  UNL d   1       3.257  -4.459   5.072  0.00  0.00     0.077 C 
ATOM      8  C7  UNL d   1       4.122  -2.407   3.910  0.00  0.00    -0.001 A 
ENDROOT
TORSDOF 0
ENDMDL
