MODEL 1
REMARK minimizedAffinity 4.23234272
REMARK minimizedRMSD -1
REMARK  0 active torsions:
REMARK  status: ('A' for Active; 'I' for Inactive)
ROOT
ATOM      1  C   UNL d   1       3.301   2.224   2.147  0.00  0.00     0.077 C 
ATOM      2  C1  UNL d   1       2.682   2.628   0.843  0.00  0.00    -0.074 A 
ATOM      3  C2  UNL d   1       2.556   3.977   0.494  0.00  0.00    -0.005 A 
ATOM      4  C3  UNL d   1       1.987   4.337  -0.728  0.00  0.00     0.006 A 
ATOM      5  C4  UNL d   1       1.539   3.355  -1.611  0.00  0.00    -0.005 A 
ATOM      6  C5  UNL d   1       1.657   2.001  -1.280  0.00  0.00    -0.074 A 
ATOM      7  C6  UNL d   1       1.189   0.932  -2.222  0.00  0.00     0.077 C 
ATOM      8  C7  UNL d   1       2.236   1.647  -0.054  0.00  0.00    -0.001 A 
ENDROOT
TORSDOF 0
ENDMDL
