MODEL 1
REMARK minimizedAffinity 0.906291902
REMARK minimizedRMSD -1
REMARK  0 active torsions:
REMARK  status: ('A' for Active; 'I' for Inactive)
ROOT
ATOM      1  C   UNL d   1      -3.054  -0.524   2.868  0.00  0.00     0.077 C 
ATOM      2  C1  UNL d   1      -3.932   0.219   3.831  0.00  0.00    -0.074 A 
ATOM      3  C2  UNL d   1      -4.970  -0.432   4.506  0.00  0.00    -0.005 A 
ATOM      4  C3  UNL d   1      -5.772   0.270   5.406  0.00  0.00     0.006 A 
ATOM      5  C4  UNL d   1      -5.545   1.626   5.640  0.00  0.00    -0.005 A 
ATOM      6  C5  UNL d   1      -4.511   2.294   4.975  0.00  0.00    -0.074 A 
ATOM      7  C6  UNL d   1      -4.247   3.749   5.223  0.00  0.00     0.077 C 
ATOM      8  C7  UNL d   1      -3.705   1.580   4.078  0.00  0.00    -0.001 A 
ENDROOT
TORSDOF 0
ENDMDL
