MODEL 1
REMARK minimizedAffinity 1.92591512
REMARK minimizedRMSD -1
REMARK  0 active torsions:
REMARK  status: ('A' for Active; 'I' for Inactive)
ROOT
ATOM      1  C   UNL d   1      -3.171   5.969   5.994  0.00  0.00     0.077 C 
ATOM      2  C1  UNL d   1      -3.652   5.963   4.573  0.00  0.00    -0.074 A 
ATOM      3  C2  UNL d   1      -5.019   5.995   4.277  0.00  0.00    -0.005 A 
ATOM      4  C3  UNL d   1      -5.451   5.999   2.950  0.00  0.00     0.006 A 
ATOM      5  C4  UNL d   1      -4.522   5.971   1.909  0.00  0.00    -0.005 A 
ATOM      6  C5  UNL d   1      -3.152   5.940   2.186  0.00  0.00    -0.074 A 
ATOM      7  C6  UNL d   1      -2.141   5.920   1.078  0.00  0.00     0.077 C 
ATOM      8  C7  UNL d   1      -2.725   5.943   3.521  0.00  0.00    -0.001 A 
ENDROOT
TORSDOF 0
ENDMDL
