MODEL 1
REMARK minimizedAffinity 1.31669879
REMARK minimizedRMSD -1
REMARK  0 active torsions:
REMARK  status: ('A' for Active; 'I' for Inactive)
ROOT
ATOM      1  C   UNL d   1      -5.412   5.774   1.013  0.00  0.00     0.077 C 
ATOM      2  C1  UNL d   1      -4.505   5.838   2.205  0.00  0.00    -0.074 A 
ATOM      3  C2  UNL d   1      -3.118   5.932   2.049  0.00  0.00    -0.005 A 
ATOM      4  C3  UNL d   1      -2.287   6.000   3.167  0.00  0.00     0.006 A 
ATOM      5  C4  UNL d   1      -2.833   5.975   4.451  0.00  0.00    -0.005 A 
ATOM      6  C5  UNL d   1      -4.218   5.883   4.627  0.00  0.00    -0.074 A 
ATOM      7  C6  UNL d   1      -4.822   5.865   6.000  0.00  0.00     0.077 C 
ATOM      8  C7  UNL d   1      -5.046   5.822   3.498  0.00  0.00    -0.001 A 
ENDROOT
TORSDOF 0
ENDMDL
