MODEL 1
REMARK minimizedAffinity -2.68114328
REMARK minimizedRMSD -1
REMARK  0 active torsions:
REMARK  status: ('A' for Active; 'I' for Inactive)
ROOT
ATOM      1  C   UNL d   1      -2.299   5.999   0.760  0.00  0.00     0.077 C 
ATOM      2  C1  UNL d   1      -3.162   5.883   1.981  0.00  0.00    -0.074 A 
ATOM      3  C2  UNL d   1      -4.537   5.654   1.871  0.00  0.00    -0.005 A 
ATOM      4  C3  UNL d   1      -5.325   5.539   3.017  0.00  0.00     0.006 A 
ATOM      5  C4  UNL d   1      -4.746   5.652   4.281  0.00  0.00    -0.005 A 
ATOM      6  C5  UNL d   1      -3.373   5.881   4.411  0.00  0.00    -0.074 A 
ATOM      7  C6  UNL d   1      -2.734   5.996   5.763  0.00  0.00     0.077 C 
ATOM      8  C7  UNL d   1      -2.587   5.988   3.256  0.00  0.00    -0.001 A 
ENDROOT
TORSDOF 0
ENDMDL
