MODEL 1
REMARK minimizedAffinity 14.0093288
REMARK minimizedRMSD -1
REMARK  0 active torsions:
REMARK  status: ('A' for Active; 'I' for Inactive)
ROOT
ATOM      1  C   UNL d   1       0.444   4.280  -4.892  0.00  0.00     0.077 C 
ATOM      2  C1  UNL d   1       1.155   3.475  -3.845  0.00  0.00    -0.074 A 
ATOM      3  C2  UNL d   1       2.230   4.015  -3.131  0.00  0.00    -0.005 A 
ATOM      4  C3  UNL d   1       2.876   3.258  -2.153  0.00  0.00     0.006 A 
ATOM      5  C4  UNL d   1       2.454   1.956  -1.880  0.00  0.00    -0.005 A 
ATOM      6  C5  UNL d   1       1.382   1.400  -2.584  0.00  0.00    -0.074 A 
ATOM      7  C6  UNL d   1       0.910   0.005  -2.297  0.00  0.00     0.077 C 
ATOM      8  C7  UNL d   1       0.733   2.169  -3.560  0.00  0.00    -0.001 A 
ENDROOT
TORSDOF 0
ENDMDL
