MODEL 1
REMARK minimizedAffinity 7.74335003
REMARK minimizedRMSD -1
REMARK  0 active torsions:
REMARK  status: ('A' for Active; 'I' for Inactive)
ROOT
ATOM      1  C   UNL d   1       0.189  -0.914  -2.383  0.00  0.00     0.077 C 
ATOM      2  C1  UNL d   1       0.823   0.428  -2.603  0.00  0.00    -0.074 A 
ATOM      3  C2  UNL d   1       1.803   0.911  -1.730  0.00  0.00    -0.005 A 
ATOM      4  C3  UNL d   1       2.391   2.156  -1.953  0.00  0.00     0.006 A 
ATOM      5  C4  UNL d   1       2.006   2.929  -3.048  0.00  0.00    -0.005 A 
ATOM      6  C5  UNL d   1       1.028   2.462  -3.933  0.00  0.00    -0.074 A 
ATOM      7  C6  UNL d   1       0.609   3.276  -5.121  0.00  0.00     0.077 C 
ATOM      8  C7  UNL d   1       0.447   1.207  -3.706  0.00  0.00    -0.001 A 
ENDROOT
TORSDOF 0
ENDMDL
