MODEL 1
REMARK minimizedAffinity 1.25807023
REMARK minimizedRMSD -1
REMARK  0 active torsions:
REMARK  status: ('A' for Active; 'I' for Inactive)
ROOT
ATOM      1  C   UNL d   1      -1.468   5.956   6.000  0.00  0.00     0.077 C 
ATOM      2  C1  UNL d   1      -2.675   5.964   5.110  0.00  0.00    -0.074 A 
ATOM      3  C2  UNL d   1      -3.965   5.982   5.649  0.00  0.00    -0.005 A 
ATOM      4  C3  UNL d   1      -5.078   5.999   4.808  0.00  0.00     0.006 A 
ATOM      5  C4  UNL d   1      -4.913   5.998   3.423  0.00  0.00    -0.005 A 
ATOM      6  C5  UNL d   1      -3.630   5.982   2.866  0.00  0.00    -0.074 A 
ATOM      7  C6  UNL d   1      -3.434   5.991   1.379  0.00  0.00     0.077 C 
ATOM      8  C7  UNL d   1      -2.516   5.972   3.717  0.00  0.00    -0.001 A 
ENDROOT
TORSDOF 0
ENDMDL
