MODEL 1
REMARK minimizedAffinity -2.751616
REMARK minimizedRMSD -1
REMARK  0 active torsions:
REMARK  status: ('A' for Active; 'I' for Inactive)
ROOT
ATOM      1  C   UNL d   1      -2.955   6.000   5.998  0.00  0.00     0.077 C 
ATOM      2  C1  UNL d   1      -3.455   5.862   4.591  0.00  0.00    -0.074 A 
ATOM      3  C2  UNL d   1      -4.825   5.781   4.320  0.00  0.00    -0.005 A 
ATOM      4  C3  UNL d   1      -5.275   5.662   3.005  0.00  0.00     0.006 A 
ATOM      5  C4  UNL d   1      -4.363   5.624   1.950  0.00  0.00    -0.005 A 
ATOM      6  C5  UNL d   1      -2.990   5.705   2.202  0.00  0.00    -0.074 A 
ATOM      7  C6  UNL d   1      -1.996   5.674   1.079  0.00  0.00     0.077 C 
ATOM      8  C7  UNL d   1      -2.545   5.830   3.525  0.00  0.00    -0.001 A 
ENDROOT
TORSDOF 0
ENDMDL
