MODEL 1
REMARK minimizedAffinity 6.74917269
REMARK minimizedRMSD -1
REMARK  0 active torsions:
REMARK  status: ('A' for Active; 'I' for Inactive)
ROOT
ATOM      1  C   UNL d   1      -3.059   5.920   5.897  0.00  0.00     0.077 C 
ATOM      2  C1  UNL d   1      -3.550   5.251   4.648  0.00  0.00    -0.074 A 
ATOM      3  C2  UNL d   1      -4.084   6.000   3.594  0.00  0.00    -0.005 A 
ATOM      4  C3  UNL d   1      -4.528   5.365   2.434  0.00  0.00     0.006 A 
ATOM      5  C4  UNL d   1      -4.442   3.977   2.316  0.00  0.00    -0.005 A 
ATOM      6  C5  UNL d   1      -3.910   3.212   3.359  0.00  0.00    -0.074 A 
ATOM      7  C6  UNL d   1      -3.802   1.720   3.245  0.00  0.00     0.077 C 
ATOM      8  C7  UNL d   1      -3.460   3.858   4.518  0.00  0.00    -0.001 A 
ENDROOT
TORSDOF 0
ENDMDL
