MODEL 1
REMARK minimizedAffinity 9.35270405
REMARK minimizedRMSD -1
REMARK  0 active torsions:
REMARK  status: ('A' for Active; 'I' for Inactive)
ROOT
ATOM      1  C   UNL d   1       3.500   3.068  -5.791  0.00  0.00     0.077 C 
ATOM      2  C1  UNL d   1       2.563   2.617  -4.711  0.00  0.00    -0.074 A 
ATOM      3  C2  UNL d   1       1.306   3.210  -4.555  0.00  0.00    -0.005 A 
ATOM      4  C3  UNL d   1       0.442   2.773  -3.551  0.00  0.00     0.006 A 
ATOM      5  C4  UNL d   1       0.825   1.740  -2.694  0.00  0.00    -0.005 A 
ATOM      6  C5  UNL d   1       2.078   1.134  -2.836  0.00  0.00    -0.074 A 
ATOM      7  C6  UNL d   1       2.501   0.017  -1.930  0.00  0.00     0.077 C 
ATOM      8  C7  UNL d   1       2.938   1.574  -3.851  0.00  0.00    -0.001 A 
ENDROOT
TORSDOF 0
ENDMDL
