MODEL 1
REMARK minimizedAffinity 2.92648196
REMARK minimizedRMSD -1
REMARK  0 active torsions:
REMARK  status: ('A' for Active; 'I' for Inactive)
ROOT
ATOM      1  C   UNL d   1      -5.969   4.927   2.049  0.00  0.00     0.077 C 
ATOM      2  C1  UNL d   1      -4.623   5.294   2.600  0.00  0.00    -0.074 A 
ATOM      3  C2  UNL d   1      -3.526   5.481   1.753  0.00  0.00    -0.005 A 
ATOM      4  C3  UNL d   1      -2.283   5.831   2.280  0.00  0.00     0.006 A 
ATOM      5  C4  UNL d   1      -2.124   5.998   3.656  0.00  0.00    -0.005 A 
ATOM      6  C5  UNL d   1      -3.210   5.815   4.518  0.00  0.00    -0.074 A 
ATOM      7  C6  UNL d   1      -3.059   6.000   5.999  0.00  0.00     0.077 C 
ATOM      8  C7  UNL d   1      -4.458   5.470   3.981  0.00  0.00    -0.001 A 
ENDROOT
TORSDOF 0
ENDMDL
