MODEL 1
REMARK minimizedAffinity 6.89166403
REMARK minimizedRMSD -1
REMARK  0 active torsions:
REMARK  status: ('A' for Active; 'I' for Inactive)
ROOT
ATOM      1  C   UNL d   1      -5.557   5.749   1.727  0.00  0.00     0.077 C 
ATOM      2  C1  UNL d   1      -4.230   5.789   2.426  0.00  0.00    -0.074 A 
ATOM      3  C2  UNL d   1      -3.035   5.765   1.701  0.00  0.00    -0.005 A 
ATOM      4  C3  UNL d   1      -1.809   5.813   2.365  0.00  0.00     0.006 A 
ATOM      5  C4  UNL d   1      -1.766   5.886   3.758  0.00  0.00    -0.005 A 
ATOM      6  C5  UNL d   1      -2.951   5.912   4.499  0.00  0.00    -0.074 A 
ATOM      7  C6  UNL d   1      -2.923   6.000   5.997  0.00  0.00     0.077 C 
ATOM      8  C7  UNL d   1      -4.179   5.870   3.825  0.00  0.00    -0.001 A 
ENDROOT
TORSDOF 0
ENDMDL
