MODEL 1
REMARK minimizedAffinity 0.11377795
REMARK minimizedRMSD -1
REMARK  0 active torsions:
REMARK  status: ('A' for Active; 'I' for Inactive)
ROOT
ATOM      1  C   UNL d   1      -3.420   5.956   1.503  0.00  0.00     0.077 C 
ATOM      2  C1  UNL d   1      -3.527   5.977   2.999  0.00  0.00    -0.074 A 
ATOM      3  C2  UNL d   1      -4.775   5.975   3.630  0.00  0.00    -0.005 A 
ATOM      4  C3  UNL d   1      -4.859   5.985   5.022  0.00  0.00     0.006 A 
ATOM      5  C4  UNL d   1      -3.698   5.996   5.796  0.00  0.00    -0.005 A 
ATOM      6  C5  UNL d   1      -2.441   5.997   5.183  0.00  0.00    -0.074 A 
ATOM      7  C6  UNL d   1      -1.183   5.998   6.000  0.00  0.00     0.077 C 
ATOM      8  C7  UNL d   1      -2.365   5.980   3.783  0.00  0.00    -0.001 A 
ENDROOT
TORSDOF 0
ENDMDL
