MODEL 1
REMARK minimizedAffinity 1.45878565
REMARK minimizedRMSD -1
REMARK  0 active torsions:
REMARK  status: ('A' for Active; 'I' for Inactive)
ROOT
ATOM      1  C   UNL d   1      -2.246   5.973   1.029  0.00  0.00     0.077 C 
ATOM      2  C1  UNL d   1      -3.189   5.988   2.196  0.00  0.00    -0.074 A 
ATOM      3  C2  UNL d   1      -4.574   5.990   2.001  0.00  0.00    -0.005 A 
ATOM      4  C3  UNL d   1      -5.438   5.994   3.096  0.00  0.00     0.006 A 
ATOM      5  C4  UNL d   1      -4.927   5.997   4.394  0.00  0.00    -0.005 A 
ATOM      6  C5  UNL d   1      -3.545   5.995   4.608  0.00  0.00    -0.074 A 
ATOM      7  C6  UNL d   1      -2.979   5.988   5.997  0.00  0.00     0.077 C 
ATOM      8  C7  UNL d   1      -2.683   5.983   3.503  0.00  0.00    -0.001 A 
ENDROOT
TORSDOF 0
ENDMDL
