MODEL 1
REMARK minimizedAffinity -2.84327006
REMARK minimizedRMSD -1
REMARK  0 active torsions:
REMARK  status: ('A' for Active; 'I' for Inactive)
ROOT
ATOM      1  C1  BNZ d   1      -0.809  -0.054  -0.958  0.00  0.00     0.000 A 
ATOM      2  C2  BNZ d   1       0.183  -0.451  -1.816  0.00  0.00     0.000 A 
ATOM      3  C3  BNZ d   1       1.420  -0.791  -1.345  0.00  0.00     0.000 A 
ATOM      4  C4  BNZ d   1       1.676  -0.696  -0.024  0.00  0.00     0.000 A 
ATOM      5  C5  BNZ d   1       0.690  -0.289   0.852  0.00  0.00     0.000 A 
ATOM      6  C6  BNZ d   1      -0.566   0.015   0.379  0.00  0.00     0.000 A 
ENDROOT
TORSDOF 0
ENDMDL
