MODEL 1
REMARK minimizedAffinity -2.83920145
REMARK minimizedRMSD -1
REMARK  0 active torsions:
REMARK  status: ('A' for Active; 'I' for Inactive)
ROOT
ATOM      1  C1  BNZ d   1       1.849  -0.575   0.344  0.00  0.00     0.000 A 
ATOM      2  C2  BNZ d   1       0.826   0.199   0.823  0.00  0.00     0.000 A 
ATOM      3  C3  BNZ d   1      -0.207   0.576   0.011  0.00  0.00     0.000 A 
ATOM      4  C4  BNZ d   1      -0.194   0.213  -1.288  0.00  0.00     0.000 A 
ATOM      5  C5  BNZ d   1       0.835  -0.558  -1.789  0.00  0.00     0.000 A 
ATOM      6  C6  BNZ d   1       1.853  -0.969  -0.959  0.00  0.00     0.000 A 
ENDROOT
TORSDOF 0
ENDMDL
