MODEL 1
REMARK minimizedAffinity -2.19582701
REMARK minimizedRMSD -1
REMARK  0 active torsions:
REMARK  status: ('A' for Active; 'I' for Inactive)
ROOT
ATOM      1  C1  BNZ d   1      -0.371  -0.040  -1.797  0.00  0.00     0.000 A 
ATOM      2  C2  BNZ d   1      -0.367  -0.467  -0.496  0.00  0.00     0.000 A 
ATOM      3  C3  BNZ d   1      -0.541   0.417   0.532  0.00  0.00     0.000 A 
ATOM      4  C4  BNZ d   1      -0.679   1.730   0.260  0.00  0.00     0.000 A 
ATOM      5  C5  BNZ d   1      -0.675   2.179  -1.046  0.00  0.00     0.000 A 
ATOM      6  C6  BNZ d   1      -0.539   1.281  -2.080  0.00  0.00     0.000 A 
ENDROOT
TORSDOF 0
ENDMDL
