MODEL 1
REMARK minimizedAffinity -4.6399045
REMARK minimizedRMSD -1
REMARK  0 active torsions:
REMARK  status: ('A' for Active; 'I' for Inactive)
ROOT
ATOM      1  C1  BNZ d   1       2.363  -1.562   0.550  0.00  0.00     0.000 A 
ATOM      2  C2  BNZ d   1       2.109  -1.742   1.884  0.00  0.00     0.000 A 
ATOM      3  C3  BNZ d   1       0.937  -1.310   2.438  0.00  0.00     0.000 A 
ATOM      4  C4  BNZ d   1       0.038  -0.664   1.668  0.00  0.00     0.000 A 
ATOM      5  C5  BNZ d   1       0.283  -0.466   0.324  0.00  0.00     0.000 A 
ATOM      6  C6  BNZ d   1       1.447  -0.937  -0.239  0.00  0.00     0.000 A 
ENDROOT
TORSDOF 0
ENDMDL
