MODEL 1
REMARK minimizedAffinity 2.54411483
REMARK minimizedRMSD -1
REMARK  0 active torsions:
REMARK  status: ('A' for Active; 'I' for Inactive)
ROOT
ATOM      1  C1  BNZ d   1      -2.616  -3.470  -5.994  0.00  0.00     0.000 A 
ATOM      2  C2  BNZ d   1      -3.164  -4.725  -5.977  0.00  0.00     0.000 A 
ATOM      3  C3  BNZ d   1      -2.368  -5.836  -5.946  0.00  0.00     0.000 A 
ATOM      4  C4  BNZ d   1      -1.028  -5.692  -5.972  0.00  0.00     0.000 A 
ATOM      5  C5  BNZ d   1      -0.460  -4.433  -5.998  0.00  0.00     0.000 A 
ATOM      6  C6  BNZ d   1      -1.264  -3.317  -5.991  0.00  0.00     0.000 A 
ENDROOT
TORSDOF 0
ENDMDL
