MODEL 1
REMARK minimizedAffinity 1.46124887
REMARK minimizedRMSD -1
REMARK  0 active torsions:
REMARK  status: ('A' for Active; 'I' for Inactive)
ROOT
ATOM      1  C1  BNZ d   1      -3.643  -3.136   5.341  0.00  0.00     0.000 A 
ATOM      2  C2  BNZ d   1      -3.660  -2.499   4.129  0.00  0.00     0.000 A 
ATOM      3  C3  BNZ d   1      -4.838  -2.090   3.569  0.00  0.00     0.000 A 
ATOM      4  C4  BNZ d   1      -5.999  -2.354   4.202  0.00  0.00     0.000 A 
ATOM      5  C5  BNZ d   1      -6.000  -3.003   5.420  0.00  0.00     0.000 A 
ATOM      6  C6  BNZ d   1      -4.809  -3.379   5.999  0.00  0.00     0.000 A 
ENDROOT
TORSDOF 0
ENDMDL
