MODEL 1
REMARK minimizedAffinity -2.69621563
REMARK minimizedRMSD -1
REMARK  0 active torsions:
REMARK  status: ('A' for Active; 'I' for Inactive)
ROOT
ATOM      1  C1  BNZ d   1      -5.994  -0.012   4.501  0.00  0.00     0.000 A 
ATOM      2  C2  BNZ d   1      -5.239   0.337   3.413  0.00  0.00     0.000 A 
ATOM      3  C3  BNZ d   1      -4.492  -0.598   2.751  0.00  0.00     0.000 A 
ATOM      4  C4  BNZ d   1      -4.470  -1.869   3.201  0.00  0.00     0.000 A 
ATOM      5  C5  BNZ d   1      -5.218  -2.234   4.303  0.00  0.00     0.000 A 
ATOM      6  C6  BNZ d   1      -5.999  -1.299   4.943  0.00  0.00     0.000 A 
ENDROOT
TORSDOF 0
ENDMDL
