MODEL 1
REMARK minimizedAffinity -2.16040325
REMARK minimizedRMSD -1
REMARK  0 active torsions:
REMARK  status: ('A' for Active; 'I' for Inactive)
ROOT
ATOM      1  C1  BNZ d   1      -2.588  -5.996  -5.930  0.00  0.00     0.000 A 
ATOM      2  C2  BNZ d   1      -1.855  -4.839  -5.964  0.00  0.00     0.000 A 
ATOM      3  C3  BNZ d   1      -2.473  -3.620  -5.978  0.00  0.00     0.000 A 
ATOM      4  C4  BNZ d   1      -3.820  -3.560  -6.000  0.00  0.00     0.000 A 
ATOM      5  C5  BNZ d   1      -4.573  -4.717  -5.976  0.00  0.00     0.000 A 
ATOM      6  C6  BNZ d   1      -3.948  -5.942  -5.922  0.00  0.00     0.000 A 
ENDROOT
TORSDOF 0
ENDMDL
