MODEL 1
REMARK minimizedAffinity -1.38278162
REMARK minimizedRMSD -1
REMARK  0 active torsions:
REMARK  status: ('A' for Active; 'I' for Inactive)
ROOT
ATOM      1  C1  BNZ d   1      -2.688  -5.992  -5.848  0.00  0.00     0.000 A 
ATOM      2  C2  BNZ d   1      -4.057  -5.996  -5.875  0.00  0.00     0.000 A 
ATOM      3  C3  BNZ d   1      -4.758  -4.826  -5.970  0.00  0.00     0.000 A 
ATOM      4  C4  BNZ d   1      -4.092  -3.654  -5.998  0.00  0.00     0.000 A 
ATOM      5  C5  BNZ d   1      -2.712  -3.633  -5.963  0.00  0.00     0.000 A 
ATOM      6  C6  BNZ d   1      -2.008  -4.814  -5.906  0.00  0.00     0.000 A 
ENDROOT
TORSDOF 0
ENDMDL
