MODEL 1
REMARK minimizedAffinity 2.37755823
REMARK minimizedRMSD -1
REMARK  0 active torsions:
REMARK  status: ('A' for Active; 'I' for Inactive)
ROOT
ATOM      1  C1  BNZ d   1      -1.126   5.898  -0.732  0.00  0.00     0.000 A 
ATOM      2  C2  BNZ d   1      -0.794   4.748  -0.066  0.00  0.00     0.000 A 
ATOM      3  C3  BNZ d   1      -0.295   3.668  -0.739  0.00  0.00     0.000 A 
ATOM      4  C4  BNZ d   1      -0.165   3.725  -2.080  0.00  0.00     0.000 A 
ATOM      5  C5  BNZ d   1      -0.504   4.874  -2.767  0.00  0.00     0.000 A 
ATOM      6  C6  BNZ d   1      -0.970   5.972  -2.082  0.00  0.00     0.000 A 
ENDROOT
TORSDOF 0
ENDMDL
