MODEL 1
REMARK minimizedAffinity -2.65956855
REMARK minimizedRMSD -1
REMARK  0 active torsions:
REMARK  status: ('A' for Active; 'I' for Inactive)
ROOT
ATOM      1  C1  BNZ d   1      -2.469  -3.453  -6.000  0.00  0.00     0.000 A 
ATOM      2  C2  BNZ d   1      -3.834  -3.341  -5.997  0.00  0.00     0.000 A 
ATOM      3  C3  BNZ d   1      -4.627  -4.454  -5.962  0.00  0.00     0.000 A 
ATOM      4  C4  BNZ d   1      -4.057  -5.676  -5.970  0.00  0.00     0.000 A 
ATOM      5  C5  BNZ d   1      -2.682  -5.805  -5.982  0.00  0.00     0.000 A 
ATOM      6  C6  BNZ d   1      -1.886  -4.683  -5.978  0.00  0.00     0.000 A 
ENDROOT
TORSDOF 0
ENDMDL
