MODEL 1
REMARK minimizedAffinity -1.81914544
REMARK minimizedRMSD -1
REMARK  0 active torsions:
REMARK  status: ('A' for Active; 'I' for Inactive)
ROOT
ATOM      1  C2' OXE d   1      -0.401   1.783  -1.099  0.00  0.00     0.078 C 
ATOM      2  C1' OXE d   1      -1.086   0.606   1.356  0.00  0.00     0.078 C 
ATOM      3  C1  OXE d   1      -0.147  -0.151   0.451  0.00  0.00    -0.078 A 
ATOM      4  C2  OXE d   1       0.146   0.411  -0.769  0.00  0.00    -0.078 A 
ATOM      5  C3  OXE d   1       1.050  -0.219  -1.619  0.00  0.00     0.003 A 
ATOM      6  C4  OXE d   1       1.544  -1.492  -1.310  0.00  0.00    -0.002 A 
ATOM      7  C5  OXE d   1       1.227  -2.100  -0.091  0.00  0.00    -0.002 A 
ATOM      8  C6  OXE d   1       0.418  -1.426   0.817  0.00  0.00     0.003 A 
ENDROOT
TORSDOF 0
ENDMDL
