MODEL 1
REMARK minimizedAffinity -3.77524948
REMARK minimizedRMSD -1
REMARK  0 active torsions:
REMARK  status: ('A' for Active; 'I' for Inactive)
ROOT
ATOM      1  C2' OXE d   1       0.290  -2.152   0.383  0.00  0.00     0.078 C 
ATOM      2  C1' OXE d   1      -1.196   0.189   0.822  0.00  0.00     0.078 C 
ATOM      3  C1  OXE d   1      -0.251   0.166  -0.353  0.00  0.00    -0.078 A 
ATOM      4  C2  OXE d   1       0.507  -0.966  -0.533  0.00  0.00    -0.078 A 
ATOM      5  C3  OXE d   1       1.354  -1.060  -1.633  0.00  0.00     0.003 A 
ATOM      6  C4  OXE d   1       1.556   0.044  -2.469  0.00  0.00    -0.002 A 
ATOM      7  C5  OXE d   1       0.824   1.221  -2.279  0.00  0.00    -0.002 A 
ATOM      8  C6  OXE d   1      -0.113   1.283  -1.254  0.00  0.00     0.003 A 
ENDROOT
TORSDOF 0
ENDMDL
