MODEL 1
REMARK minimizedAffinity -1.691944
REMARK minimizedRMSD -1
REMARK  0 active torsions:
REMARK  status: ('A' for Active; 'I' for Inactive)
ROOT
ATOM      1  C2' OXE d   1      -0.268   1.676  -1.253  0.00  0.00     0.078 C 
ATOM      2  C1' OXE d   1      -0.622   0.514   1.278  0.00  0.00     0.078 C 
ATOM      3  C1  OXE d   1       0.194  -0.246   0.263  0.00  0.00    -0.078 A 
ATOM      4  C2  OXE d   1       0.323   0.308  -0.988  0.00  0.00    -0.078 A 
ATOM      5  C3  OXE d   1       1.111  -0.326  -1.945  0.00  0.00     0.003 A 
ATOM      6  C4  OXE d   1       1.646  -1.596  -1.695  0.00  0.00    -0.002 A 
ATOM      7  C5  OXE d   1       1.493  -2.196  -0.441  0.00  0.00    -0.002 A 
ATOM      8  C6  OXE d   1       0.807  -1.517   0.561  0.00  0.00     0.003 A 
ENDROOT
TORSDOF 0
ENDMDL
