MODEL 1
REMARK minimizedAffinity -0.907705367
REMARK minimizedRMSD -1
REMARK  0 active torsions:
REMARK  status: ('A' for Active; 'I' for Inactive)
ROOT
ATOM      1  C2' OXE d   1      -1.754   0.059   1.071  0.00  0.00     0.078 C 
ATOM      2  C1' OXE d   1      -0.680   1.596  -1.017  0.00  0.00     0.078 C 
ATOM      3  C1  OXE d   1      -0.110   0.218  -0.794  0.00  0.00    -0.078 A 
ATOM      4  C2  OXE d   1      -0.610  -0.509   0.260  0.00  0.00    -0.078 A 
ATOM      5  C3  OXE d   1      -0.158  -1.808   0.477  0.00  0.00     0.003 A 
ATOM      6  C4  OXE d   1       0.908  -2.322  -0.271  0.00  0.00    -0.002 A 
ATOM      7  C5  OXE d   1       1.458  -1.582  -1.324  0.00  0.00    -0.002 A 
ATOM      8  C6  OXE d   1       0.933  -0.331  -1.625  0.00  0.00     0.003 A 
ENDROOT
TORSDOF 0
ENDMDL
