MODEL 1
REMARK minimizedAffinity -4.43909025
REMARK minimizedRMSD -1
REMARK  0 active torsions:
REMARK  status: ('A' for Active; 'I' for Inactive)
ROOT
ATOM      1  C2' OXE d   1      -0.322  -1.245  -0.119  0.00  0.00     0.078 C 
ATOM      2  C1' OXE d   1       1.643  -2.431  -1.735  0.00  0.00     0.078 C 
ATOM      3  C1  OXE d   1       1.744  -0.948  -1.479  0.00  0.00    -0.078 A 
ATOM      4  C2  OXE d   1       0.752  -0.368  -0.726  0.00  0.00    -0.078 A 
ATOM      5  C3  OXE d   1       0.827   0.987  -0.414  0.00  0.00     0.003 A 
ATOM      6  C4  OXE d   1       1.818   1.793  -0.988  0.00  0.00    -0.002 A 
ATOM      7  C5  OXE d   1       2.815   1.228  -1.790  0.00  0.00    -0.002 A 
ATOM      8  C6  OXE d   1       2.817  -0.145  -2.010  0.00  0.00     0.003 A 
ENDROOT
TORSDOF 0
ENDMDL
