MODEL 1
REMARK minimizedAffinity -3.66187596
REMARK minimizedRMSD -1
REMARK  0 active torsions:
REMARK  status: ('A' for Active; 'I' for Inactive)
ROOT
ATOM      1  C2' OXE d   1       2.700  -1.348  -2.170  0.00  0.00     0.078 C 
ATOM      2  C1' OXE d   1       1.817   1.202  -2.942  0.00  0.00     0.078 C 
ATOM      3  C1  OXE d   1       1.152   0.558  -1.751  0.00  0.00    -0.078 A 
ATOM      4  C2  OXE d   1       1.558  -0.709  -1.408  0.00  0.00    -0.078 A 
ATOM      5  C3  OXE d   1       1.017  -1.327  -0.285  0.00  0.00     0.003 A 
ATOM      6  C4  OXE d   1      -0.046  -0.733   0.408  0.00  0.00    -0.002 A 
ATOM      7  C5  OXE d   1      -0.501   0.541   0.051  0.00  0.00    -0.002 A 
ATOM      8  C6  OXE d   1       0.114   1.216  -0.996  0.00  0.00     0.003 A 
ENDROOT
TORSDOF 0
ENDMDL
