MODEL 1
REMARK minimizedAffinity -3.68204308
REMARK minimizedRMSD -1
REMARK  0 active torsions:
REMARK  status: ('A' for Active; 'I' for Inactive)
ROOT
ATOM      1  C2' OXE d   1       0.639  -3.145   0.301  0.00  0.00     0.078 C 
ATOM      2  C1' OXE d   1       2.335  -1.585  -1.302  0.00  0.00     0.078 C 
ATOM      3  C1  OXE d   1       1.117  -0.920  -0.712  0.00  0.00    -0.078 A 
ATOM      4  C2  OXE d   1       0.268  -1.702   0.033  0.00  0.00    -0.078 A 
ATOM      5  C3  OXE d   1      -0.841  -1.126   0.646  0.00  0.00     0.003 A 
ATOM      6  C4  OXE d   1      -1.183   0.206   0.385  0.00  0.00    -0.002 A 
ATOM      7  C5  OXE d   1      -0.354   1.011  -0.403  0.00  0.00    -0.002 A 
ATOM      8  C6  OXE d   1       0.820   0.476  -0.923  0.00  0.00     0.003 A 
ENDROOT
TORSDOF 0
ENDMDL
