MODEL 1
REMARK minimizedAffinity -3.81687403
REMARK minimizedRMSD -1
REMARK  0 active torsions:
REMARK  status: ('A' for Active; 'I' for Inactive)
ROOT
ATOM      1  C2' OXE d   1       2.592  -0.730  -1.682  0.00  0.00     0.078 C 
ATOM      2  C1' OXE d   1       1.349   1.533  -2.784  0.00  0.00     0.078 C 
ATOM      3  C1  OXE d   1       0.719   0.908  -1.564  0.00  0.00    -0.078 A 
ATOM      4  C2  OXE d   1       1.307  -0.226  -1.059  0.00  0.00    -0.078 A 
ATOM      5  C3  OXE d   1       0.798  -0.811   0.097  0.00  0.00     0.003 A 
ATOM      6  C4  OXE d   1      -0.396  -0.345   0.660  0.00  0.00    -0.002 A 
ATOM      7  C5  OXE d   1      -1.033   0.785   0.138  0.00  0.00    -0.002 A 
ATOM      8  C6  OXE d   1      -0.467   1.447  -0.946  0.00  0.00     0.003 A 
ENDROOT
TORSDOF 0
ENDMDL
