MODEL 1
REMARK minimizedAffinity 10.1685724
REMARK minimizedRMSD -1
REMARK  0 active torsions:
REMARK  status: ('A' for Active; 'I' for Inactive)
ROOT
ATOM      1  C2' OXE d   1      -5.064  -2.739   3.259  0.00  0.00     0.078 C 
ATOM      2  C1' OXE d   1      -3.738  -2.288   5.693  0.00  0.00     0.078 C 
ATOM      3  C1  OXE d   1      -3.323  -1.461   4.502  0.00  0.00    -0.078 A 
ATOM      4  C2  OXE d   1      -3.945  -1.721   3.304  0.00  0.00    -0.078 A 
ATOM      5  C3  OXE d   1      -3.638  -0.950   2.187  0.00  0.00     0.003 A 
ATOM      6  C4  OXE d   1      -2.595  -0.017   2.234  0.00  0.00    -0.002 A 
ATOM      7  C5  OXE d   1      -1.922   0.235   3.434  0.00  0.00    -0.002 A 
ATOM      8  C6  OXE d   1      -2.302  -0.447   4.585  0.00  0.00     0.003 A 
ENDROOT
TORSDOF 0
ENDMDL
