MODEL 1
REMARK minimizedAffinity -3.0737536
REMARK minimizedRMSD -1
REMARK  0 active torsions:
REMARK  status: ('A' for Active; 'I' for Inactive)
ROOT
ATOM      1  C2' OXE d   1      -0.439   1.976  -1.443  0.00  0.00     0.078 C 
ATOM      2  C1' OXE d   1      -1.285   0.755   0.939  0.00  0.00     0.078 C 
ATOM      3  C1  OXE d   1      -0.326  -0.008   0.059  0.00  0.00    -0.078 A 
ATOM      4  C2  OXE d   1       0.046   0.578  -1.127  0.00  0.00    -0.078 A 
ATOM      5  C3  OXE d   1       0.971  -0.059  -1.949  0.00  0.00     0.003 A 
ATOM      6  C4  OXE d   1       1.407  -1.356  -1.655  0.00  0.00    -0.002 A 
ATOM      7  C5  OXE d   1       1.009  -1.987  -0.471  0.00  0.00    -0.002 A 
ATOM      8  C6  OXE d   1       0.178  -1.311   0.415  0.00  0.00     0.003 A 
ENDROOT
TORSDOF 0
ENDMDL
