MODEL 1
REMARK minimizedAffinity -3.58864856
REMARK minimizedRMSD -1
REMARK  0 active torsions:
REMARK  status: ('A' for Active; 'I' for Inactive)
ROOT
ATOM      1  C2' OXE d   1       3.468   0.026  -1.629  0.00  0.00     0.078 C 
ATOM      2  C1' OXE d   1       1.360   1.880  -1.670  0.00  0.00     0.078 C 
ATOM      3  C1  OXE d   1       1.096   0.528  -1.056  0.00  0.00    -0.078 A 
ATOM      4  C2  OXE d   1       2.119  -0.389  -1.083  0.00  0.00    -0.078 A 
ATOM      5  C3  OXE d   1       1.946  -1.633  -0.482  0.00  0.00     0.003 A 
ATOM      6  C4  OXE d   1       0.692  -2.013   0.012  0.00  0.00    -0.002 A 
ATOM      7  C5  OXE d   1      -0.375  -1.108   0.013  0.00  0.00    -0.002 A 
ATOM      8  C6  OXE d   1      -0.178   0.178  -0.478  0.00  0.00     0.003 A 
ENDROOT
TORSDOF 0
ENDMDL
