MODEL 1
REMARK minimizedAffinity -3.81508088
REMARK minimizedRMSD -1
REMARK  0 active torsions:
REMARK  status: ('A' for Active; 'I' for Inactive)
ROOT
ATOM      1  C2' OXE d   1       1.025   0.470  -2.907  0.00  0.00     0.078 C 
ATOM      2  C1' OXE d   1      -0.549   2.551  -1.871  0.00  0.00     0.078 C 
ATOM      3  C1  OXE d   1      -0.469   1.269  -1.080  0.00  0.00    -0.078 A 
ATOM      4  C2  OXE d   1       0.266   0.240  -1.617  0.00  0.00    -0.078 A 
ATOM      5  C3  OXE d   1       0.418  -0.945  -0.903  0.00  0.00     0.003 A 
ATOM      6  C4  OXE d   1      -0.295  -1.153   0.284  0.00  0.00    -0.002 A 
ATOM      7  C5  OXE d   1      -1.081  -0.132   0.829  0.00  0.00    -0.002 A 
ATOM      8  C6  OXE d   1      -1.144   1.097   0.183  0.00  0.00     0.003 A 
ENDROOT
TORSDOF 0
ENDMDL
