MODEL 1
REMARK minimizedAffinity -2.10327363
REMARK minimizedRMSD -1
REMARK  0 active torsions:
REMARK  status: ('A' for Active; 'I' for Inactive)
ROOT
ATOM      1  C2' OXE d   1      -0.355   2.467  -1.772  0.00  0.00     0.078 C 
ATOM      2  C1' OXE d   1       1.487   1.266  -3.517  0.00  0.00     0.078 C 
ATOM      3  C1  OXE d   1       1.006   0.458  -2.338  0.00  0.00    -0.078 A 
ATOM      4  C2  OXE d   1       0.140   1.070  -1.463  0.00  0.00    -0.078 A 
ATOM      5  C3  OXE d   1      -0.377   0.352  -0.389  0.00  0.00     0.003 A 
ATOM      6  C4  OXE d   1       0.094  -0.935  -0.105  0.00  0.00    -0.002 A 
ATOM      7  C5  OXE d   1       1.005  -1.563  -0.960  0.00  0.00    -0.002 A 
ATOM      8  C6  OXE d   1       1.438  -0.897  -2.102  0.00  0.00     0.003 A 
ENDROOT
TORSDOF 0
ENDMDL
