MODEL 1
REMARK minimizedAffinity -3.23482203
REMARK minimizedRMSD -1
REMARK  0 active torsions:
REMARK  status: ('A' for Active; 'I' for Inactive)
ROOT
ATOM      1  C2' OXE d   1      -1.402   0.857  -0.258  0.00  0.00     0.078 C 
ATOM      2  C1' OXE d   1       0.745  -0.154   1.242  0.00  0.00     0.078 C 
ATOM      3  C1  OXE d   1      -0.472   0.327   1.992  0.00  0.00    -0.078 A 
ATOM      4  C2  OXE d   1      -1.499   0.864   1.253  0.00  0.00    -0.078 A 
ATOM      5  C3  OXE d   1      -2.667   1.272   1.890  0.00  0.00     0.003 A 
ATOM      6  C4  OXE d   1      -2.744   1.284   3.288  0.00  0.00    -0.002 A 
ATOM      7  C5  OXE d   1      -1.694   0.779   4.062  0.00  0.00    -0.002 A 
ATOM      8  C6  OXE d   1      -0.571   0.258   3.429  0.00  0.00     0.003 A 
ENDROOT
TORSDOF 0
ENDMDL
