MODEL 1
REMARK minimizedAffinity -3.2277
REMARK minimizedRMSD -1
REMARK  0 active torsions:
REMARK  status: ('A' for Active; 'I' for Inactive)
ROOT
ATOM      1  C2' OXE d   1      -1.210   0.345   0.846  0.00  0.00     0.078 C 
ATOM      2  C1' OXE d   1      -0.513   2.168  -1.171  0.00  0.00     0.078 C 
ATOM      3  C1  OXE d   1       0.246   0.866  -1.106  0.00  0.00    -0.078 A 
ATOM      4  C2  OXE d   1      -0.070   0.000  -0.087  0.00  0.00    -0.078 A 
ATOM      5  C3  OXE d   1       0.562  -1.238  -0.014  0.00  0.00     0.003 A 
ATOM      6  C4  OXE d   1       1.623  -1.545  -0.875  0.00  0.00    -0.002 A 
ATOM      7  C5  OXE d   1       1.988  -0.660  -1.895  0.00  0.00    -0.002 A 
ATOM      8  C6  OXE d   1       1.283   0.529  -2.051  0.00  0.00     0.003 A 
ENDROOT
TORSDOF 0
ENDMDL
