MODEL 1
REMARK minimizedAffinity -5.40824032
REMARK minimizedRMSD -1
REMARK  0 active torsions:
REMARK  status: ('A' for Active; 'I' for Inactive)
ROOT
ATOM      1  C2' OXE d   1      -1.379   0.423   0.351  0.00  0.00     0.078 C 
ATOM      2  C1' OXE d   1      -0.479  -2.222   0.076  0.00  0.00     0.078 C 
ATOM      3  C1  OXE d   1       0.257  -1.146  -0.682  0.00  0.00    -0.078 A 
ATOM      4  C2  OXE d   1      -0.219   0.139  -0.579  0.00  0.00    -0.078 A 
ATOM      5  C3  OXE d   1       0.456   1.178  -1.214  0.00  0.00     0.003 A 
ATOM      6  C4  OXE d   1       1.522   0.906  -2.080  0.00  0.00    -0.002 A 
ATOM      7  C5  OXE d   1       1.998  -0.401  -2.231  0.00  0.00    -0.002 A 
ATOM      8  C6  OXE d   1       1.405  -1.430  -1.507  0.00  0.00     0.003 A 
ENDROOT
TORSDOF 0
ENDMDL
