MODEL 1
REMARK minimizedAffinity -3.34317613
REMARK minimizedRMSD -1
REMARK  0 active torsions:
REMARK  status: ('A' for Active; 'I' for Inactive)
ROOT
ATOM      1  C2' OXE d   1       2.243  -1.762  -2.008  0.00  0.00     0.078 C 
ATOM      2  C1' OXE d   1       1.093   0.740  -1.459  0.00  0.00     0.078 C 
ATOM      3  C1  OXE d   1       2.156   0.673  -2.527  0.00  0.00    -0.078 A 
ATOM      4  C2  OXE d   1       2.746  -0.546  -2.756  0.00  0.00    -0.078 A 
ATOM      5  C3  OXE d   1       3.694  -0.674  -3.768  0.00  0.00     0.003 A 
ATOM      6  C4  OXE d   1       4.161   0.456  -4.449  0.00  0.00    -0.002 A 
ATOM      7  C5  OXE d   1       3.601   1.715  -4.203  0.00  0.00    -0.002 A 
ATOM      8  C6  OXE d   1       2.570   1.833  -3.278  0.00  0.00     0.003 A 
ENDROOT
TORSDOF 0
ENDMDL
