MODEL 1
REMARK minimizedAffinity 8.68001842
REMARK minimizedRMSD -1
REMARK  0 active torsions:
REMARK  status: ('A' for Active; 'I' for Inactive)
ROOT
ATOM      1  C   UNL d   1      -1.068  -1.333  -2.335  0.00  0.00     0.124 A 
ATOM      2  C1  UNL d   1      -1.496  -0.909  -1.085  0.00  0.00     0.062 A 
ATOM      3  C2  UNL d   1      -1.201   0.377  -0.643  0.00  0.00     0.162 A 
ATOM      4  C3  UNL d   1      -0.474   1.250  -1.453  0.00  0.00    -0.034 A 
ATOM      5  C4  UNL d   1      -0.046   0.816  -2.708  0.00  0.00     0.162 A 
ATOM      6  C5  UNL d   1      -0.343  -0.471  -3.145  0.00  0.00     0.062 A 
ATOM      7  F   UNL d   1       0.072  -0.879  -4.353  0.00  0.00    -0.097 F 
ATOM      8  F1  UNL d   1       0.656   1.629  -3.512  0.00  0.00    -0.096 F 
ATOM      9  I   UNL d   1      -0.031   3.175  -0.796  0.00  0.00    -0.060 I 
ATOM     10  F2  UNL d   1      -1.628   0.761   0.569  0.00  0.00    -0.096 F 
ATOM     11  F3  UNL d   1      -2.196  -1.741  -0.300  0.00  0.00    -0.097 F 
ATOM     12  F4  UNL d   1      -1.352  -2.572  -2.757  0.00  0.00    -0.092 F 
ENDROOT
TORSDOF 0
ENDMDL
