MODEL 1
REMARK minimizedAffinity 8.09867668
REMARK minimizedRMSD -1
REMARK  0 active torsions:
REMARK  status: ('A' for Active; 'I' for Inactive)
ROOT
ATOM      1  C   UNL d   1       1.101  -3.015  -0.382  0.00  0.00     0.124 A 
ATOM      2  C1  UNL d   1       1.228  -1.927  -1.234  0.00  0.00     0.062 A 
ATOM      3  C2  UNL d   1       0.594  -1.930  -2.473  0.00  0.00     0.162 A 
ATOM      4  C3  UNL d   1      -0.176  -3.025  -2.867  0.00  0.00    -0.034 A 
ATOM      5  C4  UNL d   1      -0.298  -4.116  -2.004  0.00  0.00     0.162 A 
ATOM      6  C5  UNL d   1       0.338  -4.108  -0.767  0.00  0.00     0.062 A 
ATOM      7  F   UNL d   1       0.213  -5.160   0.055  0.00  0.00    -0.097 F 
ATOM      8  F1  UNL d   1      -1.030  -5.185  -2.351  0.00  0.00    -0.096 F 
ATOM      9  I   UNL d   1      -1.126  -3.034  -4.718  0.00  0.00    -0.060 I 
ATOM     10  F2  UNL d   1       0.735  -0.865  -3.276  0.00  0.00    -0.096 F 
ATOM     11  F3  UNL d   1       1.966  -0.870  -0.864  0.00  0.00    -0.097 F 
ATOM     12  F4  UNL d   1       1.713  -3.009   0.809  0.00  0.00    -0.092 F 
ENDROOT
TORSDOF 0
ENDMDL
