MODEL 1
REMARK minimizedAffinity 11.546958
REMARK minimizedRMSD -1
REMARK  0 active torsions:
REMARK  status: ('A' for Active; 'I' for Inactive)
ROOT
ATOM      1  C   UNL d   1       1.435   1.228   0.665  0.00  0.00     0.124 A 
ATOM      2  C1  UNL d   1       0.765   2.278   1.277  0.00  0.00     0.062 A 
ATOM      3  C2  UNL d   1      -0.165   3.026   0.562  0.00  0.00     0.162 A 
ATOM      4  C3  UNL d   1      -0.432   2.727  -0.774  0.00  0.00    -0.034 A 
ATOM      5  C4  UNL d   1       0.247   1.671  -1.383  0.00  0.00     0.162 A 
ATOM      6  C5  UNL d   1       1.175   0.925  -0.664  0.00  0.00     0.062 A 
ATOM      7  F   UNL d   1       1.822  -0.089  -1.258  0.00  0.00    -0.097 F 
ATOM      8  F1  UNL d   1       0.015   1.356  -2.666  0.00  0.00    -0.096 F 
ATOM      9  I   UNL d   1      -1.822   3.844  -1.847  0.00  0.00    -0.060 I 
ATOM     10  F2  UNL d   1      -0.798   4.035   1.179  0.00  0.00    -0.096 F 
ATOM     11  F3  UNL d   1       1.014   2.573   2.561  0.00  0.00    -0.097 F 
ATOM     12  F4  UNL d   1       2.330   0.510   1.355  0.00  0.00    -0.092 F 
ENDROOT
TORSDOF 0
ENDMDL
