MODEL 1
REMARK minimizedAffinity 7.23702097
REMARK minimizedRMSD -1
REMARK  0 active torsions:
REMARK  status: ('A' for Active; 'I' for Inactive)
ROOT
ATOM      1  C   UNL d   1      -2.377  -0.055  -5.800  0.00  0.00     0.124 A 
ATOM      2  C1  UNL d   1      -2.089   1.303  -5.833  0.00  0.00     0.062 A 
ATOM      3  C2  UNL d   1      -3.121   2.236  -5.885  0.00  0.00     0.162 A 
ATOM      4  C3  UNL d   1      -4.450   1.815  -5.903  0.00  0.00    -0.034 A 
ATOM      5  C4  UNL d   1      -4.732   0.448  -5.871  0.00  0.00     0.162 A 
ATOM      6  C5  UNL d   1      -3.698  -0.481  -5.819  0.00  0.00     0.062 A 
ATOM      7  F   UNL d   1      -3.978  -1.792  -5.788  0.00  0.00    -0.097 F 
ATOM      8  F1  UNL d   1      -5.999   0.009  -5.888  0.00  0.00    -0.096 F 
ATOM      9  I   UNL d   1      -5.995   3.207  -5.981  0.00  0.00    -0.060 I 
ATOM     10  F2  UNL d   1      -2.813   3.541  -5.916  0.00  0.00    -0.096 F 
ATOM     11  F3  UNL d   1      -0.814   1.717  -5.815  0.00  0.00    -0.097 F 
ATOM     12  F4  UNL d   1      -1.383  -0.951  -5.751  0.00  0.00    -0.092 F 
ENDROOT
TORSDOF 0
ENDMDL
