MODEL 1
REMARK minimizedAffinity -1.70139098
REMARK minimizedRMSD -1
REMARK  0 active torsions:
REMARK  status: ('A' for Active; 'I' for Inactive)
ROOT
ATOM      1  C   UNL d   1      -5.799   3.985  -2.418  0.00  0.00     0.124 A 
ATOM      2  C1  UNL d   1      -5.785   2.643  -2.061  0.00  0.00     0.062 A 
ATOM      3  C2  UNL d   1      -5.579   1.664  -3.029  0.00  0.00     0.162 A 
ATOM      4  C3  UNL d   1      -5.383   2.022  -4.362  0.00  0.00    -0.034 A 
ATOM      5  C4  UNL d   1      -5.400   3.373  -4.714  0.00  0.00     0.162 A 
ATOM      6  C5  UNL d   1      -5.607   4.348  -3.743  0.00  0.00     0.062 A 
ATOM      7  F   UNL d   1      -5.620   5.644  -4.090  0.00  0.00    -0.097 F 
ATOM      8  F1  UNL d   1      -5.215   3.753  -5.987  0.00  0.00    -0.096 F 
ATOM      9  I   UNL d   1      -5.074   0.561  -5.812  0.00  0.00    -0.060 I 
ATOM     10  F2  UNL d   1      -5.570   0.376  -2.655  0.00  0.00    -0.096 F 
ATOM     11  F3  UNL d   1      -5.972   2.289  -0.782  0.00  0.00    -0.097 F 
ATOM     12  F4  UNL d   1      -6.000   4.925  -1.486  0.00  0.00    -0.092 F 
ENDROOT
TORSDOF 0
ENDMDL
