MODEL 1
REMARK minimizedAffinity 8.07436848
REMARK minimizedRMSD -1
REMARK  0 active torsions:
REMARK  status: ('A' for Active; 'I' for Inactive)
ROOT
ATOM      1  C   UNL d   1       1.757   1.018   0.819  0.00  0.00     0.124 A 
ATOM      2  C1  UNL d   1       1.022   2.049   1.386  0.00  0.00     0.062 A 
ATOM      3  C2  UNL d   1       0.146   2.797   0.604  0.00  0.00     0.162 A 
ATOM      4  C3  UNL d   1       0.001   2.516  -0.754  0.00  0.00    -0.034 A 
ATOM      5  C4  UNL d   1       0.744   1.478  -1.318  0.00  0.00     0.162 A 
ATOM      6  C5  UNL d   1       1.618   0.733  -0.532  0.00  0.00     0.062 A 
ATOM      7  F   UNL d   1       2.328  -0.263  -1.082  0.00  0.00    -0.097 F 
ATOM      8  F1  UNL d   1       0.629   1.181  -2.621  0.00  0.00    -0.096 F 
ATOM      9  I   UNL d   1      -1.307   3.632  -1.927  0.00  0.00    -0.060 I 
ATOM     10  F2  UNL d   1      -0.552   3.788   1.179  0.00  0.00    -0.096 F 
ATOM     11  F3  UNL d   1       1.155   2.326   2.691  0.00  0.00    -0.097 F 
ATOM     12  F4  UNL d   1       2.599   0.300   1.573  0.00  0.00    -0.092 F 
ENDROOT
TORSDOF 0
ENDMDL
