MODEL 1
REMARK minimizedAffinity 18.9380035
REMARK minimizedRMSD -1
REMARK  0 active torsions:
REMARK  status: ('A' for Active; 'I' for Inactive)
ROOT
ATOM      1  C   UNL d   1       0.168  -4.856  -1.159  0.00  0.00     0.124 A 
ATOM      2  C1  UNL d   1      -0.549  -3.670  -1.092  0.00  0.00     0.062 A 
ATOM      3  C2  UNL d   1       0.095  -2.480  -0.766  0.00  0.00     0.162 A 
ATOM      4  C3  UNL d   1       1.466  -2.470  -0.506  0.00  0.00    -0.034 A 
ATOM      5  C4  UNL d   1       2.180  -3.667  -0.574  0.00  0.00     0.162 A 
ATOM      6  C5  UNL d   1       1.531  -4.854  -0.900  0.00  0.00     0.062 A 
ATOM      7  F   UNL d   1       2.226  -5.999  -0.964  0.00  0.00    -0.097 F 
ATOM      8  F1  UNL d   1       3.499  -3.693  -0.330  0.00  0.00    -0.096 F 
ATOM      9  I   UNL d   1       2.433  -0.692  -0.019  0.00  0.00    -0.060 I 
ATOM     10  F2  UNL d   1      -0.623  -1.348  -0.709  0.00  0.00    -0.096 F 
ATOM     11  F3  UNL d   1      -1.867  -3.669  -1.340  0.00  0.00    -0.097 F 
ATOM     12  F4  UNL d   1      -0.455  -6.000  -1.471  0.00  0.00    -0.092 F 
ENDROOT
TORSDOF 0
ENDMDL
