MODEL 1
REMARK minimizedAffinity 6.49792528
REMARK minimizedRMSD -1
REMARK  0 active torsions:
REMARK  status: ('A' for Active; 'I' for Inactive)
ROOT
ATOM      1  C   UNL d   1      -0.329   3.625   0.916  0.00  0.00     0.124 A 
ATOM      2  C1  UNL d   1       0.273   2.675   1.729  0.00  0.00     0.062 A 
ATOM      3  C2  UNL d   1       0.827   1.526   1.171  0.00  0.00     0.162 A 
ATOM      4  C3  UNL d   1       0.782   1.321  -0.208  0.00  0.00    -0.034 A 
ATOM      5  C4  UNL d   1       0.173   2.281  -1.019  0.00  0.00     0.162 A 
ATOM      6  C5  UNL d   1      -0.379   3.427  -0.457  0.00  0.00     0.062 A 
ATOM      7  F   UNL d   1      -0.961   4.344  -1.243  0.00  0.00    -0.097 F 
ATOM      8  F1  UNL d   1       0.112   2.115  -2.349  0.00  0.00    -0.096 F 
ATOM      9  I   UNL d   1       1.609  -0.395  -1.046  0.00  0.00    -0.060 I 
ATOM     10  F2  UNL d   1       1.403   0.625   1.980  0.00  0.00    -0.096 F 
ATOM     11  F3  UNL d   1       0.322   2.863   3.055  0.00  0.00    -0.097 F 
ATOM     12  F4  UNL d   1      -0.862   4.728   1.456  0.00  0.00    -0.092 F 
ENDROOT
TORSDOF 0
ENDMDL
