MODEL 1
REMARK minimizedAffinity 23.6380653
REMARK minimizedRMSD -1
REMARK  0 active torsions:
REMARK  status: ('A' for Active; 'I' for Inactive)
ROOT
ATOM      1  C   UNL d   1       2.171   3.746   1.271  0.00  0.00     0.124 A 
ATOM      2  C1  UNL d   1       2.007   3.060   2.466  0.00  0.00     0.062 A 
ATOM      3  C2  UNL d   1       0.795   2.442   2.759  0.00  0.00     0.162 A 
ATOM      4  C3  UNL d   1      -0.264   2.505   1.853  0.00  0.00    -0.034 A 
ATOM      5  C4  UNL d   1      -0.092   3.197   0.653  0.00  0.00     0.162 A 
ATOM      6  C5  UNL d   1       1.121   3.813   0.365  0.00  0.00     0.062 A 
ATOM      7  F   UNL d   1       1.277   4.475  -0.791  0.00  0.00    -0.097 F 
ATOM      8  F1  UNL d   1      -1.090   3.277  -0.240  0.00  0.00    -0.096 F 
ATOM      9  I   UNL d   1      -2.078   1.581   2.287  0.00  0.00    -0.060 I 
ATOM     10  F2  UNL d   1       0.666   1.786   3.922  0.00  0.00    -0.096 F 
ATOM     11  F3  UNL d   1       3.020   2.994   3.343  0.00  0.00    -0.097 F 
ATOM     12  F4  UNL d   1       3.338   4.341   0.992  0.00  0.00    -0.092 F 
ENDROOT
TORSDOF 0
ENDMDL
