MODEL 1
REMARK minimizedAffinity 15.8461351
REMARK minimizedRMSD -1
REMARK  0 active torsions:
REMARK  status: ('A' for Active; 'I' for Inactive)
ROOT
ATOM      1  C   UNL d   1       0.669   4.017  -0.375  0.00  0.00     0.124 A 
ATOM      2  C1  UNL d   1      -0.220   3.005  -0.040  0.00  0.00     0.062 A 
ATOM      3  C2  UNL d   1      -1.504   2.996  -0.576  0.00  0.00     0.162 A 
ATOM      4  C3  UNL d   1      -1.908   4.002  -1.454  0.00  0.00    -0.034 A 
ATOM      5  C4  UNL d   1      -1.008   5.017  -1.785  0.00  0.00     0.162 A 
ATOM      6  C5  UNL d   1       0.274   5.021  -1.247  0.00  0.00     0.062 A 
ATOM      7  F   UNL d   1       1.132   6.000  -1.572  0.00  0.00    -0.097 F 
ATOM      8  F1  UNL d   1      -1.363   6.000  -2.626  0.00  0.00    -0.096 F 
ATOM      9  I   UNL d   1      -3.828   3.992  -2.257  0.00  0.00    -0.060 I 
ATOM     10  F2  UNL d   1      -2.342   2.006  -0.235  0.00  0.00    -0.096 F 
ATOM     11  F3  UNL d   1       0.159   2.033   0.803  0.00  0.00    -0.097 F 
ATOM     12  F4  UNL d   1       1.904   4.023   0.142  0.00  0.00    -0.092 F 
ENDROOT
TORSDOF 0
ENDMDL
