MODEL 1
REMARK minimizedAffinity 7.89799118
REMARK minimizedRMSD -1
REMARK  0 active torsions:
REMARK  status: ('A' for Active; 'I' for Inactive)
ROOT
ATOM      1  C   UNL d   1      -1.439  -0.776  -1.655  0.00  0.00     0.124 A 
ATOM      2  C1  UNL d   1      -2.060  -0.164  -0.575  0.00  0.00     0.062 A 
ATOM      3  C2  UNL d   1      -1.580   1.048  -0.087  0.00  0.00     0.162 A 
ATOM      4  C3  UNL d   1      -0.473   1.657  -0.678  0.00  0.00    -0.034 A 
ATOM      5  C4  UNL d   1       0.147   1.034  -1.763  0.00  0.00     0.162 A 
ATOM      6  C5  UNL d   1      -0.336  -0.177  -2.248  0.00  0.00     0.062 A 
ATOM      7  F   UNL d   1       0.265  -0.767  -3.291  0.00  0.00    -0.097 F 
ATOM      8  F1  UNL d   1       1.214   1.592  -2.355  0.00  0.00    -0.096 F 
ATOM      9  I   UNL d   1       0.248   3.469   0.049  0.00  0.00    -0.060 I 
ATOM     10  F2  UNL d   1      -2.200   1.617   0.958  0.00  0.00    -0.096 F 
ATOM     11  F3  UNL d   1      -3.124  -0.741   0.000  0.00  0.00    -0.097 F 
ATOM     12  F4  UNL d   1      -1.902  -1.943  -2.122  0.00  0.00    -0.092 F 
ENDROOT
TORSDOF 0
ENDMDL
