MODEL 1
REMARK minimizedAffinity 11.5637722
REMARK minimizedRMSD -1
REMARK  0 active torsions:
REMARK  status: ('A' for Active; 'I' for Inactive)
ROOT
ATOM      1  C1  DEN d   1       4.377  -5.999  -1.972  0.00  0.00     0.130 A 
ATOM      2  C2  DEN d   1       4.418  -4.962  -3.000  0.00  0.00    -0.031 A 
ATOM      3  C3  DEN d   1       5.000  -3.746  -2.397  0.00  0.00     0.027 A 
ATOM      4  C4  DEN d   1       5.841  -3.371   0.012  0.00  0.00     0.027 A 
ATOM      5  C5  DEN d   1       6.000  -3.955   1.249  0.00  0.00    -0.003 A 
ATOM      6  C6  DEN d   1       5.602  -5.240   1.506  0.00  0.00     0.001 A 
ATOM      7  C7  DEN d   1       5.065  -5.999   0.499  0.00  0.00     0.017 A 
ATOM      8  C8  DEN d   1       4.894  -5.414  -0.749  0.00  0.00    -0.094 A 
ATOM      9  C9  DEN d   1       5.315  -4.118  -0.992  0.00  0.00    -0.072 A 
ENDROOT
TORSDOF 0
ENDMDL
