MODEL 1
REMARK minimizedAffinity -4.33037376
REMARK minimizedRMSD -1
REMARK  0 active torsions:
REMARK  status: ('A' for Active; 'I' for Inactive)
ROOT
ATOM      1  C1  DEN d   1       0.524   0.272  -0.751  0.00  0.00     0.130 A 
ATOM      2  C2  DEN d   1       0.508  -0.669   0.366  0.00  0.00    -0.031 A 
ATOM      3  C3  DEN d   1      -0.298  -0.075   1.451  0.00  0.00     0.027 A 
ATOM      4  C4  DEN d   1      -1.518   2.197   1.510  0.00  0.00     0.027 A 
ATOM      5  C5  DEN d   1      -1.783   3.347   0.800  0.00  0.00    -0.003 A 
ATOM      6  C6  DEN d   1      -1.274   3.566  -0.452  0.00  0.00     0.001 A 
ATOM      7  C7  DEN d   1      -0.509   2.601  -1.052  0.00  0.00     0.017 A 
ATOM      8  C8  DEN d   1      -0.232   1.442  -0.340  0.00  0.00    -0.094 A 
ATOM      9  C9  DEN d   1      -0.766   1.234   0.920  0.00  0.00    -0.072 A 
ENDROOT
TORSDOF 0
ENDMDL
