MODEL 1
REMARK minimizedAffinity -2.41036129
REMARK minimizedRMSD -1
REMARK  0 active torsions:
REMARK  status: ('A' for Active; 'I' for Inactive)
ROOT
ATOM      1  C1  DEN d   1      -0.285   2.363  -1.114  0.00  0.00     0.130 A 
ATOM      2  C2  DEN d   1       0.787   1.688  -1.840  0.00  0.00    -0.031 A 
ATOM      3  C3  DEN d   1       1.151   0.470  -1.089  0.00  0.00     0.027 A 
ATOM      4  C4  DEN d   1       0.161  -0.434   1.114  0.00  0.00     0.027 A 
ATOM      5  C5  DEN d   1      -0.762  -0.200   2.109  0.00  0.00    -0.003 A 
ATOM      6  C6  DEN d   1      -1.560   0.913   2.118  0.00  0.00     0.001 A 
ATOM      7  C7  DEN d   1      -1.483   1.812   1.087  0.00  0.00     0.017 A 
ATOM      8  C8  DEN d   1      -0.549   1.586   0.084  0.00  0.00    -0.094 A 
ATOM      9  C9  DEN d   1       0.240   0.449   0.087  0.00  0.00    -0.072 A 
ENDROOT
TORSDOF 0
ENDMDL
