MODEL 1
REMARK minimizedAffinity -1.01868725
REMARK minimizedRMSD -1
REMARK  0 active torsions:
REMARK  status: ('A' for Active; 'I' for Inactive)
ROOT
ATOM      1  C1  DEN d   1      -0.754   2.595  -1.409  0.00  0.00     0.130 A 
ATOM      2  C2  DEN d   1       0.353   1.922  -2.083  0.00  0.00    -0.031 A 
ATOM      3  C3  DEN d   1       0.807   0.813  -1.220  0.00  0.00     0.027 A 
ATOM      4  C4  DEN d   1      -0.096   0.073   1.080  0.00  0.00     0.027 A 
ATOM      5  C5  DEN d   1      -1.021   0.346   2.063  0.00  0.00    -0.003 A 
ATOM      6  C6  DEN d   1      -1.892   1.399   1.975  0.00  0.00     0.001 A 
ATOM      7  C7  DEN d   1      -1.887   2.192   0.857  0.00  0.00     0.017 A 
ATOM      8  C8  DEN d   1      -0.952   1.928  -0.135  0.00  0.00    -0.094 A 
ATOM      9  C9  DEN d   1      -0.088   0.851  -0.032  0.00  0.00    -0.072 A 
ENDROOT
TORSDOF 0
ENDMDL
