MODEL 1
REMARK minimizedAffinity -3.22236514
REMARK minimizedRMSD -1
REMARK  0 active torsions:
REMARK  status: ('A' for Active; 'I' for Inactive)
ROOT
ATOM      1  C1  DEN d   1      -1.546   1.605   1.835  0.00  0.00     0.130 A 
ATOM      2  C2  DEN d   1      -2.281   2.638   1.110  0.00  0.00    -0.031 A 
ATOM      3  C3  DEN d   1      -1.836   2.613  -0.298  0.00  0.00     0.027 A 
ATOM      4  C4  DEN d   1      -0.093   1.079  -1.421  0.00  0.00     0.027 A 
ATOM      5  C5  DEN d   1       0.803   0.054  -1.209  0.00  0.00    -0.003 A 
ATOM      6  C6  DEN d   1       1.002  -0.498   0.029  0.00  0.00     0.001 A 
ATOM      7  C7  DEN d   1       0.262  -0.058   1.095  0.00  0.00     0.017 A 
ATOM      8  C8  DEN d   1      -0.638   0.980   0.890  0.00  0.00    -0.094 A 
ATOM      9  C9  DEN d   1      -0.833   1.516  -0.371  0.00  0.00    -0.072 A 
ENDROOT
TORSDOF 0
ENDMDL
