MODEL 1
REMARK minimizedAffinity -6.0442605
REMARK minimizedRMSD -1
REMARK  0 active torsions:
REMARK  status: ('A' for Active; 'I' for Inactive)
ROOT
ATOM      1  C1  DEN d   1       0.472   0.340  -1.171  0.00  0.00     0.130 A 
ATOM      2  C2  DEN d   1       1.036  -0.622  -0.229  0.00  0.00    -0.031 A 
ATOM      3  C3  DEN d   1       0.449  -0.357   1.100  0.00  0.00     0.027 A 
ATOM      4  C4  DEN d   1      -1.273   1.436   1.785  0.00  0.00     0.027 A 
ATOM      5  C5  DEN d   1      -2.035   2.491   1.333  0.00  0.00    -0.003 A 
ATOM      6  C6  DEN d   1      -1.989   2.921   0.034  0.00  0.00     0.001 A 
ATOM      7  C7  DEN d   1      -1.198   2.264  -0.871  0.00  0.00     0.017 A 
ATOM      8  C8  DEN d   1      -0.422   1.204  -0.422  0.00  0.00    -0.094 A 
ATOM      9  C9  DEN d   1      -0.491   0.777   0.893  0.00  0.00    -0.072 A 
ENDROOT
TORSDOF 0
ENDMDL
