MODEL 1
REMARK minimizedAffinity -2.82002616
REMARK minimizedRMSD -1
REMARK  0 active torsions:
REMARK  status: ('A' for Active; 'I' for Inactive)
ROOT
ATOM      1  C1  DEN d   1      -1.464  -0.989   0.485  0.00  0.00     0.130 A 
ATOM      2  C2  DEN d   1      -0.714  -0.162   1.426  0.00  0.00    -0.031 A 
ATOM      3  C3  DEN d   1       0.690  -0.111   0.972  0.00  0.00     0.027 A 
ATOM      4  C4  DEN d   1       1.769  -1.224  -1.090  0.00  0.00     0.027 A 
ATOM      5  C5  DEN d   1       1.535  -2.033  -2.180  0.00  0.00    -0.003 A 
ATOM      6  C6  DEN d   1       0.303  -2.574  -2.437  0.00  0.00     0.001 A 
ATOM      7  C7  DEN d   1      -0.753  -2.276  -1.618  0.00  0.00     0.017 A 
ATOM      8  C8  DEN d   1      -0.524  -1.467  -0.513  0.00  0.00    -0.094 A 
ATOM      9  C9  DEN d   1       0.726  -0.919  -0.277  0.00  0.00    -0.072 A 
ENDROOT
TORSDOF 0
ENDMDL
