MODEL 1
REMARK minimizedAffinity 4.01812601
REMARK minimizedRMSD -1
REMARK  0 active torsions:
REMARK  status: ('A' for Active; 'I' for Inactive)
ROOT
ATOM      1  C1  DEN d   1      -0.180   2.969   1.986  0.00  0.00     0.130 A 
ATOM      2  C2  DEN d   1       0.152   3.358   0.618  0.00  0.00    -0.031 A 
ATOM      3  C3  DEN d   1      -0.004   2.170  -0.245  0.00  0.00     0.027 A 
ATOM      4  C4  DEN d   1      -0.729  -0.220   0.399  0.00  0.00     0.027 A 
ATOM      5  C5  DEN d   1      -1.104  -1.036   1.444  0.00  0.00    -0.003 A 
ATOM      6  C6  DEN d   1      -1.164  -0.587   2.736  0.00  0.00     0.001 A 
ATOM      7  C7  DEN d   1      -0.887   0.726   3.012  0.00  0.00     0.017 A 
ATOM      8  C8  DEN d   1      -0.502   1.554   1.965  0.00  0.00    -0.094 A 
ATOM      9  C9  DEN d   1      -0.459   1.084   0.664  0.00  0.00    -0.072 A 
ENDROOT
TORSDOF 0
ENDMDL
