MODEL 1
REMARK minimizedAffinity 9.94507599
REMARK minimizedRMSD -1
REMARK  0 active torsions:
REMARK  status: ('A' for Active; 'I' for Inactive)
ROOT
ATOM      1  C1  DEN d   1       1.118  -0.828   0.170  0.00  0.00     0.130 A 
ATOM      2  C2  DEN d   1       1.031   0.418  -0.586  0.00  0.00    -0.031 A 
ATOM      3  C3  DEN d   1       0.137   1.336   0.148  0.00  0.00     0.027 A 
ATOM      4  C4  DEN d   1      -1.108   0.954   2.374  0.00  0.00     0.027 A 
ATOM      5  C5  DEN d   1      -1.353   0.048   3.382  0.00  0.00    -0.003 A 
ATOM      6  C6  DEN d   1      -0.822  -1.215   3.374  0.00  0.00     0.001 A 
ATOM      7  C7  DEN d   1       0.017  -1.592   2.358  0.00  0.00     0.017 A 
ATOM      8  C8  DEN d   1       0.262  -0.686   1.334  0.00  0.00    -0.094 A 
ATOM      9  C9  DEN d   1      -0.274   0.590   1.367  0.00  0.00    -0.072 A 
ENDROOT
TORSDOF 0
ENDMDL
