MODEL 1
REMARK minimizedAffinity -6.01683331
REMARK minimizedRMSD -1
REMARK  0 active torsions:
REMARK  status: ('A' for Active; 'I' for Inactive)
ROOT
ATOM      1  C1  DEN d   1      -1.086   3.021   0.054  0.00  0.00     0.130 A 
ATOM      2  C2  DEN d   1      -1.908   3.006   1.261  0.00  0.00    -0.031 A 
ATOM      3  C3  DEN d   1      -1.773   1.676   1.889  0.00  0.00     0.027 A 
ATOM      4  C4  DEN d   1      -0.374  -0.349   1.115  0.00  0.00     0.027 A 
ATOM      5  C5  DEN d   1       0.479  -0.817   0.141  0.00  0.00    -0.003 A 
ATOM      6  C6  DEN d   1       0.842  -0.057  -0.939  0.00  0.00     0.001 A 
ATOM      7  C7  DEN d   1       0.384   1.230  -1.048  0.00  0.00     0.017 A 
ATOM      8  C8  DEN d   1      -0.483   1.706  -0.074  0.00  0.00    -0.094 A 
ATOM      9  C9  DEN d   1      -0.828   0.926   1.017  0.00  0.00    -0.072 A 
ENDROOT
TORSDOF 0
ENDMDL
