MODEL 1
REMARK minimizedAffinity 6.93697739
REMARK minimizedRMSD -1
REMARK  0 active torsions:
REMARK  status: ('A' for Active; 'I' for Inactive)
ROOT
ATOM      1  C1  DEN d   1       0.572   0.668  -0.353  0.00  0.00     0.130 A 
ATOM      2  C2  DEN d   1       0.170  -0.687   0.015  0.00  0.00    -0.031 A 
ATOM      3  C3  DEN d   1      -0.541  -0.617   1.308  0.00  0.00     0.027 A 
ATOM      4  C4  DEN d   1      -1.061   1.447   2.764  0.00  0.00     0.027 A 
ATOM      5  C5  DEN d   1      -0.910   2.812   2.871  0.00  0.00    -0.003 A 
ATOM      6  C6  DEN d   1      -0.231   3.548   1.936  0.00  0.00     0.001 A 
ATOM      7  C7  DEN d   1       0.285   2.927   0.828  0.00  0.00     0.017 A 
ATOM      8  C8  DEN d   1       0.143   1.550   0.717  0.00  0.00    -0.094 A 
ATOM      9  C9  DEN d   1      -0.558   0.827   1.667  0.00  0.00    -0.072 A 
ENDROOT
TORSDOF 0
ENDMDL
