MODEL 1
REMARK minimizedAffinity -2.79822779
REMARK minimizedRMSD -1
REMARK  0 active torsions:
REMARK  status: ('A' for Active; 'I' for Inactive)
ROOT
ATOM      1  C1  DEN d   1       0.755  -0.342   0.959  0.00  0.00     0.130 A 
ATOM      2  C2  DEN d   1       0.779  -0.952  -0.368  0.00  0.00    -0.031 A 
ATOM      3  C3  DEN d   1      -0.301  -0.343  -1.170  0.00  0.00     0.027 A 
ATOM      4  C4  DEN d   1      -1.996   1.478  -0.492  0.00  0.00     0.027 A 
ATOM      5  C5  DEN d   1      -2.417   2.293   0.536  0.00  0.00    -0.003 A 
ATOM      6  C6  DEN d   1      -1.838   2.263   1.776  0.00  0.00     0.001 A 
ATOM      7  C7  DEN d   1      -0.774   1.432   2.008  0.00  0.00     0.017 A 
ATOM      8  C8  DEN d   1      -0.348   0.602   0.979  0.00  0.00    -0.094 A 
ATOM      9  C9  DEN d   1      -0.940   0.656  -0.271  0.00  0.00    -0.072 A 
ENDROOT
TORSDOF 0
ENDMDL
