MODEL 1
REMARK minimizedAffinity -4.38435984
REMARK minimizedRMSD -1
REMARK  0 active torsions:
REMARK  status: ('A' for Active; 'I' for Inactive)
ROOT
ATOM      1  C1  DEN d   1       1.154   0.345  -0.439  0.00  0.00     0.130 A 
ATOM      2  C2  DEN d   1       0.997   1.334  -1.501  0.00  0.00    -0.031 A 
ATOM      3  C3  DEN d   1      -0.222   2.119  -1.218  0.00  0.00     0.027 A 
ATOM      4  C4  DEN d   1      -1.869   1.902   0.754  0.00  0.00     0.027 A 
ATOM      5  C5  DEN d   1      -2.159   1.199   1.903  0.00  0.00    -0.003 A 
ATOM      6  C6  DEN d   1      -1.391   0.149   2.330  0.00  0.00     0.001 A 
ATOM      7  C7  DEN d   1      -0.268  -0.200   1.627  0.00  0.00     0.017 A 
ATOM      8  C8  DEN d   1       0.027   0.499   0.464  0.00  0.00    -0.094 A 
ATOM      9  C9  DEN d   1      -0.756   1.566   0.056  0.00  0.00    -0.072 A 
ENDROOT
TORSDOF 0
ENDMDL
