MODEL 1
REMARK minimizedAffinity -4.09686327
REMARK minimizedRMSD -1
REMARK  0 active torsions:
REMARK  status: ('A' for Active; 'I' for Inactive)
ROOT
ATOM      1  C1  DEN d   1       0.616  -0.387   1.019  0.00  0.00     0.130 A 
ATOM      2  C2  DEN d   1       0.178  -0.566   2.401  0.00  0.00    -0.031 A 
ATOM      3  C3  DEN d   1      -0.837   0.466   2.695  0.00  0.00     0.027 A 
ATOM      4  C4  DEN d   1      -1.771   2.310   1.154  0.00  0.00     0.027 A 
ATOM      5  C5  DEN d   1      -1.695   2.867  -0.104  0.00  0.00    -0.003 A 
ATOM      6  C6  DEN d   1      -0.827   2.403  -1.057  0.00  0.00     0.001 A 
ATOM      7  C7  DEN d   1      -0.031   1.323  -0.782  0.00  0.00     0.017 A 
ATOM      8  C8  DEN d   1      -0.096   0.761   0.487  0.00  0.00    -0.094 A 
ATOM      9  C9  DEN d   1      -0.989   1.237   1.432  0.00  0.00    -0.072 A 
ENDROOT
TORSDOF 0
ENDMDL
