MODEL 1
REMARK minimizedAffinity -3.48900056
REMARK minimizedRMSD -1
REMARK  0 active torsions:
REMARK  status: ('A' for Active; 'I' for Inactive)
ROOT
ATOM      1  C1  DEN d   1      -0.203  -0.399   2.294  0.00  0.00     0.130 A 
ATOM      2  C2  DEN d   1      -1.006   0.659   2.899  0.00  0.00    -0.031 A 
ATOM      3  C3  DEN d   1      -1.359   1.626   1.840  0.00  0.00     0.027 A 
ATOM      4  C4  DEN d   1      -0.746   1.585  -0.665  0.00  0.00     0.027 A 
ATOM      5  C5  DEN d   1      -0.068   0.891  -1.643  0.00  0.00    -0.003 A 
ATOM      6  C6  DEN d   1       0.634  -0.254  -1.374  0.00  0.00     0.001 A 
ATOM      7  C7  DEN d   1       0.638  -0.764  -0.102  0.00  0.00     0.017 A 
ATOM      8  C8  DEN d   1      -0.037  -0.066   0.891  0.00  0.00    -0.094 A 
ATOM      9  C9  DEN d   1      -0.751   1.082   0.596  0.00  0.00    -0.072 A 
ENDROOT
TORSDOF 0
ENDMDL
