MODEL 1
REMARK minimizedAffinity -2.68361902
REMARK minimizedRMSD -1
REMARK  0 active torsions:
REMARK  status: ('A' for Active; 'I' for Inactive)
ROOT
ATOM      1  C   UNL d   1       0.033   1.389  -0.157  0.00  0.00     0.078 C 
ATOM      2  C1  UNL d   1      -0.886   1.616  -1.319  0.00  0.00    -0.077 A 
ATOM      3  C2  UNL d   1      -0.407   2.141  -2.526  0.00  0.00    -0.001 A 
ATOM      4  C3  UNL d   1      -1.276   2.356  -3.597  0.00  0.00     0.003 A 
ATOM      5  C4  UNL d   1      -2.630   2.051  -3.471  0.00  0.00    -0.005 A 
ATOM      6  C5  UNL d   1      -3.117   1.531  -2.273  0.00  0.00     0.003 A 
ATOM      7  C6  UNL d   1      -2.249   1.315  -1.202  0.00  0.00    -0.001 A 
ENDROOT
TORSDOF 0
ENDMDL
