MODEL 1
REMARK minimizedAffinity -5.13472986
REMARK minimizedRMSD -1
REMARK  0 active torsions:
REMARK  status: ('A' for Active; 'I' for Inactive)
ROOT
ATOM      1  C   UNL d   1       1.844  -2.911   1.279  0.00  0.00     0.078 C 
ATOM      2  C1  UNL d   1       1.010  -1.729   0.882  0.00  0.00    -0.077 A 
ATOM      3  C2  UNL d   1       1.440  -0.846  -0.116  0.00  0.00    -0.001 A 
ATOM      4  C3  UNL d   1       0.659   0.256  -0.468  0.00  0.00     0.003 A 
ATOM      5  C4  UNL d   1      -0.557   0.485   0.173  0.00  0.00    -0.005 A 
ATOM      6  C5  UNL d   1      -0.992  -0.388   1.169  0.00  0.00     0.003 A 
ATOM      7  C6  UNL d   1      -0.212  -1.490   1.522  0.00  0.00    -0.001 A 
ENDROOT
TORSDOF 0
ENDMDL
