MODEL 1
REMARK minimizedAffinity -5.01239967
REMARK minimizedRMSD -1
REMARK  0 active torsions:
REMARK  status: ('A' for Active; 'I' for Inactive)
ROOT
ATOM      1  C   UNL d   1       1.815  -2.925   1.174  0.00  0.00     0.078 C 
ATOM      2  C1  UNL d   1       0.965  -1.744   0.812  0.00  0.00    -0.077 A 
ATOM      3  C2  UNL d   1       1.448  -0.740  -0.035  0.00  0.00    -0.001 A 
ATOM      4  C3  UNL d   1       0.649   0.359  -0.356  0.00  0.00     0.003 A 
ATOM      5  C4  UNL d   1      -0.638   0.465   0.168  0.00  0.00    -0.005 A 
ATOM      6  C5  UNL d   1      -1.127  -0.529   1.013  0.00  0.00     0.003 A 
ATOM      7  C6  UNL d   1      -0.329  -1.628   1.335  0.00  0.00    -0.001 A 
ENDROOT
TORSDOF 0
ENDMDL
