MODEL 1
REMARK minimizedAffinity -5.11119938
REMARK minimizedRMSD -1
REMARK  0 active torsions:
REMARK  status: ('A' for Active; 'I' for Inactive)
ROOT
ATOM      1  C   UNL d   1      -0.528   0.926   0.097  0.00  0.00     0.078 C 
ATOM      2  C1  UNL d   1       0.196  -0.351   0.400  0.00  0.00    -0.077 A 
ATOM      3  C2  UNL d   1       1.514  -0.551  -0.026  0.00  0.00    -0.001 A 
ATOM      4  C3  UNL d   1       2.173  -1.750   0.254  0.00  0.00     0.003 A 
ATOM      5  C4  UNL d   1       1.520  -2.758   0.961  0.00  0.00    -0.005 A 
ATOM      6  C5  UNL d   1       0.207  -2.569   1.387  0.00  0.00     0.003 A 
ATOM      7  C6  UNL d   1      -0.453  -1.371   1.108  0.00  0.00    -0.001 A 
ENDROOT
TORSDOF 0
ENDMDL
