MODEL 1
REMARK minimizedAffinity -5.94171762
REMARK minimizedRMSD -1
REMARK  0 active torsions:
REMARK  status: ('A' for Active; 'I' for Inactive)
ROOT
ATOM      1  C   UNL d   1      -0.408   0.194   0.050  0.00  0.00     0.078 C 
ATOM      2  C1  UNL d   1       0.034  -0.881   0.998  0.00  0.00    -0.077 A 
ATOM      3  C2  UNL d   1      -0.641  -1.101   2.205  0.00  0.00    -0.001 A 
ATOM      4  C3  UNL d   1      -0.212  -2.098   3.082  0.00  0.00     0.003 A 
ATOM      5  C4  UNL d   1       0.894  -2.884   2.762  0.00  0.00    -0.005 A 
ATOM      6  C5  UNL d   1       1.573  -2.671   1.564  0.00  0.00     0.003 A 
ATOM      7  C6  UNL d   1       1.146  -1.674   0.686  0.00  0.00    -0.001 A 
ENDROOT
TORSDOF 0
ENDMDL
