MODEL 1
REMARK minimizedAffinity -4.40684175
REMARK minimizedRMSD -1
REMARK  0 active torsions:
REMARK  status: ('A' for Active; 'I' for Inactive)
ROOT
ATOM      1  C   UNL d   1       1.793  -2.391   1.135  0.00  0.00     0.078 C 
ATOM      2  C1  UNL d   1       0.810  -1.327   0.746  0.00  0.00    -0.077 A 
ATOM      3  C2  UNL d   1      -0.415  -1.199   1.411  0.00  0.00    -0.001 A 
ATOM      4  C3  UNL d   1      -1.324  -0.210   1.032  0.00  0.00     0.003 A 
ATOM      5  C4  UNL d   1      -1.018   0.658  -0.014  0.00  0.00    -0.005 A 
ATOM      6  C5  UNL d   1       0.198   0.537  -0.683  0.00  0.00     0.003 A 
ATOM      7  C6  UNL d   1       1.109  -0.452  -0.306  0.00  0.00    -0.001 A 
ENDROOT
TORSDOF 0
ENDMDL
