MODEL 1
REMARK minimizedAffinity -3.92320919
REMARK minimizedRMSD -1
REMARK  0 active torsions:
REMARK  status: ('A' for Active; 'I' for Inactive)
ROOT
ATOM      1  C   UNL d   1      -0.274   1.125  -0.250  0.00  0.00     0.078 C 
ATOM      2  C1  UNL d   1       0.657   0.022   0.156  0.00  0.00    -0.077 A 
ATOM      3  C2  UNL d   1       1.812  -0.256  -0.585  0.00  0.00    -0.001 A 
ATOM      4  C3  UNL d   1       2.664  -1.292  -0.201  0.00  0.00     0.003 A 
ATOM      5  C4  UNL d   1       2.370  -2.059   0.925  0.00  0.00    -0.005 A 
ATOM      6  C5  UNL d   1       1.222  -1.791   1.667  0.00  0.00     0.003 A 
ATOM      7  C6  UNL d   1       0.368  -0.755   1.285  0.00  0.00    -0.001 A 
ENDROOT
TORSDOF 0
ENDMDL
