MODEL 1
REMARK minimizedAffinity -2.77507281
REMARK minimizedRMSD -1
REMARK  0 active torsions:
REMARK  status: ('A' for Active; 'I' for Inactive)
ROOT
ATOM      1  C   UNL d   1       1.274   0.715  -1.088  0.00  0.00     0.078 C 
ATOM      2  C1  UNL d   1       0.355   0.059  -0.102  0.00  0.00    -0.077 A 
ATOM      3  C2  UNL d   1      -0.760   0.737   0.407  0.00  0.00    -0.001 A 
ATOM      4  C3  UNL d   1      -1.602   0.117   1.331  0.00  0.00     0.003 A 
ATOM      5  C4  UNL d   1      -1.337  -1.183   1.757  0.00  0.00    -0.005 A 
ATOM      6  C5  UNL d   1      -0.229  -1.865   1.258  0.00  0.00     0.003 A 
ATOM      7  C6  UNL d   1       0.614  -1.247   0.333  0.00  0.00    -0.001 A 
ENDROOT
TORSDOF 0
ENDMDL
