MODEL 1
REMARK minimizedAffinity -3.57722497
REMARK minimizedRMSD -1
REMARK  0 active torsions:
REMARK  status: ('A' for Active; 'I' for Inactive)
ROOT
ATOM      1  C   UNL d   1       0.374  -2.751   0.686  0.00  0.00     0.078 C 
ATOM      2  C1  UNL d   1      -0.071  -1.319   0.715  0.00  0.00    -0.077 A 
ATOM      3  C2  UNL d   1       0.391  -0.401  -0.236  0.00  0.00    -0.001 A 
ATOM      4  C3  UNL d   1      -0.025   0.931  -0.191  0.00  0.00     0.003 A 
ATOM      5  C4  UNL d   1      -0.903   1.357   0.803  0.00  0.00    -0.005 A 
ATOM      6  C5  UNL d   1      -1.367   0.451   1.755  0.00  0.00     0.003 A 
ATOM      7  C6  UNL d   1      -0.952  -0.881   1.712  0.00  0.00    -0.001 A 
ENDROOT
TORSDOF 0
ENDMDL
