MODEL 1
REMARK minimizedAffinity -5.38183546
REMARK minimizedRMSD -1
REMARK  0 active torsions:
REMARK  status: ('A' for Active; 'I' for Inactive)
ROOT
ATOM      1  C   UNL d   1      -0.617   0.814  -0.232  0.00  0.00     0.078 C 
ATOM      2  C1  UNL d   1       0.131  -0.449   0.072  0.00  0.00    -0.077 A 
ATOM      3  C2  UNL d   1      -0.548  -1.626   0.412  0.00  0.00    -0.001 A 
ATOM      4  C3  UNL d   1       0.162  -2.792   0.701  0.00  0.00     0.003 A 
ATOM      5  C4  UNL d   1       1.554  -2.794   0.655  0.00  0.00    -0.005 A 
ATOM      6  C5  UNL d   1       2.239  -1.628   0.319  0.00  0.00     0.003 A 
ATOM      7  C6  UNL d   1       1.531  -0.460   0.030  0.00  0.00    -0.001 A 
ENDROOT
TORSDOF 0
ENDMDL
