MODEL 1
REMARK minimizedAffinity -4.70532179
REMARK minimizedRMSD -1
REMARK  0 active torsions:
REMARK  status: ('A' for Active; 'I' for Inactive)
ROOT
ATOM      1  C   UNL d   1       0.006   1.393  -0.742  0.00  0.00     0.078 C 
ATOM      2  C1  UNL d   1       0.451   0.159  -0.014  0.00  0.00    -0.077 A 
ATOM      3  C2  UNL d   1      -0.479  -0.704   0.578  0.00  0.00    -0.001 A 
ATOM      4  C3  UNL d   1      -0.049  -1.843   1.260  0.00  0.00     0.003 A 
ATOM      5  C4  UNL d   1       1.311  -2.129   1.358  0.00  0.00    -0.005 A 
ATOM      6  C5  UNL d   1       2.244  -1.275   0.773  0.00  0.00     0.003 A 
ATOM      7  C6  UNL d   1       1.816  -0.135   0.091  0.00  0.00    -0.001 A 
ENDROOT
TORSDOF 0
ENDMDL
