MODEL 1
REMARK minimizedAffinity -5.03671503
REMARK minimizedRMSD -1
REMARK  0 active torsions:
REMARK  status: ('A' for Active; 'I' for Inactive)
ROOT
ATOM      1  C   UNL d   1       1.370  -2.758   1.097  0.00  0.00     0.078 C 
ATOM      2  C1  UNL d   1       0.793  -1.438   0.682  0.00  0.00    -0.077 A 
ATOM      3  C2  UNL d   1      -0.501  -1.063   1.068  0.00  0.00    -0.001 A 
ATOM      4  C3  UNL d   1      -1.029   0.165   0.666  0.00  0.00     0.003 A 
ATOM      5  C4  UNL d   1      -0.272   1.028  -0.123  0.00  0.00    -0.005 A 
ATOM      6  C5  UNL d   1       1.015   0.663  -0.513  0.00  0.00     0.003 A 
ATOM      7  C6  UNL d   1       1.545  -0.564  -0.113  0.00  0.00    -0.001 A 
ENDROOT
TORSDOF 0
ENDMDL
