MODEL 1
REMARK minimizedAffinity -3.15199709
REMARK minimizedRMSD -1
REMARK  0 active torsions:
REMARK  status: ('A' for Active; 'I' for Inactive)
ROOT
ATOM      1  C   UNL d   1       1.784  -2.476   0.922  0.00  0.00     0.078 C 
ATOM      2  C1  UNL d   1       1.002  -1.274   0.484  0.00  0.00    -0.077 A 
ATOM      3  C2  UNL d   1       1.589  -0.282  -0.311  0.00  0.00    -0.001 A 
ATOM      4  C3  UNL d   1       0.852   0.836  -0.703  0.00  0.00     0.003 A 
ATOM      5  C4  UNL d   1      -0.476   0.974  -0.304  0.00  0.00    -0.005 A 
ATOM      6  C5  UNL d   1      -1.068  -0.008   0.488  0.00  0.00     0.003 A 
ATOM      7  C6  UNL d   1      -0.333  -1.127   0.881  0.00  0.00    -0.001 A 
ENDROOT
TORSDOF 0
ENDMDL
