MODEL 1
REMARK minimizedAffinity 8.01929855
REMARK minimizedRMSD -1
REMARK  0 active torsions:
REMARK  status: ('A' for Active; 'I' for Inactive)
ROOT
ATOM      1  C1  DEN d   1       3.407  -1.304  -0.817  0.00  0.00     0.130 A 
ATOM      2  C2  DEN d   1       4.176  -0.062  -0.788  0.00  0.00    -0.031 A 
ATOM      3  C3  DEN d   1       3.293   1.010  -0.287  0.00  0.00     0.027 A 
ATOM      4  C4  DEN d   1       0.824   0.867   0.448  0.00  0.00     0.027 A 
ATOM      5  C5  DEN d   1      -0.258   0.027   0.590  0.00  0.00    -0.003 A 
ATOM      6  C6  DEN d   1      -0.205  -1.297   0.243  0.00  0.00     0.001 A 
ATOM      7  C7  DEN d   1       0.968  -1.831  -0.220  0.00  0.00     0.017 A 
ATOM      8  C8  DEN d   1       2.062  -0.988  -0.373  0.00  0.00    -0.094 A 
ATOM      9  C9  DEN d   1       1.992   0.345  -0.005  0.00  0.00    -0.072 A 
ENDROOT
TORSDOF 0
ENDMDL
