MODEL 1
REMARK minimizedAffinity 7.36969423
REMARK minimizedRMSD -1
REMARK  0 active torsions:
REMARK  status: ('A' for Active; 'I' for Inactive)
ROOT
ATOM      1  C1  DEN d   1       4.827   3.496  -0.031  0.00  0.00     0.130 A 
ATOM      2  C2  DEN d   1       5.999   3.026  -0.763  0.00  0.00    -0.031 A 
ATOM      3  C3  DEN d   1       5.715   1.662  -1.252  0.00  0.00     0.027 A 
ATOM      4  C4  DEN d   1       3.583   0.242  -0.952  0.00  0.00     0.027 A 
ATOM      5  C5  DEN d   1       2.324   0.212  -0.395  0.00  0.00    -0.003 A 
ATOM      6  C6  DEN d   1       1.828   1.252   0.346  0.00  0.00     0.001 A 
ATOM      7  C7  DEN d   1       2.578   2.386   0.511  0.00  0.00     0.017 A 
ATOM      8  C8  DEN d   1       3.852   2.421  -0.042  0.00  0.00    -0.094 A 
ATOM      9  C9  DEN d   1       4.330   1.364  -0.797  0.00  0.00    -0.072 A 
ENDROOT
TORSDOF 0
ENDMDL
