MODEL 1
REMARK minimizedAffinity 4.73325109
REMARK minimizedRMSD -1
REMARK  0 active torsions:
REMARK  status: ('A' for Active; 'I' for Inactive)
ROOT
ATOM      1  C1  DEN d   1       0.680   2.021   3.192  0.00  0.00     0.130 A 
ATOM      2  C2  DEN d   1      -0.110   1.532   2.065  0.00  0.00    -0.031 A 
ATOM      3  C3  DEN d   1       0.718   1.637   0.847  0.00  0.00     0.027 A 
ATOM      4  C4  DEN d   1       3.135   2.503   0.597  0.00  0.00     0.027 A 
ATOM      5  C5  DEN d   1       4.212   3.036   1.271  0.00  0.00    -0.003 A 
ATOM      6  C6  DEN d   1       4.175   3.297   2.615  0.00  0.00     0.001 A 
ATOM      7  C7  DEN d   1       3.054   2.984   3.337  0.00  0.00     0.017 A 
ATOM      8  C8  DEN d   1       1.962   2.454   2.664  0.00  0.00    -0.094 A 
ATOM      9  C9  DEN d   1       2.023   2.185   1.307  0.00  0.00    -0.072 A 
ENDROOT
TORSDOF 0
ENDMDL
