MODEL 1
REMARK minimizedAffinity 3.81817126
REMARK minimizedRMSD -1
REMARK  0 active torsions:
REMARK  status: ('A' for Active; 'I' for Inactive)
ROOT
ATOM      1  C1  DEN d   1       1.314   0.827  -0.352  0.00  0.00     0.130 A 
ATOM      2  C2  DEN d   1      -0.014   1.425  -0.450  0.00  0.00    -0.031 A 
ATOM      3  C3  DEN d   1      -0.985   0.341  -0.706  0.00  0.00     0.027 A 
ATOM      4  C4  DEN d   1      -0.561  -2.191  -0.953  0.00  0.00     0.027 A 
ATOM      5  C5  DEN d   1       0.405  -3.172  -0.959  0.00  0.00    -0.003 A 
ATOM      6  C6  DEN d   1       1.736  -2.888  -0.798  0.00  0.00     0.001 A 
ATOM      7  C7  DEN d   1       2.132  -1.594  -0.579  0.00  0.00     0.017 A 
ATOM      8  C8  DEN d   1       1.163  -0.599  -0.579  0.00  0.00    -0.094 A 
ATOM      9  C9  DEN d   1      -0.177  -0.908  -0.732  0.00  0.00    -0.072 A 
ENDROOT
TORSDOF 0
ENDMDL
