MODEL 1
REMARK minimizedAffinity -0.893588662
REMARK minimizedRMSD -1
REMARK  0 active torsions:
REMARK  status: ('A' for Active; 'I' for Inactive)
ROOT
ATOM      1  C1  DEN d   1       1.172   0.814   0.112  0.00  0.00     0.130 A 
ATOM      2  C2  DEN d   1      -0.150   1.386  -0.132  0.00  0.00    -0.031 A 
ATOM      3  C3  DEN d   1      -1.015   0.320  -0.677  0.00  0.00     0.027 A 
ATOM      4  C4  DEN d   1      -0.440  -2.148  -1.159  0.00  0.00     0.027 A 
ATOM      5  C5  DEN d   1       0.559  -3.095  -1.123  0.00  0.00    -0.003 A 
ATOM      6  C6  DEN d   1       1.830  -2.800  -0.709  0.00  0.00     0.001 A 
ATOM      7  C7  DEN d   1       2.125  -1.537  -0.270  0.00  0.00     0.017 A 
ATOM      8  C8  DEN d   1       1.125  -0.574  -0.310  0.00  0.00    -0.094 A 
ATOM      9  C9  DEN d   1      -0.157  -0.895  -0.721  0.00  0.00    -0.072 A 
ENDROOT
TORSDOF 0
ENDMDL
