MODEL 1
REMARK minimizedAffinity 0.0124981878
REMARK minimizedRMSD -1
REMARK  0 active torsions:
REMARK  status: ('A' for Active; 'I' for Inactive)
ROOT
ATOM      1  C1  DEN d   1       1.008   0.533   0.451  0.00  0.00     0.130 A 
ATOM      2  C2  DEN d   1       1.794   1.763   0.468  0.00  0.00    -0.031 A 
ATOM      3  C3  DEN d   1       3.092   1.485  -0.178  0.00  0.00     0.027 A 
ATOM      4  C4  DEN d   1       3.955  -0.719  -1.203  0.00  0.00     0.027 A 
ATOM      5  C5  DEN d   1       3.649  -2.040  -1.443  0.00  0.00    -0.003 A 
ATOM      6  C6  DEN d   1       2.466  -2.601  -1.042  0.00  0.00     0.001 A 
ATOM      7  C7  DEN d   1       1.524  -1.825  -0.418  0.00  0.00     0.017 A 
ATOM      8  C8  DEN d   1       1.828  -0.494  -0.166  0.00  0.00    -0.094 A 
ATOM      9  C9  DEN d   1       3.025   0.057  -0.591  0.00  0.00    -0.072 A 
ENDROOT
TORSDOF 0
ENDMDL
