MODEL 1
REMARK minimizedAffinity 6.74072933
REMARK minimizedRMSD -1
REMARK  0 active torsions:
REMARK  status: ('A' for Active; 'I' for Inactive)
ROOT
ATOM      1  C1  DEN d   1      -1.319   1.033  -0.985  0.00  0.00     0.130 A 
ATOM      2  C2  DEN d   1      -0.453   2.013  -0.335  0.00  0.00    -0.031 A 
ATOM      3  C3  DEN d   1       0.770   1.317   0.112  0.00  0.00     0.027 A 
ATOM      4  C4  DEN d   1       1.407  -1.169  -0.143  0.00  0.00     0.027 A 
ATOM      5  C5  DEN d   1       0.987  -2.393  -0.617  0.00  0.00    -0.003 A 
ATOM      6  C6  DEN d   1      -0.235  -2.565  -1.211  0.00  0.00     0.001 A 
ATOM      7  C7  DEN d   1      -1.062  -1.488  -1.388  0.00  0.00     0.017 A 
ATOM      8  C8  DEN d   1      -0.649  -0.253  -0.907  0.00  0.00    -0.094 A 
ATOM      9  C9  DEN d   1       0.595  -0.096  -0.320  0.00  0.00    -0.072 A 
ENDROOT
TORSDOF 0
ENDMDL
