MODEL 1
REMARK minimizedAffinity -2.8066802
REMARK minimizedRMSD -1
REMARK  0 active torsions:
REMARK  status: ('A' for Active; 'I' for Inactive)
ROOT
ATOM      1  C1  DEN d   1       0.550   0.996  -0.363  0.00  0.00     0.130 A 
ATOM      2  C2  DEN d   1      -0.455  -0.064  -0.367  0.00  0.00    -0.031 A 
ATOM      3  C3  DEN d   1       0.242  -1.353  -0.552  0.00  0.00     0.027 A 
ATOM      4  C4  DEN d   1       2.766  -1.809  -0.825  0.00  0.00     0.027 A 
ATOM      5  C5  DEN d   1       4.011  -1.224  -0.898  0.00  0.00    -0.003 A 
ATOM      6  C6  DEN d   1       4.185   0.133  -0.832  0.00  0.00     0.001 A 
ATOM      7  C7  DEN d   1       3.100   0.948  -0.644  0.00  0.00     0.017 A 
ATOM      8  C8  DEN d   1       1.841   0.366  -0.577  0.00  0.00    -0.094 A 
ATOM      9  C9  DEN d   1       1.687  -1.008  -0.633  0.00  0.00    -0.072 A 
ENDROOT
TORSDOF 0
ENDMDL
