MODEL 1
REMARK minimizedAffinity 1.24886763
REMARK minimizedRMSD -1
REMARK  1 active torsions:
REMARK  status: ('A' for Active; 'I' for Inactive)
REMARK    1  A    between atoms: C3_4  and  O_7 
ROOT
ATOM      1  C   UNL d   1       3.582   0.749   0.733  0.00  0.00    -0.033 A 
ATOM      2  C1  UNL d   1       2.659   0.695  -0.314  0.00  0.00     0.039 A 
ATOM      3  C2  UNL d   1       2.085  -0.525  -0.678  0.00  0.00    -0.080 A 
ATOM      4  C3  UNL d   1       2.440  -1.681   0.012  0.00  0.00     0.150 A 
ATOM      5  C4  UNL d   1       3.356  -1.633   1.058  0.00  0.00    -0.007 A 
ATOM      6  C5  UNL d   1       3.929  -0.415   1.420  0.00  0.00     0.039 A 
ENDROOT
BRANCH   4   7
ATOM      7  O   UNL d   1       1.910  -2.894  -0.310  0.00  0.00    -0.526 OA
ATOM      8  H5  UNL d   1       1.315  -2.778  -1.070  0.00  0.00     0.418 HD
ENDBRANCH   4   7
TORSDOF 1
ENDMDL
