MODEL 1
REMARK minimizedAffinity 1.91618347
REMARK minimizedRMSD -1
REMARK  1 active torsions:
REMARK  status: ('A' for Active; 'I' for Inactive)
REMARK    1  A    between atoms: C3_4  and  O_7 
ROOT
ATOM      1  C   UNL d   1       3.212  -1.595  -1.119  0.00  0.00    -0.033 A 
ATOM      2  C1  UNL d   1       1.963  -2.104  -0.760  0.00  0.00     0.039 A 
ATOM      3  C2  UNL d   1       0.992  -1.259  -0.219  0.00  0.00    -0.080 A 
ATOM      4  C3  UNL d   1       1.282   0.091  -0.044  0.00  0.00     0.150 A 
ATOM      5  C4  UNL d   1       2.524   0.606  -0.403  0.00  0.00    -0.007 A 
ATOM      6  C5  UNL d   1       3.492  -0.240  -0.942  0.00  0.00     0.039 A 
ENDROOT
BRANCH   4   7
ATOM      7  O   UNL d   1       0.368   0.954   0.484  0.00  0.00    -0.526 OA
ATOM      8  H5  UNL d   1      -0.433   0.453   0.711  0.00  0.00     0.418 HD
ENDBRANCH   4   7
TORSDOF 1
ENDMDL
