MODEL 1
REMARK minimizedAffinity -3.23584604
REMARK minimizedRMSD -1
REMARK  1 active torsions:
REMARK  status: ('A' for Active; 'I' for Inactive)
REMARK    1  A    between atoms: C3_4  and  O_7 
ROOT
ATOM      1  C   UNL d   1       1.364   2.682   2.688  0.00  0.00    -0.033 A 
ATOM      2  C1  UNL d   1       0.812   2.009   1.596  0.00  0.00     0.039 A 
ATOM      3  C2  UNL d   1       1.582   1.780   0.453  0.00  0.00    -0.080 A 
ATOM      4  C3  UNL d   1       2.899   2.229   0.416  0.00  0.00     0.150 A 
ATOM      5  C4  UNL d   1       3.456   2.897   1.501  0.00  0.00    -0.007 A 
ATOM      6  C5  UNL d   1       2.686   3.125   2.641  0.00  0.00     0.039 A 
ENDROOT
BRANCH   4   7
ATOM      7  O   UNL d   1       3.687   2.033  -0.679  0.00  0.00    -0.526 OA
ATOM      8  H5  UNL d   1       3.161   1.585  -1.362  0.00  0.00     0.418 HD
ENDBRANCH   4   7
TORSDOF 1
ENDMDL
