MODEL 1
REMARK minimizedAffinity 7.9804554
REMARK minimizedRMSD -1
REMARK  1 active torsions:
REMARK  status: ('A' for Active; 'I' for Inactive)
REMARK    1  A    between atoms: C3_4  and  O_7 
ROOT
ATOM      1  C   UNL d   1      -0.479  -4.256  -0.994  0.00  0.00    -0.033 A 
ATOM      2  C1  UNL d   1      -0.829  -3.657  -2.206  0.00  0.00     0.039 A 
ATOM      3  C2  UNL d   1      -1.816  -4.231  -3.011  0.00  0.00    -0.080 A 
ATOM      4  C3  UNL d   1      -2.445  -5.400  -2.592  0.00  0.00     0.150 A 
ATOM      5  C4  UNL d   1      -2.103  -6.000  -1.385  0.00  0.00    -0.007 A 
ATOM      6  C5  UNL d   1      -1.117  -5.427  -0.583  0.00  0.00     0.039 A 
ENDROOT
BRANCH   4   7
ATOM      7  O   UNL d   1      -3.410  -5.999  -3.346  0.00  0.00    -0.526 OA
ATOM      8  H5  UNL d   1      -3.521  -5.489  -4.166  0.00  0.00     0.418 HD
ENDBRANCH   4   7
TORSDOF 1
ENDMDL
