MODEL 1
REMARK minimizedAffinity -1.62881768
REMARK minimizedRMSD -1
REMARK  1 active torsions:
REMARK  status: ('A' for Active; 'I' for Inactive)
REMARK    1  A    between atoms: C3_4  and  O_7 
ROOT
ATOM      1  C   UNL d   1       3.310  -2.714  -1.844  0.00  0.00    -0.033 A 
ATOM      2  C1  UNL d   1       4.195  -1.885  -2.535  0.00  0.00     0.039 A 
ATOM      3  C2  UNL d   1       4.302  -0.535  -2.192  0.00  0.00    -0.080 A 
ATOM      4  C3  UNL d   1       3.521  -0.029  -1.157  0.00  0.00     0.150 A 
ATOM      5  C4  UNL d   1       2.639  -0.851  -0.462  0.00  0.00    -0.007 A 
ATOM      6  C5  UNL d   1       2.533  -2.198  -0.807  0.00  0.00     0.039 A 
ENDROOT
BRANCH   4   7
ATOM      7  O   UNL d   1       3.587   1.282  -0.789  0.00  0.00    -0.526 OA
ATOM      8  H5  UNL d   1       4.217   1.734  -1.375  0.00  0.00     0.418 HD
ENDBRANCH   4   7
TORSDOF 1
ENDMDL
