MODEL 1
REMARK minimizedAffinity -1.46838224
REMARK minimizedRMSD -1
REMARK  1 active torsions:
REMARK  status: ('A' for Active; 'I' for Inactive)
REMARK    1  A    between atoms: C3_4  and  O_7 
ROOT
ATOM      1  C   UNL d   1       2.790  -2.823  -1.926  0.00  0.00    -0.033 A 
ATOM      2  C1  UNL d   1       2.089  -2.310  -0.832  0.00  0.00     0.039 A 
ATOM      3  C2  UNL d   1       2.307  -0.996  -0.415  0.00  0.00    -0.080 A 
ATOM      4  C3  UNL d   1       3.226  -0.205  -1.099  0.00  0.00     0.150 A 
ATOM      5  C4  UNL d   1       3.925  -0.708  -2.192  0.00  0.00    -0.007 A 
ATOM      6  C5  UNL d   1       3.706  -2.021  -2.607  0.00  0.00     0.039 A 
ENDROOT
BRANCH   4   7
ATOM      7  O   UNL d   1       3.476   1.082  -0.726  0.00  0.00    -0.526 OA
ATOM      8  H5  UNL d   1       2.943   1.283   0.061  0.00  0.00     0.418 HD
ENDBRANCH   4   7
TORSDOF 1
ENDMDL
