MODEL 1
REMARK minimizedAffinity 0.555363894
REMARK minimizedRMSD -1
REMARK  1 active torsions:
REMARK  status: ('A' for Active; 'I' for Inactive)
REMARK    1  A    between atoms: C3_4  and  O_7 
ROOT
ATOM      1  C   UNL d   1       0.792  -2.757  -0.731  0.00  0.00    -0.033 A 
ATOM      2  C1  UNL d   1      -0.421  -2.092  -0.544  0.00  0.00     0.039 A 
ATOM      3  C2  UNL d   1      -0.447  -0.701  -0.437  0.00  0.00    -0.080 A 
ATOM      4  C3  UNL d   1       0.745   0.014  -0.519  0.00  0.00     0.150 A 
ATOM      5  C4  UNL d   1       1.957  -0.642  -0.709  0.00  0.00    -0.007 A 
ATOM      6  C5  UNL d   1       1.981  -2.032  -0.815  0.00  0.00     0.039 A 
ENDROOT
BRANCH   4   7
ATOM      7  O   UNL d   1       0.770   1.373  -0.415  0.00  0.00    -0.526 OA
ATOM      8  H5  UNL d   1      -0.136   1.686  -0.258  0.00  0.00     0.418 HD
ENDBRANCH   4   7
TORSDOF 1
ENDMDL
