MODEL 1
REMARK minimizedAffinity -1.42064714
REMARK minimizedRMSD -1
REMARK  1 active torsions:
REMARK  status: ('A' for Active; 'I' for Inactive)
REMARK    1  A    between atoms: C3_4  and  O_7 
ROOT
ATOM      1  C   UNL d   1       2.002   2.353   2.457  0.00  0.00    -0.033 A 
ATOM      2  C1  UNL d   1       3.365   2.517   2.205  0.00  0.00     0.039 A 
ATOM      3  C2  UNL d   1       3.894   2.164   0.962  0.00  0.00    -0.080 A 
ATOM      4  C3  UNL d   1       3.051   1.649  -0.019  0.00  0.00     0.150 A 
ATOM      5  C4  UNL d   1       1.691   1.486   0.225  0.00  0.00    -0.007 A 
ATOM      6  C5  UNL d   1       1.165   1.838   1.467  0.00  0.00     0.039 A 
ENDROOT
BRANCH   4   7
ATOM      7  O   UNL d   1       3.522   1.286  -1.245  0.00  0.00    -0.526 OA
ATOM      8  H5  UNL d   1       4.484   1.427  -1.259  0.00  0.00     0.418 HD
ENDBRANCH   4   7
TORSDOF 1
ENDMDL
