MODEL 1
REMARK minimizedAffinity -1.35956681
REMARK minimizedRMSD -1
REMARK  1 active torsions:
REMARK  status: ('A' for Active; 'I' for Inactive)
REMARK    1  A    between atoms: C3_4  and  O_7 
ROOT
ATOM      1  C   UNL d   1       3.310  -2.271  -1.169  0.00  0.00    -0.033 A 
ATOM      2  C1  UNL d   1       2.027  -2.374  -0.628  0.00  0.00     0.039 A 
ATOM      3  C2  UNL d   1       1.374  -1.234  -0.155  0.00  0.00    -0.080 A 
ATOM      4  C3  UNL d   1       2.013   0.001  -0.230  0.00  0.00     0.150 A 
ATOM      5  C4  UNL d   1       3.289   0.111  -0.772  0.00  0.00    -0.007 A 
ATOM      6  C5  UNL d   1       3.940  -1.028  -1.243  0.00  0.00     0.039 A 
ENDROOT
BRANCH   4   7
ATOM      7  O   UNL d   1       1.417   1.140   0.223  0.00  0.00    -0.526 OA
ATOM      8  H5  UNL d   1       0.551   0.907   0.597  0.00  0.00     0.418 HD
ENDBRANCH   4   7
TORSDOF 1
ENDMDL
