MODEL 1
REMARK minimizedAffinity 0.186806619
REMARK minimizedRMSD -1
REMARK  1 active torsions:
REMARK  status: ('A' for Active; 'I' for Inactive)
REMARK    1  A    between atoms: C3_4  and  O_7 
ROOT
ATOM      1  C   UNL d   1      -0.838  -0.210  -0.855  0.00  0.00    -0.033 A 
ATOM      2  C1  UNL d   1       0.340   0.453  -0.509  0.00  0.00     0.039 A 
ATOM      3  C2  UNL d   1       1.521  -0.269  -0.322  0.00  0.00    -0.080 A 
ATOM      4  C3  UNL d   1       1.509  -1.652  -0.486  0.00  0.00     0.150 A 
ATOM      5  C4  UNL d   1       0.339  -2.319  -0.834  0.00  0.00    -0.007 A 
ATOM      6  C5  UNL d   1      -0.839  -1.596  -1.019  0.00  0.00     0.039 A 
ENDROOT
BRANCH   4   7
ATOM      7  O   UNL d   1       2.635  -2.400  -0.310  0.00  0.00    -0.526 OA
ATOM      8  H5  UNL d   1       3.359  -1.808  -0.043  0.00  0.00     0.418 HD
ENDBRANCH   4   7
TORSDOF 1
ENDMDL
