MODEL 1
REMARK minimizedAffinity 1.63673759
REMARK minimizedRMSD -1
REMARK  1 active torsions:
REMARK  status: ('A' for Active; 'I' for Inactive)
REMARK    1  A    between atoms: C1_2  and  C2_3 
ROOT
ATOM      1  C2  UNL d   1       1.503  -1.510   0.251  0.00  0.00    -0.076 A 
ATOM      2  C3  UNL d   1       0.273  -1.834   0.849  0.00  0.00     0.004 A 
ATOM      3  C4  UNL d   1      -0.389  -0.922   1.669  0.00  0.00    -0.003 A 
ATOM      4  C5  UNL d   1       0.168   0.330   1.904  0.00  0.00     0.000 A 
ATOM      5  C6  UNL d   1       1.380   0.675   1.306  0.00  0.00     0.000 A 
ATOM      6  C7  UNL d   1       2.052  -0.227   0.463  0.00  0.00    -0.073 A 
ATOM      7  C8  UNL d   1       3.358   0.196  -0.151  0.00  0.00     0.078 C 
ENDROOT
BRANCH   1   8
ATOM      8  C1  UNL d   1       2.188  -2.549  -0.607  0.00  0.00     0.053 C 
ATOM      9  C   UNL d   1       2.971  -3.560   0.217  0.00  0.00     0.018 C 
ENDBRANCH   1   8
TORSDOF 1
ENDMDL
