MODEL 1
REMARK minimizedAffinity 3.96388841
REMARK minimizedRMSD -1
REMARK  1 active torsions:
REMARK  status: ('A' for Active; 'I' for Inactive)
REMARK    1  A    between atoms: C1_2  and  C2_3 
ROOT
ATOM      1  C2  UNL d   1       0.884  -3.056   0.933  0.00  0.00    -0.076 A 
ATOM      2  C3  UNL d   1       1.774  -2.168   0.305  0.00  0.00     0.004 A 
ATOM      3  C4  UNL d   1       1.559  -0.791   0.341  0.00  0.00    -0.003 A 
ATOM      4  C5  UNL d   1       0.451  -0.280   1.008  0.00  0.00     0.000 A 
ATOM      5  C6  UNL d   1      -0.433  -1.145   1.652  0.00  0.00     0.000 A 
ATOM      6  C7  UNL d   1      -0.222  -2.535   1.638  0.00  0.00    -0.073 A 
ATOM      7  C8  UNL d   1      -1.211  -3.422   2.344  0.00  0.00     0.078 C 
ENDROOT
BRANCH   1   8
ATOM      8  C1  UNL d   1       1.154  -4.541   0.837  0.00  0.00     0.053 C 
ATOM      9  C   UNL d   1       2.639  -4.866   0.859  0.00  0.00     0.018 C 
ENDBRANCH   1   8
TORSDOF 1
ENDMDL
