MODEL 1
REMARK minimizedAffinity 2.06380916
REMARK minimizedRMSD -1
REMARK  1 active torsions:
REMARK  status: ('A' for Active; 'I' for Inactive)
REMARK    1  A    between atoms: C1_2  and  C2_3 
ROOT
ATOM      1  C2  UNL d   1       1.267  -3.291   0.567  0.00  0.00    -0.076 A 
ATOM      2  C3  UNL d   1       2.117  -2.371  -0.073  0.00  0.00     0.004 A 
ATOM      3  C4  UNL d   1       1.875  -1.000   0.001  0.00  0.00    -0.003 A 
ATOM      4  C5  UNL d   1       0.780  -0.527   0.715  0.00  0.00     0.000 A 
ATOM      5  C6  UNL d   1      -0.064  -1.424   1.370  0.00  0.00     0.000 A 
ATOM      6  C7  UNL d   1       0.175  -2.808   1.320  0.00  0.00    -0.073 A 
ATOM      7  C8  UNL d   1      -0.770  -3.731   2.040  0.00  0.00     0.078 C 
ENDROOT
BRANCH   1   8
ATOM      8  C1  UNL d   1       1.564  -4.767   0.430  0.00  0.00     0.053 C 
ATOM      9  C   UNL d   1       2.993  -5.112   0.818  0.00  0.00     0.018 C 
ENDBRANCH   1   8
TORSDOF 1
ENDMDL
