MODEL 1
REMARK minimizedAffinity 6.04621029
REMARK minimizedRMSD -1
REMARK  1 active torsions:
REMARK  status: ('A' for Active; 'I' for Inactive)
REMARK    1  A    between atoms: C1_2  and  C2_3 
ROOT
ATOM      1  C2  UNL d   1      -3.866   3.414   4.940  0.00  0.00    -0.076 A 
ATOM      2  C3  UNL d   1      -2.906   3.352   3.915  0.00  0.00     0.004 A 
ATOM      3  C4  UNL d   1      -2.973   2.370   2.928  0.00  0.00    -0.003 A 
ATOM      4  C5  UNL d   1      -4.001   1.434   2.950  0.00  0.00     0.000 A 
ATOM      5  C6  UNL d   1      -4.972   1.491   3.949  0.00  0.00     0.000 A 
ATOM      6  C7  UNL d   1      -4.929   2.485   4.942  0.00  0.00    -0.073 A 
ATOM      7  C8  UNL d   1      -5.999   2.496   6.000  0.00  0.00     0.078 C 
ENDROOT
BRANCH   1   8
ATOM      8  C1  UNL d   1      -3.727   4.484   5.999  0.00  0.00     0.053 C 
ATOM      9  C   UNL d   1      -3.067   5.747   5.468  0.00  0.00     0.018 C 
ENDBRANCH   1   8
TORSDOF 1
ENDMDL
