MODEL 1
REMARK minimizedAffinity 1.33322871
REMARK minimizedRMSD -1
REMARK  1 active torsions:
REMARK  status: ('A' for Active; 'I' for Inactive)
REMARK    1  A    between atoms: C1_2  and  C2_3 
ROOT
ATOM      1  C2  UNL d   1      -3.711   0.207  -4.836  0.00  0.00    -0.076 A 
ATOM      2  C3  UNL d   1      -2.563  -0.466  -4.384  0.00  0.00     0.004 A 
ATOM      3  C4  UNL d   1      -2.451  -1.851  -4.499  0.00  0.00    -0.003 A 
ATOM      4  C5  UNL d   1      -3.486  -2.585  -5.068  0.00  0.00     0.000 A 
ATOM      5  C6  UNL d   1      -4.624  -1.931  -5.538  0.00  0.00     0.000 A 
ATOM      6  C7  UNL d   1      -4.746  -0.534  -5.445  0.00  0.00    -0.073 A 
ATOM      7  C8  UNL d   1      -5.999   0.118  -5.962  0.00  0.00     0.078 C 
ENDROOT
BRANCH   1   8
ATOM      8  C1  UNL d   1      -3.787   1.707  -4.660  0.00  0.00     0.053 C 
ATOM      9  C   UNL d   1      -4.545   2.109  -3.404  0.00  0.00     0.018 C 
ENDBRANCH   1   8
TORSDOF 1
ENDMDL
