MODEL 1
REMARK minimizedAffinity -1.52063572
REMARK minimizedRMSD -1
REMARK  1 active torsions:
REMARK  status: ('A' for Active; 'I' for Inactive)
REMARK    1  A    between atoms: C1_2  and  C2_3 
ROOT
ATOM      1  C2  UNL d   1       0.591  -2.156   1.238  0.00  0.00    -0.076 A 
ATOM      2  C3  UNL d   1       1.725  -2.463   0.465  0.00  0.00     0.004 A 
ATOM      3  C4  UNL d   1       2.239  -3.758   0.430  0.00  0.00    -0.003 A 
ATOM      4  C5  UNL d   1       1.628  -4.767   1.165  0.00  0.00     0.000 A 
ATOM      5  C6  UNL d   1       0.492  -4.484   1.923  0.00  0.00     0.000 A 
ATOM      6  C7  UNL d   1      -0.049  -3.188   1.957  0.00  0.00    -0.073 A 
ATOM      7  C8  UNL d   1      -1.272  -2.937   2.796  0.00  0.00     0.078 C 
ENDROOT
BRANCH   1   8
ATOM      8  C1  UNL d   1       0.095  -0.728   1.259  0.00  0.00     0.053 C 
ATOM      9  C   UNL d   1      -0.929  -0.451   0.169  0.00  0.00     0.018 C 
ENDBRANCH   1   8
TORSDOF 1
ENDMDL
