MODEL 1
REMARK minimizedAffinity 6.12841463
REMARK minimizedRMSD -1
REMARK  0 active torsions:
REMARK  status: ('A' for Active; 'I' for Inactive)
ROOT
ATOM      1  O1  BZF d   1      -1.721   0.928   1.105  0.00  0.00    -0.204 OA
ATOM      2  C2  BZF d   1      -1.053   2.131   0.984  0.00  0.00     0.174 A 
ATOM      3  C3  BZF d   1       0.254   1.984   1.282  0.00  0.00    -0.012 A 
ATOM      4  C3A BZF d   1       0.431   0.584   1.520  0.00  0.00    -0.107 A 
ATOM      5  C4  BZF d   1       1.513  -0.184   1.844  0.00  0.00     0.055 A 
ATOM      6  C5  BZF d   1       1.335  -1.510   2.079  0.00  0.00    -0.016 A 
ATOM      7  C6  BZF d   1       0.090  -2.100   2.003  0.00  0.00     0.022 A 
ATOM      8  C7  BZF d   1      -1.012  -1.380   1.681  0.00  0.00     0.029 A 
ATOM      9  C7A BZF d   1      -0.830  -0.046   1.411  0.00  0.00     0.058 A 
ENDROOT
TORSDOF 0
ENDMDL
