MODEL 1
REMARK minimizedAffinity 11.7902489
REMARK minimizedRMSD -1
REMARK  0 active torsions:
REMARK  status: ('A' for Active; 'I' for Inactive)
ROOT
ATOM      1  O1  BZF d   1      -6.000   1.738  -0.102  0.00  0.00    -0.204 OA
ATOM      2  C2  BZF d   1      -5.933   2.382   1.118  0.00  0.00     0.174 A 
ATOM      3  C3  BZF d   1      -5.809   3.714   0.951  0.00  0.00    -0.012 A 
ATOM      4  C3A BZF d   1      -5.890   3.925  -0.462  0.00  0.00    -0.107 A 
ATOM      5  C4  BZF d   1      -5.848   5.040  -1.250  0.00  0.00     0.055 A 
ATOM      6  C5  BZF d   1      -5.880   4.896  -2.601  0.00  0.00    -0.016 A 
ATOM      7  C6  BZF d   1      -5.949   3.655  -3.197  0.00  0.00     0.022 A 
ATOM      8  C7  BZF d   1      -5.998   2.520  -2.458  0.00  0.00     0.029 A 
ATOM      9  C7A BZF d   1      -5.999   2.663  -1.092  0.00  0.00     0.058 A 
ENDROOT
TORSDOF 0
ENDMDL
