MODEL 1
REMARK minimizedAffinity 8.52026176
REMARK minimizedRMSD -1
REMARK  0 active torsions:
REMARK  status: ('A' for Active; 'I' for Inactive)
ROOT
ATOM      1  O1  BZF d   1      -2.954  -1.597  -4.068  0.00  0.00    -0.204 OA
ATOM      2  C2  BZF d   1      -3.466  -0.401  -3.604  0.00  0.00     0.174 A 
ATOM      3  C3  BZF d   1      -3.440  -0.360  -2.257  0.00  0.00    -0.012 A 
ATOM      4  C3A BZF d   1      -2.791  -1.570  -1.856  0.00  0.00    -0.107 A 
ATOM      5  C4  BZF d   1      -2.454  -2.098  -0.642  0.00  0.00     0.055 A 
ATOM      6  C5  BZF d   1      -1.894  -3.335  -0.592  0.00  0.00    -0.016 A 
ATOM      7  C6  BZF d   1      -1.661  -4.073  -1.733  0.00  0.00     0.022 A 
ATOM      8  C7  BZF d   1      -1.973  -3.590  -2.961  0.00  0.00     0.029 A 
ATOM      9  C7A BZF d   1      -2.509  -2.326  -3.017  0.00  0.00     0.058 A 
ENDROOT
TORSDOF 0
ENDMDL
