MODEL 1
REMARK minimizedAffinity 7.39320993
REMARK minimizedRMSD -1
REMARK  0 active torsions:
REMARK  status: ('A' for Active; 'I' for Inactive)
ROOT
ATOM      1  O1  BZF d   1      -3.790  -0.738  -0.864  0.00  0.00    -0.204 OA
ATOM      2  C2  BZF d   1      -3.733  -0.521  -2.227  0.00  0.00     0.174 A 
ATOM      3  C3  BZF d   1      -2.681   0.262  -2.543  0.00  0.00    -0.012 A 
ATOM      4  C3A BZF d   1      -1.987   0.476  -1.310  0.00  0.00    -0.107 A 
ATOM      5  C4  BZF d   1      -0.853   1.160  -0.978  0.00  0.00     0.055 A 
ATOM      6  C5  BZF d   1      -0.486   1.235   0.329  0.00  0.00    -0.016 A 
ATOM      7  C6  BZF d   1      -1.231   0.642   1.327  0.00  0.00     0.022 A 
ATOM      8  C7  BZF d   1      -2.360  -0.052   1.046  0.00  0.00     0.029 A 
ATOM      9  C7A BZF d   1      -2.716  -0.157  -0.277  0.00  0.00     0.058 A 
ENDROOT
TORSDOF 0
ENDMDL
