MODEL 1
REMARK minimizedAffinity 8.50006008
REMARK minimizedRMSD -1
REMARK  0 active torsions:
REMARK  status: ('A' for Active; 'I' for Inactive)
ROOT
ATOM      1  O1  BZF d   1       0.846  -0.749   3.269  0.00  0.00    -0.204 OA
ATOM      2  C2  BZF d   1       1.414  -0.778   2.010  0.00  0.00     0.174 A 
ATOM      3  C3  BZF d   1       2.184  -1.874   1.858  0.00  0.00    -0.012 A 
ATOM      4  C3A BZF d   1       2.018  -2.621   3.067  0.00  0.00    -0.107 A 
ATOM      5  C4  BZF d   1       2.516  -3.813   3.510  0.00  0.00     0.055 A 
ATOM      6  C5  BZF d   1       2.217  -4.227   4.769  0.00  0.00    -0.016 A 
ATOM      7  C6  BZF d   1       1.428  -3.473   5.613  0.00  0.00     0.022 A 
ATOM      8  C7  BZF d   1       0.907  -2.286   5.217  0.00  0.00     0.029 A 
ATOM      9  C7A BZF d   1       1.181  -1.881   3.933  0.00  0.00     0.058 A 
ENDROOT
TORSDOF 0
ENDMDL
