MODEL 1
REMARK minimizedAffinity 4.49698734
REMARK minimizedRMSD -1
REMARK  0 active torsions:
REMARK  status: ('A' for Active; 'I' for Inactive)
ROOT
ATOM      1  O1  BZF d   1      -0.092  -3.393  -2.613  0.00  0.00    -0.204 OA
ATOM      2  C2  BZF d   1       0.742  -4.478  -2.800  0.00  0.00     0.174 A 
ATOM      3  C3  BZF d   1       0.366  -5.511  -2.018  0.00  0.00    -0.012 A 
ATOM      4  C3A BZF d   1      -0.830  -5.073  -1.367  0.00  0.00    -0.107 A 
ATOM      5  C4  BZF d   1      -1.684  -5.661  -0.477  0.00  0.00     0.055 A 
ATOM      6  C5  BZF d   1      -2.719  -4.937   0.022  0.00  0.00    -0.016 A 
ATOM      7  C6  BZF d   1      -2.927  -3.622  -0.341  0.00  0.00     0.022 A 
ATOM      8  C7  BZF d   1      -2.110  -2.997  -1.223  0.00  0.00     0.029 A 
ATOM      9  C7A BZF d   1      -1.082  -3.737  -1.755  0.00  0.00     0.058 A 
ENDROOT
TORSDOF 0
ENDMDL
