MODEL 1
REMARK minimizedAffinity 1.69993997
REMARK minimizedRMSD -1
REMARK  0 active torsions:
REMARK  status: ('A' for Active; 'I' for Inactive)
ROOT
ATOM      1  O1  BZF d   1      -2.603  -1.905   0.665  0.00  0.00    -0.204 OA
ATOM      2  C2  BZF d   1      -3.571  -1.465  -0.216  0.00  0.00     0.174 A 
ATOM      3  C3  BZF d   1      -3.437  -0.144  -0.452  0.00  0.00    -0.012 A 
ATOM      4  C3A BZF d   1      -2.259   0.249   0.259  0.00  0.00    -0.107 A 
ATOM      5  C4  BZF d   1      -1.599   1.436   0.400  0.00  0.00     0.055 A 
ATOM      6  C5  BZF d   1      -0.520   1.498   1.224  0.00  0.00    -0.016 A 
ATOM      7  C6  BZF d   1      -0.078   0.395   1.925  0.00  0.00     0.022 A 
ATOM      8  C7  BZF d   1      -0.697  -0.805   1.814  0.00  0.00     0.029 A 
ATOM      9  C7A BZF d   1      -1.768  -0.879   0.957  0.00  0.00     0.058 A 
ENDROOT
TORSDOF 0
ENDMDL
