MODEL 1
REMARK minimizedAffinity 8.37119389
REMARK minimizedRMSD -1
REMARK  0 active torsions:
REMARK  status: ('A' for Active; 'I' for Inactive)
ROOT
ATOM      1  O1  BZF d   1      -4.366   2.349  -2.607  0.00  0.00    -0.204 OA
ATOM      2  C2  BZF d   1      -4.129   2.005  -3.924  0.00  0.00     0.174 A 
ATOM      3  C3  BZF d   1      -4.574   2.967  -4.757  0.00  0.00    -0.012 A 
ATOM      4  C3A BZF d   1      -5.040   4.017  -3.905  0.00  0.00    -0.107 A 
ATOM      5  C4  BZF d   1      -5.583   5.248  -4.143  0.00  0.00     0.055 A 
ATOM      6  C5  BZF d   1      -6.000   6.000  -3.090  0.00  0.00    -0.016 A 
ATOM      7  C6  BZF d   1      -5.893   5.552  -1.790  0.00  0.00     0.022 A 
ATOM      8  C7  BZF d   1      -5.356   4.341  -1.504  0.00  0.00     0.029 A 
ATOM      9  C7A BZF d   1      -4.904   3.592  -2.564  0.00  0.00     0.058 A 
ENDROOT
TORSDOF 0
ENDMDL
