MODEL 1
REMARK minimizedAffinity 2.44290662
REMARK minimizedRMSD -1
REMARK  0 active torsions:
REMARK  status: ('A' for Active; 'I' for Inactive)
ROOT
ATOM      1  O1  BZF d   1       5.993   4.842  -1.426  0.00  0.00    -0.204 OA
ATOM      2  C2  BZF d   1       5.102   4.759  -0.374  0.00  0.00     0.174 A 
ATOM      3  C3  BZF d   1       4.000   4.070  -0.733  0.00  0.00    -0.012 A 
ATOM      4  C3A BZF d   1       4.256   3.619  -2.067  0.00  0.00    -0.107 A 
ATOM      5  C4  BZF d   1       3.541   2.871  -2.958  0.00  0.00     0.055 A 
ATOM      6  C5  BZF d   1       4.044   2.672  -4.205  0.00  0.00    -0.016 A 
ATOM      7  C6  BZF d   1       5.252   3.210  -4.596  0.00  0.00     0.022 A 
ATOM      8  C7  BZF d   1       5.999   3.955  -3.744  0.00  0.00     0.029 A 
ATOM      9  C7A BZF d   1       5.510   4.130  -2.473  0.00  0.00     0.058 A 
ENDROOT
TORSDOF 0
ENDMDL
