MODEL 1
REMARK minimizedAffinity 1.561764
REMARK minimizedRMSD -1
REMARK  0 active torsions:
REMARK  status: ('A' for Active; 'I' for Inactive)
ROOT
ATOM      1  O1  BZF d   1      -1.135   0.920   0.369  0.00  0.00    -0.204 OA
ATOM      2  C2  BZF d   1      -0.710   2.228   0.241  0.00  0.00     0.174 A 
ATOM      3  C3  BZF d   1       0.563   2.362   0.666  0.00  0.00    -0.012 A 
ATOM      4  C3A BZF d   1       0.989   1.037   1.001  0.00  0.00    -0.107 A 
ATOM      5  C4  BZF d   1       2.163   0.518   1.467  0.00  0.00     0.055 A 
ATOM      6  C5  BZF d   1       2.228  -0.807   1.761  0.00  0.00    -0.016 A 
ATOM      7  C6  BZF d   1       1.140  -1.640   1.606  0.00  0.00     0.022 A 
ATOM      8  C7  BZF d   1      -0.044  -1.172   1.141  0.00  0.00     0.029 A 
ATOM      9  C7A BZF d   1      -0.104   0.160   0.812  0.00  0.00     0.058 A 
ENDROOT
TORSDOF 0
ENDMDL
