MODEL 1
REMARK minimizedAffinity -5.14701891
REMARK minimizedRMSD -1
REMARK  1 active torsions:
REMARK  status: ('A' for Active; 'I' for Inactive)
REMARK    1  A    between atoms: C1_2  and  C2_3 
ROOT
ATOM      1  C2  UNL d   1      -0.051   0.312   0.690  0.00  0.00    -0.073 A 
ATOM      2  C3  UNL d   1      -0.918   0.370   1.787  0.00  0.00    -0.002 A 
ATOM      3  C4  UNL d   1      -1.772   1.460   1.953  0.00  0.00     0.004 A 
ATOM      4  C5  UNL d   1      -1.774   2.499   1.023  0.00  0.00    -0.004 A 
ATOM      5  C6  UNL d   1      -0.924   2.454  -0.087  0.00  0.00    -0.075 A 
ATOM      6  C7  UNL d   1      -0.912   3.564  -1.096  0.00  0.00     0.076 C 
ATOM      7  C8  UNL d   1      -0.066   1.357  -0.245  0.00  0.00     0.001 A 
ENDROOT
BRANCH   1   8
ATOM      8  C1  UNL d   1       0.869  -0.866   0.503  0.00  0.00     0.053 C 
ATOM      9  C   UNL d   1       1.432  -0.932  -0.908  0.00  0.00     0.018 C 
ENDBRANCH   1   8
TORSDOF 1
ENDMDL
