MODEL 1
REMARK minimizedAffinity -4.02858734
REMARK minimizedRMSD -1
REMARK  1 active torsions:
REMARK  status: ('A' for Active; 'I' for Inactive)
REMARK    1  A    between atoms: C1_2  and  C2_3 
ROOT
ATOM      1  C2  UNL d   1      -0.033   0.036   0.306  0.00  0.00    -0.073 A 
ATOM      2  C3  UNL d   1      -0.793   0.013   1.481  0.00  0.00    -0.002 A 
ATOM      3  C4  UNL d   1      -1.421   1.173   1.937  0.00  0.00     0.004 A 
ATOM      4  C5  UNL d   1      -1.302   2.364   1.221  0.00  0.00    -0.004 A 
ATOM      5  C6  UNL d   1      -0.557   2.404   0.038  0.00  0.00    -0.075 A 
ATOM      6  C7  UNL d   1      -0.417   3.678  -0.743  0.00  0.00     0.076 C 
ATOM      7  C8  UNL d   1       0.074   1.236  -0.412  0.00  0.00     0.001 A 
ENDROOT
BRANCH   1   8
ATOM      8  C1  UNL d   1       0.642  -1.215  -0.194  0.00  0.00     0.053 C 
ATOM      9  C   UNL d   1       0.130  -1.630  -1.564  0.00  0.00     0.018 C 
ENDBRANCH   1   8
TORSDOF 1
ENDMDL
