MODEL 1
REMARK minimizedAffinity -5.81805611
REMARK minimizedRMSD -1
REMARK  1 active torsions:
REMARK  status: ('A' for Active; 'I' for Inactive)
REMARK    1  A    between atoms: C1_2  and  C2_3 
ROOT
ATOM      1  C2  UNL d   1      -0.935   1.943   0.761  0.00  0.00    -0.073 A 
ATOM      2  C3  UNL d   1      -1.453   1.426   1.953  0.00  0.00    -0.002 A 
ATOM      3  C4  UNL d   1      -1.131   0.129   2.357  0.00  0.00     0.004 A 
ATOM      4  C5  UNL d   1      -0.285  -0.660   1.577  0.00  0.00    -0.004 A 
ATOM      5  C6  UNL d   1       0.251  -0.156   0.388  0.00  0.00    -0.075 A 
ATOM      6  C7  UNL d   1       1.161  -0.992  -0.463  0.00  0.00     0.076 C 
ATOM      7  C8  UNL d   1      -0.078   1.146  -0.012  0.00  0.00     0.001 A 
ENDROOT
BRANCH   1   8
ATOM      8  C1  UNL d   1      -1.274   3.345   0.324  0.00  0.00     0.053 C 
ATOM      9  C   UNL d   1      -0.289   3.876  -0.705  0.00  0.00     0.018 C 
ENDBRANCH   1   8
TORSDOF 1
ENDMDL
