MODEL 1
REMARK minimizedAffinity -5.32488632
REMARK minimizedRMSD -1
REMARK  1 active torsions:
REMARK  status: ('A' for Active; 'I' for Inactive)
REMARK    1  A    between atoms: C1_2  and  C2_3 
ROOT
ATOM      1  C2  UNL d   1       0.032   0.147  -0.633  0.00  0.00    -0.073 A 
ATOM      2  C3  UNL d   1       0.837   0.939  -1.460  0.00  0.00    -0.002 A 
ATOM      3  C4  UNL d   1       0.608   2.312  -1.560  0.00  0.00     0.004 A 
ATOM      4  C5  UNL d   1      -0.421   2.907  -0.831  0.00  0.00    -0.004 A 
ATOM      5  C6  UNL d   1      -1.228   2.134   0.009  0.00  0.00    -0.075 A 
ATOM      6  C7  UNL d   1      -2.341   2.759   0.799  0.00  0.00     0.076 C 
ATOM      7  C8  UNL d   1      -0.994   0.756   0.103  0.00  0.00     0.001 A 
ENDROOT
BRANCH   1   8
ATOM      8  C1  UNL d   1       0.279  -1.335  -0.517  0.00  0.00     0.053 C 
ATOM      9  C   UNL d   1       0.009  -2.063  -1.824  0.00  0.00     0.018 C 
ENDBRANCH   1   8
TORSDOF 1
ENDMDL
