MODEL 1
REMARK minimizedAffinity -4.32890224
REMARK minimizedRMSD -1
REMARK  1 active torsions:
REMARK  status: ('A' for Active; 'I' for Inactive)
REMARK    1  A    between atoms: C1_2  and  C2_3 
ROOT
ATOM      1  C2  UNL d   1      -0.660   0.098  -0.225  0.00  0.00    -0.073 A 
ATOM      2  C3  UNL d   1       0.631   0.637  -0.278  0.00  0.00    -0.002 A 
ATOM      3  C4  UNL d   1       1.646  -0.030  -0.966  0.00  0.00     0.004 A 
ATOM      4  C5  UNL d   1       1.380  -1.236  -1.613  0.00  0.00    -0.004 A 
ATOM      5  C6  UNL d   1       0.094  -1.785  -1.581  0.00  0.00    -0.075 A 
ATOM      6  C7  UNL d   1      -0.208  -3.084  -2.270  0.00  0.00     0.076 C 
ATOM      7  C8  UNL d   1      -0.919  -1.111  -0.886  0.00  0.00     0.001 A 
ENDROOT
BRANCH   1   8
ATOM      8  C1  UNL d   1      -1.760   0.817   0.511  0.00  0.00     0.053 C 
ATOM      9  C   UNL d   1      -1.272   1.422   1.818  0.00  0.00     0.018 C 
ENDBRANCH   1   8
TORSDOF 1
ENDMDL
