MODEL 1
REMARK minimizedAffinity -3.76489162
REMARK minimizedRMSD -1
REMARK  1 active torsions:
REMARK  status: ('A' for Active; 'I' for Inactive)
REMARK    1  A    between atoms: C1_2  and  C2_3 
ROOT
ATOM      1  C2  UNL d   1       0.155  -0.827  -0.867  0.00  0.00    -0.073 A 
ATOM      2  C3  UNL d   1      -0.670  -1.033  -1.979  0.00  0.00    -0.002 A 
ATOM      3  C4  UNL d   1      -0.458  -2.126  -2.820  0.00  0.00     0.004 A 
ATOM      4  C5  UNL d   1       0.574  -3.026  -2.555  0.00  0.00    -0.004 A 
ATOM      5  C6  UNL d   1       1.401  -2.844  -1.442  0.00  0.00    -0.075 A 
ATOM      6  C7  UNL d   1       2.517  -3.801  -1.145  0.00  0.00     0.076 C 
ATOM      7  C8  UNL d   1       1.184  -1.742  -0.604  0.00  0.00     0.001 A 
ENDROOT
BRANCH   1   8
ATOM      8  C1  UNL d   1      -0.074   0.348   0.048  0.00  0.00     0.053 C 
ATOM      9  C   UNL d   1      -0.486  -0.089   1.445  0.00  0.00     0.018 C 
ENDBRANCH   1   8
TORSDOF 1
ENDMDL
