MODEL 1
REMARK minimizedAffinity -2.96942806
REMARK minimizedRMSD -1
REMARK  1 active torsions:
REMARK  status: ('A' for Active; 'I' for Inactive)
REMARK    1  A    between atoms: C1_2  and  C2_3 
ROOT
ATOM      1  C2  UNL d   1       0.152  -0.384  -0.105  0.00  0.00    -0.073 A 
ATOM      2  C3  UNL d   1       0.153  -1.352   0.906  0.00  0.00    -0.002 A 
ATOM      3  C4  UNL d   1      -0.543  -1.130   2.095  0.00  0.00     0.004 A 
ATOM      4  C5  UNL d   1      -1.252   0.057   2.282  0.00  0.00    -0.004 A 
ATOM      5  C6  UNL d   1      -1.275   1.031   1.279  0.00  0.00    -0.075 A 
ATOM      6  C7  UNL d   1      -2.031   2.314   1.466  0.00  0.00     0.076 C 
ATOM      7  C8  UNL d   1      -0.571   0.802   0.089  0.00  0.00     0.001 A 
ENDROOT
BRANCH   1   8
ATOM      8  C1  UNL d   1       0.897  -0.622  -1.393  0.00  0.00     0.053 C 
ATOM      9  C   UNL d   1       0.874  -2.086  -1.803  0.00  0.00     0.018 C 
ENDBRANCH   1   8
TORSDOF 1
ENDMDL
