MODEL 1
REMARK minimizedAffinity -5.76237488
REMARK minimizedRMSD -1
REMARK  1 active torsions:
REMARK  status: ('A' for Active; 'I' for Inactive)
REMARK    1  A    between atoms: C1_2  and  C2_3 
ROOT
ATOM      1  C2  UNL d   1      -0.697   0.450   0.650  0.00  0.00    -0.073 A 
ATOM      2  C3  UNL d   1      -1.674   1.016   1.475  0.00  0.00    -0.002 A 
ATOM      3  C4  UNL d   1      -2.025   2.360   1.334  0.00  0.00     0.004 A 
ATOM      4  C5  UNL d   1      -1.409   3.148   0.362  0.00  0.00    -0.004 A 
ATOM      5  C6  UNL d   1      -0.438   2.597  -0.481  0.00  0.00    -0.075 A 
ATOM      6  C7  UNL d   1       0.237   3.432  -1.529  0.00  0.00     0.076 C 
ATOM      7  C8  UNL d   1      -0.089   1.248  -0.330  0.00  0.00     0.001 A 
ENDROOT
BRANCH   1   8
ATOM      8  C1  UNL d   1      -0.319  -1.001   0.795  0.00  0.00     0.053 C 
ATOM      9  C   UNL d   1       0.301  -1.559  -0.477  0.00  0.00     0.018 C 
ENDBRANCH   1   8
TORSDOF 1
ENDMDL
