MODEL 1
REMARK minimizedAffinity 2.49695802
REMARK minimizedRMSD -1
REMARK  0 active torsions:
REMARK  status: ('A' for Active; 'I' for Inactive)
ROOT
ATOM      1  C4' PXY d   1       5.631   5.909  -0.575  0.00  0.00     0.077 C 
ATOM      2  C1' PXY d   1       4.326   4.393  -5.998  0.00  0.00     0.077 C 
ATOM      3  C1  PXY d   1       4.656   4.788  -4.572  0.00  0.00    -0.082 A 
ATOM      4  C2  PXY d   1       5.668   5.608  -4.338  0.00  0.00     0.003 A 
ATOM      5  C3  PXY d   1       6.000   5.950  -3.052  0.00  0.00     0.003 A 
ATOM      6  C4  PXY d   1       5.256   5.490  -1.999  0.00  0.00    -0.082 A 
ATOM      7  C5  PXY d   1       4.215   4.662  -2.230  0.00  0.00     0.003 A 
ATOM      8  C6  PXY d   1       3.920   4.294  -3.540  0.00  0.00     0.003 A 
ENDROOT
TORSDOF 0
ENDMDL
