MODEL 1
REMARK minimizedAffinity -0.627957821
REMARK minimizedRMSD -1
REMARK  0 active torsions:
REMARK  status: ('A' for Active; 'I' for Inactive)
ROOT
ATOM      1  C4' PXY d   1       2.964   4.498  -0.768  0.00  0.00     0.077 C 
ATOM      2  C1' PXY d   1       6.000   5.814  -5.508  0.00  0.00     0.077 C 
ATOM      3  C1  PXY d   1       5.214   5.470  -4.258  0.00  0.00    -0.082 A 
ATOM      4  C2  PXY d   1       4.109   4.751  -4.357  0.00  0.00     0.003 A 
ATOM      5  C3  PXY d   1       3.369   4.458  -3.241  0.00  0.00     0.003 A 
ATOM      6  C4  PXY d   1       3.794   4.861  -2.003  0.00  0.00    -0.082 A 
ATOM      7  C5  PXY d   1       4.927   5.586  -1.892  0.00  0.00     0.003 A 
ATOM      8  C6  PXY d   1       5.641   5.908  -3.042  0.00  0.00     0.003 A 
ENDROOT
TORSDOF 0
ENDMDL
