MODEL 1
REMARK minimizedAffinity -1.52389431
REMARK minimizedRMSD -1
REMARK  0 active torsions:
REMARK  status: ('A' for Active; 'I' for Inactive)
ROOT
ATOM      1  C4' PXY d   1       6.000   5.825  -5.517  0.00  0.00     0.077 C 
ATOM      2  C1' PXY d   1       2.457   4.543  -1.133  0.00  0.00     0.077 C 
ATOM      3  C1  PXY d   1       3.396   4.876  -2.275  0.00  0.00    -0.082 A 
ATOM      4  C2  PXY d   1       3.003   5.712  -3.222  0.00  0.00     0.003 A 
ATOM      5  C3  PXY d   1       3.828   6.000  -4.279  0.00  0.00     0.003 A 
ATOM      6  C4  PXY d   1       5.088   5.467  -4.340  0.00  0.00    -0.082 A 
ATOM      7  C5  PXY d   1       5.501   4.622  -3.371  0.00  0.00     0.003 A 
ATOM      8  C6  PXY d   1       4.633   4.311  -2.328  0.00  0.00     0.003 A 
ENDROOT
TORSDOF 0
ENDMDL
