MODEL 1
REMARK minimizedAffinity -0.708860993
REMARK minimizedRMSD -1
REMARK  0 active torsions:
REMARK  status: ('A' for Active; 'I' for Inactive)
ROOT
ATOM      1  C4' PXY d   1       2.985   4.476  -1.067  0.00  0.00     0.077 C 
ATOM      2  C1' PXY d   1       5.999   4.561  -5.999  0.00  0.00     0.077 C 
ATOM      3  C1  PXY d   1       5.219   4.542  -4.699  0.00  0.00    -0.082 A 
ATOM      4  C2  PXY d   1       4.135   3.791  -4.597  0.00  0.00     0.003 A 
ATOM      5  C3  PXY d   1       3.399   3.787  -3.440  0.00  0.00     0.003 A 
ATOM      6  C4  PXY d   1       3.808   4.518  -2.357  0.00  0.00    -0.082 A 
ATOM      7  C5  PXY d   1       4.919   5.279  -2.449  0.00  0.00     0.003 A 
ATOM      8  C6  PXY d   1       5.629   5.301  -3.647  0.00  0.00     0.003 A 
ENDROOT
TORSDOF 0
ENDMDL
