MODEL 1
REMARK minimizedAffinity 4.42835379
REMARK minimizedRMSD -1
REMARK  0 active torsions:
REMARK  status: ('A' for Active; 'I' for Inactive)
ROOT
ATOM      1  C4' PXY d   1       2.242   3.753  -0.781  0.00  0.00     0.077 C 
ATOM      2  C1' PXY d   1       6.000   5.463  -4.826  0.00  0.00     0.077 C 
ATOM      3  C1  PXY d   1       5.006   5.012  -3.774  0.00  0.00    -0.082 A 
ATOM      4  C2  PXY d   1       5.115   5.462  -2.535  0.00  0.00     0.003 A 
ATOM      5  C3  PXY d   1       4.243   5.039  -1.564  0.00  0.00     0.003 A 
ATOM      6  C4  PXY d   1       3.217   4.188  -1.877  0.00  0.00    -0.082 A 
ATOM      7  C5  PXY d   1       3.093   3.733  -3.142  0.00  0.00     0.003 A 
ATOM      8  C6  PXY d   1       4.012   4.142  -4.103  0.00  0.00     0.003 A 
ENDROOT
TORSDOF 0
ENDMDL
