MODEL 1
REMARK minimizedAffinity 6.31667376
REMARK minimizedRMSD -1
REMARK  0 active torsions:
REMARK  status: ('A' for Active; 'I' for Inactive)
ROOT
ATOM      1  C4' PXY d   1       2.623   4.405  -0.899  0.00  0.00     0.077 C 
ATOM      2  C1' PXY d   1       5.996   5.993  -5.316  0.00  0.00     0.077 C 
ATOM      3  C1  PXY d   1       5.101   5.577  -4.166  0.00  0.00    -0.082 A 
ATOM      4  C2  PXY d   1       5.467   5.845  -2.923  0.00  0.00     0.003 A 
ATOM      5  C3  PXY d   1       4.685   5.447  -1.869  0.00  0.00     0.003 A 
ATOM      6  C4  PXY d   1       3.490   4.815  -2.092  0.00  0.00    -0.082 A 
ATOM      7  C5  PXY d   1       3.105   4.548  -3.358  0.00  0.00     0.003 A 
ATOM      8  C6  PXY d   1       3.933   4.924  -4.412  0.00  0.00     0.003 A 
ENDROOT
TORSDOF 0
ENDMDL
