MODEL 1
REMARK minimizedAffinity 4.01247025
REMARK minimizedRMSD -1
REMARK  0 active torsions:
REMARK  status: ('A' for Active; 'I' for Inactive)
ROOT
ATOM      1  C4' PXY d   1       3.569   5.292  -6.000  0.00  0.00     0.077 C 
ATOM      2  C1' PXY d   1       6.000   5.610  -0.765  0.00  0.00     0.077 C 
ATOM      3  C1  PXY d   1       5.355   5.517  -2.134  0.00  0.00    -0.082 A 
ATOM      4  C2  PXY d   1       5.993   5.993  -3.191  0.00  0.00     0.003 A 
ATOM      5  C3  PXY d   1       5.411   5.945  -4.431  0.00  0.00     0.003 A 
ATOM      6  C4  PXY d   1       4.186   5.357  -4.600  0.00  0.00    -0.082 A 
ATOM      7  C5  PXY d   1       3.534   4.859  -3.528  0.00  0.00     0.003 A 
ATOM      8  C6  PXY d   1       4.124   4.954  -2.271  0.00  0.00     0.003 A 
ENDROOT
TORSDOF 0
ENDMDL
