MODEL 1
REMARK minimizedAffinity -0.947663605
REMARK minimizedRMSD -1
REMARK  0 active torsions:
REMARK  status: ('A' for Active; 'I' for Inactive)
ROOT
ATOM      1  C4' PXY d   1       2.521   4.212  -1.715  0.00  0.00     0.077 C 
ATOM      2  C1' PXY d   1       5.999   5.993  -5.975  0.00  0.00     0.077 C 
ATOM      3  C1  PXY d   1       5.094   5.515  -4.857  0.00  0.00    -0.082 A 
ATOM      4  C2  PXY d   1       3.866   6.000  -4.756  0.00  0.00     0.003 A 
ATOM      5  C3  PXY d   1       3.045   5.602  -3.732  0.00  0.00     0.003 A 
ATOM      6  C4  PXY d   1       3.466   4.659  -2.833  0.00  0.00    -0.082 A 
ATOM      7  C5  PXY d   1       4.713   4.152  -2.935  0.00  0.00     0.003 A 
ATOM      8  C6  PXY d   1       5.545   4.599  -3.958  0.00  0.00     0.003 A 
ENDROOT
TORSDOF 0
ENDMDL
