MODEL 1
REMARK minimizedAffinity 0.0143728852
REMARK minimizedRMSD -1
REMARK  0 active torsions:
REMARK  status: ('A' for Active; 'I' for Inactive)
ROOT
ATOM      1  C4' PXY d   1       6.000   5.486  -5.997  0.00  0.00     0.077 C 
ATOM      2  C1' PXY d   1       2.577   4.156  -1.533  0.00  0.00     0.077 C 
ATOM      3  C1  PXY d   1       3.475   4.517  -2.700  0.00  0.00    -0.082 A 
ATOM      4  C2  PXY d   1       3.469   3.763  -3.787  0.00  0.00     0.003 A 
ATOM      5  C3  PXY d   1       4.299   4.057  -4.839  0.00  0.00     0.003 A 
ATOM      6  C4  PXY d   1       5.103   5.165  -4.799  0.00  0.00    -0.082 A 
ATOM      7  C5  PXY d   1       5.106   5.945  -3.697  0.00  0.00     0.003 A 
ATOM      8  C6  PXY d   1       4.287   5.606  -2.624  0.00  0.00     0.003 A 
ENDROOT
TORSDOF 0
ENDMDL
