MODEL 1
REMARK minimizedAffinity 0.42433542
REMARK minimizedRMSD -1
REMARK  0 active torsions:
REMARK  status: ('A' for Active; 'I' for Inactive)
ROOT
ATOM      1  C4' PXY d   1       1.945   4.506  -0.535  0.00  0.00     0.077 C 
ATOM      2  C1' PXY d   1       5.998   5.818  -4.442  0.00  0.00     0.077 C 
ATOM      3  C1  PXY d   1       4.926   5.473  -3.427  0.00  0.00    -0.082 A 
ATOM      4  C2  PXY d   1       5.054   5.883  -2.176  0.00  0.00     0.003 A 
ATOM      5  C3  PXY d   1       4.111   5.552  -1.237  0.00  0.00     0.003 A 
ATOM      6  C4  PXY d   1       2.998   4.840  -1.596  0.00  0.00    -0.082 A 
ATOM      7  C5  PXY d   1       2.854   4.427  -2.873  0.00  0.00     0.003 A 
ATOM      8  C6  PXY d   1       3.844   4.737  -3.801  0.00  0.00     0.003 A 
ENDROOT
TORSDOF 0
ENDMDL
