MODEL 1
REMARK minimizedAffinity 1.08080006
REMARK minimizedRMSD -1
REMARK  0 active torsions:
REMARK  status: ('A' for Active; 'I' for Inactive)
ROOT
ATOM      1  C4' PXY d   1       5.992   5.543  -0.741  0.00  0.00     0.077 C 
ATOM      2  C1' PXY d   1       3.630   5.085  -5.998  0.00  0.00     0.077 C 
ATOM      3  C1  PXY d   1       4.242   5.215  -4.617  0.00  0.00    -0.082 A 
ATOM      4  C2  PXY d   1       5.444   4.713  -4.384  0.00  0.00     0.003 A 
ATOM      5  C3  PXY d   1       5.999   4.794  -3.132  0.00  0.00     0.003 A 
ATOM      6  C4  PXY d   1       5.339   5.442  -2.123  0.00  0.00    -0.082 A 
ATOM      7  C5  PXY d   1       4.117   5.967  -2.355  0.00  0.00     0.003 A 
ATOM      8  C6  PXY d   1       3.554   5.838  -3.622  0.00  0.00     0.003 A 
ENDROOT
TORSDOF 0
ENDMDL
