MODEL 1
REMARK minimizedAffinity 1.24554682
REMARK minimizedRMSD -1
REMARK  0 active torsions:
REMARK  status: ('A' for Active; 'I' for Inactive)
ROOT
ATOM      1  C4' PXY d   1       4.947   2.979  -5.975  0.00  0.00     0.077 C 
ATOM      2  C1' PXY d   1       4.868   5.999  -1.047  0.00  0.00     0.077 C 
ATOM      3  C1  PXY d   1       4.879   5.200  -2.335  0.00  0.00    -0.082 A 
ATOM      4  C2  PXY d   1       5.982   5.149  -3.064  0.00  0.00     0.003 A 
ATOM      5  C3  PXY d   1       6.000   4.457  -4.248  0.00  0.00     0.003 A 
ATOM      6  C4  PXY d   1       4.893   3.766  -4.663  0.00  0.00    -0.082 A 
ATOM      7  C5  PXY d   1       3.767   3.805  -3.920  0.00  0.00     0.003 A 
ATOM      8  C6  PXY d   1       3.757   4.547  -2.742  0.00  0.00     0.003 A 
ENDROOT
TORSDOF 0
ENDMDL
