MODEL 1
REMARK minimizedAffinity 5.99041986
REMARK minimizedRMSD -1
REMARK  0 active torsions:
REMARK  status: ('A' for Active; 'I' for Inactive)
ROOT
ATOM      1  C4' PXY d   1       3.968   4.149  -5.955  0.00  0.00     0.077 C 
ATOM      2  C1' PXY d   1       5.813   5.997  -0.798  0.00  0.00     0.077 C 
ATOM      3  C1  PXY d   1       5.322   5.502  -2.145  0.00  0.00    -0.082 A 
ATOM      4  C2  PXY d   1       6.000   5.807  -3.240  0.00  0.00     0.003 A 
ATOM      5  C3  PXY d   1       5.553   5.395  -4.469  0.00  0.00     0.003 A 
ATOM      6  C4  PXY d   1       4.431   4.618  -4.573  0.00  0.00    -0.082 A 
ATOM      7  C5  PXY d   1       3.740   4.294  -3.460  0.00  0.00     0.003 A 
ATOM      8  C6  PXY d   1       4.187   4.757  -2.226  0.00  0.00     0.003 A 
ENDROOT
TORSDOF 0
ENDMDL
