MODEL 1
REMARK minimizedAffinity -1.63708425
REMARK minimizedRMSD -1
REMARK  0 active torsions:
REMARK  status: ('A' for Active; 'I' for Inactive)
ROOT
ATOM      1  C4' PXY d   1       2.235   4.065  -1.135  0.00  0.00     0.077 C 
ATOM      2  C1' PXY d   1       5.998   5.609  -5.242  0.00  0.00     0.077 C 
ATOM      3  C1  PXY d   1       5.019   5.211  -4.156  0.00  0.00    -0.082 A 
ATOM      4  C2  PXY d   1       4.275   4.127  -4.311  0.00  0.00     0.003 A 
ATOM      5  C3  PXY d   1       3.361   3.770  -3.354  0.00  0.00     0.003 A 
ATOM      6  C4  PXY d   1       3.244   4.500  -2.201  0.00  0.00    -0.082 A 
ATOM      7  C5  PXY d   1       4.007   5.601  -2.030  0.00  0.00     0.003 A 
ATOM      8  C6  PXY d   1       4.899   5.969  -3.033  0.00  0.00     0.003 A 
ENDROOT
TORSDOF 0
ENDMDL
