MODEL 1
REMARK minimizedAffinity 0.673178911
REMARK minimizedRMSD -1
REMARK  0 active torsions:
REMARK  status: ('A' for Active; 'I' for Inactive)
ROOT
ATOM      1  C4' PXY d   1       2.273   3.751  -0.615  0.00  0.00     0.077 C 
ATOM      2  C1' PXY d   1       5.999   5.732  -4.566  0.00  0.00     0.077 C 
ATOM      3  C1  PXY d   1       5.012   5.213  -3.539  0.00  0.00    -0.082 A 
ATOM      4  C2  PXY d   1       5.270   5.363  -2.250  0.00  0.00     0.003 A 
ATOM      5  C3  PXY d   1       4.405   4.872  -1.307  0.00  0.00     0.003 A 
ATOM      6  C4  PXY d   1       3.236   4.268  -1.687  0.00  0.00    -0.082 A 
ATOM      7  C5  PXY d   1       2.960   4.120  -3.000  0.00  0.00     0.003 A 
ATOM      8  C6  PXY d   1       3.872   4.589  -3.942  0.00  0.00     0.003 A 
ENDROOT
TORSDOF 0
ENDMDL
