MODEL 1
REMARK minimizedAffinity 9.69925308
REMARK minimizedRMSD -1
REMARK  0 active torsions:
REMARK  status: ('A' for Active; 'I' for Inactive)
ROOT
ATOM      1  C4' PXY d   1       3.370   2.983  -5.026  0.00  0.00     0.077 C 
ATOM      2  C1' PXY d   1       6.000   6.000  -0.855  0.00  0.00     0.077 C 
ATOM      3  C1  PXY d   1       5.299   5.213  -1.945  0.00  0.00    -0.082 A 
ATOM      4  C2  PXY d   1       5.886   4.146  -2.462  0.00  0.00     0.003 A 
ATOM      5  C3  PXY d   1       5.280   3.442  -3.471  0.00  0.00     0.003 A 
ATOM      6  C4  PXY d   1       4.037   3.802  -3.918  0.00  0.00    -0.082 A 
ATOM      7  C5  PXY d   1       3.426   4.883  -3.387  0.00  0.00     0.003 A 
ATOM      8  C6  PXY d   1       4.076   5.609  -2.393  0.00  0.00     0.003 A 
ENDROOT
TORSDOF 0
ENDMDL
