MODEL 1
REMARK minimizedAffinity 1.33526933
REMARK minimizedRMSD -1
REMARK  0 active torsions:
REMARK  status: ('A' for Active; 'I' for Inactive)
ROOT
ATOM      1  C4' PXY d   1       5.797   5.376  -6.000  0.00  0.00     0.077 C 
ATOM      2  C1' PXY d   1       3.942   5.121  -0.531  0.00  0.00     0.077 C 
ATOM      3  C1  PXY d   1       4.435   5.199  -1.962  0.00  0.00    -0.082 A 
ATOM      4  C2  PXY d   1       3.778   4.558  -2.916  0.00  0.00     0.003 A 
ATOM      5  C3  PXY d   1       4.228   4.592  -4.211  0.00  0.00     0.003 A 
ATOM      6  C4  PXY d   1       5.331   5.333  -4.542  0.00  0.00    -0.082 A 
ATOM      7  C5  PXY d   1       6.000   5.998  -3.577  0.00  0.00     0.003 A 
ATOM      8  C6  PXY d   1       5.551   5.918  -2.262  0.00  0.00     0.003 A 
ENDROOT
TORSDOF 0
ENDMDL
