MODEL 1
REMARK minimizedAffinity 7.35921717
REMARK minimizedRMSD -1
REMARK  0 active torsions:
REMARK  status: ('A' for Active; 'I' for Inactive)
ROOT
ATOM      1  C4' PXY d   1       2.322   3.995  -1.260  0.00  0.00     0.077 C 
ATOM      2  C1' PXY d   1       5.981   5.999  -5.261  0.00  0.00     0.077 C 
ATOM      3  C1  PXY d   1       5.015   5.485  -4.212  0.00  0.00    -0.082 A 
ATOM      4  C2  PXY d   1       5.398   4.528  -3.383  0.00  0.00     0.003 A 
ATOM      5  C3  PXY d   1       4.526   4.028  -2.449  0.00  0.00     0.003 A 
ATOM      6  C4  PXY d   1       3.267   4.551  -2.328  0.00  0.00    -0.082 A 
ATOM      7  C5  PXY d   1       2.872   5.536  -3.163  0.00  0.00     0.003 A 
ATOM      8  C6  PXY d   1       3.758   6.000  -4.131  0.00  0.00     0.003 A 
ENDROOT
TORSDOF 0
ENDMDL
