MODEL 1
REMARK minimizedAffinity 7.3905201
REMARK minimizedRMSD -1
REMARK  0 active torsions:
REMARK  status: ('A' for Active; 'I' for Inactive)
ROOT
ATOM      1  C4' PXY d   1       6.000   6.000  -4.595  0.00  0.00     0.077 C 
ATOM      2  C1' PXY d   1       2.363   4.707  -0.292  0.00  0.00     0.077 C 
ATOM      3  C1  PXY d   1       3.322   5.055  -1.413  0.00  0.00    -0.082 A 
ATOM      4  C2  PXY d   1       3.006   4.753  -2.662  0.00  0.00     0.003 A 
ATOM      5  C3  PXY d   1       3.876   5.033  -3.685  0.00  0.00     0.003 A 
ATOM      6  C4  PXY d   1       5.058   5.675  -3.432  0.00  0.00    -0.082 A 
ATOM      7  C5  PXY d   1       5.383   5.996  -2.162  0.00  0.00     0.003 A 
ATOM      8  C6  PXY d   1       4.505   5.667  -1.134  0.00  0.00     0.003 A 
ENDROOT
TORSDOF 0
ENDMDL
