MODEL 1
REMARK minimizedAffinity 9.1325655
REMARK minimizedRMSD -1
REMARK  3 active torsions:
REMARK  status: ('A' for Active; 'I' for Inactive)
REMARK    1  A    between atoms: C3'_2  and  C2'_3 
REMARK    2  A    between atoms: C2'_3  and  C1'_4 
REMARK    3  A    between atoms: C1'_4  and  C1_5 
ROOT
ATOM      1  C1  N4B d   1       4.856  -4.626  -1.549  0.00  0.00    -0.075 A 
ATOM      2  C2  N4B d   1       4.701  -4.153  -2.870  0.00  0.00     0.002 A 
ATOM      3  C3  N4B d   1       5.196  -2.921  -3.221  0.00  0.00     0.002 A 
ATOM      4  C4  N4B d   1       5.831  -2.140  -2.267  0.00  0.00    -0.004 A 
ATOM      5  C5  N4B d   1       5.999  -2.615  -0.999  0.00  0.00     0.002 A 
ATOM      6  C6  N4B d   1       5.510  -3.853  -0.634  0.00  0.00     0.002 A 
ENDROOT
BRANCH   1   7
ATOM      7  C1' N4B d   1       4.257  -5.930  -1.096  0.00  0.00     0.057 C 
BRANCH   7   8
ATOM      8  C2' N4B d   1       2.787  -5.973  -1.504  0.00  0.00     0.009 C 
BRANCH   8   9
ATOM      9  C3' N4B d   1       1.863  -5.976  -0.299  0.00  0.00     0.004 C 
ATOM     10  C4' N4B d   1       0.444  -5.643  -0.655  0.00  0.00     0.003 C 
ENDBRANCH   8   9
ENDBRANCH   7   8
ENDBRANCH   1   7
TORSDOF 3
ENDMDL
