MODEL 1
REMARK minimizedAffinity 13.2826262
REMARK minimizedRMSD -1
REMARK  3 active torsions:
REMARK  status: ('A' for Active; 'I' for Inactive)
REMARK    1  A    between atoms: C3'_2  and  C2'_3 
REMARK    2  A    between atoms: C2'_3  and  C1'_4 
REMARK    3  A    between atoms: C1'_4  and  C1_5 
ROOT
ATOM      1  C1  N4B d   1      -0.694   1.636  -0.177  0.00  0.00    -0.075 A 
ATOM      2  C2  N4B d   1       0.450   0.929  -0.607  0.00  0.00     0.002 A 
ATOM      3  C3  N4B d   1       0.310  -0.212  -1.359  0.00  0.00     0.002 A 
ATOM      4  C4  N4B d   1      -0.960  -0.672  -1.676  0.00  0.00    -0.004 A 
ATOM      5  C5  N4B d   1      -2.059   0.031  -1.279  0.00  0.00     0.002 A 
ATOM      6  C6  N4B d   1      -1.933   1.181  -0.526  0.00  0.00     0.002 A 
ENDROOT
BRANCH   1   7
ATOM      7  C1' N4B d   1      -0.593   2.840   0.720  0.00  0.00     0.057 C 
BRANCH   7   8
ATOM      8  C2' N4B d   1       0.697   3.592   0.405  0.00  0.00     0.009 C 
BRANCH   8   9
ATOM      9  C3' N4B d   1       0.455   4.770  -0.524  0.00  0.00     0.004 C 
ATOM     10  C4' N4B d   1      -0.980   5.202  -0.553  0.00  0.00     0.003 C 
ENDBRANCH   8   9
ENDBRANCH   7   8
ENDBRANCH   1   7
TORSDOF 3
ENDMDL
