MODEL 1
REMARK minimizedAffinity 12.0058031
REMARK minimizedRMSD -1
REMARK  3 active torsions:
REMARK  status: ('A' for Active; 'I' for Inactive)
REMARK    1  A    between atoms: C3'_2  and  C2'_3 
REMARK    2  A    between atoms: C2'_3  and  C1'_4 
REMARK    3  A    between atoms: C1'_4  and  C1_5 
ROOT
ATOM      1  C1  N4B d   1      -0.630   4.981  -0.461  0.00  0.00    -0.075 A 
ATOM      2  C2  N4B d   1      -1.071   3.656  -0.246  0.00  0.00     0.002 A 
ATOM      3  C3  N4B d   1      -0.255   2.756   0.394  0.00  0.00     0.002 A 
ATOM      4  C4  N4B d   1       1.009   3.150   0.809  0.00  0.00    -0.004 A 
ATOM      5  C5  N4B d   1       1.417   4.438   0.620  0.00  0.00     0.002 A 
ATOM      6  C6  N4B d   1       0.605   5.355  -0.018  0.00  0.00     0.002 A 
ENDROOT
BRANCH   1   7
ATOM      7  C1' N4B d   1      -1.454   5.976  -1.231  0.00  0.00     0.057 C 
BRANCH   7   8
ATOM      8  C2' N4B d   1      -1.607   5.493  -2.670  0.00  0.00     0.009 C 
BRANCH   8   9
ATOM      9  C3' N4B d   1      -0.486   5.999  -3.562  0.00  0.00     0.004 C 
ATOM     10  C4' N4B d   1      -0.854   5.993  -5.016  0.00  0.00     0.003 C 
ENDBRANCH   8   9
ENDBRANCH   7   8
ENDBRANCH   1   7
TORSDOF 3
ENDMDL
