MODEL 1
REMARK minimizedAffinity -2.84087396
REMARK minimizedRMSD -1
REMARK  0 active torsions:
REMARK  status: ('A' for Active; 'I' for Inactive)
ROOT
ATOM      1  C2' OXE d   1      -1.362  -1.238  -4.114  0.00  0.00     0.078 C 
ATOM      2  C1' OXE d   1      -1.974   0.750  -6.000  0.00  0.00     0.078 C 
ATOM      3  C1  OXE d   1      -3.121   0.084  -5.281  0.00  0.00    -0.078 A 
ATOM      4  C2  OXE d   1      -2.815  -0.919  -4.394  0.00  0.00    -0.078 A 
ATOM      5  C3  OXE d   1      -3.831  -1.528  -3.664  0.00  0.00     0.003 A 
ATOM      6  C4  OXE d   1      -5.173  -1.235  -3.936  0.00  0.00    -0.002 A 
ATOM      7  C5  OXE d   1      -5.509  -0.244  -4.865  0.00  0.00    -0.002 A 
ATOM      8  C6  OXE d   1      -4.496   0.454  -5.513  0.00  0.00     0.003 A 
ENDROOT
TORSDOF 0
ENDMDL
