MODEL 1
REMARK minimizedAffinity 12.711813
REMARK minimizedRMSD -1
REMARK  0 active torsions:
REMARK  status: ('A' for Active; 'I' for Inactive)
ROOT
ATOM      1  C2' OXE d   1       5.983   2.391  -5.732  0.00  0.00     0.078 C 
ATOM      2  C1' OXE d   1       3.483   2.078  -4.493  0.00  0.00     0.078 C 
ATOM      3  C1  OXE d   1       3.874   3.462  -4.949  0.00  0.00    -0.078 A 
ATOM      4  C2  OXE d   1       5.118   3.614  -5.512  0.00  0.00    -0.078 A 
ATOM      5  C3  OXE d   1       5.507   4.859  -6.000  0.00  0.00     0.003 A 
ATOM      6  C4  OXE d   1       4.705   5.986  -5.783  0.00  0.00    -0.002 A 
ATOM      7  C5  OXE d   1       3.451   5.860  -5.176  0.00  0.00    -0.002 A 
ATOM      8  C6  OXE d   1       3.004   4.601  -4.792  0.00  0.00     0.003 A 
ENDROOT
TORSDOF 0
ENDMDL
