MODEL 1
REMARK minimizedAffinity 12.7098436
REMARK minimizedRMSD -1
REMARK  0 active torsions:
REMARK  status: ('A' for Active; 'I' for Inactive)
ROOT
ATOM      1  C2' OXE d   1       0.638   3.390  -4.945  0.00  0.00     0.078 C 
ATOM      2  C1' OXE d   1       0.653   5.993  -5.995  0.00  0.00     0.078 C 
ATOM      3  C1  OXE d   1       1.983   5.338  -5.718  0.00  0.00    -0.078 A 
ATOM      4  C2  OXE d   1       1.966   4.083  -5.161  0.00  0.00    -0.078 A 
ATOM      5  C3  OXE d   1       3.164   3.412  -4.936  0.00  0.00     0.003 A 
ATOM      6  C4  OXE d   1       4.389   4.063  -5.129  0.00  0.00    -0.002 A 
ATOM      7  C5  OXE d   1       4.428   5.357  -5.659  0.00  0.00    -0.002 A 
ATOM      8  C6  OXE d   1       3.238   5.991  -5.998  0.00  0.00     0.003 A 
ENDROOT
TORSDOF 0
ENDMDL
