MODEL 1
REMARK minimizedAffinity 9.36728001
REMARK minimizedRMSD -1
REMARK  0 active torsions:
REMARK  status: ('A' for Active; 'I' for Inactive)
ROOT
ATOM      1  C2' OXE d   1       3.477  -5.440   1.827  0.00  0.00     0.078 C 
ATOM      2  C1' OXE d   1       5.448  -4.313   0.176  0.00  0.00     0.078 C 
ATOM      3  C1  OXE d   1       4.175  -3.531   0.388  0.00  0.00    -0.078 A 
ATOM      4  C2  OXE d   1       3.197  -4.111   1.159  0.00  0.00    -0.078 A 
ATOM      5  C3  OXE d   1       2.027  -3.409   1.431  0.00  0.00     0.003 A 
ATOM      6  C4  OXE d   1       1.772  -2.185   0.801  0.00  0.00    -0.002 A 
ATOM      7  C5  OXE d   1       2.738  -1.594  -0.020  0.00  0.00    -0.002 A 
ATOM      8  C6  OXE d   1       3.960  -2.233  -0.203  0.00  0.00     0.003 A 
ENDROOT
TORSDOF 0
ENDMDL
