MODEL 1
REMARK minimizedAffinity 6.83909702
REMARK minimizedRMSD -1
REMARK  0 active torsions:
REMARK  status: ('A' for Active; 'I' for Inactive)
ROOT
ATOM      1  C2' OXE d   1       3.311   1.819  -5.391  0.00  0.00     0.078 C 
ATOM      2  C1' OXE d   1       6.000   2.591  -5.627  0.00  0.00     0.078 C 
ATOM      3  C1  OXE d   1       4.949   3.670  -5.706  0.00  0.00    -0.078 A 
ATOM      4  C2  OXE d   1       3.634   3.277  -5.636  0.00  0.00    -0.078 A 
ATOM      5  C3  OXE d   1       2.627   4.238  -5.649  0.00  0.00     0.003 A 
ATOM      6  C4  OXE d   1       2.933   5.583  -5.886  0.00  0.00    -0.002 A 
ATOM      7  C5  OXE d   1       4.264   5.999  -6.000  0.00  0.00    -0.002 A 
ATOM      8  C6  OXE d   1       5.284   5.063  -5.870  0.00  0.00     0.003 A 
ENDROOT
TORSDOF 0
ENDMDL
