MODEL 1
REMARK minimizedAffinity 14.0661716
REMARK minimizedRMSD -1
REMARK  0 active torsions:
REMARK  status: ('A' for Active; 'I' for Inactive)
ROOT
ATOM      1  C2' OXE d   1      -4.133   5.592  -3.750  0.00  0.00     0.078 C 
ATOM      2  C1' OXE d   1      -2.628   3.292  -3.175  0.00  0.00     0.078 C 
ATOM      3  C1  OXE d   1      -3.796   3.151  -4.120  0.00  0.00    -0.078 A 
ATOM      4  C2  OXE d   1      -4.555   4.272  -4.359  0.00  0.00    -0.078 A 
ATOM      5  C3  OXE d   1      -5.610   4.209  -5.265  0.00  0.00     0.003 A 
ATOM      6  C4  OXE d   1      -6.000   2.982  -5.815  0.00  0.00    -0.002 A 
ATOM      7  C5  OXE d   1      -5.265   1.821  -5.554  0.00  0.00    -0.002 A 
ATOM      8  C6  OXE d   1      -4.137   1.896  -4.744  0.00  0.00     0.003 A 
ENDROOT
TORSDOF 0
ENDMDL
