MODEL 1
REMARK minimizedAffinity 5.61384583
REMARK minimizedRMSD -1
REMARK  0 active torsions:
REMARK  status: ('A' for Active; 'I' for Inactive)
ROOT
ATOM      1  C2' OXE d   1       2.798   1.888   2.789  0.00  0.00     0.078 C 
ATOM      2  C1' OXE d   1       0.521   3.277   3.665  0.00  0.00     0.078 C 
ATOM      3  C1  OXE d   1       0.397   1.790   3.445  0.00  0.00    -0.078 A 
ATOM      4  C2  OXE d   1       1.504   1.126   2.972  0.00  0.00    -0.078 A 
ATOM      5  C3  OXE d   1       1.460  -0.255   2.805  0.00  0.00     0.003 A 
ATOM      6  C4  OXE d   1       0.256  -0.951   2.967  0.00  0.00    -0.002 A 
ATOM      7  C5  OXE d   1      -0.893  -0.288   3.410  0.00  0.00    -0.002 A 
ATOM      8  C6  OXE d   1      -0.829   1.072   3.694  0.00  0.00     0.003 A 
ENDROOT
TORSDOF 0
ENDMDL
