MODEL 1
REMARK minimizedAffinity 6.83886194
REMARK minimizedRMSD -1
REMARK  0 active torsions:
REMARK  status: ('A' for Active; 'I' for Inactive)
ROOT
ATOM      1  C2' OXE d   1      -5.997   0.593  -4.529  0.00  0.00     0.078 C 
ATOM      2  C1' OXE d   1      -5.438   3.259  -5.208  0.00  0.00     0.078 C 
ATOM      3  C1  OXE d   1      -4.518   2.575  -4.227  0.00  0.00    -0.078 A 
ATOM      4  C2  OXE d   1      -4.826   1.286  -3.865  0.00  0.00    -0.078 A 
ATOM      5  C3  OXE d   1      -3.980   0.590  -3.006  0.00  0.00     0.003 A 
ATOM      6  C4  OXE d   1      -2.905   1.241  -2.389  0.00  0.00    -0.002 A 
ATOM      7  C5  OXE d   1      -2.597   2.567  -2.714  0.00  0.00    -0.002 A 
ATOM      8  C6  OXE d   1      -3.367   3.233  -3.661  0.00  0.00     0.003 A 
ENDROOT
TORSDOF 0
ENDMDL
