MODEL 1
REMARK minimizedAffinity 7.68152189
REMARK minimizedRMSD -1
REMARK  0 active torsions:
REMARK  status: ('A' for Active; 'I' for Inactive)
ROOT
ATOM      1  C2' OXE d   1       4.363   2.408  -5.015  0.00  0.00     0.078 C 
ATOM      2  C1' OXE d   1       5.676   4.686  -5.999  0.00  0.00     0.078 C 
ATOM      3  C1  OXE d   1       4.192   4.782  -5.750  0.00  0.00    -0.078 A 
ATOM      4  C2  OXE d   1       3.549   3.649  -5.313  0.00  0.00    -0.078 A 
ATOM      5  C3  OXE d   1       2.190   3.698  -5.016  0.00  0.00     0.003 A 
ATOM      6  C4  OXE d   1       1.443   4.847  -5.304  0.00  0.00    -0.002 A 
ATOM      7  C5  OXE d   1       2.071   6.000  -5.787  0.00  0.00    -0.002 A 
ATOM      8  C6  OXE d   1       3.449   5.997  -5.974  0.00  0.00     0.003 A 
ENDROOT
TORSDOF 0
ENDMDL
