MODEL 1
REMARK minimizedAffinity 12.1615458
REMARK minimizedRMSD -1
REMARK  0 active torsions:
REMARK  status: ('A' for Active; 'I' for Inactive)
ROOT
ATOM      1  C2' OXE d   1       4.528   2.582  -5.768  0.00  0.00     0.078 C 
ATOM      2  C1' OXE d   1       5.275   5.285  -5.874  0.00  0.00     0.078 C 
ATOM      3  C1  OXE d   1       3.803   4.964  -5.818  0.00  0.00    -0.078 A 
ATOM      4  C2  OXE d   1       3.445   3.638  -5.814  0.00  0.00    -0.078 A 
ATOM      5  C3  OXE d   1       2.102   3.286  -5.708  0.00  0.00     0.003 A 
ATOM      6  C4  OXE d   1       1.106   4.269  -5.761  0.00  0.00    -0.002 A 
ATOM      7  C5  OXE d   1       1.448   5.625  -5.806  0.00  0.00    -0.002 A 
ATOM      8  C6  OXE d   1       2.789   5.990  -5.792  0.00  0.00     0.003 A 
ENDROOT
TORSDOF 0
ENDMDL
