MODEL 1
REMARK minimizedAffinity 11.9673805
REMARK minimizedRMSD -1
REMARK  0 active torsions:
REMARK  status: ('A' for Active; 'I' for Inactive)
ROOT
ATOM      1  C2' OXE d   1       1.621   1.879   2.687  0.00  0.00     0.078 C 
ATOM      2  C1' OXE d   1       1.654  -0.505   1.206  0.00  0.00     0.078 C 
ATOM      3  C1  OXE d   1       2.775   0.479   0.980  0.00  0.00    -0.078 A 
ATOM      4  C2  OXE d   1       2.725   1.663   1.675  0.00  0.00    -0.078 A 
ATOM      5  C3  OXE d   1       3.762   2.583   1.545  0.00  0.00     0.003 A 
ATOM      6  C4  OXE d   1       4.775   2.380   0.600  0.00  0.00    -0.002 A 
ATOM      7  C5  OXE d   1       4.823   1.198  -0.147  0.00  0.00    -0.002 A 
ATOM      8  C6  OXE d   1       3.856   0.221   0.061  0.00  0.00     0.003 A 
ENDROOT
TORSDOF 0
ENDMDL
