MODEL 1
REMARK minimizedAffinity 9.83139229
REMARK minimizedRMSD -1
REMARK  0 active torsions:
REMARK  status: ('A' for Active; 'I' for Inactive)
ROOT
ATOM      1  C2' OXE d   1       3.125   5.871  -5.700  0.00  0.00     0.078 C 
ATOM      2  C1' OXE d   1       5.917   5.884  -5.999  0.00  0.00     0.078 C 
ATOM      3  C1  OXE d   1       5.254   4.579  -5.634  0.00  0.00    -0.078 A 
ATOM      4  C2  OXE d   1       3.894   4.592  -5.444  0.00  0.00    -0.078 A 
ATOM      5  C3  OXE d   1       3.226   3.404  -5.159  0.00  0.00     0.003 A 
ATOM      6  C4  OXE d   1       3.945   2.228  -4.914  0.00  0.00    -0.002 A 
ATOM      7  C5  OXE d   1       5.335   2.202  -5.063  0.00  0.00    -0.002 A 
ATOM      8  C6  OXE d   1       6.000   3.356  -5.463  0.00  0.00     0.003 A 
ENDROOT
TORSDOF 0
ENDMDL
