MODEL 1
REMARK minimizedAffinity 15.4064913
REMARK minimizedRMSD -1
REMARK  0 active torsions:
REMARK  status: ('A' for Active; 'I' for Inactive)
ROOT
ATOM      1  C4' PXY d   1      -2.485  -0.941   0.384  0.00  0.00     0.077 C 
ATOM      2  C1' PXY d   1      -0.155  -6.000   1.931  0.00  0.00     0.077 C 
ATOM      3  C1  PXY d   1      -0.775  -4.674   1.535  0.00  0.00    -0.082 A 
ATOM      4  C2  PXY d   1      -0.622  -4.224   0.300  0.00  0.00     0.003 A 
ATOM      5  C3  PXY d   1      -1.149  -3.012  -0.066  0.00  0.00     0.003 A 
ATOM      6  C4  PXY d   1      -1.885  -2.278   0.826  0.00  0.00    -0.082 A 
ATOM      7  C5  PXY d   1      -2.054  -2.736   2.084  0.00  0.00     0.003 A 
ATOM      8  C6  PXY d   1      -1.476  -3.949   2.448  0.00  0.00     0.003 A 
ENDROOT
TORSDOF 0
ENDMDL
