MODEL 1
REMARK minimizedAffinity 5.04037905
REMARK minimizedRMSD -1
REMARK  0 active torsions:
REMARK  status: ('A' for Active; 'I' for Inactive)
ROOT
ATOM      1  C4' PXY d   1      -6.000  -6.000   0.674  0.00  0.00     0.077 C 
ATOM      2  C1' PXY d   1      -1.007  -3.102   0.377  0.00  0.00     0.077 C 
ATOM      3  C1  PXY d   1      -2.311  -3.872   0.447  0.00  0.00    -0.082 A 
ATOM      4  C2  PXY d   1      -3.444  -3.220   0.653  0.00  0.00     0.003 A 
ATOM      5  C3  PXY d   1      -4.629  -3.904   0.752  0.00  0.00     0.003 A 
ATOM      6  C4  PXY d   1      -4.660  -5.263   0.585  0.00  0.00    -0.082 A 
ATOM      7  C5  PXY d   1      -3.510  -5.933   0.364  0.00  0.00     0.003 A 
ATOM      8  C6  PXY d   1      -2.313  -5.225   0.309  0.00  0.00     0.003 A 
ENDROOT
TORSDOF 0
ENDMDL
