MODEL 1
REMARK minimizedAffinity 10.0231686
REMARK minimizedRMSD -1
REMARK  0 active torsions:
REMARK  status: ('A' for Active; 'I' for Inactive)
ROOT
ATOM      1  C4' PXY d   1       4.390   4.586  -0.124  0.00  0.00     0.077 C 
ATOM      2  C1' PXY d   1       5.618  -0.226   2.833  0.00  0.00     0.077 C 
ATOM      3  C1  PXY d   1       5.308   1.036   2.052  0.00  0.00    -0.082 A 
ATOM      4  C2  PXY d   1       4.360   1.853   2.481  0.00  0.00     0.003 A 
ATOM      5  C3  PXY d   1       4.045   2.983   1.770  0.00  0.00     0.003 A 
ATOM      6  C4  PXY d   1       4.743   3.306   0.637  0.00  0.00    -0.082 A 
ATOM      7  C5  PXY d   1       5.719   2.482   0.199  0.00  0.00     0.003 A 
ATOM      8  C6  PXY d   1       5.996   1.319   0.913  0.00  0.00     0.003 A 
ENDROOT
TORSDOF 0
ENDMDL
