MODEL 1
REMARK minimizedAffinity 7.44470882
REMARK minimizedRMSD -1
REMARK  0 active torsions:
REMARK  status: ('A' for Active; 'I' for Inactive)
ROOT
ATOM      1  C4' PXY d   1      -2.065  -1.793   3.169  0.00  0.00     0.077 C 
ATOM      2  C1' PXY d   1      -1.287  -2.104  -2.551  0.00  0.00     0.077 C 
ATOM      3  C1  PXY d   1      -1.488  -2.035  -1.050  0.00  0.00    -0.082 A 
ATOM      4  C2  PXY d   1      -2.315  -1.137  -0.541  0.00  0.00     0.003 A 
ATOM      5  C3  PXY d   1      -2.483  -1.039   0.816  0.00  0.00     0.003 A 
ATOM      6  C4  PXY d   1      -1.839  -1.906   1.658  0.00  0.00    -0.082 A 
ATOM      7  C5  PXY d   1      -1.002  -2.832   1.146  0.00  0.00     0.003 A 
ATOM      8  C6  PXY d   1      -0.813  -2.888  -0.232  0.00  0.00     0.003 A 
ENDROOT
TORSDOF 0
ENDMDL
