MODEL 1
REMARK minimizedAffinity 14.6560135
REMARK minimizedRMSD -1
REMARK  0 active torsions:
REMARK  status: ('A' for Active; 'I' for Inactive)
ROOT
ATOM      1  C4' PXY d   1       6.000   1.888  -4.104  0.00  0.00     0.077 C 
ATOM      2  C1' PXY d   1       1.635  -0.677  -1.315  0.00  0.00     0.077 C 
ATOM      3  C1  PXY d   1       2.787  -0.016  -2.046  0.00  0.00    -0.082 A 
ATOM      4  C2  PXY d   1       2.919   1.300  -2.002  0.00  0.00     0.003 A 
ATOM      5  C3  PXY d   1       3.936   1.918  -2.684  0.00  0.00     0.003 A 
ATOM      6  C4  PXY d   1       4.858   1.176  -3.374  0.00  0.00    -0.082 A 
ATOM      7  C5  PXY d   1       4.736  -0.167  -3.414  0.00  0.00     0.003 A 
ATOM      8  C6  PXY d   1       3.673  -0.772  -2.749  0.00  0.00     0.003 A 
ENDROOT
TORSDOF 0
ENDMDL
