MODEL 1
REMARK minimizedAffinity 8.32458687
REMARK minimizedRMSD -1
REMARK  0 active torsions:
REMARK  status: ('A' for Active; 'I' for Inactive)
ROOT
ATOM      1  C4' PXY d   1       4.147   2.477   3.723  0.00  0.00     0.077 C 
ATOM      2  C1' PXY d   1       2.675   2.150  -1.858  0.00  0.00     0.077 C 
ATOM      3  C1  PXY d   1       3.073   2.241  -0.397  0.00  0.00    -0.082 A 
ATOM      4  C2  PXY d   1       2.479   1.461   0.492  0.00  0.00     0.003 A 
ATOM      5  C3  PXY d   1       2.804   1.553   1.821  0.00  0.00     0.003 A 
ATOM      6  C4  PXY d   1       3.784   2.413   2.237  0.00  0.00    -0.082 A 
ATOM      7  C5  PXY d   1       4.402   3.204   1.334  0.00  0.00     0.003 A 
ATOM      8  C6  PXY d   1       4.029   3.126  -0.004  0.00  0.00     0.003 A 
ENDROOT
TORSDOF 0
ENDMDL
