MODEL 1
REMARK minimizedAffinity 8.97879696
REMARK minimizedRMSD -1
REMARK  0 active torsions:
REMARK  status: ('A' for Active; 'I' for Inactive)
ROOT
ATOM      1  C4' PXY d   1      -1.907  -2.331   3.391  0.00  0.00     0.077 C 
ATOM      2  C1' PXY d   1      -1.552  -2.178  -2.377  0.00  0.00     0.077 C 
ATOM      3  C1  PXY d   1      -1.645  -2.231  -0.865  0.00  0.00    -0.082 A 
ATOM      4  C2  PXY d   1      -2.129  -1.193  -0.202  0.00  0.00     0.003 A 
ATOM      5  C3  PXY d   1      -2.191  -1.212   1.167  0.00  0.00     0.003 A 
ATOM      6  C4  PXY d   1      -1.803  -2.325   1.863  0.00  0.00    -0.082 A 
ATOM      7  C5  PXY d   1      -1.318  -3.393   1.194  0.00  0.00     0.003 A 
ATOM      8  C6  PXY d   1      -1.225  -3.338  -0.194  0.00  0.00     0.003 A 
ENDROOT
TORSDOF 0
ENDMDL
