MODEL 1
REMARK minimizedAffinity 10.864193
REMARK minimizedRMSD -1
REMARK  0 active torsions:
REMARK  status: ('A' for Active; 'I' for Inactive)
ROOT
ATOM      1  C4' PXY d   1       6.000  -0.834  -3.914  0.00  0.00     0.077 C 
ATOM      2  C1' PXY d   1       1.430   0.619  -0.686  0.00  0.00     0.077 C 
ATOM      3  C1  PXY d   1       2.623   0.245  -1.543  0.00  0.00    -0.082 A 
ATOM      4  C2  PXY d   1       3.276  -0.880  -1.300  0.00  0.00     0.003 A 
ATOM      5  C3  PXY d   1       4.377  -1.217  -2.044  0.00  0.00     0.003 A 
ATOM      6  C4  PXY d   1       4.783  -0.421  -3.081  0.00  0.00    -0.082 A 
ATOM      7  C5  PXY d   1       4.116   0.723  -3.342  0.00  0.00     0.003 A 
ATOM      8  C6  PXY d   1       3.025   1.068  -2.549  0.00  0.00     0.003 A 
ENDROOT
TORSDOF 0
ENDMDL
