MODEL 1
REMARK minimizedAffinity 3.74137664
REMARK minimizedRMSD -1
REMARK  0 active torsions:
REMARK  status: ('A' for Active; 'I' for Inactive)
ROOT
ATOM      1  C4' PXY d   1      -4.008   5.998  -2.530  0.00  0.00     0.077 C 
ATOM      2  C1' PXY d   1      -5.686   4.090   2.662  0.00  0.00     0.077 C 
ATOM      3  C1  PXY d   1      -5.258   4.594   1.298  0.00  0.00    -0.082 A 
ATOM      4  C2  PXY d   1      -4.156   4.117   0.741  0.00  0.00     0.003 A 
ATOM      5  C3  PXY d   1      -3.738   4.585  -0.478  0.00  0.00     0.003 A 
ATOM      6  C4  PXY d   1      -4.483   5.511  -1.158  0.00  0.00    -0.082 A 
ATOM      7  C5  PXY d   1      -5.614   5.994  -0.601  0.00  0.00     0.003 A 
ATOM      8  C6  PXY d   1      -6.000   5.536   0.656  0.00  0.00     0.003 A 
ENDROOT
TORSDOF 0
ENDMDL
