MODEL 1
REMARK minimizedAffinity 16.7704201
REMARK minimizedRMSD -1
REMARK  0 active torsions:
REMARK  status: ('A' for Active; 'I' for Inactive)
ROOT
ATOM      1  C4' PXY d   1       0.782  -0.384  -2.408  0.00  0.00     0.077 C 
ATOM      2  C1' PXY d   1       4.088   2.702   1.193  0.00  0.00     0.077 C 
ATOM      3  C1  PXY d   1       3.230   1.883   0.248  0.00  0.00    -0.082 A 
ATOM      4  C2  PXY d   1       2.304   2.484  -0.481  0.00  0.00     0.003 A 
ATOM      5  C3  PXY d   1       1.498   1.755  -1.317  0.00  0.00     0.003 A 
ATOM      6  C4  PXY d   1       1.678   0.404  -1.448  0.00  0.00    -0.082 A 
ATOM      7  C5  PXY d   1       2.627  -0.215  -0.715  0.00  0.00     0.003 A 
ATOM      8  C6  PXY d   1       3.407   0.537   0.159  0.00  0.00     0.003 A 
ENDROOT
TORSDOF 0
ENDMDL
