MODEL 1
REMARK minimizedAffinity 11.7143316
REMARK minimizedRMSD -1
REMARK  0 active torsions:
REMARK  status: ('A' for Active; 'I' for Inactive)
ROOT
ATOM      1  C4' PXY d   1      -2.580  -0.704   0.386  0.00  0.00     0.077 C 
ATOM      2  C1' PXY d   1      -0.053  -5.641   2.017  0.00  0.00     0.077 C 
ATOM      3  C1  PXY d   1      -0.724  -4.348   1.599  0.00  0.00    -0.082 A 
ATOM      4  C2  PXY d   1      -0.576  -3.904   0.361  0.00  0.00     0.003 A 
ATOM      5  C3  PXY d   1      -1.150  -2.720  -0.025  0.00  0.00     0.003 A 
ATOM      6  C4  PXY d   1      -1.928  -2.010   0.850  0.00  0.00    -0.082 A 
ATOM      7  C5  PXY d   1      -2.093  -2.461   2.111  0.00  0.00     0.003 A 
ATOM      8  C6  PXY d   1      -1.468  -3.644   2.495  0.00  0.00     0.003 A 
ENDROOT
TORSDOF 0
ENDMDL
