MODEL 1
REMARK minimizedAffinity 8.34161186
REMARK minimizedRMSD -1
REMARK  0 active torsions:
REMARK  status: ('A' for Active; 'I' for Inactive)
ROOT
ATOM      1  C4' PXY d   1      -0.951  -2.075  -2.484  0.00  0.00     0.077 C 
ATOM      2  C1' PXY d   1      -2.664  -2.526   3.018  0.00  0.00     0.077 C 
ATOM      3  C1  PXY d   1      -2.203  -2.413   1.579  0.00  0.00    -0.082 A 
ATOM      4  C2  PXY d   1      -2.742  -1.498   0.789  0.00  0.00     0.003 A 
ATOM      5  C3  PXY d   1      -2.360  -1.403  -0.524  0.00  0.00     0.003 A 
ATOM      6  C4  PXY d   1      -1.378  -2.219  -1.021  0.00  0.00    -0.082 A 
ATOM      7  C5  PXY d   1      -0.816  -3.147  -0.219  0.00  0.00     0.003 A 
ATOM      8  C6  PXY d   1      -1.247  -3.255   1.100  0.00  0.00     0.003 A 
ENDROOT
TORSDOF 0
ENDMDL
