MODEL 1
REMARK minimizedAffinity 10.0055647
REMARK minimizedRMSD -1
REMARK  0 active torsions:
REMARK  status: ('A' for Active; 'I' for Inactive)
ROOT
ATOM      1  C4' PXY d   1       2.142   0.497  -2.440  0.00  0.00     0.077 C 
ATOM      2  C1' PXY d   1      -2.873  -1.803  -0.715  0.00  0.00     0.077 C 
ATOM      3  C1  PXY d   1      -1.556  -1.209  -1.177  0.00  0.00    -0.082 A 
ATOM      4  C2  PXY d   1      -0.836  -0.484  -0.336  0.00  0.00     0.003 A 
ATOM      5  C3  PXY d   1       0.341   0.087  -0.747  0.00  0.00     0.003 A 
ATOM      6  C4  PXY d   1       0.812  -0.130  -2.014  0.00  0.00    -0.082 A 
ATOM      7  C5  PXY d   1       0.087  -0.877  -2.874  0.00  0.00     0.003 A 
ATOM      8  C6  PXY d   1      -1.125  -1.414  -2.451  0.00  0.00     0.003 A 
ENDROOT
TORSDOF 0
ENDMDL
