MODEL 1
REMARK minimizedAffinity 15.3387814
REMARK minimizedRMSD -1
REMARK  0 active torsions:
REMARK  status: ('A' for Active; 'I' for Inactive)
ROOT
ATOM      1  C4' PXY d   1       4.669   5.539  -0.265  0.00  0.00     0.077 C 
ATOM      2  C1' PXY d   1       4.333   0.360   2.282  0.00  0.00     0.077 C 
ATOM      3  C1  PXY d   1       4.431   1.714   1.607  0.00  0.00    -0.082 A 
ATOM      4  C2  PXY d   1       4.010   2.795   2.243  0.00  0.00     0.003 A 
ATOM      5  C3  PXY d   1       4.061   4.022   1.635  0.00  0.00     0.003 A 
ATOM      6  C4  PXY d   1       4.598   4.153   0.382  0.00  0.00    -0.082 A 
ATOM      7  C5  PXY d   1       5.040   3.056  -0.270  0.00  0.00     0.003 A 
ATOM      8  C6  PXY d   1       4.941   1.814   0.349  0.00  0.00     0.003 A 
ENDROOT
TORSDOF 0
ENDMDL
