MODEL 1
REMARK minimizedAffinity 6.5191927
REMARK minimizedRMSD -1
REMARK  0 active torsions:
REMARK  status: ('A' for Active; 'I' for Inactive)
ROOT
ATOM      1  C4' PXY d   1       4.286   0.339   2.496  0.00  0.00     0.077 C 
ATOM      2  C1' PXY d   1       4.636   5.577   0.075  0.00  0.00     0.077 C 
ATOM      3  C1  PXY d   1       4.542   4.198   0.698  0.00  0.00    -0.082 A 
ATOM      4  C2  PXY d   1       4.195   4.077   1.969  0.00  0.00     0.003 A 
ATOM      5  C3  PXY d   1       4.137   2.840   2.557  0.00  0.00     0.003 A 
ATOM      6  C4  PXY d   1       4.384   1.711   1.822  0.00  0.00    -0.082 A 
ATOM      7  C5  PXY d   1       4.729   1.826   0.522  0.00  0.00     0.003 A 
ATOM      8  C6  PXY d   1       4.823   3.094  -0.045  0.00  0.00     0.003 A 
ENDROOT
TORSDOF 0
ENDMDL
