MODEL 1
REMARK minimizedAffinity 20.0407047
REMARK minimizedRMSD -1
REMARK  0 active torsions:
REMARK  status: ('A' for Active; 'I' for Inactive)
ROOT
ATOM      1  C4' PXY d   1       2.914   1.264  -0.927  0.00  0.00     0.077 C 
ATOM      2  C1' PXY d   1       5.117   5.998   1.553  0.00  0.00     0.077 C 
ATOM      3  C1  PXY d   1       4.541   4.750   0.914  0.00  0.00    -0.082 A 
ATOM      4  C2  PXY d   1       4.585   4.608  -0.401  0.00  0.00     0.003 A 
ATOM      5  C3  PXY d   1       4.041   3.500  -0.998  0.00  0.00     0.003 A 
ATOM      6  C4  PXY d   1       3.492   2.503  -0.238  0.00  0.00    -0.082 A 
ATOM      7  C5  PXY d   1       3.452   2.635   1.105  0.00  0.00     0.003 A 
ATOM      8  C6  PXY d   1       3.974   3.786   1.689  0.00  0.00     0.003 A 
ENDROOT
TORSDOF 0
ENDMDL
