MODEL 1
REMARK minimizedAffinity 17.1125946
REMARK minimizedRMSD -1
REMARK  0 active torsions:
REMARK  status: ('A' for Active; 'I' for Inactive)
ROOT
ATOM      1  C4' PXY d   1      -0.085  -6.000   2.300  0.00  0.00     0.077 C 
ATOM      2  C1' PXY d   1      -1.746  -1.406  -0.791  0.00  0.00     0.077 C 
ATOM      3  C1  PXY d   1      -1.309  -2.603   0.030  0.00  0.00    -0.082 A 
ATOM      4  C2  PXY d   1      -0.741  -3.636  -0.570  0.00  0.00     0.003 A 
ATOM      5  C3  PXY d   1      -0.369  -4.740   0.153  0.00  0.00     0.003 A 
ATOM      6  C4  PXY d   1      -0.533  -4.766   1.512  0.00  0.00    -0.082 A 
ATOM      7  C5  PXY d   1      -1.103  -3.712   2.133  0.00  0.00     0.003 A 
ATOM      8  C6  PXY d   1      -1.511  -2.617   1.376  0.00  0.00     0.003 A 
ENDROOT
TORSDOF 0
ENDMDL
