MODEL 1
REMARK minimizedAffinity 12.4962559
REMARK minimizedRMSD -1
REMARK  0 active torsions:
REMARK  status: ('A' for Active; 'I' for Inactive)
ROOT
ATOM      1  C4' PXY d   1      -0.205  -5.125   0.475  0.00  0.00     0.077 C 
ATOM      2  C1' PXY d   1      -3.025  -0.127  -0.215  0.00  0.00     0.077 C 
ATOM      3  C1  PXY d   1      -2.284  -1.439  -0.047  0.00  0.00    -0.082 A 
ATOM      4  C2  PXY d   1      -2.470  -2.159   1.047  0.00  0.00     0.003 A 
ATOM      5  C3  PXY d   1      -1.784  -3.332   1.230  0.00  0.00     0.003 A 
ATOM      6  C4  PXY d   1      -0.939  -3.799   0.259  0.00  0.00    -0.082 A 
ATOM      7  C5  PXY d   1      -0.753  -3.075  -0.865  0.00  0.00     0.003 A 
ATOM      8  C6  PXY d   1      -1.427  -1.867  -1.013  0.00  0.00     0.003 A 
ENDROOT
TORSDOF 0
ENDMDL
