MODEL 1
REMARK minimizedAffinity 19.8284569
REMARK minimizedRMSD -1
REMARK  0 active torsions:
REMARK  status: ('A' for Active; 'I' for Inactive)
ROOT
ATOM      1  C4' PXY d   1       4.121  -0.398   3.367  0.00  0.00     0.077 C 
ATOM      2  C1' PXY d   1       3.050   4.639   5.994  0.00  0.00     0.077 C 
ATOM      3  C1  PXY d   1       3.326   3.323   5.294  0.00  0.00    -0.082 A 
ATOM      4  C2  PXY d   1       3.377   2.204   5.999  0.00  0.00     0.003 A 
ATOM      5  C3  PXY d   1       3.658   1.010   5.387  0.00  0.00     0.003 A 
ATOM      6  C4  PXY d   1       3.835   0.952   4.031  0.00  0.00    -0.082 A 
ATOM      7  C5  PXY d   1       3.775   2.087   3.302  0.00  0.00     0.003 A 
ATOM      8  C6  PXY d   1       3.530   3.295   3.949  0.00  0.00     0.003 A 
ENDROOT
TORSDOF 0
ENDMDL
