MODEL 1
REMARK minimizedAffinity 21.6644611
REMARK minimizedRMSD -1
REMARK  0 active torsions:
REMARK  status: ('A' for Active; 'I' for Inactive)
ROOT
ATOM      1  C4' PXY d   1      -2.964  -1.404   0.003  0.00  0.00     0.077 C 
ATOM      2  C1' PXY d   1       0.361  -5.664   2.054  0.00  0.00     0.077 C 
ATOM      3  C1  PXY d   1      -0.519  -4.549   1.526  0.00  0.00    -0.082 A 
ATOM      4  C2  PXY d   1      -0.465  -4.224   0.245  0.00  0.00     0.003 A 
ATOM      5  C3  PXY d   1      -1.231  -3.196  -0.243  0.00  0.00     0.003 A 
ATOM      6  C4  PXY d   1      -2.100  -2.530   0.579  0.00  0.00    -0.082 A 
ATOM      7  C5  PXY d   1      -2.169  -2.863   1.885  0.00  0.00     0.003 A 
ATOM      8  C6  PXY d   1      -1.353  -3.881   2.369  0.00  0.00     0.003 A 
ENDROOT
TORSDOF 0
ENDMDL
