MODEL 1
REMARK minimizedAffinity -3.39235711
REMARK minimizedRMSD -1
REMARK  1 active torsions:
REMARK  status: ('A' for Active; 'I' for Inactive)
REMARK    1  A    between atoms: N_2  and  C1_3 
ROOT
ATOM      1  C1  UNL d   1       0.366  -1.197  -0.731  0.00  0.00     0.143 A 
ATOM      2  C2  UNL d   1       1.552  -1.934  -0.646  0.00  0.00    -0.057 A 
ATOM      3  C3  UNL d   1       1.813  -2.994  -1.522  0.00  0.00     0.033 A 
ATOM      4  C4  UNL d   1       0.876  -3.356  -2.484  0.00  0.00    -0.042 A 
ATOM      5  C5  UNL d   1      -0.321  -2.654  -2.571  0.00  0.00     0.033 A 
ATOM      6  C6  UNL d   1      -0.573  -1.592  -1.697  0.00  0.00    -0.057 A 
ENDROOT
BRANCH   1   7
ATOM      7  N   UNL d   1       0.005  -0.196   0.174  0.00  0.00    -0.732 N 
ATOM      8  C   UNL d   1      -0.358  -0.529   1.535  0.00  0.00     0.284 C 
ATOM      9  H3  UNL d   1       0.590   0.632   0.091  0.00  0.00     0.395 HD
ENDBRANCH   1   7
TORSDOF 1
ENDMDL
