MODEL 1
REMARK minimizedAffinity -2.87388682
REMARK minimizedRMSD -1
REMARK  1 active torsions:
REMARK  status: ('A' for Active; 'I' for Inactive)
REMARK    1  A    between atoms: N_2  and  C1_3 
ROOT
ATOM      1  C1  UNL d   1      -0.089  -0.422   0.347  0.00  0.00     0.143 A 
ATOM      2  C2  UNL d   1      -0.747  -1.095   1.381  0.00  0.00    -0.057 A 
ATOM      3  C3  UNL d   1      -1.441  -0.396   2.377  0.00  0.00     0.033 A 
ATOM      4  C4  UNL d   1      -1.465   0.995   2.371  0.00  0.00    -0.042 A 
ATOM      5  C5  UNL d   1      -0.797   1.686   1.366  0.00  0.00     0.033 A 
ATOM      6  C6  UNL d   1      -0.111   0.982   0.371  0.00  0.00    -0.057 A 
ENDROOT
BRANCH   1   7
ATOM      7  N   UNL d   1       0.700  -1.056  -0.616  0.00  0.00    -0.732 N 
ATOM      8  C   UNL d   1       0.120  -2.022  -1.524  0.00  0.00     0.284 C 
ATOM      9  H3  UNL d   1       1.364  -0.421  -1.053  0.00  0.00     0.395 HD
ENDBRANCH   1   7
TORSDOF 1
ENDMDL
