MODEL 1
REMARK minimizedAffinity -2.81082678
REMARK minimizedRMSD -1
REMARK  1 active torsions:
REMARK  status: ('A' for Active; 'I' for Inactive)
REMARK    1  A    between atoms: N_2  and  C1_3 
ROOT
ATOM      1  C1  UNL d   1      -0.112   0.689   0.271  0.00  0.00     0.143 A 
ATOM      2  C2  UNL d   1       0.276   1.889  -0.335  0.00  0.00    -0.057 A 
ATOM      3  C3  UNL d   1       0.017   3.125   0.270  0.00  0.00     0.033 A 
ATOM      4  C4  UNL d   1      -0.662   3.183   1.482  0.00  0.00    -0.042 A 
ATOM      5  C5  UNL d   1      -1.079   2.005   2.090  0.00  0.00     0.033 A 
ATOM      6  C6  UNL d   1      -0.812   0.774   1.484  0.00  0.00    -0.057 A 
ENDROOT
BRANCH   1   7
ATOM      7  N   UNL d   1       0.029  -0.566  -0.328  0.00  0.00    -0.732 N 
ATOM      8  C   UNL d   1       1.259  -0.929  -0.997  0.00  0.00     0.284 C 
ATOM      9  H3  UNL d   1      -0.375  -1.311   0.234  0.00  0.00     0.395 HD
ENDBRANCH   1   7
TORSDOF 1
ENDMDL
