MODEL 1
REMARK minimizedAffinity -1.73681343
REMARK minimizedRMSD -1
REMARK  1 active torsions:
REMARK  status: ('A' for Active; 'I' for Inactive)
REMARK    1  A    between atoms: N_2  and  C1_3 
ROOT
ATOM      1  C1  UNL d   1       0.269  -0.594   0.119  0.00  0.00     0.143 A 
ATOM      2  C2  UNL d   1      -0.351   0.659   0.095  0.00  0.00    -0.057 A 
ATOM      3  C3  UNL d   1      -1.011   1.165   1.222  0.00  0.00     0.033 A 
ATOM      4  C4  UNL d   1      -1.087   0.410   2.388  0.00  0.00    -0.042 A 
ATOM      5  C5  UNL d   1      -0.499  -0.849   2.427  0.00  0.00     0.033 A 
ATOM      6  C6  UNL d   1       0.164  -1.346   1.300  0.00  0.00    -0.057 A 
ENDROOT
BRANCH   1   7
ATOM      7  N   UNL d   1       0.856  -1.194  -0.998  0.00  0.00    -0.732 N 
ATOM      8  C   UNL d   1       0.955  -2.634  -1.095  0.00  0.00     0.284 C 
ATOM      9  H3  UNL d   1       0.593  -0.736  -1.867  0.00  0.00     0.395 HD
ENDBRANCH   1   7
TORSDOF 1
ENDMDL
