MODEL 1
REMARK minimizedAffinity -2.48203635
REMARK minimizedRMSD -1
REMARK  1 active torsions:
REMARK  status: ('A' for Active; 'I' for Inactive)
REMARK    1  A    between atoms: N_2  and  C1_3 
ROOT
ATOM      1  C1  UNL d   1       0.031   0.360   0.093  0.00  0.00     0.143 A 
ATOM      2  C2  UNL d   1      -0.559   0.128   1.340  0.00  0.00    -0.057 A 
ATOM      3  C3  UNL d   1      -1.011   1.186   2.138  0.00  0.00     0.033 A 
ATOM      4  C4  UNL d   1      -0.855   2.502   1.713  0.00  0.00    -0.042 A 
ATOM      5  C5  UNL d   1      -0.249   2.757   0.487  0.00  0.00     0.033 A 
ATOM      6  C6  UNL d   1       0.195   1.696  -0.307  0.00  0.00    -0.057 A 
ENDROOT
BRANCH   1   7
ATOM      7  N   UNL d   1       0.590  -0.644  -0.702  0.00  0.00    -0.732 N 
ATOM      8  C   UNL d   1       1.958  -0.543  -1.162  0.00  0.00     0.284 C 
ATOM      9  H3  UNL d   1       0.322  -1.576  -0.395  0.00  0.00     0.395 HD
ENDBRANCH   1   7
TORSDOF 1
ENDMDL
