MODEL 1
REMARK minimizedAffinity -2.25377607
REMARK minimizedRMSD -1
REMARK  1 active torsions:
REMARK  status: ('A' for Active; 'I' for Inactive)
REMARK    1  A    between atoms: N_2  and  C1_3 
ROOT
ATOM      1  C1  UNL d   1       0.023   0.155   0.090  0.00  0.00     0.143 A 
ATOM      2  C2  UNL d   1      -0.626  -0.559   1.104  0.00  0.00    -0.057 A 
ATOM      3  C3  UNL d   1      -1.382   0.096   2.083  0.00  0.00     0.033 A 
ATOM      4  C4  UNL d   1      -1.479   1.484   2.083  0.00  0.00    -0.042 A 
ATOM      5  C5  UNL d   1      -0.822   2.215   1.100  0.00  0.00     0.033 A 
ATOM      6  C6  UNL d   1      -0.074   1.555   0.121  0.00  0.00    -0.057 A 
ENDROOT
BRANCH   1   7
ATOM      7  N   UNL d   1       0.870  -0.431  -0.854  0.00  0.00    -0.732 N 
ATOM      8  C   UNL d   1       0.707  -1.819  -1.230  0.00  0.00     0.284 C 
ATOM      9  H3  UNL d   1       1.071   0.191  -1.634  0.00  0.00     0.395 HD
ENDBRANCH   1   7
TORSDOF 1
ENDMDL
