MODEL 1
REMARK minimizedAffinity -3.7223947
REMARK minimizedRMSD -1
REMARK  1 active torsions:
REMARK  status: ('A' for Active; 'I' for Inactive)
REMARK    1  A    between atoms: N_2  and  C1_3 
ROOT
ATOM      1  C1  UNL d   1       0.161  -0.483  -0.053  0.00  0.00     0.143 A 
ATOM      2  C2  UNL d   1      -0.582  -0.737   1.105  0.00  0.00    -0.057 A 
ATOM      3  C3  UNL d   1      -1.111   0.307   1.873  0.00  0.00     0.033 A 
ATOM      4  C4  UNL d   1      -0.881   1.630   1.510  0.00  0.00    -0.042 A 
ATOM      5  C5  UNL d   1      -0.125   1.907   0.377  0.00  0.00     0.033 A 
ATOM      6  C6  UNL d   1       0.395   0.860  -0.389  0.00  0.00    -0.057 A 
ENDROOT
BRANCH   1   7
ATOM      7  N   UNL d   1       0.796  -1.475  -0.803  0.00  0.00    -0.732 N 
ATOM      8  C   UNL d   1       0.105  -2.132  -1.892  0.00  0.00     0.284 C 
ATOM      9  H3  UNL d   1       1.767  -1.249  -1.004  0.00  0.00     0.395 HD
ENDBRANCH   1   7
TORSDOF 1
ENDMDL
