MODEL 1
REMARK minimizedAffinity -3.22309828
REMARK minimizedRMSD -1
REMARK  1 active torsions:
REMARK  status: ('A' for Active; 'I' for Inactive)
REMARK    1  A    between atoms: N_2  and  C1_3 
ROOT
ATOM      1  C1  UNL d   1       0.370   1.626   0.082  0.00  0.00     0.143 A 
ATOM      2  C2  UNL d   1       1.131   0.592  -0.474  0.00  0.00    -0.057 A 
ATOM      3  C3  UNL d   1       1.132  -0.691   0.087  0.00  0.00     0.033 A 
ATOM      4  C4  UNL d   1       0.391  -0.956   1.234  0.00  0.00    -0.042 A 
ATOM      5  C5  UNL d   1      -0.354   0.063   1.817  0.00  0.00     0.033 A 
ATOM      6  C6  UNL d   1      -0.355   1.341   1.249  0.00  0.00    -0.057 A 
ENDROOT
BRANCH   1   7
ATOM      7  N   UNL d   1       0.405   2.947  -0.371  0.00  0.00    -0.732 N 
ATOM      8  C   UNL d   1       0.164   4.045   0.541  0.00  0.00     0.284 C 
ATOM      9  H3  UNL d   1       1.163   3.113  -1.029  0.00  0.00     0.395 HD
ENDBRANCH   1   7
TORSDOF 1
ENDMDL
