MODEL 1
REMARK minimizedAffinity -4.6238451
REMARK minimizedRMSD -1
REMARK  1 active torsions:
REMARK  status: ('A' for Active; 'I' for Inactive)
REMARK    1  A    between atoms: N_2  and  C1_3 
ROOT
ATOM      1  C1  UNL d   1       0.147  -1.176  -0.187  0.00  0.00     0.143 A 
ATOM      2  C2  UNL d   1       1.405  -1.749  -0.400  0.00  0.00    -0.057 A 
ATOM      3  C3  UNL d   1       1.624  -2.651  -1.449  0.00  0.00     0.033 A 
ATOM      4  C4  UNL d   1       0.577  -3.019  -2.287  0.00  0.00    -0.042 A 
ATOM      5  C5  UNL d   1      -0.688  -2.481  -2.078  0.00  0.00     0.033 A 
ATOM      6  C6  UNL d   1      -0.898  -1.576  -1.034  0.00  0.00    -0.057 A 
ENDROOT
BRANCH   1   7
ATOM      7  N   UNL d   1      -0.157  -0.349   0.898  0.00  0.00    -0.732 N 
ATOM      8  C   UNL d   1      -1.024  -0.814   1.959  0.00  0.00     0.284 C 
ATOM      9  H3  UNL d   1       0.650   0.179   1.222  0.00  0.00     0.395 HD
ENDBRANCH   1   7
TORSDOF 1
ENDMDL
