MODEL 1
REMARK minimizedAffinity -3.03374696
REMARK minimizedRMSD -1
REMARK  1 active torsions:
REMARK  status: ('A' for Active; 'I' for Inactive)
REMARK    1  A    between atoms: N_2  and  C1_3 
ROOT
ATOM      1  C1  UNL d   1       0.706  -1.418  -1.063  0.00  0.00     0.143 A 
ATOM      2  C2  UNL d   1       0.705  -2.709  -0.523  0.00  0.00    -0.057 A 
ATOM      3  C3  UNL d   1       0.314  -3.815  -1.286  0.00  0.00     0.033 A 
ATOM      4  C4  UNL d   1      -0.112  -3.647  -2.599  0.00  0.00    -0.042 A 
ATOM      5  C5  UNL d   1      -0.142  -2.370  -3.150  0.00  0.00     0.033 A 
ATOM      6  C6  UNL d   1       0.256  -1.270  -2.384  0.00  0.00    -0.057 A 
ENDROOT
BRANCH   1   7
ATOM      7  N   UNL d   1       0.990  -0.266  -0.326  0.00  0.00    -0.732 N 
ATOM      8  C   UNL d   1       0.369  -0.045   0.963  0.00  0.00     0.284 C 
ATOM      9  H3  UNL d   1       1.975  -0.015  -0.362  0.00  0.00     0.395 HD
ENDBRANCH   1   7
TORSDOF 1
ENDMDL
