MODEL 1
REMARK minimizedAffinity -2.01697874
REMARK minimizedRMSD -1
REMARK  1 active torsions:
REMARK  status: ('A' for Active; 'I' for Inactive)
REMARK    1  A    between atoms: N_2  and  C1_3 
ROOT
ATOM      1  C1  UNL d   1      -0.397   1.497   0.531  0.00  0.00     0.143 A 
ATOM      2  C2  UNL d   1      -0.914   2.335   1.525  0.00  0.00    -0.057 A 
ATOM      3  C3  UNL d   1      -0.872   3.728   1.393  0.00  0.00     0.033 A 
ATOM      4  C4  UNL d   1      -0.285   4.310   0.274  0.00  0.00    -0.042 A 
ATOM      5  C5  UNL d   1       0.257   3.497  -0.714  0.00  0.00     0.033 A 
ATOM      6  C6  UNL d   1       0.207   2.106  -0.580  0.00  0.00    -0.057 A 
ENDROOT
BRANCH   1   7
ATOM      7  N   UNL d   1      -0.320   0.107   0.649  0.00  0.00    -0.732 N 
ATOM      8  C   UNL d   1       0.614  -0.650  -0.157  0.00  0.00     0.284 C 
ATOM      9  H3  UNL d   1      -0.383  -0.205   1.615  0.00  0.00     0.395 HD
ENDBRANCH   1   7
TORSDOF 1
ENDMDL
