MODEL 1
REMARK minimizedAffinity 0.752436697
REMARK minimizedRMSD -1
REMARK  0 active torsions:
REMARK  status: ('A' for Active; 'I' for Inactive)
ROOT
ATOM      1  C   UNL d   1       2.496  -2.148   3.687  0.00  0.00     0.023 A 
ATOM      2  C1  UNL d   1       3.021  -2.623   4.888  0.00  0.00     0.003 A 
ATOM      3  C2  UNL d   1       2.399  -3.682   5.553  0.00  0.00     0.048 A 
ATOM      4  C3  UNL d   1       1.253  -4.262   5.010  0.00  0.00     0.023 A 
ATOM      5  C4  UNL d   1       0.725  -3.790   3.807  0.00  0.00     0.048 A 
ATOM      6  C5  UNL d   1       1.349  -2.730   3.147  0.00  0.00     0.003 A 
ATOM      7  I   UNL d   1       0.326  -5.839   5.997  0.00  0.00    -0.146 I 
ENDROOT
TORSDOF 0
ENDMDL
