MODEL 1
REMARK minimizedAffinity 3.8401041
REMARK minimizedRMSD -1
REMARK  0 active torsions:
REMARK  status: ('A' for Active; 'I' for Inactive)
ROOT
ATOM      1  C   UNL d   1       3.286  -4.596   4.581  0.00  0.00     0.023 A 
ATOM      2  C1  UNL d   1       3.641  -3.297   4.948  0.00  0.00     0.003 A 
ATOM      3  C2  UNL d   1       3.124  -2.206   4.247  0.00  0.00     0.048 A 
ATOM      4  C3  UNL d   1       2.253  -2.420   3.180  0.00  0.00     0.023 A 
ATOM      5  C4  UNL d   1       1.894  -3.717   2.809  0.00  0.00     0.048 A 
ATOM      6  C5  UNL d   1       2.414  -4.805   3.513  0.00  0.00     0.003 A 
ATOM      7  I   UNL d   1       1.482  -0.797   2.134  0.00  0.00    -0.146 I 
ENDROOT
TORSDOF 0
ENDMDL
