MODEL 1
REMARK minimizedAffinity 4.58568621
REMARK minimizedRMSD -1
REMARK  0 active torsions:
REMARK  status: ('A' for Active; 'I' for Inactive)
ROOT
ATOM      1  C   UNL d   1       2.681  -5.998  -5.959  0.00  0.00     0.023 A 
ATOM      2  C1  UNL d   1       1.701  -5.992  -4.966  0.00  0.00     0.003 A 
ATOM      3  C2  UNL d   1       2.071  -5.989  -3.619  0.00  0.00     0.048 A 
ATOM      4  C3  UNL d   1       3.422  -5.990  -3.273  0.00  0.00     0.023 A 
ATOM      5  C4  UNL d   1       4.405  -5.995  -4.263  0.00  0.00     0.048 A 
ATOM      6  C5  UNL d   1       4.031  -6.000  -5.608  0.00  0.00     0.003 A 
ATOM      7  I   UNL d   1       3.974  -5.985  -1.269  0.00  0.00    -0.146 I 
ENDROOT
TORSDOF 0
ENDMDL
