MODEL 1
REMARK minimizedAffinity 9.24519348
REMARK minimizedRMSD -1
REMARK  0 active torsions:
REMARK  status: ('A' for Active; 'I' for Inactive)
ROOT
ATOM      1  C   UNL d   1      -5.079  -3.395  -1.846  0.00  0.00     0.023 A 
ATOM      2  C1  UNL d   1      -6.000  -2.353  -1.725  0.00  0.00     0.003 A 
ATOM      3  C2  UNL d   1      -5.617  -1.043  -2.020  0.00  0.00     0.048 A 
ATOM      4  C3  UNL d   1      -4.312  -0.782  -2.437  0.00  0.00     0.023 A 
ATOM      5  C4  UNL d   1      -3.388  -1.821  -2.561  0.00  0.00     0.048 A 
ATOM      6  C5  UNL d   1      -3.775  -3.129  -2.264  0.00  0.00     0.003 A 
ATOM      7  I   UNL d   1      -3.740   1.167  -2.878  0.00  0.00    -0.146 I 
ENDROOT
TORSDOF 0
ENDMDL
