MODEL 1
REMARK minimizedAffinity 10.7768297
REMARK minimizedRMSD -1
REMARK  0 active torsions:
REMARK  status: ('A' for Active; 'I' for Inactive)
ROOT
ATOM      1  C   UNL d   1       3.129  -4.500   4.023  0.00  0.00     0.023 A 
ATOM      2  C1  UNL d   1       2.042  -4.297   3.173  0.00  0.00     0.003 A 
ATOM      3  C2  UNL d   1       1.777  -3.023   2.667  0.00  0.00     0.048 A 
ATOM      4  C3  UNL d   1       2.605  -1.956   3.014  0.00  0.00     0.023 A 
ATOM      5  C4  UNL d   1       3.695  -2.154   3.864  0.00  0.00     0.048 A 
ATOM      6  C5  UNL d   1       3.955  -3.430   4.368  0.00  0.00     0.003 A 
ATOM      7  I   UNL d   1       2.214  -0.059   2.262  0.00  0.00    -0.146 I 
ENDROOT
TORSDOF 0
ENDMDL
