MODEL 1
REMARK minimizedAffinity 4.37737083
REMARK minimizedRMSD -1
REMARK  0 active torsions:
REMARK  status: ('A' for Active; 'I' for Inactive)
ROOT
ATOM      1  C   UNL d   1       5.426  -5.796  -2.864  0.00  0.00     0.023 A 
ATOM      2  C1  UNL d   1       4.262  -5.723  -2.099  0.00  0.00     0.003 A 
ATOM      3  C2  UNL d   1       3.013  -5.781  -2.720  0.00  0.00     0.048 A 
ATOM      4  C3  UNL d   1       2.935  -5.913  -4.106  0.00  0.00     0.023 A 
ATOM      5  C4  UNL d   1       4.097  -5.987  -4.875  0.00  0.00     0.048 A 
ATOM      6  C5  UNL d   1       5.344  -5.928  -4.250  0.00  0.00     0.003 A 
ATOM      7  I   UNL d   1       1.076  -5.999  -5.033  0.00  0.00    -0.146 I 
ENDROOT
TORSDOF 0
ENDMDL
