MODEL 1
REMARK minimizedAffinity 5.3188014
REMARK minimizedRMSD -1
REMARK  0 active torsions:
REMARK  status: ('A' for Active; 'I' for Inactive)
ROOT
ATOM      1  C   UNL d   1       1.167  -3.101   3.367  0.00  0.00     0.023 A 
ATOM      2  C1  UNL d   1       1.843  -4.274   3.705  0.00  0.00     0.003 A 
ATOM      3  C2  UNL d   1       3.230  -4.261   3.864  0.00  0.00     0.048 A 
ATOM      4  C3  UNL d   1       3.935  -3.071   3.685  0.00  0.00     0.023 A 
ATOM      5  C4  UNL d   1       3.263  -1.895   3.348  0.00  0.00     0.048 A 
ATOM      6  C5  UNL d   1       1.876  -1.913   3.189  0.00  0.00     0.003 A 
ATOM      7  I   UNL d   1       6.000  -3.049   3.922  0.00  0.00    -0.146 I 
ENDROOT
TORSDOF 0
ENDMDL
