MODEL 1
REMARK minimizedAffinity 8.00770473
REMARK minimizedRMSD -1
REMARK  0 active torsions:
REMARK  status: ('A' for Active; 'I' for Inactive)
ROOT
ATOM      1  C   UNL d   1       2.655  -3.675   2.528  0.00  0.00     0.023 A 
ATOM      2  C1  UNL d   1       1.273  -3.810   2.403  0.00  0.00     0.003 A 
ATOM      3  C2  UNL d   1       0.543  -4.477   3.389  0.00  0.00     0.048 A 
ATOM      4  C3  UNL d   1       1.202  -5.006   4.498  0.00  0.00     0.023 A 
ATOM      5  C4  UNL d   1       2.585  -4.873   4.628  0.00  0.00     0.048 A 
ATOM      6  C5  UNL d   1       3.311  -4.206   3.639  0.00  0.00     0.003 A 
ATOM      7  I   UNL d   1       0.118  -5.999   5.967  0.00  0.00    -0.146 I 
ENDROOT
TORSDOF 0
ENDMDL
