MODEL 1
REMARK minimizedAffinity 1.459831
REMARK minimizedRMSD -1
REMARK  0 active torsions:
REMARK  status: ('A' for Active; 'I' for Inactive)
ROOT
ATOM      1  C   UNL d   1       3.539  -5.997  -5.990  0.00  0.00     0.023 A 
ATOM      2  C1  UNL d   1       2.470  -5.998  -5.094  0.00  0.00     0.003 A 
ATOM      3  C2  UNL d   1       2.710  -5.999  -3.718  0.00  0.00     0.048 A 
ATOM      4  C3  UNL d   1       4.022  -5.998  -3.246  0.00  0.00     0.023 A 
ATOM      5  C4  UNL d   1       5.095  -5.996  -4.139  0.00  0.00     0.048 A 
ATOM      6  C5  UNL d   1       4.850  -5.996  -5.513  0.00  0.00     0.003 A 
ATOM      7  I   UNL d   1       4.383  -5.999  -1.199  0.00  0.00    -0.146 I 
ENDROOT
TORSDOF 0
ENDMDL
