MODEL 1
REMARK minimizedAffinity -1.55711293
REMARK minimizedRMSD -1
REMARK  0 active torsions:
REMARK  status: ('A' for Active; 'I' for Inactive)
ROOT
ATOM      1  C   UNL d   1      -0.026   0.388  -0.039  0.00  0.00     0.172 C 
ATOM      2  N   UNL d   1       0.298   1.694   0.485  0.00  0.00    -0.070 N 
ATOM      3  C1  UNL d   1       0.097   2.886  -0.160  0.00  0.00    -0.004 A 
ATOM      4  C2  UNL d   1       0.535   3.894   0.671  0.00  0.00    -0.047 A 
ATOM      5  C3  UNL d   1       1.016   3.288   1.856  0.00  0.00    -0.047 A 
ATOM      6  C4  UNL d   1       0.857   1.926   1.714  0.00  0.00    -0.004 A 
ENDROOT
TORSDOF 0
ENDMDL
