MODEL 1
REMARK minimizedAffinity 3.67940354
REMARK minimizedRMSD -1
REMARK  0 active torsions:
REMARK  status: ('A' for Active; 'I' for Inactive)
ROOT
ATOM      1  C   UNL d   1       0.323   2.213   1.983  0.00  0.00     0.172 C 
ATOM      2  N   UNL d   1      -0.011   2.724   0.674  0.00  0.00    -0.070 N 
ATOM      3  C1  UNL d   1       0.282   3.977   0.207  0.00  0.00    -0.004 A 
ATOM      4  C2  UNL d   1      -0.202   4.072  -1.080  0.00  0.00    -0.047 A 
ATOM      5  C3  UNL d   1      -0.807   2.833  -1.397  0.00  0.00    -0.047 A 
ATOM      6  C4  UNL d   1      -0.675   2.017  -0.293  0.00  0.00    -0.004 A 
ENDROOT
TORSDOF 0
ENDMDL
