MODEL 1
REMARK minimizedAffinity -1.25921023
REMARK minimizedRMSD -1
REMARK  0 active torsions:
REMARK  status: ('A' for Active; 'I' for Inactive)
ROOT
ATOM      1  C   UNL d   1       1.046   0.017  -0.360  0.00  0.00     0.172 C 
ATOM      2  N   UNL d   1       0.613   0.997   0.608  0.00  0.00    -0.070 N 
ATOM      3  C1  UNL d   1       0.217   0.731   1.891  0.00  0.00    -0.004 A 
ATOM      4  C2  UNL d   1      -0.117   1.929   2.486  0.00  0.00    -0.047 A 
ATOM      5  C3  UNL d   1       0.084   2.949   1.527  0.00  0.00    -0.047 A 
ATOM      6  C4  UNL d   1       0.536   2.345   0.373  0.00  0.00    -0.004 A 
ENDROOT
TORSDOF 0
ENDMDL
