MODEL 1
REMARK minimizedAffinity 1.94820392
REMARK minimizedRMSD -1
REMARK  0 active torsions:
REMARK  status: ('A' for Active; 'I' for Inactive)
ROOT
ATOM      1  C   UNL d   1       0.363   2.871   2.748  0.00  0.00     0.172 C 
ATOM      2  N   UNL d   1       0.423   1.599   2.068  0.00  0.00    -0.070 N 
ATOM      3  C1  UNL d   1       0.834   0.416   2.622  0.00  0.00    -0.004 A 
ATOM      4  C2  UNL d   1       0.745  -0.558   1.652  0.00  0.00    -0.047 A 
ATOM      5  C3  UNL d   1       0.266   0.061   0.473  0.00  0.00    -0.047 A 
ATOM      6  C4  UNL d   1       0.075   1.396   0.758  0.00  0.00    -0.004 A 
ENDROOT
TORSDOF 0
ENDMDL
