MODEL 1
REMARK minimizedAffinity -1.66796339
REMARK minimizedRMSD -1
REMARK  0 active torsions:
REMARK  status: ('A' for Active; 'I' for Inactive)
ROOT
ATOM      1  C   UNL d   1      -5.987  -2.481   5.988  0.00  0.00     0.172 C 
ATOM      2  N   UNL d   1      -5.977  -1.279   5.188  0.00  0.00    -0.070 N 
ATOM      3  C1  UNL d   1      -5.944  -1.231   3.820  0.00  0.00    -0.004 A 
ATOM      4  C2  UNL d   1      -5.946   0.095   3.444  0.00  0.00    -0.047 A 
ATOM      5  C3  UNL d   1      -5.980   0.871   4.628  0.00  0.00    -0.047 A 
ATOM      6  C4  UNL d   1      -5.999  -0.005   5.692  0.00  0.00    -0.004 A 
ENDROOT
TORSDOF 0
ENDMDL
