MODEL 1
REMARK minimizedAffinity -2.4175899
REMARK minimizedRMSD -1
REMARK  0 active torsions:
REMARK  status: ('A' for Active; 'I' for Inactive)
ROOT
ATOM      1  C1  BNZ d   1      -1.284  -0.321  -2.005  0.00  0.00     0.000 A 
ATOM      2  C2  BNZ d   1      -1.243  -0.382  -3.372  0.00  0.00     0.000 A 
ATOM      3  C3  BNZ d   1      -2.270   0.114  -4.126  0.00  0.00     0.000 A 
ATOM      4  C4  BNZ d   1      -3.353   0.632  -3.512  0.00  0.00     0.000 A 
ATOM      5  C5  BNZ d   1      -3.414   0.692  -2.134  0.00  0.00     0.000 A 
ATOM      6  C6  BNZ d   1      -2.361   0.227  -1.379  0.00  0.00     0.000 A 
ENDROOT
TORSDOF 0
ENDMDL
