MODEL 1
REMARK minimizedAffinity -1.9835031
REMARK minimizedRMSD -1
REMARK  0 active torsions:
REMARK  status: ('A' for Active; 'I' for Inactive)
ROOT
ATOM      1  C1  BNZ d   1      -2.522  -0.463  -1.512  0.00  0.00     0.000 A 
ATOM      2  C2  BNZ d   1      -2.660   0.842  -1.123  0.00  0.00     0.000 A 
ATOM      3  C3  BNZ d   1      -3.065   1.798  -2.013  0.00  0.00     0.000 A 
ATOM      4  C4  BNZ d   1      -3.292   1.455  -3.297  0.00  0.00     0.000 A 
ATOM      5  C5  BNZ d   1      -3.148   0.145  -3.707  0.00  0.00     0.000 A 
ATOM      6  C6  BNZ d   1      -2.778  -0.822  -2.800  0.00  0.00     0.000 A 
ENDROOT
TORSDOF 0
ENDMDL
