MODEL 1
REMARK minimizedAffinity -4.99626923
REMARK minimizedRMSD -1
REMARK  0 active torsions:
REMARK  status: ('A' for Active; 'I' for Inactive)
ROOT
ATOM      1  C1  BNZ d   1       0.977   1.233   0.139  0.00  0.00     0.000 A 
ATOM      2  C2  BNZ d   1       2.321   1.179   0.397  0.00  0.00     0.000 A 
ATOM      3  C3  BNZ d   1       2.920   0.001   0.746  0.00  0.00     0.000 A 
ATOM      4  C4  BNZ d   1       2.169  -1.111   0.876  0.00  0.00     0.000 A 
ATOM      5  C5  BNZ d   1       0.812  -1.071   0.629  0.00  0.00     0.000 A 
ATOM      6  C6  BNZ d   1       0.219   0.108   0.240  0.00  0.00     0.000 A 
ENDROOT
TORSDOF 0
ENDMDL
