MODEL 1
REMARK minimizedAffinity -3.49073243
REMARK minimizedRMSD -1
REMARK  0 active torsions:
REMARK  status: ('A' for Active; 'I' for Inactive)
ROOT
ATOM      1  C1  BNZ d   1       0.404  -1.282   0.711  0.00  0.00     0.000 A 
ATOM      2  C2  BNZ d   1       1.650  -0.732   0.854  0.00  0.00     0.000 A 
ATOM      3  C3  BNZ d   1       1.888   0.565   0.492  0.00  0.00     0.000 A 
ATOM      4  C4  BNZ d   1       0.892   1.296  -0.049  0.00  0.00     0.000 A 
ATOM      5  C5  BNZ d   1      -0.367   0.752  -0.209  0.00  0.00     0.000 A 
ATOM      6  C6  BNZ d   1      -0.613  -0.541   0.193  0.00  0.00     0.000 A 
ENDROOT
TORSDOF 0
ENDMDL
