MODEL 1
REMARK minimizedAffinity -4.97437477
REMARK minimizedRMSD -1
REMARK  0 active torsions:
REMARK  status: ('A' for Active; 'I' for Inactive)
ROOT
ATOM      1  C1  BNZ d   1       0.799  -1.914   0.632  0.00  0.00     0.000 A 
ATOM      2  C2  BNZ d   1      -0.480  -1.435   0.538  0.00  0.00     0.000 A 
ATOM      3  C3  BNZ d   1      -0.716  -0.108   0.305  0.00  0.00     0.000 A 
ATOM      4  C4  BNZ d   1       0.326   0.743   0.207  0.00  0.00     0.000 A 
ATOM      5  C5  BNZ d   1       1.621   0.276   0.308  0.00  0.00     0.000 A 
ATOM      6  C6  BNZ d   1       1.855  -1.065   0.503  0.00  0.00     0.000 A 
ENDROOT
TORSDOF 0
ENDMDL
