MODEL 1
REMARK minimizedAffinity -4.86113644
REMARK minimizedRMSD -1
REMARK  0 active torsions:
REMARK  status: ('A' for Active; 'I' for Inactive)
ROOT
ATOM      1  C1  BNZ d   1       2.069  -1.918   1.826  0.00  0.00     0.000 A 
ATOM      2  C2  BNZ d   1       3.007  -0.940   1.632  0.00  0.00     0.000 A 
ATOM      3  C3  BNZ d   1       2.751   0.124   0.813  0.00  0.00     0.000 A 
ATOM      4  C4  BNZ d   1       1.574   0.187   0.157  0.00  0.00     0.000 A 
ATOM      5  C5  BNZ d   1       0.622  -0.796   0.335  0.00  0.00     0.000 A 
ATOM      6  C6  BNZ d   1       0.868  -1.845   1.190  0.00  0.00     0.000 A 
ENDROOT
TORSDOF 0
ENDMDL
