MODEL 1
REMARK minimizedAffinity -3.98957896
REMARK minimizedRMSD -1
REMARK  0 active torsions:
REMARK  status: ('A' for Active; 'I' for Inactive)
ROOT
ATOM      1  C1  BNZ d   1       1.553  -0.250   0.304  0.00  0.00     0.000 A 
ATOM      2  C2  BNZ d   1       0.720  -1.235   0.762  0.00  0.00     0.000 A 
ATOM      3  C3  BNZ d   1      -0.606  -0.985   0.982  0.00  0.00     0.000 A 
ATOM      4  C4  BNZ d   1      -1.088   0.259   0.782  0.00  0.00     0.000 A 
ATOM      5  C5  BNZ d   1      -0.259   1.266   0.329  0.00  0.00     0.000 A 
ATOM      6  C6  BNZ d   1       1.067   1.000   0.072  0.00  0.00     0.000 A 
ENDROOT
TORSDOF 0
ENDMDL
