MODEL 1
REMARK minimizedAffinity -4.85078239
REMARK minimizedRMSD -1
REMARK  0 active torsions:
REMARK  status: ('A' for Active; 'I' for Inactive)
ROOT
ATOM      1  C1  BNZ d   1       2.230  -0.757   2.060  0.00  0.00     0.000 A 
ATOM      2  C2  BNZ d   1       1.200  -1.659   2.102  0.00  0.00     0.000 A 
ATOM      3  C3  BNZ d   1       0.120  -1.526   1.275  0.00  0.00     0.000 A 
ATOM      4  C4  BNZ d   1       0.051  -0.472   0.438  0.00  0.00     0.000 A 
ATOM      5  C5  BNZ d   1       1.076   0.451   0.391  0.00  0.00     0.000 A 
ATOM      6  C6  BNZ d   1       2.181   0.293   1.196  0.00  0.00     0.000 A 
ENDROOT
TORSDOF 0
ENDMDL
