MODEL 1
REMARK minimizedAffinity -0.72740972
REMARK minimizedRMSD -1
REMARK  1 active torsions:
REMARK  status: ('A' for Active; 'I' for Inactive)
REMARK    1  A    between atoms: C1_2  and  C2_3 
ROOT
ATOM      1  C2  UNL d   1      -4.002   0.367  -5.941  0.00  0.00    -0.081 A 
ATOM      2  C3  UNL d   1      -4.933   1.411  -5.893  0.00  0.00     0.006 A 
ATOM      3  C4  UNL d   1      -4.506   2.741  -5.900  0.00  0.00     0.002 A 
ATOM      4  C5  UNL d   1      -3.143   3.049  -5.962  0.00  0.00    -0.080 A 
ATOM      5  C6  UNL d   1      -2.672   4.472  -6.000  0.00  0.00     0.076 C 
ATOM      6  C7  UNL d   1      -2.212   2.005  -5.992  0.00  0.00     0.002 A 
ATOM      7  C8  UNL d   1      -2.638   0.675  -5.984  0.00  0.00     0.006 A 
ENDROOT
BRANCH   1   8
ATOM      8  C1  UNL d   1      -4.462  -1.068  -6.000  0.00  0.00     0.054 C 
ATOM      9  C   UNL d   1      -5.193  -1.467  -4.725  0.00  0.00     0.018 C 
ENDBRANCH   1   8
TORSDOF 1
ENDMDL
