MODEL 1
REMARK minimizedAffinity -3.36937785
REMARK minimizedRMSD -1
REMARK  1 active torsions:
REMARK  status: ('A' for Active; 'I' for Inactive)
REMARK    1  A    between atoms: C1_2  and  C2_3 
ROOT
ATOM      1  C2  UNL d   1      -4.122   0.764  -5.826  0.00  0.00    -0.081 A 
ATOM      2  C3  UNL d   1      -4.802   1.973  -5.638  0.00  0.00     0.006 A 
ATOM      3  C4  UNL d   1      -4.106   3.184  -5.634  0.00  0.00     0.002 A 
ATOM      4  C5  UNL d   1      -2.721   3.207  -5.825  0.00  0.00    -0.080 A 
ATOM      5  C6  UNL d   1      -1.965   4.503  -5.853  0.00  0.00     0.076 C 
ATOM      6  C7  UNL d   1      -2.038   1.998  -5.995  0.00  0.00     0.002 A 
ATOM      7  C8  UNL d   1      -2.734   0.786  -5.998  0.00  0.00     0.006 A 
ENDROOT
BRANCH   1   8
ATOM      8  C1  UNL d   1      -4.878  -0.538  -5.895  0.00  0.00     0.054 C 
ATOM      9  C   UNL d   1      -5.244  -1.040  -4.506  0.00  0.00     0.018 C 
ENDBRANCH   1   8
TORSDOF 1
ENDMDL
