MODEL 1
REMARK minimizedAffinity 1.26192069
REMARK minimizedRMSD -1
REMARK  1 active torsions:
REMARK  status: ('A' for Active; 'I' for Inactive)
REMARK    1  A    between atoms: C1_2  and  C2_3 
ROOT
ATOM      1  C2  UNL d   1      -3.730  -0.985  -5.918  0.00  0.00    -0.081 A 
ATOM      2  C3  UNL d   1      -5.131  -0.997  -5.928  0.00  0.00     0.006 A 
ATOM      3  C4  UNL d   1      -5.829  -2.206  -5.967  0.00  0.00     0.002 A 
ATOM      4  C5  UNL d   1      -5.139  -3.423  -5.989  0.00  0.00    -0.080 A 
ATOM      5  C6  UNL d   1      -5.877  -4.729  -6.000  0.00  0.00     0.076 C 
ATOM      6  C7  UNL d   1      -3.740  -3.411  -5.996  0.00  0.00     0.002 A 
ATOM      7  C8  UNL d   1      -3.042  -2.202  -5.957  0.00  0.00     0.006 A 
ENDROOT
BRANCH   1   8
ATOM      8  C1  UNL d   1      -2.975   0.315  -5.810  0.00  0.00     0.054 C 
ATOM      9  C   UNL d   1      -3.903   1.510  -5.979  0.00  0.00     0.018 C 
ENDBRANCH   1   8
TORSDOF 1
ENDMDL
