MODEL 1
REMARK minimizedAffinity 2.36916852
REMARK minimizedRMSD -1
REMARK  1 active torsions:
REMARK  status: ('A' for Active; 'I' for Inactive)
REMARK    1  A    between atoms: C1_2  and  C2_3 
ROOT
ATOM      1  C2  UNL d   1      -1.946   1.625  -5.843  0.00  0.00    -0.081 A 
ATOM      2  C3  UNL d   1      -1.915   3.025  -5.824  0.00  0.00     0.006 A 
ATOM      3  C4  UNL d   1      -3.101   3.760  -5.887  0.00  0.00     0.002 A 
ATOM      4  C5  UNL d   1      -4.337   3.109  -5.961  0.00  0.00    -0.080 A 
ATOM      5  C6  UNL d   1      -5.619   3.886  -5.998  0.00  0.00     0.076 C 
ATOM      6  C7  UNL d   1      -4.367   1.711  -5.996  0.00  0.00     0.002 A 
ATOM      7  C8  UNL d   1      -3.182   0.975  -5.935  0.00  0.00     0.006 A 
ENDROOT
BRANCH   1   8
ATOM      8  C1  UNL d   1      -0.673   0.829  -5.710  0.00  0.00     0.054 C 
ATOM      9  C   UNL d   1      -0.491   0.309  -4.291  0.00  0.00     0.018 C 
ENDBRANCH   1   8
TORSDOF 1
ENDMDL
