MODEL 1
REMARK minimizedAffinity 9.35248375
REMARK minimizedRMSD -1
REMARK  1 active torsions:
REMARK  status: ('A' for Active; 'I' for Inactive)
REMARK    1  A    between atoms: C1_2  and  C2_3 
ROOT
ATOM      1  C2  UNL d   1       0.427  -1.244  -2.311  0.00  0.00    -0.081 A 
ATOM      2  C3  UNL d   1       0.778  -1.264  -0.955  0.00  0.00     0.006 A 
ATOM      3  C4  UNL d   1       1.620  -0.283  -0.427  0.00  0.00     0.002 A 
ATOM      4  C5  UNL d   1       2.118   0.739  -1.242  0.00  0.00    -0.080 A 
ATOM      5  C6  UNL d   1       2.999   1.816  -0.681  0.00  0.00     0.076 C 
ATOM      6  C7  UNL d   1       1.782   0.749  -2.600  0.00  0.00     0.002 A 
ATOM      7  C8  UNL d   1       0.941  -0.232  -3.129  0.00  0.00     0.006 A 
ENDROOT
BRANCH   1   8
ATOM      8  C1  UNL d   1      -0.532  -2.264  -2.870  0.00  0.00     0.054 C 
ATOM      9  C   UNL d   1       0.208  -3.405  -3.552  0.00  0.00     0.018 C 
ENDBRANCH   1   8
TORSDOF 1
ENDMDL
