MODEL 1
REMARK minimizedAffinity 5.68593407
REMARK minimizedRMSD -1
REMARK  1 active torsions:
REMARK  status: ('A' for Active; 'I' for Inactive)
REMARK    1  A    between atoms: C1_2  and  C2_3 
ROOT
ATOM      1  C2  UNL d   1       3.208   0.897  -0.907  0.00  0.00    -0.081 A 
ATOM      2  C3  UNL d   1       3.158   0.114  -2.066  0.00  0.00     0.006 A 
ATOM      3  C4  UNL d   1       1.974  -0.530  -2.435  0.00  0.00     0.002 A 
ATOM      4  C5  UNL d   1       0.820  -0.395  -1.656  0.00  0.00    -0.080 A 
ATOM      5  C6  UNL d   1      -0.465  -1.057  -2.057  0.00  0.00     0.076 C 
ATOM      6  C7  UNL d   1       0.875   0.373  -0.488  0.00  0.00     0.002 A 
ATOM      7  C8  UNL d   1       2.058   1.017  -0.118  0.00  0.00     0.006 A 
ENDROOT
BRANCH   1   8
ATOM      8  C1  UNL d   1       4.464   1.645  -0.541  0.00  0.00     0.054 C 
ATOM      9  C   UNL d   1       5.702   0.783  -0.748  0.00  0.00     0.018 C 
ENDBRANCH   1   8
TORSDOF 1
ENDMDL
