MODEL 1
REMARK minimizedAffinity -1.84958827
REMARK minimizedRMSD -1
REMARK  1 active torsions:
REMARK  status: ('A' for Active; 'I' for Inactive)
REMARK    1  A    between atoms: C1_2  and  C2_3 
ROOT
ATOM      1  C2  UNL d   1      -3.638   0.494  -5.983  0.00  0.00    -0.081 A 
ATOM      2  C3  UNL d   1      -2.486   1.291  -5.991  0.00  0.00     0.006 A 
ATOM      3  C4  UNL d   1      -2.589   2.684  -5.997  0.00  0.00     0.002 A 
ATOM      4  C5  UNL d   1      -3.843   3.303  -5.988  0.00  0.00    -0.080 A 
ATOM      5  C6  UNL d   1      -3.967   4.798  -5.965  0.00  0.00     0.076 C 
ATOM      6  C7  UNL d   1      -4.994   2.508  -5.998  0.00  0.00     0.002 A 
ATOM      7  C8  UNL d   1      -4.892   1.115  -5.992  0.00  0.00     0.006 A 
ENDROOT
BRANCH   1   8
ATOM      8  C1  UNL d   1      -3.531  -1.008  -5.910  0.00  0.00     0.054 C 
ATOM      9  C   UNL d   1      -4.901  -1.665  -5.994  0.00  0.00     0.018 C 
ENDBRANCH   1   8
TORSDOF 1
ENDMDL
