MODEL 1
REMARK minimizedAffinity 7.42140865
REMARK minimizedRMSD -1
REMARK  1 active torsions:
REMARK  status: ('A' for Active; 'I' for Inactive)
REMARK    1  A    between atoms: C1_2  and  C2_3 
ROOT
ATOM      1  C2  UNL d   1      -0.230   1.156  -0.602  0.00  0.00    -0.081 A 
ATOM      2  C3  UNL d   1       0.870   0.577   0.043  0.00  0.00     0.006 A 
ATOM      3  C4  UNL d   1       1.618  -0.420  -0.588  0.00  0.00     0.002 A 
ATOM      4  C5  UNL d   1       1.283  -0.850  -1.876  0.00  0.00    -0.080 A 
ATOM      5  C6  UNL d   1       2.096  -1.898  -2.577  0.00  0.00     0.076 C 
ATOM      6  C7  UNL d   1       0.174  -0.284  -2.514  0.00  0.00     0.002 A 
ATOM      7  C8  UNL d   1      -0.574   0.712  -1.884  0.00  0.00     0.006 A 
ENDROOT
BRANCH   1   8
ATOM      8  C1  UNL d   1      -0.998   2.277   0.049  0.00  0.00     0.054 C 
ATOM      9  C   UNL d   1      -1.831   1.770   1.218  0.00  0.00     0.018 C 
ENDBRANCH   1   8
TORSDOF 1
ENDMDL
