MODEL 1
REMARK minimizedAffinity 3.22708726
REMARK minimizedRMSD -1
REMARK  1 active torsions:
REMARK  status: ('A' for Active; 'I' for Inactive)
REMARK    1  A    between atoms: C1_2  and  C2_3 
ROOT
ATOM      1  C2  UNL d   1      -3.363  -3.077  -5.254  0.00  0.00    -0.081 A 
ATOM      2  C3  UNL d   1      -2.850  -2.807  -3.980  0.00  0.00     0.006 A 
ATOM      3  C4  UNL d   1      -2.067  -3.754  -3.316  0.00  0.00     0.002 A 
ATOM      4  C5  UNL d   1      -1.778  -4.984  -3.918  0.00  0.00    -0.080 A 
ATOM      5  C6  UNL d   1      -0.914  -5.998  -3.229  0.00  0.00     0.076 C 
ATOM      6  C7  UNL d   1      -2.306  -5.261  -5.184  0.00  0.00     0.002 A 
ATOM      7  C8  UNL d   1      -3.089  -4.314  -5.848  0.00  0.00     0.006 A 
ENDROOT
BRANCH   1   8
ATOM      8  C1  UNL d   1      -4.154  -2.032  -6.000  0.00  0.00     0.054 C 
ATOM      9  C   UNL d   1      -5.641  -2.356  -5.997  0.00  0.00     0.018 C 
ENDBRANCH   1   8
TORSDOF 1
ENDMDL
