MODEL 1
REMARK minimizedAffinity 7.80248213
REMARK minimizedRMSD -1
REMARK  1 active torsions:
REMARK  status: ('A' for Active; 'I' for Inactive)
REMARK    1  A    between atoms: C1_2  and  C2_3 
ROOT
ATOM      1  C2  UNL d   1      -4.489  -1.582  -5.940  0.00  0.00    -0.081 A 
ATOM      2  C3  UNL d   1      -3.279  -2.287  -5.936  0.00  0.00     0.006 A 
ATOM      3  C4  UNL d   1      -3.274  -3.684  -5.942  0.00  0.00     0.002 A 
ATOM      4  C5  UNL d   1      -4.476  -4.398  -5.960  0.00  0.00    -0.080 A 
ATOM      5  C6  UNL d   1      -4.484  -5.898  -5.998  0.00  0.00     0.076 C 
ATOM      6  C7  UNL d   1      -5.685  -3.694  -5.946  0.00  0.00     0.002 A 
ATOM      7  C8  UNL d   1      -5.691  -2.298  -5.939  0.00  0.00     0.006 A 
ENDROOT
BRANCH   1   8
ATOM      8  C1  UNL d   1      -4.498  -0.076  -5.998  0.00  0.00     0.054 C 
ATOM      9  C   UNL d   1      -4.314   0.533  -4.616  0.00  0.00     0.018 C 
ENDBRANCH   1   8
TORSDOF 1
ENDMDL
