MODEL 1
REMARK minimizedAffinity 2.11365652
REMARK minimizedRMSD -1
REMARK  1 active torsions:
REMARK  status: ('A' for Active; 'I' for Inactive)
REMARK    1  A    between atoms: C1_2  and  C2_3 
ROOT
ATOM      1  C2  UNL d   1      -3.356   1.103  -5.968  0.00  0.00    -0.081 A 
ATOM      2  C3  UNL d   1      -2.007   1.478  -5.982  0.00  0.00     0.006 A 
ATOM      3  C4  UNL d   1      -1.648   2.828  -6.000  0.00  0.00     0.002 A 
ATOM      4  C5  UNL d   1      -2.630   3.824  -5.995  0.00  0.00    -0.080 A 
ATOM      5  C6  UNL d   1      -2.258   5.277  -5.984  0.00  0.00     0.076 C 
ATOM      6  C7  UNL d   1      -3.978   3.449  -5.999  0.00  0.00     0.002 A 
ATOM      7  C8  UNL d   1      -4.338   2.100  -5.982  0.00  0.00     0.006 A 
ENDROOT
BRANCH   1   8
ATOM      8  C1  UNL d   1      -3.746  -0.351  -5.884  0.00  0.00     0.054 C 
ATOM      9  C   UNL d   1      -3.906  -0.798  -4.437  0.00  0.00     0.018 C 
ENDBRANCH   1   8
TORSDOF 1
ENDMDL
