MODEL 1
REMARK minimizedAffinity 3.69486141
REMARK minimizedRMSD -1
REMARK  1 active torsions:
REMARK  status: ('A' for Active; 'I' for Inactive)
REMARK    1  A    between atoms: C1_2  and  C2_3 
ROOT
ATOM      1  C2  UNL d   1      -4.506   1.987  -5.975  0.00  0.00    -0.081 A 
ATOM      2  C3  UNL d   1      -5.707   1.266  -5.988  0.00  0.00     0.006 A 
ATOM      3  C4  UNL d   1      -5.694  -0.131  -5.993  0.00  0.00     0.002 A 
ATOM      4  C5  UNL d   1      -4.483  -0.830  -5.979  0.00  0.00    -0.080 A 
ATOM      5  C6  UNL d   1      -4.456  -2.329  -5.955  0.00  0.00     0.076 C 
ATOM      6  C7  UNL d   1      -3.283  -0.110  -5.985  0.00  0.00     0.002 A 
ATOM      7  C8  UNL d   1      -3.295   1.286  -5.980  0.00  0.00     0.006 A 
ENDROOT
BRANCH   1   8
ATOM      8  C1  UNL d   1      -4.516   3.492  -5.904  0.00  0.00     0.054 C 
ATOM      9  C   UNL d   1      -5.935   4.040  -5.976  0.00  0.00     0.018 C 
ENDBRANCH   1   8
TORSDOF 1
ENDMDL
