MODEL 1
REMARK minimizedAffinity 2.40527201
REMARK minimizedRMSD -1
REMARK  1 active torsions:
REMARK  status: ('A' for Active; 'I' for Inactive)
REMARK    1  A    between atoms: C1_2  and  C2_3 
ROOT
ATOM      1  C2  UNL d   1       3.291   0.161  -0.594  0.00  0.00    -0.081 A 
ATOM      2  C3  UNL d   1       3.235  -0.761  -1.647  0.00  0.00     0.006 A 
ATOM      3  C4  UNL d   1       2.004  -1.174  -2.161  0.00  0.00     0.002 A 
ATOM      4  C5  UNL d   1       0.809  -0.668  -1.637  0.00  0.00    -0.080 A 
ATOM      5  C6  UNL d   1      -0.518  -1.081  -2.200  0.00  0.00     0.076 C 
ATOM      6  C7  UNL d   1       0.865   0.239  -0.574  0.00  0.00     0.002 A 
ATOM      7  C8  UNL d   1       2.096   0.653  -0.059  0.00  0.00     0.006 A 
ENDROOT
BRANCH   1   8
ATOM      8  C1  UNL d   1       4.618   0.658  -0.081  0.00  0.00     0.054 C 
ATOM      9  C   UNL d   1       4.986   1.997  -0.704  0.00  0.00     0.018 C 
ENDBRANCH   1   8
TORSDOF 1
ENDMDL
