MODEL 1
REMARK minimizedAffinity -0.0877354741
REMARK minimizedRMSD -1
REMARK  1 active torsions:
REMARK  status: ('A' for Active; 'I' for Inactive)
REMARK    1  A    between atoms: C1_2  and  C2_3 
ROOT
ATOM      1  C2  UNL d   1      -3.918   1.252  -5.980  0.00  0.00    -0.081 A 
ATOM      2  C3  UNL d   1      -2.988   2.299  -5.987  0.00  0.00     0.006 A 
ATOM      3  C4  UNL d   1      -3.417   3.628  -5.996  0.00  0.00     0.002 A 
ATOM      4  C5  UNL d   1      -4.783   3.932  -5.990  0.00  0.00    -0.080 A 
ATOM      5  C6  UNL d   1      -5.257   5.355  -5.969  0.00  0.00     0.076 C 
ATOM      6  C7  UNL d   1      -5.712   2.887  -6.000  0.00  0.00     0.002 A 
ATOM      7  C8  UNL d   1      -5.283   1.557  -5.992  0.00  0.00     0.006 A 
ENDROOT
BRANCH   1   8
ATOM      8  C1  UNL d   1      -3.458  -0.182  -5.904  0.00  0.00     0.054 C 
ATOM      9  C   UNL d   1      -4.635  -1.144  -5.960  0.00  0.00     0.018 C 
ENDBRANCH   1   8
TORSDOF 1
ENDMDL
