MODEL 1
REMARK minimizedAffinity 5.46900082
REMARK minimizedRMSD -1
REMARK  0 active torsions:
REMARK  status: ('A' for Active; 'I' for Inactive)
ROOT
ATOM      1  C   UNL d   1       1.510  -3.501   3.687  0.00  0.00     0.020 A 
ATOM      2  C1  UNL d   1       2.593  -2.684   4.008  0.00  0.00     0.020 A 
ATOM      3  C2  UNL d   1       2.834  -1.523   3.271  0.00  0.00     0.034 A 
ATOM      4  C3  UNL d   1       1.992  -1.176   2.208  0.00  0.00     0.017 A 
ATOM      5  C4  UNL d   1       0.905  -1.997   1.886  0.00  0.00     0.017 A 
ATOM      6  C5  UNL d   1       0.668  -3.158   2.628  0.00  0.00     0.034 A 
ATOM      7 Cl   UNL d   1      -0.178  -1.634   0.589  0.00  0.00    -0.070 Cl
ATOM      8 Cl1  UNL d   1       2.350   0.274   1.340  0.00  0.00    -0.070 Cl
ENDROOT
TORSDOF 0
ENDMDL
