MODEL 1
REMARK minimizedAffinity 11.085783
REMARK minimizedRMSD -1
REMARK  0 active torsions:
REMARK  status: ('A' for Active; 'I' for Inactive)
ROOT
ATOM      1  C   UNL d   1      -5.230   4.040   0.302  0.00  0.00     0.020 A 
ATOM      2  C1  UNL d   1      -4.889   3.526   1.553  0.00  0.00     0.020 A 
ATOM      3  C2  UNL d   1      -3.546   3.361   1.897  0.00  0.00     0.034 A 
ATOM      4  C3  UNL d   1      -2.539   3.709   0.991  0.00  0.00     0.017 A 
ATOM      5  C4  UNL d   1      -2.881   4.224  -0.265  0.00  0.00     0.017 A 
ATOM      6  C5  UNL d   1      -4.227   4.388  -0.605  0.00  0.00     0.034 A 
ATOM      7 Cl   UNL d   1      -1.694   4.677  -1.436  0.00  0.00    -0.070 Cl
ATOM      8 Cl1  UNL d   1      -0.899   3.478   1.484  0.00  0.00    -0.070 Cl
ENDROOT
TORSDOF 0
ENDMDL
