MODEL 1
REMARK minimizedAffinity 4.37961531
REMARK minimizedRMSD -1
REMARK  0 active torsions:
REMARK  status: ('A' for Active; 'I' for Inactive)
ROOT
ATOM      1  C   UNL d   1       6.000  -2.966   3.932  0.00  0.00     0.020 A 
ATOM      2  C1  UNL d   1       5.027  -3.334   4.860  0.00  0.00     0.020 A 
ATOM      3  C2  UNL d   1       3.691  -2.986   4.647  0.00  0.00     0.034 A 
ATOM      4  C3  UNL d   1       3.325  -2.267   3.503  0.00  0.00     0.017 A 
ATOM      5  C4  UNL d   1       4.302  -1.898   2.572  0.00  0.00     0.017 A 
ATOM      6  C5  UNL d   1       5.638  -2.249   2.790  0.00  0.00     0.034 A 
ATOM      7 Cl   UNL d   1       3.927  -1.011   1.137  0.00  0.00    -0.070 Cl
ATOM      8 Cl1  UNL d   1       1.655  -1.871   3.304  0.00  0.00    -0.070 Cl
ENDROOT
TORSDOF 0
ENDMDL
