MODEL 1
REMARK minimizedAffinity 1.28536332
REMARK minimizedRMSD -1
REMARK  0 active torsions:
REMARK  status: ('A' for Active; 'I' for Inactive)
ROOT
ATOM      1  C   UNL d   1       3.137   1.526   2.029  0.00  0.00     0.020 A 
ATOM      2  C1  UNL d   1       2.487   1.690   0.806  0.00  0.00     0.020 A 
ATOM      3  C2  UNL d   1       1.542   0.751   0.387  0.00  0.00     0.034 A 
ATOM      4  C3  UNL d   1       1.244  -0.356   1.191  0.00  0.00     0.017 A 
ATOM      5  C4  UNL d   1       1.897  -0.519   2.418  0.00  0.00     0.017 A 
ATOM      6  C5  UNL d   1       2.842   0.424   2.833  0.00  0.00     0.034 A 
ATOM      7 Cl   UNL d   1       1.583  -1.858   3.465  0.00  0.00    -0.070 Cl
ATOM      8 Cl1  UNL d   1       0.065  -1.477   0.610  0.00  0.00    -0.070 Cl
ENDROOT
TORSDOF 0
ENDMDL
