MODEL 1
REMARK minimizedAffinity 2.67360663
REMARK minimizedRMSD -1
REMARK  0 active torsions:
REMARK  status: ('A' for Active; 'I' for Inactive)
ROOT
ATOM      1  C   UNL d   1      -1.129  -3.044  -1.665  0.00  0.00     0.020 A 
ATOM      2  C1  UNL d   1      -1.534  -1.875  -1.021  0.00  0.00     0.020 A 
ATOM      3  C2  UNL d   1      -0.873  -1.449   0.133  0.00  0.00     0.034 A 
ATOM      4  C3  UNL d   1       0.195  -2.193   0.647  0.00  0.00     0.017 A 
ATOM      5  C4  UNL d   1       0.601  -3.366   0.001  0.00  0.00     0.017 A 
ATOM      6  C5  UNL d   1      -0.064  -3.788  -1.155  0.00  0.00     0.034 A 
ATOM      7 Cl   UNL d   1       1.910  -4.336   0.575  0.00  0.00    -0.070 Cl
ATOM      8 Cl1  UNL d   1       0.967  -1.607   2.078  0.00  0.00    -0.070 Cl
ENDROOT
TORSDOF 0
ENDMDL
