MODEL 1
REMARK minimizedAffinity 1.50624776
REMARK minimizedRMSD -1
REMARK  0 active torsions:
REMARK  status: ('A' for Active; 'I' for Inactive)
ROOT
ATOM      1  C   UNL d   1       2.236   1.131   1.042  0.00  0.00     0.020 A 
ATOM      2  C1  UNL d   1       2.842   0.804   2.255  0.00  0.00     0.020 A 
ATOM      3  C2  UNL d   1       2.528  -0.399   2.890  0.00  0.00     0.034 A 
ATOM      4  C3  UNL d   1       1.607  -1.281   2.312  0.00  0.00     0.017 A 
ATOM      5  C4  UNL d   1       1.000  -0.952   1.095  0.00  0.00     0.017 A 
ATOM      6  C5  UNL d   1       1.317   0.255   0.463  0.00  0.00     0.034 A 
ATOM      7 Cl   UNL d   1      -0.147  -1.988   0.321  0.00  0.00    -0.070 Cl
ATOM      8 Cl1  UNL d   1       1.266  -2.752   3.152  0.00  0.00    -0.070 Cl
ENDROOT
TORSDOF 0
ENDMDL
