MODEL 1
REMARK minimizedAffinity 0.630502939
REMARK minimizedRMSD -1
REMARK  0 active torsions:
REMARK  status: ('A' for Active; 'I' for Inactive)
ROOT
ATOM      1  C   UNL d   1       2.622   0.546   2.949  0.00  0.00     0.020 A 
ATOM      2  C1  UNL d   1       2.244  -0.757   3.271  0.00  0.00     0.020 A 
ATOM      3  C2  UNL d   1       1.294  -1.421   2.493  0.00  0.00     0.034 A 
ATOM      4  C3  UNL d   1       0.718  -0.782   1.389  0.00  0.00     0.017 A 
ATOM      5  C4  UNL d   1       1.097   0.525   1.066  0.00  0.00     0.017 A 
ATOM      6  C5  UNL d   1       2.050   1.186   1.849  0.00  0.00     0.034 A 
ATOM      7 Cl   UNL d   1       0.431   1.378  -0.281  0.00  0.00    -0.070 Cl
ATOM      8 Cl1  UNL d   1      -0.451  -1.664   0.471  0.00  0.00    -0.070 Cl
ENDROOT
TORSDOF 0
ENDMDL
