MODEL 1
REMARK minimizedAffinity 6.0687871
REMARK minimizedRMSD -1
REMARK  0 active torsions:
REMARK  status: ('A' for Active; 'I' for Inactive)
ROOT
ATOM      1  C   UNL d   1      -1.282  -3.286  -1.729  0.00  0.00     0.020 A 
ATOM      2  C1  UNL d   1      -0.237  -3.980  -1.120  0.00  0.00     0.020 A 
ATOM      3  C2  UNL d   1       0.392  -3.448   0.008  0.00  0.00     0.034 A 
ATOM      4  C3  UNL d   1      -0.024  -2.218   0.531  0.00  0.00     0.017 A 
ATOM      5  C4  UNL d   1      -1.073  -1.522  -0.081  0.00  0.00     0.017 A 
ATOM      6  C5  UNL d   1      -1.699  -2.060  -1.210  0.00  0.00     0.034 A 
ATOM      7 Cl   UNL d   1      -1.642   0.001   0.507  0.00  0.00    -0.070 Cl
ATOM      8 Cl1  UNL d   1       0.798  -1.620   1.928  0.00  0.00    -0.070 Cl
ENDROOT
TORSDOF 0
ENDMDL
