MODEL 1
REMARK minimizedAffinity -1.78670597
REMARK minimizedRMSD -1
REMARK  0 active torsions:
REMARK  status: ('A' for Active; 'I' for Inactive)
ROOT
ATOM      1  C   UNL d   1       1.842   1.216   0.275  0.00  0.00     0.020 A 
ATOM      2  C1  UNL d   1       2.696   1.208   1.377  0.00  0.00     0.020 A 
ATOM      3  C2  UNL d   1       2.612   0.180   2.318  0.00  0.00     0.034 A 
ATOM      4  C3  UNL d   1       1.672  -0.845   2.159  0.00  0.00     0.017 A 
ATOM      5  C4  UNL d   1       0.815  -0.836   1.052  0.00  0.00     0.017 A 
ATOM      6  C5  UNL d   1       0.904   0.196   0.113  0.00  0.00     0.034 A 
ATOM      7 Cl   UNL d   1      -0.370  -2.066   0.788  0.00  0.00    -0.070 Cl
ATOM      8 Cl1  UNL d   1       1.624  -2.085   3.361  0.00  0.00    -0.070 Cl
ENDROOT
TORSDOF 0
ENDMDL
