MODEL 1
REMARK minimizedAffinity -0.166420713
REMARK minimizedRMSD -1
REMARK  0 active torsions:
REMARK  status: ('A' for Active; 'I' for Inactive)
ROOT
ATOM      1  C   UNL d   1      -0.333   0.342   0.523  0.00  0.00     0.023 A 
ATOM      2  C1  UNL d   1       0.586  -0.114  -0.422  0.00  0.00     0.003 A 
ATOM      3  C2  UNL d   1       1.864  -0.511  -0.021  0.00  0.00     0.048 A 
ATOM      4  C3  UNL d   1       2.215  -0.449   1.328  0.00  0.00     0.023 A 
ATOM      5  C4  UNL d   1       1.298   0.006   2.277  0.00  0.00     0.048 A 
ATOM      6  C5  UNL d   1       0.022   0.402   1.870  0.00  0.00     0.003 A 
ATOM      7  I   UNL d   1       4.115  -1.039   1.928  0.00  0.00    -0.146 I 
ENDROOT
TORSDOF 0
ENDMDL
