MODEL 1
REMARK minimizedAffinity -1.41368043
REMARK minimizedRMSD -1
REMARK  0 active torsions:
REMARK  status: ('A' for Active; 'I' for Inactive)
ROOT
ATOM      1  C   UNL d   1      -0.991   2.742   1.825  0.00  0.00     0.023 A 
ATOM      2  C1  UNL d   1       0.187   2.021   2.025  0.00  0.00     0.003 A 
ATOM      3  C2  UNL d   1       0.564   1.032   1.115  0.00  0.00     0.048 A 
ATOM      4  C3  UNL d   1      -0.241   0.769   0.006  0.00  0.00     0.023 A 
ATOM      5  C4  UNL d   1      -1.419   1.489  -0.198  0.00  0.00     0.048 A 
ATOM      6  C5  UNL d   1      -1.793   2.476   0.715  0.00  0.00     0.003 A 
ATOM      7  I   UNL d   1       0.319  -0.703  -1.350  0.00  0.00    -0.146 I 
ENDROOT
TORSDOF 0
ENDMDL
