MODEL 1
REMARK minimizedAffinity 0.222919226
REMARK minimizedRMSD -1
REMARK  0 active torsions:
REMARK  status: ('A' for Active; 'I' for Inactive)
ROOT
ATOM      1  C   UNL d   1      -0.251   1.806  -1.243  0.00  0.00     0.023 A 
ATOM      2  C1  UNL d   1      -0.559   1.104  -0.078  0.00  0.00     0.003 A 
ATOM      3  C2  UNL d   1      -0.444  -0.287  -0.048  0.00  0.00     0.048 A 
ATOM      4  C3  UNL d   1      -0.019  -0.970  -1.187  0.00  0.00     0.023 A 
ATOM      5  C4  UNL d   1       0.292  -0.272  -2.355  0.00  0.00     0.048 A 
ATOM      6  C5  UNL d   1       0.174   1.119  -2.380  0.00  0.00     0.003 A 
ATOM      7  I   UNL d   1       0.153  -3.041  -1.145  0.00  0.00    -0.146 I 
ENDROOT
TORSDOF 0
ENDMDL
