MODEL 1
REMARK minimizedAffinity -0.569922864
REMARK minimizedRMSD -1
REMARK  0 active torsions:
REMARK  status: ('A' for Active; 'I' for Inactive)
ROOT
ATOM      1  C   UNL d   1      -0.717   0.428  -0.754  0.00  0.00     0.023 A 
ATOM      2  C1  UNL d   1       0.457   0.331  -0.007  0.00  0.00     0.003 A 
ATOM      3  C2  UNL d   1       0.904   1.424   0.739  0.00  0.00     0.048 A 
ATOM      4  C3  UNL d   1       0.171   2.610   0.734  0.00  0.00     0.023 A 
ATOM      5  C4  UNL d   1      -1.005   2.711  -0.011  0.00  0.00     0.048 A 
ATOM      6  C5  UNL d   1      -1.447   1.616  -0.756  0.00  0.00     0.003 A 
ATOM      7  I   UNL d   1       0.834   4.238   1.843  0.00  0.00    -0.146 I 
ENDROOT
TORSDOF 0
ENDMDL
