MODEL 1
REMARK minimizedAffinity 1.38395166
REMARK minimizedRMSD -1
REMARK  1 active torsions:
REMARK  status: ('A' for Active; 'I' for Inactive)
REMARK    1  A    between atoms: C3_4  and  O_7 
ROOT
ATOM      1  C   UNL d   1      -0.556   0.176   0.344  0.00  0.00    -0.033 A 
ATOM      2  C1  UNL d   1       0.549   0.885   0.820  0.00  0.00     0.039 A 
ATOM      3  C2  UNL d   1       0.386   1.839   1.826  0.00  0.00    -0.080 A 
ATOM      4  C3  UNL d   1      -0.883   2.074   2.347  0.00  0.00     0.150 A 
ATOM      5  C4  UNL d   1      -1.987   1.369   1.880  0.00  0.00    -0.007 A 
ATOM      6  C5  UNL d   1      -1.823   0.416   0.874  0.00  0.00     0.039 A 
ENDROOT
BRANCH   4   7
ATOM      7  O   UNL d   1      -1.092   2.999   3.326  0.00  0.00    -0.526 OA
ATOM      8  H5  UNL d   1      -0.244   3.429   3.529  0.00  0.00     0.418 HD
ENDBRANCH   4   7
TORSDOF 1
ENDMDL
