MODEL 1
REMARK minimizedAffinity 0.896740079
REMARK minimizedRMSD -1
REMARK  1 active torsions:
REMARK  status: ('A' for Active; 'I' for Inactive)
REMARK    1  A    between atoms: C3_4  and  O_7 
ROOT
ATOM      1  C   UNL d   1      -1.861   0.218   0.763  0.00  0.00    -0.033 A 
ATOM      2  C1  UNL d   1      -1.647   0.979   1.914  0.00  0.00     0.039 A 
ATOM      3  C2  UNL d   1      -0.370   1.464   2.204  0.00  0.00    -0.080 A 
ATOM      4  C3  UNL d   1       0.682   1.182   1.336  0.00  0.00     0.150 A 
ATOM      5  C4  UNL d   1       0.474   0.428   0.186  0.00  0.00    -0.007 A 
ATOM      6  C5  UNL d   1      -0.802  -0.056  -0.102  0.00  0.00     0.039 A 
ENDROOT
BRANCH   4   7
ATOM      7  O   UNL d   1       1.946   1.630   1.580  0.00  0.00    -0.526 OA
ATOM      8  H5  UNL d   1       1.945   2.111   2.424  0.00  0.00     0.418 HD
ENDBRANCH   4   7
TORSDOF 1
ENDMDL
