MODEL 1
REMARK minimizedAffinity 2.71489167
REMARK minimizedRMSD -1
REMARK  1 active torsions:
REMARK  status: ('A' for Active; 'I' for Inactive)
REMARK    1  A    between atoms: C3_4  and  O_7 
ROOT
ATOM      1  C   UNL d   1      -1.880   0.525   1.368  0.00  0.00    -0.033 A 
ATOM      2  C1  UNL d   1      -1.572   1.189   2.556  0.00  0.00     0.039 A 
ATOM      3  C2  UNL d   1      -0.258   1.583   2.817  0.00  0.00    -0.080 A 
ATOM      4  C3  UNL d   1       0.736   1.307   1.882  0.00  0.00     0.150 A 
ATOM      5  C4  UNL d   1       0.435   0.650   0.694  0.00  0.00    -0.007 A 
ATOM      6  C5  UNL d   1      -0.877   0.257   0.436  0.00  0.00     0.039 A 
ENDROOT
BRANCH   4   7
ATOM      7  O   UNL d   1       2.034   1.668   2.095  0.00  0.00    -0.526 OA
ATOM      8  H5  UNL d   1       2.097   2.088   2.969  0.00  0.00     0.418 HD
ENDBRANCH   4   7
TORSDOF 1
ENDMDL
