MODEL 1
REMARK minimizedAffinity -0.911723435
REMARK minimizedRMSD -1
REMARK  1 active torsions:
REMARK  status: ('A' for Active; 'I' for Inactive)
REMARK    1  A    between atoms: C3_4  and  O_7 
ROOT
ATOM      1  C   UNL d   1      -0.237  -5.995   2.177  0.00  0.00    -0.033 A 
ATOM      2  C1  UNL d   1       1.159  -5.998   2.208  0.00  0.00     0.039 A 
ATOM      3  C2  UNL d   1       1.832  -5.997   3.431  0.00  0.00    -0.080 A 
ATOM      4  C3  UNL d   1       1.099  -5.994   4.614  0.00  0.00     0.150 A 
ATOM      5  C4  UNL d   1      -0.292  -5.995   4.592  0.00  0.00    -0.007 A 
ATOM      6  C5  UNL d   1      -0.962  -5.995   3.369  0.00  0.00     0.039 A 
ENDROOT
BRANCH   4   7
ATOM      7  O   UNL d   1       1.712  -5.988   5.832  0.00  0.00    -0.526 OA
ATOM      8  H5  UNL d   1       2.673  -5.959   5.693  0.00  0.00     0.418 HD
ENDBRANCH   4   7
TORSDOF 1
ENDMDL
