MODEL 1
REMARK minimizedAffinity 1.2282784
REMARK minimizedRMSD -1
REMARK  1 active torsions:
REMARK  status: ('A' for Active; 'I' for Inactive)
REMARK    1  A    between atoms: C3_4  and  O_7 
ROOT
ATOM      1  C   UNL d   1      -1.097  -5.993   3.053  0.00  0.00    -0.033 A 
ATOM      2  C1  UNL d   1      -0.286  -5.995   4.190  0.00  0.00     0.039 A 
ATOM      3  C2  UNL d   1       1.104  -5.993   4.058  0.00  0.00    -0.080 A 
ATOM      4  C3  UNL d   1       1.670  -5.988   2.786  0.00  0.00     0.150 A 
ATOM      5  C4  UNL d   1       0.868  -5.981   1.650  0.00  0.00    -0.007 A 
ATOM      6  C5  UNL d   1      -0.520  -5.984   1.783  0.00  0.00     0.039 A 
ENDROOT
BRANCH   4   7
ATOM      7  O   UNL d   1       3.021  -5.990   2.608  0.00  0.00    -0.526 OA
ATOM      8  H5  UNL d   1       3.447  -6.024   3.481  0.00  0.00     0.418 HD
ENDBRANCH   4   7
TORSDOF 1
ENDMDL
