MODEL 1
REMARK minimizedAffinity 2.40077829
REMARK minimizedRMSD -1
REMARK  1 active torsions:
REMARK  status: ('A' for Active; 'I' for Inactive)
REMARK    1  A    between atoms: C3_4  and  O_7 
ROOT
ATOM      1  C   UNL d   1       0.116  -5.979   1.919  0.00  0.00    -0.033 A 
ATOM      2  C1  UNL d   1       1.502  -5.990   2.092  0.00  0.00     0.039 A 
ATOM      3  C2  UNL d   1       2.047  -5.998   3.378  0.00  0.00    -0.080 A 
ATOM      4  C3  UNL d   1       1.196  -5.996   4.480  0.00  0.00     0.150 A 
ATOM      5  C4  UNL d   1      -0.185  -5.989   4.315  0.00  0.00    -0.007 A 
ATOM      6  C5  UNL d   1      -0.727  -5.980   3.030  0.00  0.00     0.039 A 
ENDROOT
BRANCH   4   7
ATOM      7  O   UNL d   1       1.681  -5.999   5.754  0.00  0.00    -0.526 OA
ATOM      8  H5  UNL d   1       2.652  -5.975   5.714  0.00  0.00     0.418 HD
ENDBRANCH   4   7
TORSDOF 1
ENDMDL
