MODEL 1
REMARK minimizedAffinity 4.59939957
REMARK minimizedRMSD -1
REMARK  1 active torsions:
REMARK  status: ('A' for Active; 'I' for Inactive)
REMARK    1  A    between atoms: C3_4  and  O_7 
ROOT
ATOM      1  C   UNL d   1       0.797   0.528   0.198  0.00  0.00    -0.033 A 
ATOM      2  C1  UNL d   1       0.516   1.306   1.322  0.00  0.00     0.039 A 
ATOM      3  C2  UNL d   1      -0.284   0.795   2.346  0.00  0.00    -0.080 A 
ATOM      4  C3  UNL d   1      -0.794  -0.496   2.234  0.00  0.00     0.150 A 
ATOM      5  C4  UNL d   1      -0.515  -1.279   1.119  0.00  0.00    -0.007 A 
ATOM      6  C5  UNL d   1       0.283  -0.766   0.097  0.00  0.00     0.039 A 
ENDROOT
BRANCH   4   7
ATOM      7  O   UNL d   1      -1.583  -1.036   3.205  0.00  0.00    -0.526 OA
ATOM      8  H5  UNL d   1      -1.714  -0.371   3.901  0.00  0.00     0.418 HD
ENDBRANCH   4   7
TORSDOF 1
ENDMDL
