MODEL 1
REMARK minimizedAffinity 0.289833069
REMARK minimizedRMSD -1
REMARK  1 active torsions:
REMARK  status: ('A' for Active; 'I' for Inactive)
REMARK    1  A    between atoms: C3_4  and  O_7 
ROOT
ATOM      1  C   UNL d   1       1.781  -5.998   5.545  0.00  0.00    -0.033 A 
ATOM      2  C1  UNL d   1       2.636  -6.000   4.441  0.00  0.00     0.039 A 
ATOM      3  C2  UNL d   1       2.110  -5.998   3.148  0.00  0.00    -0.080 A 
ATOM      4  C3  UNL d   1       0.729  -5.993   2.972  0.00  0.00     0.150 A 
ATOM      5  C4  UNL d   1      -0.129  -5.987   4.067  0.00  0.00    -0.007 A 
ATOM      6  C5  UNL d   1       0.398  -5.990   5.358  0.00  0.00     0.039 A 
ENDROOT
BRANCH   4   7
ATOM      7  O   UNL d   1       0.168  -5.996   1.729  0.00  0.00    -0.526 OA
ATOM      8  H5  UNL d   1       0.882  -6.029   1.070  0.00  0.00     0.418 HD
ENDBRANCH   4   7
TORSDOF 1
ENDMDL
