MODEL 1
REMARK minimizedAffinity 5.71605968
REMARK minimizedRMSD -1
REMARK  1 active torsions:
REMARK  status: ('A' for Active; 'I' for Inactive)
REMARK    1  A    between atoms: C3_4  and  O_7 
ROOT
ATOM      1  C   UNL d   1      -1.969  -5.994   0.783  0.00  0.00    -0.033 A 
ATOM      2  C1  UNL d   1      -2.513  -6.000   2.069  0.00  0.00     0.039 A 
ATOM      3  C2  UNL d   1      -1.673  -5.999   3.184  0.00  0.00    -0.080 A 
ATOM      4  C3  UNL d   1      -0.293  -5.990   3.000  0.00  0.00     0.150 A 
ATOM      5  C4  UNL d   1       0.256  -5.980   1.722  0.00  0.00    -0.007 A 
ATOM      6  C5  UNL d   1      -0.584  -5.982   0.610  0.00  0.00     0.039 A 
ENDROOT
BRANCH   4   7
ATOM      7  O   UNL d   1       0.567  -5.993   4.058  0.00  0.00    -0.526 OA
ATOM      8  H5  UNL d   1       0.047  -6.029   4.878  0.00  0.00     0.418 HD
ENDBRANCH   4   7
TORSDOF 1
ENDMDL
