MODEL 1
REMARK minimizedAffinity 5.73065138
REMARK minimizedRMSD -1
REMARK  1 active torsions:
REMARK  status: ('A' for Active; 'I' for Inactive)
REMARK    1  A    between atoms: C3_4  and  O_7 
ROOT
ATOM      1  C   UNL d   1      -0.127  -5.972   1.036  0.00  0.00    -0.033 A 
ATOM      2  C1  UNL d   1      -1.060  -5.983   2.075  0.00  0.00     0.039 A 
ATOM      3  C2  UNL d   1      -0.630  -5.985   3.403  0.00  0.00    -0.080 A 
ATOM      4  C3  UNL d   1       0.735  -5.976   3.679  0.00  0.00     0.150 A 
ATOM      5  C4  UNL d   1       1.670  -5.961   2.649  0.00  0.00    -0.007 A 
ATOM      6  C5  UNL d   1       1.239  -5.960   1.324  0.00  0.00     0.039 A 
ENDROOT
BRANCH   4   7
ATOM      7  O   UNL d   1       1.203  -5.983   4.959  0.00  0.00    -0.526 OA
ATOM      8  H5  UNL d   1       0.443  -6.022   5.564  0.00  0.00     0.418 HD
ENDBRANCH   4   7
TORSDOF 1
ENDMDL
