MODEL 1
REMARK minimizedAffinity 2.84949279
REMARK minimizedRMSD -1
REMARK  1 active torsions:
REMARK  status: ('A' for Active; 'I' for Inactive)
REMARK    1  A    between atoms: C3_4  and  O_7 
ROOT
ATOM      1  C   UNL d   1       1.662  -5.995   3.759  0.00  0.00    -0.033 A 
ATOM      2  C1  UNL d   1       1.442  -5.983   2.380  0.00  0.00     0.039 A 
ATOM      3  C2  UNL d   1       0.138  -5.980   1.879  0.00  0.00    -0.080 A 
ATOM      4  C3  UNL d   1      -0.934  -5.987   2.766  0.00  0.00     0.150 A 
ATOM      5  C4  UNL d   1      -0.722  -5.994   4.141  0.00  0.00    -0.007 A 
ATOM      6  C5  UNL d   1       0.580  -5.999   4.639  0.00  0.00     0.039 A 
ENDROOT
BRANCH   4   7
ATOM      7  O   UNL d   1      -2.224  -5.988   2.325  0.00  0.00    -0.526 OA
ATOM      8  H5  UNL d   1      -2.217  -6.012   1.354  0.00  0.00     0.418 HD
ENDBRANCH   4   7
TORSDOF 1
ENDMDL
