MODEL 1
REMARK minimizedAffinity 5.26149321
REMARK minimizedRMSD -1
REMARK  1 active torsions:
REMARK  status: ('A' for Active; 'I' for Inactive)
REMARK    1  A    between atoms: C3_4  and  O_7 
ROOT
ATOM      1  C   UNL d   1       0.894  -5.963   1.847  0.00  0.00    -0.033 A 
ATOM      2  C1  UNL d   1       2.166  -5.981   2.422  0.00  0.00     0.039 A 
ATOM      3  C2  UNL d   1       2.307  -5.994   3.811  0.00  0.00    -0.080 A 
ATOM      4  C3  UNL d   1       1.169  -5.989   4.613  0.00  0.00     0.150 A 
ATOM      5  C4  UNL d   1      -0.102  -5.975   4.047  0.00  0.00    -0.007 A 
ATOM      6  C5  UNL d   1      -0.240  -5.961   2.659  0.00  0.00     0.039 A 
ENDROOT
BRANCH   4   7
ATOM      7  O   UNL d   1       1.255  -5.996   5.973  0.00  0.00    -0.526 OA
ATOM      8  H5  UNL d   1       2.195  -5.977   6.222  0.00  0.00     0.418 HD
ENDBRANCH   4   7
TORSDOF 1
ENDMDL
