MODEL 1
REMARK minimizedAffinity 1.0675739
REMARK minimizedRMSD -1
REMARK  1 active torsions:
REMARK  status: ('A' for Active; 'I' for Inactive)
REMARK    1  A    between atoms: C3_4  and  O_7 
ROOT
ATOM      1  C   UNL d   1      -0.573  -6.000   4.469  0.00  0.00    -0.033 A 
ATOM      2  C1  UNL d   1       0.561  -5.994   5.283  0.00  0.00     0.039 A 
ATOM      3  C2  UNL d   1       1.835  -5.992   4.711  0.00  0.00    -0.080 A 
ATOM      4  C3  UNL d   1       1.960  -5.994   3.324  0.00  0.00     0.150 A 
ATOM      5  C4  UNL d   1       0.835  -5.997   2.507  0.00  0.00    -0.007 A 
ATOM      6  C5  UNL d   1      -0.436  -6.000   3.080  0.00  0.00     0.039 A 
ENDROOT
BRANCH   4   7
ATOM      7  O   UNL d   1       3.182  -5.997   2.720  0.00  0.00    -0.526 OA
ATOM      8  H5  UNL d   1       3.867  -6.025   3.409  0.00  0.00     0.418 HD
ENDBRANCH   4   7
TORSDOF 1
ENDMDL
