MODEL 1
REMARK minimizedAffinity 3.91928291
REMARK minimizedRMSD -1
REMARK  1 active torsions:
REMARK  status: ('A' for Active; 'I' for Inactive)
REMARK    1  A    between atoms: C3_4  and  O_7 
ROOT
ATOM      1  C   UNL d   1       0.264   0.981   0.098  0.00  0.00    -0.033 A 
ATOM      2  C1  UNL d   1       1.054   0.079  -0.618  0.00  0.00     0.039 A 
ATOM      3  C2  UNL d   1       2.194  -0.472  -0.030  0.00  0.00    -0.080 A 
ATOM      4  C3  UNL d   1       2.532  -0.115   1.272  0.00  0.00     0.150 A 
ATOM      5  C4  UNL d   1       1.747   0.779   1.993  0.00  0.00    -0.007 A 
ATOM      6  C5  UNL d   1       0.609   1.329   1.404  0.00  0.00     0.039 A 
ENDROOT
BRANCH   4   7
ATOM      7  O   UNL d   1       3.638  -0.623   1.886  0.00  0.00    -0.526 OA
ATOM      8  H5  UNL d   1       4.099  -1.205   1.258  0.00  0.00     0.418 HD
ENDBRANCH   4   7
TORSDOF 1
ENDMDL
