MODEL 1
REMARK minimizedAffinity 1.70780003
REMARK minimizedRMSD -1
REMARK  1 active torsions:
REMARK  status: ('A' for Active; 'I' for Inactive)
REMARK    1  A    between atoms: C3_4  and  O_7 
ROOT
ATOM      1  C   UNL d   1      -0.614  -5.998   3.318  0.00  0.00    -0.033 A 
ATOM      2  C1  UNL d   1       0.126  -5.992   4.502  0.00  0.00     0.039 A 
ATOM      3  C2  UNL d   1       1.521  -5.991   4.456  0.00  0.00    -0.080 A 
ATOM      4  C3  UNL d   1       2.164  -5.995   3.221  0.00  0.00     0.150 A 
ATOM      5  C4  UNL d   1       1.434  -5.997   2.037  0.00  0.00    -0.007 A 
ATOM      6  C5  UNL d   1       0.041  -5.999   2.085  0.00  0.00     0.039 A 
ENDROOT
BRANCH   4   7
ATOM      7  O   UNL d   1       3.524  -5.999   3.126  0.00  0.00    -0.526 OA
ATOM      8  H5  UNL d   1       3.895  -6.026   4.024  0.00  0.00     0.418 HD
ENDBRANCH   4   7
TORSDOF 1
ENDMDL
