MODEL 1
REMARK minimizedAffinity 0.182246208
REMARK minimizedRMSD -1
REMARK  1 active torsions:
REMARK  status: ('A' for Active; 'I' for Inactive)
REMARK    1  A    between atoms: C3_4  and  O_7 
ROOT
ATOM      1  C   UNL d   1       0.983  -5.998   1.860  0.00  0.00    -0.033 A 
ATOM      2  C1  UNL d   1      -0.208  -5.993   2.589  0.00  0.00     0.039 A 
ATOM      3  C2  UNL d   1      -0.175  -5.992   3.985  0.00  0.00    -0.080 A 
ATOM      4  C3  UNL d   1       1.054  -5.994   4.639  0.00  0.00     0.150 A 
ATOM      5  C4  UNL d   1       2.244  -5.995   3.919  0.00  0.00    -0.007 A 
ATOM      6  C5  UNL d   1       2.209  -5.997   2.526  0.00  0.00     0.039 A 
ENDROOT
BRANCH   4   7
ATOM      7  O   UNL d   1       1.137  -5.998   6.000  0.00  0.00    -0.526 OA
ATOM      8  H5  UNL d   1       0.236  -6.026   6.363  0.00  0.00     0.418 HD
ENDBRANCH   4   7
TORSDOF 1
ENDMDL
