MODEL 1
REMARK minimizedAffinity -1.56053734
REMARK minimizedRMSD -1
REMARK  1 active torsions:
REMARK  status: ('A' for Active; 'I' for Inactive)
REMARK    1  A    between atoms: C3_4  and  O_7 
ROOT
ATOM      1  C   UNL d   1      -1.405  -5.999   2.395  0.00  0.00    -0.033 A 
ATOM      2  C1  UNL d   1      -0.691  -6.000   1.195  0.00  0.00     0.039 A 
ATOM      3  C2  UNL d   1       0.705  -5.995   1.212  0.00  0.00    -0.080 A 
ATOM      4  C3  UNL d   1       1.374  -5.991   2.433  0.00  0.00     0.150 A 
ATOM      5  C4  UNL d   1       0.669  -5.994   3.632  0.00  0.00    -0.007 A 
ATOM      6  C5  UNL d   1      -0.725  -5.998   3.613  0.00  0.00     0.039 A 
ENDROOT
BRANCH   4   7
ATOM      7  O   UNL d   1       2.736  -5.982   2.500  0.00  0.00    -0.526 OA
ATOM      8  H5  UNL d   1       3.088  -5.952   1.594  0.00  0.00     0.418 HD
ENDBRANCH   4   7
TORSDOF 1
ENDMDL
