MODEL 1
REMARK minimizedAffinity -0.826196074
REMARK minimizedRMSD -1
REMARK  0 active torsions:
REMARK  status: ('A' for Active; 'I' for Inactive)
ROOT
ATOM      1  C1  DEN d   1      -1.740   1.010  -1.553  0.00  0.00     0.130 A 
ATOM      2  C2  DEN d   1      -3.126   0.865  -1.118  0.00  0.00    -0.031 A 
ATOM      3  C3  DEN d   1      -3.121   0.256   0.227  0.00  0.00     0.027 A 
ATOM      4  C4  DEN d   1      -1.112  -0.470   1.672  0.00  0.00     0.027 A 
ATOM      5  C5  DEN d   1       0.262  -0.556   1.722  0.00  0.00    -0.003 A 
ATOM      6  C6  DEN d   1       1.057  -0.161   0.679  0.00  0.00     0.001 A 
ATOM      7  C7  DEN d   1       0.486   0.380  -0.442  0.00  0.00     0.017 A 
ATOM      8  C8  DEN d   1      -0.899   0.464  -0.503  0.00  0.00    -0.094 A 
ATOM      9  C9  DEN d   1      -1.685   0.071   0.567  0.00  0.00    -0.072 A 
ENDROOT
TORSDOF 0
ENDMDL
