MODEL 1
REMARK minimizedAffinity 4.32957172
REMARK minimizedRMSD -1
REMARK  0 active torsions:
REMARK  status: ('A' for Active; 'I' for Inactive)
ROOT
ATOM      1  C1  DEN d   1      -3.806  -0.549   2.900  0.00  0.00     0.130 A 
ATOM      2  C2  DEN d   1      -4.309   0.560   2.093  0.00  0.00    -0.031 A 
ATOM      3  C3  DEN d   1      -3.148   1.331   1.604  0.00  0.00     0.027 A 
ATOM      4  C4  DEN d   1      -0.636   0.915   2.011  0.00  0.00     0.027 A 
ATOM      5  C5  DEN d   1       0.280   0.102   2.642  0.00  0.00    -0.003 A 
ATOM      6  C6  DEN d   1      -0.100  -0.956   3.425  0.00  0.00     0.001 A 
ATOM      7  C7  DEN d   1      -1.430  -1.256   3.560  0.00  0.00     0.017 A 
ATOM      8  C8  DEN d   1      -2.359  -0.437   2.933  0.00  0.00    -0.094 A 
ATOM      9  C9  DEN d   1      -1.954   0.620   2.136  0.00  0.00    -0.072 A 
ENDROOT
TORSDOF 0
ENDMDL
