MODEL 1
REMARK minimizedAffinity 5.09213495
REMARK minimizedRMSD -1
REMARK  0 active torsions:
REMARK  status: ('A' for Active; 'I' for Inactive)
ROOT
ATOM      1  C1  DEN d   1      -1.330  -0.341   2.980  0.00  0.00     0.130 A 
ATOM      2  C2  DEN d   1      -1.863  -0.717   1.673  0.00  0.00    -0.031 A 
ATOM      3  C3  DEN d   1      -1.083  -0.006   0.641  0.00  0.00     0.027 A 
ATOM      4  C4  DEN d   1       0.891   1.628   0.937  0.00  0.00     0.027 A 
ATOM      5  C5  DEN d   1       1.693   2.265   1.858  0.00  0.00    -0.003 A 
ATOM      6  C6  DEN d   1       1.522   2.105   3.208  0.00  0.00     0.001 A 
ATOM      7  C7  DEN d   1       0.556   1.254   3.674  0.00  0.00     0.017 A 
ATOM      8  C8  DEN d   1      -0.261   0.614   2.751  0.00  0.00    -0.094 A 
ATOM      9  C9  DEN d   1      -0.065   0.779   1.391  0.00  0.00    -0.072 A 
ENDROOT
TORSDOF 0
ENDMDL
