MODEL 1
REMARK minimizedAffinity 7.69224882
REMARK minimizedRMSD -1
REMARK  0 active torsions:
REMARK  status: ('A' for Active; 'I' for Inactive)
ROOT
ATOM      1  C1  DEN d   1      -3.226   0.766  -0.794  0.00  0.00     0.130 A 
ATOM      2  C2  DEN d   1      -1.856   0.601  -1.271  0.00  0.00    -0.031 A 
ATOM      3  C3  DEN d   1      -0.986   0.388  -0.096  0.00  0.00     0.027 A 
ATOM      4  C4  DEN d   1      -1.626   0.294   2.401  0.00  0.00     0.027 A 
ATOM      5  C5  DEN d   1      -2.667   0.391   3.297  0.00  0.00    -0.003 A 
ATOM      6  C6  DEN d   1      -3.951   0.652   2.899  0.00  0.00     0.001 A 
ATOM      7  C7  DEN d   1      -4.236   0.780   1.565  0.00  0.00     0.017 A 
ATOM      8  C8  DEN d   1      -3.190   0.690   0.656  0.00  0.00    -0.094 A 
ATOM      9  C9  DEN d   1      -1.901   0.414   1.077  0.00  0.00    -0.072 A 
ENDROOT
TORSDOF 0
ENDMDL
