MODEL 1
REMARK minimizedAffinity 7.44462204
REMARK minimizedRMSD -1
REMARK  0 active torsions:
REMARK  status: ('A' for Active; 'I' for Inactive)
ROOT
ATOM      1  C1  DEN d   1      -1.122  -0.425  -0.223  0.00  0.00     0.130 A 
ATOM      2  C2  DEN d   1      -1.917   0.040  -1.356  0.00  0.00    -0.031 A 
ATOM      3  C3  DEN d   1      -3.207   0.538  -0.836  0.00  0.00     0.027 A 
ATOM      4  C4  DEN d   1      -4.042   0.637   1.603  0.00  0.00     0.027 A 
ATOM      5  C5  DEN d   1      -3.724   0.346   2.911  0.00  0.00    -0.003 A 
ATOM      6  C6  DEN d   1      -2.540  -0.249   3.260  0.00  0.00     0.001 A 
ATOM      7  C7  DEN d   1      -1.611  -0.530   2.293  0.00  0.00     0.017 A 
ATOM      8  C8  DEN d   1      -1.928  -0.247   0.971  0.00  0.00    -0.094 A 
ATOM      9  C9  DEN d   1      -3.125   0.365   0.640  0.00  0.00    -0.072 A 
ENDROOT
TORSDOF 0
ENDMDL
