MODEL 1
REMARK minimizedAffinity 7.41184664
REMARK minimizedRMSD -1
REMARK  0 active torsions:
REMARK  status: ('A' for Active; 'I' for Inactive)
ROOT
ATOM      1  C1  DEN d   1      -0.621  -0.029   1.458  0.00  0.00     0.130 A 
ATOM      2  C2  DEN d   1      -1.539  -0.022   2.594  0.00  0.00    -0.031 A 
ATOM      3  C3  DEN d   1      -2.902   0.216   2.078  0.00  0.00     0.027 A 
ATOM      4  C4  DEN d   1      -3.677   0.568  -0.356  0.00  0.00     0.027 A 
ATOM      5  C5  DEN d   1      -3.259   0.658  -1.665  0.00  0.00    -0.003 A 
ATOM      6  C6  DEN d   1      -1.940   0.561  -2.019  0.00  0.00     0.001 A 
ATOM      7  C7  DEN d   1      -0.995   0.322  -1.056  0.00  0.00     0.017 A 
ATOM      8  C8  DEN d   1      -1.408   0.237   0.267  0.00  0.00    -0.094 A 
ATOM      9  C9  DEN d   1      -2.748   0.326   0.603  0.00  0.00    -0.072 A 
ENDROOT
TORSDOF 0
ENDMDL
