MODEL 1
REMARK minimizedAffinity 7.21465302
REMARK minimizedRMSD -1
REMARK  0 active torsions:
REMARK  status: ('A' for Active; 'I' for Inactive)
ROOT
ATOM      1  C1  DEN d   1      -2.251  -0.663   2.750  0.00  0.00     0.130 A 
ATOM      2  C2  DEN d   1      -1.145   0.200   2.344  0.00  0.00    -0.031 A 
ATOM      3  C3  DEN d   1      -1.649   1.137   1.320  0.00  0.00     0.027 A 
ATOM      4  C4  DEN d   1      -4.023   1.337   0.332  0.00  0.00     0.027 A 
ATOM      5  C5  DEN d   1      -5.296   0.813   0.356  0.00  0.00    -0.003 A 
ATOM      6  C6  DEN d   1      -5.633  -0.252   1.148  0.00  0.00     0.001 A 
ATOM      7  C7  DEN d   1      -4.695  -0.800   1.983  0.00  0.00     0.017 A 
ATOM      8  C8  DEN d   1      -3.407  -0.282   1.959  0.00  0.00    -0.094 A 
ATOM      9  C9  DEN d   1      -3.090   0.803   1.160  0.00  0.00    -0.072 A 
ENDROOT
TORSDOF 0
ENDMDL
