MODEL 1
REMARK minimizedAffinity -3.84923029
REMARK minimizedRMSD -1
REMARK  0 active torsions:
REMARK  status: ('A' for Active; 'I' for Inactive)
ROOT
ATOM      1  C1  DEN d   1       1.966   0.009   0.740  0.00  0.00     0.130 A 
ATOM      2  C2  DEN d   1       1.199   0.133   1.976  0.00  0.00    -0.031 A 
ATOM      3  C3  DEN d   1      -0.179   0.524   1.621  0.00  0.00     0.027 A 
ATOM      4  C4  DEN d   1      -1.197   0.945  -0.711  0.00  0.00     0.027 A 
ATOM      5  C5  DEN d   1      -0.933   0.975  -2.062  0.00  0.00    -0.003 A 
ATOM      6  C6  DEN d   1       0.314   0.720  -2.568  0.00  0.00     0.001 A 
ATOM      7  C7  DEN d   1       1.335   0.380  -1.719  0.00  0.00     0.017 A 
ATOM      8  C8  DEN d   1       1.077   0.355  -0.355  0.00  0.00    -0.094 A 
ATOM      9  C9  DEN d   1      -0.193   0.604   0.136  0.00  0.00    -0.072 A 
ENDROOT
TORSDOF 0
ENDMDL
