MODEL 1
REMARK minimizedAffinity 5.0217514
REMARK minimizedRMSD -1
REMARK  0 active torsions:
REMARK  status: ('A' for Active; 'I' for Inactive)
ROOT
ATOM      1  C1  DEN d   1       0.243  -0.394  -1.152  0.00  0.00     0.130 A 
ATOM      2  C2  DEN d   1      -1.181  -0.086  -1.050  0.00  0.00    -0.031 A 
ATOM      3  C3  DEN d   1      -1.433   0.468   0.295  0.00  0.00     0.027 A 
ATOM      4  C4  DEN d   1       0.236   0.882   2.218  0.00  0.00     0.027 A 
ATOM      5  C5  DEN d   1       1.553   0.767   2.606  0.00  0.00    -0.003 A 
ATOM      6  C6  DEN d   1       2.511   0.230   1.788  0.00  0.00     0.001 A 
ATOM      7  C7  DEN d   1       2.175  -0.171   0.521  0.00  0.00     0.017 A 
ATOM      8  C8  DEN d   1       0.848  -0.065   0.126  0.00  0.00    -0.094 A 
ATOM      9  C9  DEN d   1      -0.104   0.492   0.963  0.00  0.00    -0.072 A 
ENDROOT
TORSDOF 0
ENDMDL
