MODEL 1
REMARK minimizedAffinity 3.47653961
REMARK minimizedRMSD -1
REMARK  0 active torsions:
REMARK  status: ('A' for Active; 'I' for Inactive)
ROOT
ATOM      1  C1  DEN d   1       2.504   0.690   1.505  0.00  0.00     0.130 A 
ATOM      2  C2  DEN d   1       1.921   0.339   2.797  0.00  0.00    -0.031 A 
ATOM      3  C3  DEN d   1       0.460   0.214   2.620  0.00  0.00     0.027 A 
ATOM      4  C4  DEN d   1      -0.948   0.524   0.481  0.00  0.00     0.027 A 
ATOM      5  C5  DEN d   1      -0.899   0.837  -0.859  0.00  0.00    -0.003 A 
ATOM      6  C6  DEN d   1       0.273   1.154  -1.493  0.00  0.00     0.001 A 
ATOM      7  C7  DEN d   1       1.452   1.121  -0.796  0.00  0.00     0.017 A 
ATOM      8  C8  DEN d   1       1.410   0.813   0.558  0.00  0.00    -0.094 A 
ATOM      9  C9  DEN d   1       0.216   0.483   1.177  0.00  0.00    -0.072 A 
ENDROOT
TORSDOF 0
ENDMDL
