MODEL 1
REMARK minimizedAffinity -0.501978874
REMARK minimizedRMSD -1
REMARK  0 active torsions:
REMARK  status: ('A' for Active; 'I' for Inactive)
ROOT
ATOM      1  C1  DEN d   1      -2.068   0.713   0.514  0.00  0.00     0.130 A 
ATOM      2  C2  DEN d   1      -1.839   0.599  -0.924  0.00  0.00    -0.031 A 
ATOM      3  C3  DEN d   1      -0.397   0.368  -1.139  0.00  0.00     0.027 A 
ATOM      4  C4  DEN d   1       1.494   0.173   0.605  0.00  0.00     0.027 A 
ATOM      5  C5  DEN d   1       1.789   0.213   1.949  0.00  0.00    -0.003 A 
ATOM      6  C6  DEN d   1       0.832   0.455   2.900  0.00  0.00     0.001 A 
ATOM      7  C7  DEN d   1      -0.474   0.620   2.522  0.00  0.00     0.017 A 
ATOM      8  C8  DEN d   1      -0.778   0.588   1.167  0.00  0.00    -0.094 A 
ATOM      9  C9  DEN d   1       0.201   0.331   0.222  0.00  0.00    -0.072 A 
ENDROOT
TORSDOF 0
ENDMDL
