MODEL 1
REMARK minimizedAffinity -4.31044865
REMARK minimizedRMSD -1
REMARK  0 active torsions:
REMARK  status: ('A' for Active; 'I' for Inactive)
ROOT
ATOM      1  C1  DEN d   1      -2.070  -0.576   2.044  0.00  0.00     0.130 A 
ATOM      2  C2  DEN d   1      -1.183  -0.568   3.203  0.00  0.00    -0.031 A 
ATOM      3  C3  DEN d   1       0.159  -0.153   2.748  0.00  0.00     0.027 A 
ATOM      4  C4  DEN d   1       0.943   0.481   0.374  0.00  0.00     0.027 A 
ATOM      5  C5  DEN d   1       0.551   0.613  -0.940  0.00  0.00    -0.003 A 
ATOM      6  C6  DEN d   1      -0.723   0.327  -1.354  0.00  0.00     0.001 A 
ATOM      7  C7  DEN d   1      -1.663  -0.061  -0.437  0.00  0.00     0.017 A 
ATOM      8  C8  DEN d   1      -1.274  -0.204   0.888  0.00  0.00    -0.094 A 
ATOM      9  C9  DEN d   1       0.016   0.101   1.289  0.00  0.00    -0.072 A 
ENDROOT
TORSDOF 0
ENDMDL
