MODEL 1
REMARK minimizedAffinity -0.400011092
REMARK minimizedRMSD -1
REMARK  0 active torsions:
REMARK  status: ('A' for Active; 'I' for Inactive)
ROOT
ATOM      1  C1  DEN d   1       0.308   0.169   3.408  0.00  0.00     0.130 A 
ATOM      2  C2  DEN d   1      -0.734  -0.832   3.619  0.00  0.00    -0.031 A 
ATOM      3  C3  DEN d   1      -1.211  -1.281   2.296  0.00  0.00     0.027 A 
ATOM      4  C4  DEN d   1      -0.438  -0.530  -0.048  0.00  0.00     0.027 A 
ATOM      5  C5  DEN d   1       0.413   0.307  -0.734  0.00  0.00    -0.003 A 
ATOM      6  C6  DEN d   1       1.258   1.174  -0.094  0.00  0.00     0.001 A 
ATOM      7  C7  DEN d   1       1.302   1.192   1.275  0.00  0.00     0.017 A 
ATOM      8  C8  DEN d   1       0.442   0.356   1.974  0.00  0.00    -0.094 A 
ATOM      9  C9  DEN d   1      -0.396  -0.522   1.309  0.00  0.00    -0.072 A 
ENDROOT
TORSDOF 0
ENDMDL
