MODEL 1
REMARK minimizedAffinity -1.0973326
REMARK minimizedRMSD -1
REMARK  1 active torsions:
REMARK  status: ('A' for Active; 'I' for Inactive)
REMARK    1  A    between atoms: C3_4  and  O_7 
ROOT
ATOM      1  C   UNL d   1       5.661   5.999   3.922  0.00  0.00    -0.033 A 
ATOM      2  C1  UNL d   1       5.942   5.592   5.228  0.00  0.00     0.039 A 
ATOM      3  C2  UNL d   1       5.007   4.839   5.943  0.00  0.00    -0.080 A 
ATOM      4  C3  UNL d   1       3.799   4.500   5.340  0.00  0.00     0.150 A 
ATOM      5  C4  UNL d   1       3.515   4.899   4.038  0.00  0.00    -0.007 A 
ATOM      6  C5  UNL d   1       4.448   5.651   3.327  0.00  0.00     0.039 A 
ENDROOT
BRANCH   4   7
ATOM      7  O   UNL d   1       2.854   3.771   6.000  0.00  0.00    -0.526 OA
ATOM      8  H5  UNL d   1       3.176   3.591   6.899  0.00  0.00     0.418 HD
ENDBRANCH   4   7
TORSDOF 1
ENDMDL
