MODEL 1
REMARK minimizedAffinity 5.0644989
REMARK minimizedRMSD -1
REMARK  1 active torsions:
REMARK  status: ('A' for Active; 'I' for Inactive)
REMARK    1  A    between atoms: C3_4  and  O_7 
ROOT
ATOM      1  C   UNL d   1      -3.973   4.857  -5.993  0.00  0.00    -0.033 A 
ATOM      2  C1  UNL d   1      -5.367   4.775  -6.000  0.00  0.00     0.039 A 
ATOM      3  C2  UNL d   1      -6.000   3.579  -5.655  0.00  0.00    -0.080 A 
ATOM      4  C3  UNL d   1      -5.228   2.474  -5.305  0.00  0.00     0.150 A 
ATOM      5  C4  UNL d   1      -3.839   2.549  -5.293  0.00  0.00    -0.007 A 
ATOM      6  C5  UNL d   1      -3.209   3.744  -5.639  0.00  0.00     0.039 A 
ENDROOT
BRANCH   4   7
ATOM      7  O   UNL d   1      -5.801   1.284  -4.965  0.00  0.00    -0.526 OA
ATOM      8  H5  UNL d   1      -6.765   1.373  -5.046  0.00  0.00     0.418 HD
ENDBRANCH   4   7
TORSDOF 1
ENDMDL
