MODEL 1
REMARK minimizedAffinity 2.24779654
REMARK minimizedRMSD -1
REMARK  1 active torsions:
REMARK  status: ('A' for Active; 'I' for Inactive)
REMARK    1  A    between atoms: C3_4  and  O_7 
ROOT
ATOM      1  C   UNL d   1       5.941   5.998   5.163  0.00  0.00    -0.033 A 
ATOM      2  C1  UNL d   1       4.823   5.995   6.000  0.00  0.00     0.039 A 
ATOM      3  C2  UNL d   1       3.539   5.994   5.452  0.00  0.00    -0.080 A 
ATOM      4  C3  UNL d   1       3.386   5.996   4.068  0.00  0.00     0.150 A 
ATOM      5  C4  UNL d   1       4.495   5.995   3.229  0.00  0.00    -0.007 A 
ATOM      6  C5  UNL d   1       5.777   5.997   3.778  0.00  0.00     0.039 A 
ENDROOT
BRANCH   4   7
ATOM      7  O   UNL d   1       2.153   6.000   3.487  0.00  0.00    -0.526 OA
ATOM      8  H5  UNL d   1       1.482   6.029   4.190  0.00  0.00     0.418 HD
ENDBRANCH   4   7
TORSDOF 1
ENDMDL
