MODEL 1
REMARK minimizedAffinity 4.01758862
REMARK minimizedRMSD -1
REMARK  1 active torsions:
REMARK  status: ('A' for Active; 'I' for Inactive)
REMARK    1  A    between atoms: N_2  and  C1_3 
ROOT
ATOM      1  C1  UNL d   1       4.444   1.912  -0.843  0.00  0.00     0.143 A 
ATOM      2  C2  UNL d   1       4.961   1.108  -1.865  0.00  0.00    -0.057 A 
ATOM      3  C3  UNL d   1       4.444  -0.169  -2.114  0.00  0.00     0.033 A 
ATOM      4  C4  UNL d   1       3.418  -0.678  -1.325  0.00  0.00    -0.042 A 
ATOM      5  C5  UNL d   1       2.906   0.094  -0.289  0.00  0.00     0.033 A 
ATOM      6  C6  UNL d   1       3.421   1.372  -0.048  0.00  0.00    -0.057 A 
ENDROOT
BRANCH   1   7
ATOM      7  N   UNL d   1       4.980   3.151  -0.482  0.00  0.00    -0.732 N 
ATOM      8  C   UNL d   1       5.991   3.244   0.549  0.00  0.00     0.284 C 
ATOM      9  H3  UNL d   1       5.150   3.750  -1.287  0.00  0.00     0.395 HD
ENDBRANCH   1   7
TORSDOF 1
ENDMDL
