MODEL 1
REMARK minimizedAffinity 7.82624006
REMARK minimizedRMSD -1
REMARK  1 active torsions:
REMARK  status: ('A' for Active; 'I' for Inactive)
REMARK    1  A    between atoms: N_2  and  C1_3 
ROOT
ATOM      1  C1  UNL d   1       4.096   1.513  -0.130  0.00  0.00     0.143 A 
ATOM      2  C2  UNL d   1       3.511   0.362  -0.671  0.00  0.00    -0.057 A 
ATOM      3  C3  UNL d   1       2.211  -0.024  -0.323  0.00  0.00     0.033 A 
ATOM      4  C4  UNL d   1       1.481   0.721   0.597  0.00  0.00    -0.042 A 
ATOM      5  C5  UNL d   1       2.051   1.854   1.166  0.00  0.00     0.033 A 
ATOM      6  C6  UNL d   1       3.347   2.238   0.809  0.00  0.00    -0.057 A 
ENDROOT
BRANCH   1   7
ATOM      7  N   UNL d   1       5.419   1.895  -0.361  0.00  0.00    -0.732 N 
ATOM      8  C   UNL d   1       6.000   3.011   0.353  0.00  0.00     0.284 C 
ATOM      9  H3  UNL d   1       6.042   1.097  -0.462  0.00  0.00     0.395 HD
ENDBRANCH   1   7
TORSDOF 1
ENDMDL
