MODEL 1
REMARK minimizedAffinity -0.903186262
REMARK minimizedRMSD -1
REMARK  1 active torsions:
REMARK  status: ('A' for Active; 'I' for Inactive)
REMARK    1  A    between atoms: N_2  and  C1_3 
ROOT
ATOM      1  C1  UNL d   1       3.801   0.986  -0.423  0.00  0.00     0.143 A 
ATOM      2  C2  UNL d   1       3.305   2.119   0.231  0.00  0.00    -0.057 A 
ATOM      3  C3  UNL d   1       4.143   2.943   0.992  0.00  0.00     0.033 A 
ATOM      4  C4  UNL d   1       5.490   2.630   1.137  0.00  0.00    -0.042 A 
ATOM      5  C5  UNL d   1       6.000   1.495   0.516  0.00  0.00     0.033 A 
ATOM      6  C6  UNL d   1       5.160   0.680  -0.248  0.00  0.00    -0.057 A 
ENDROOT
BRANCH   1   7
ATOM      7  N   UNL d   1       2.999   0.073  -1.114  0.00  0.00    -0.732 N 
ATOM      8  C   UNL d   1       2.998  -1.328  -0.751  0.00  0.00     0.284 C 
ATOM      9  H3  UNL d   1       2.078   0.449  -1.327  0.00  0.00     0.395 HD
ENDBRANCH   1   7
TORSDOF 1
ENDMDL
