MODEL 1
REMARK minimizedAffinity 5.13113308
REMARK minimizedRMSD -1
REMARK  1 active torsions:
REMARK  status: ('A' for Active; 'I' for Inactive)
REMARK    1  A    between atoms: N_2  and  C1_3 
ROOT
ATOM      1  C1  UNL d   1       2.743   4.066   5.893  0.00  0.00     0.143 A 
ATOM      2  C2  UNL d   1       4.054   3.580   5.854  0.00  0.00    -0.057 A 
ATOM      3  C3  UNL d   1       4.320   2.205   5.857  0.00  0.00     0.033 A 
ATOM      4  C4  UNL d   1       3.275   1.290   5.930  0.00  0.00    -0.042 A 
ATOM      5  C5  UNL d   1       1.965   1.750   5.995  0.00  0.00     0.033 A 
ATOM      6  C6  UNL d   1       1.706   3.124   5.984  0.00  0.00    -0.057 A 
ENDROOT
BRANCH   1   7
ATOM      7  N   UNL d   1       2.419   5.421   5.992  0.00  0.00    -0.732 N 
ATOM      8  C   UNL d   1       1.053   5.867   5.816  0.00  0.00     0.284 C 
ATOM      9  H3  UNL d   1       2.913   5.885   6.751  0.00  0.00     0.395 HD
ENDBRANCH   1   7
TORSDOF 1
ENDMDL
