MODEL 1
REMARK minimizedAffinity -1.64798498
REMARK minimizedRMSD -1
REMARK  0 active torsions:
REMARK  status: ('A' for Active; 'I' for Inactive)
ROOT
ATOM      1  C   UNL d   1      -0.839  -3.396   2.963  0.00  0.00     0.020 A 
ATOM      2  C1  UNL d   1      -0.203  -4.636   2.948  0.00  0.00     0.020 A 
ATOM      3  C2  UNL d   1       0.949  -4.821   2.180  0.00  0.00     0.034 A 
ATOM      4  C3  UNL d   1       1.467  -3.763   1.424  0.00  0.00     0.017 A 
ATOM      5  C4  UNL d   1       0.828  -2.519   1.439  0.00  0.00     0.017 A 
ATOM      6  C5  UNL d   1      -0.325  -2.339   2.210  0.00  0.00     0.034 A 
ATOM      7 Cl   UNL d   1       1.409  -1.167   0.533  0.00  0.00    -0.070 Cl
ATOM      8 Cl1  UNL d   1       2.895  -4.063   0.497  0.00  0.00    -0.070 Cl
ENDROOT
TORSDOF 0
ENDMDL
