MODEL 1
REMARK minimizedAffinity 2.98389912
REMARK minimizedRMSD -1
REMARK  0 active torsions:
REMARK  status: ('A' for Active; 'I' for Inactive)
ROOT
ATOM      1  C   UNL d   1      -0.027   0.352   1.866  0.00  0.00     0.020 A 
ATOM      2  C1  UNL d   1      -0.515  -0.948   1.734  0.00  0.00     0.020 A 
ATOM      3  C2  UNL d   1       0.217  -1.899   1.019  0.00  0.00     0.034 A 
ATOM      4  C3  UNL d   1       1.440  -1.552   0.434  0.00  0.00     0.017 A 
ATOM      5  C4  UNL d   1       1.929  -0.247   0.567  0.00  0.00     0.017 A 
ATOM      6  C5  UNL d   1       1.192   0.701   1.284  0.00  0.00     0.034 A 
ATOM      7 Cl   UNL d   1       3.430   0.256  -0.127  0.00  0.00    -0.070 Cl
ATOM      8 Cl1  UNL d   1       2.291  -2.778  -0.436  0.00  0.00    -0.070 Cl
ENDROOT
TORSDOF 0
ENDMDL
