MODEL 1
REMARK minimizedAffinity 3.42182279
REMARK minimizedRMSD -1
REMARK  0 active torsions:
REMARK  status: ('A' for Active; 'I' for Inactive)
ROOT
ATOM      1  C   UNL d   1       2.110  -3.018   0.477  0.00  0.00     0.020 A 
ATOM      2  C1  UNL d   1       2.314  -1.714   0.030  0.00  0.00     0.020 A 
ATOM      3  C2  UNL d   1       1.385  -0.717   0.335  0.00  0.00     0.034 A 
ATOM      4  C3  UNL d   1       0.247  -1.024   1.091  0.00  0.00     0.017 A 
ATOM      5  C4  UNL d   1       0.043  -2.334   1.540  0.00  0.00     0.017 A 
ATOM      6  C5  UNL d   1       0.977  -3.328   1.231  0.00  0.00     0.034 A 
ATOM      7 Cl   UNL d   1      -1.336  -2.788   2.477  0.00  0.00    -0.070 Cl
ATOM      8 Cl1  UNL d   1      -0.860   0.258   1.432  0.00  0.00    -0.070 Cl
ENDROOT
TORSDOF 0
ENDMDL
