MODEL 1
REMARK minimizedAffinity -1.10829413
REMARK minimizedRMSD -1
REMARK  0 active torsions:
REMARK  status: ('A' for Active; 'I' for Inactive)
ROOT
ATOM      1  C   UNL d   1       2.683  -4.237   0.341  0.00  0.00     0.020 A 
ATOM      2  C1  UNL d   1       1.572  -4.294   1.182  0.00  0.00     0.020 A 
ATOM      3  C2  UNL d   1       0.815  -3.144   1.418  0.00  0.00     0.034 A 
ATOM      4  C3  UNL d   1       1.168  -1.933   0.812  0.00  0.00     0.017 A 
ATOM      5  C4  UNL d   1       2.283  -1.877  -0.032  0.00  0.00     0.017 A 
ATOM      6  C5  UNL d   1       3.037  -3.031  -0.265  0.00  0.00     0.034 A 
ATOM      7 Cl   UNL d   1       2.781  -0.419  -0.815  0.00  0.00    -0.070 Cl
ATOM      8 Cl1  UNL d   1       0.187  -0.551   1.148  0.00  0.00    -0.070 Cl
ENDROOT
TORSDOF 0
ENDMDL
