MODEL 1
REMARK minimizedAffinity 2.63979459
REMARK minimizedRMSD -1
REMARK  0 active torsions:
REMARK  status: ('A' for Active; 'I' for Inactive)
ROOT
ATOM      1  C   UNL d   1       1.728  -0.722   0.194  0.00  0.00     0.020 A 
ATOM      2  C1  UNL d   1       0.646  -0.326   0.979  0.00  0.00     0.020 A 
ATOM      3  C2  UNL d   1      -0.165  -1.287   1.587  0.00  0.00     0.034 A 
ATOM      4  C3  UNL d   1       0.106  -2.649   1.411  0.00  0.00     0.017 A 
ATOM      5  C4  UNL d   1       1.192  -3.045   0.623  0.00  0.00     0.017 A 
ATOM      6  C5  UNL d   1       2.000  -2.079   0.016  0.00  0.00     0.034 A 
ATOM      7 Cl   UNL d   1       1.589  -4.707   0.359  0.00  0.00    -0.070 Cl
ATOM      8 Cl1  UNL d   1      -0.937  -3.783   2.193  0.00  0.00    -0.070 Cl
ENDROOT
TORSDOF 0
ENDMDL
