MODEL 1
REMARK minimizedAffinity 4.82544279
REMARK minimizedRMSD -1
REMARK  0 active torsions:
REMARK  status: ('A' for Active; 'I' for Inactive)
ROOT
ATOM      1  C   UNL d   1      -5.544  -3.992  -5.973  0.00  0.00     0.020 A 
ATOM      2  C1  UNL d   1      -4.206  -4.387  -5.982  0.00  0.00     0.020 A 
ATOM      3  C2  UNL d   1      -3.194  -3.425  -5.988  0.00  0.00     0.034 A 
ATOM      4  C3  UNL d   1      -3.518  -2.064  -5.985  0.00  0.00     0.017 A 
ATOM      5  C4  UNL d   1      -4.860  -1.668  -5.976  0.00  0.00     0.017 A 
ATOM      6  C5  UNL d   1      -5.870  -2.636  -5.970  0.00  0.00     0.034 A 
ATOM      7 Cl   UNL d   1      -5.337  -0.007  -5.972  0.00  0.00    -0.070 Cl
ATOM      8 Cl1  UNL d   1      -2.215  -0.928  -5.993  0.00  0.00    -0.070 Cl
ENDROOT
TORSDOF 0
ENDMDL
