MODEL 1
REMARK minimizedAffinity 4.64658451
REMARK minimizedRMSD -1
REMARK  0 active torsions:
REMARK  status: ('A' for Active; 'I' for Inactive)
ROOT
ATOM      1  C   UNL d   1       2.075  -0.093   0.673  0.00  0.00     0.020 A 
ATOM      2  C1  UNL d   1       0.766   0.218   1.040  0.00  0.00     0.020 A 
ATOM      3  C2  UNL d   1      -0.066  -0.772   1.567  0.00  0.00     0.034 A 
ATOM      4  C3  UNL d   1       0.411  -2.078   1.729  0.00  0.00     0.017 A 
ATOM      5  C4  UNL d   1       1.725  -2.390   1.361  0.00  0.00     0.017 A 
ATOM      6  C5  UNL d   1       2.553  -1.394   0.834  0.00  0.00     0.034 A 
ATOM      7 Cl   UNL d   1       2.383  -3.979   1.531  0.00  0.00    -0.070 Cl
ATOM      8 Cl1  UNL d   1      -0.673  -3.253   2.387  0.00  0.00    -0.070 Cl
ENDROOT
TORSDOF 0
ENDMDL
