MODEL 1
REMARK minimizedAffinity -1.2288729
REMARK minimizedRMSD -1
REMARK  0 active torsions:
REMARK  status: ('A' for Active; 'I' for Inactive)
ROOT
ATOM      1  C   UNL d   1       1.858  -4.324   1.254  0.00  0.00     0.020 A 
ATOM      2  C1  UNL d   1       2.260  -3.473   0.225  0.00  0.00     0.020 A 
ATOM      3  C2  UNL d   1       1.602  -2.257   0.027  0.00  0.00     0.034 A 
ATOM      4  C3  UNL d   1       0.539  -1.889   0.859  0.00  0.00     0.017 A 
ATOM      5  C4  UNL d   1       0.136  -2.744   1.892  0.00  0.00     0.017 A 
ATOM      6  C5  UNL d   1       0.798  -3.960   2.086  0.00  0.00     0.034 A 
ATOM      7 Cl   UNL d   1      -1.168  -2.358   2.959  0.00  0.00    -0.070 Cl
ATOM      8 Cl1  UNL d   1      -0.229  -0.371   0.557  0.00  0.00    -0.070 Cl
ENDROOT
TORSDOF 0
ENDMDL
