MODEL 1
REMARK minimizedAffinity -2.87874937
REMARK minimizedRMSD -1
REMARK  0 active torsions:
REMARK  status: ('A' for Active; 'I' for Inactive)
ROOT
ATOM      1  C   UNL d   1       2.706  -1.705   2.425  0.00  0.00     0.023 A 
ATOM      2  C1  UNL d   1       2.759  -1.784   1.033  0.00  0.00     0.003 A 
ATOM      3  C2  UNL d   1       1.725  -1.250   0.262  0.00  0.00     0.048 A 
ATOM      4  C3  UNL d   1       0.641  -0.637   0.889  0.00  0.00     0.023 A 
ATOM      5  C4  UNL d   1       0.583  -0.555   2.281  0.00  0.00     0.048 A 
ATOM      6  C5  UNL d   1       1.619  -1.092   3.048  0.00  0.00     0.003 A 
ATOM      7  I   UNL d   1      -0.900   0.159  -0.257  0.00  0.00    -0.146 I 
ENDROOT
TORSDOF 0
ENDMDL
