MODEL 1
REMARK minimizedAffinity -2.79553652
REMARK minimizedRMSD -1
REMARK  0 active torsions:
REMARK  status: ('A' for Active; 'I' for Inactive)
ROOT
ATOM      1  C   UNL d   1       0.288  -0.441  -2.027  0.00  0.00     0.023 A 
ATOM      2  C1  UNL d   1      -0.808  -0.210  -1.194  0.00  0.00     0.003 A 
ATOM      3  C2  UNL d   1      -0.650  -0.238   0.193  0.00  0.00     0.048 A 
ATOM      4  C3  UNL d   1       0.605  -0.496   0.741  0.00  0.00     0.023 A 
ATOM      5  C4  UNL d   1       1.705  -0.727  -0.088  0.00  0.00     0.048 A 
ATOM      6  C5  UNL d   1       1.542  -0.699  -1.474  0.00  0.00     0.003 A 
ATOM      7  I   UNL d   1       0.842  -0.539   2.805  0.00  0.00    -0.146 I 
ENDROOT
TORSDOF 0
ENDMDL
