MODEL 1
REMARK minimizedAffinity -3.22268653
REMARK minimizedRMSD -1
REMARK  0 active torsions:
REMARK  status: ('A' for Active; 'I' for Inactive)
ROOT
ATOM      1  C   UNL d   1       1.154  -1.209   3.072  0.00  0.00     0.023 A 
ATOM      2  C1  UNL d   1      -0.195  -1.418   2.782  0.00  0.00     0.003 A 
ATOM      3  C2  UNL d   1      -0.724  -0.985   1.564  0.00  0.00     0.048 A 
ATOM      4  C3  UNL d   1       0.101  -0.345   0.641  0.00  0.00     0.023 A 
ATOM      5  C4  UNL d   1       1.452  -0.134   0.926  0.00  0.00     0.048 A 
ATOM      6  C5  UNL d   1       1.976  -0.568   2.145  0.00  0.00     0.003 A 
ATOM      7  I   UNL d   1      -0.684   0.301  -1.172  0.00  0.00    -0.146 I 
ENDROOT
TORSDOF 0
ENDMDL
