MODEL 1
REMARK minimizedAffinity -2.47628713
REMARK minimizedRMSD -1
REMARK  0 active torsions:
REMARK  status: ('A' for Active; 'I' for Inactive)
ROOT
ATOM      1  C   UNL d   1       0.473  -0.860   2.523  0.00  0.00     0.023 A 
ATOM      2  C1  UNL d   1       1.451  -0.058   1.934  0.00  0.00     0.003 A 
ATOM      3  C2  UNL d   1       1.177   0.619   0.744  0.00  0.00     0.048 A 
ATOM      4  C3  UNL d   1      -0.077   0.490   0.149  0.00  0.00     0.023 A 
ATOM      5  C4  UNL d   1      -1.059  -0.310   0.735  0.00  0.00     0.048 A 
ATOM      6  C5  UNL d   1      -0.780  -0.986   1.924  0.00  0.00     0.003 A 
ATOM      7  I   UNL d   1      -0.487   1.497  -1.623  0.00  0.00    -0.146 I 
ENDROOT
TORSDOF 0
ENDMDL
