MODEL 1
REMARK minimizedAffinity -0.930146635
REMARK minimizedRMSD -1
REMARK  0 active torsions:
REMARK  status: ('A' for Active; 'I' for Inactive)
ROOT
ATOM      1  C   UNL d   1      -1.112   0.062   1.914  0.00  0.00     0.023 A 
ATOM      2  C1  UNL d   1       0.177  -0.013   2.441  0.00  0.00     0.003 A 
ATOM      3  C2  UNL d   1       1.255  -0.329   1.611  0.00  0.00     0.048 A 
ATOM      4  C3  UNL d   1       1.036  -0.567   0.255  0.00  0.00     0.023 A 
ATOM      5  C4  UNL d   1      -0.252  -0.492  -0.277  0.00  0.00     0.048 A 
ATOM      6  C5  UNL d   1      -1.327  -0.177   0.556  0.00  0.00     0.003 A 
ATOM      7  I   UNL d   1       2.638  -1.037  -0.983  0.00  0.00    -0.146 I 
ENDROOT
TORSDOF 0
ENDMDL
