MODEL 1
REMARK minimizedAffinity -4.18246984
REMARK minimizedRMSD -1
REMARK  0 active torsions:
REMARK  status: ('A' for Active; 'I' for Inactive)
ROOT
ATOM      1  C   UNL d   1       2.228  -2.216   2.607  0.00  0.00     0.023 A 
ATOM      2  C1  UNL d   1       0.853  -2.083   2.800  0.00  0.00     0.003 A 
ATOM      3  C2  UNL d   1       0.078  -1.399   1.861  0.00  0.00     0.048 A 
ATOM      4  C3  UNL d   1       0.684  -0.851   0.731  0.00  0.00     0.023 A 
ATOM      5  C4  UNL d   1       2.060  -0.983   0.533  0.00  0.00     0.048 A 
ATOM      6  C5  UNL d   1       2.831  -1.666   1.475  0.00  0.00     0.003 A 
ATOM      7  I   UNL d   1      -0.467   0.166  -0.668  0.00  0.00    -0.146 I 
ENDROOT
TORSDOF 0
ENDMDL
