MODEL 1
REMARK minimizedAffinity -4.8748126
REMARK minimizedRMSD -1
REMARK  0 active torsions:
REMARK  status: ('A' for Active; 'I' for Inactive)
ROOT
ATOM      1  C   UNL d   1       1.108  -0.923   2.524  0.00  0.00     0.023 A 
ATOM      2  C1  UNL d   1       1.877  -0.945   1.360  0.00  0.00     0.003 A 
ATOM      3  C2  UNL d   1       1.333  -0.502   0.153  0.00  0.00     0.048 A 
ATOM      4  C3  UNL d   1       0.019  -0.037   0.117  0.00  0.00     0.023 A 
ATOM      5  C4  UNL d   1      -0.754  -0.012   1.279  0.00  0.00     0.048 A 
ATOM      6  C5  UNL d   1      -0.206  -0.457   2.483  0.00  0.00     0.003 A 
ATOM      7  I   UNL d   1      -0.794   0.624  -1.678  0.00  0.00    -0.146 I 
ENDROOT
TORSDOF 0
ENDMDL
