MODEL 1
REMARK minimizedAffinity -2.09013295
REMARK minimizedRMSD -1
REMARK  0 active torsions:
REMARK  status: ('A' for Active; 'I' for Inactive)
ROOT
ATOM      1  C   UNL d   1      -0.865   3.334  -2.939  0.00  0.00     0.023 A 
ATOM      2  C1  UNL d   1      -1.817   2.404  -2.518  0.00  0.00     0.003 A 
ATOM      3  C2  UNL d   1      -1.448   1.365  -1.661  0.00  0.00     0.048 A 
ATOM      4  C3  UNL d   1      -0.126   1.262  -1.228  0.00  0.00     0.023 A 
ATOM      5  C4  UNL d   1       0.829   2.190  -1.646  0.00  0.00     0.048 A 
ATOM      6  C5  UNL d   1       0.456   3.227  -2.504  0.00  0.00     0.003 A 
ATOM      7  I   UNL d   1       0.425  -0.284   0.047  0.00  0.00    -0.146 I 
ENDROOT
TORSDOF 0
ENDMDL
