MODEL 1
REMARK minimizedAffinity -4.92092466
REMARK minimizedRMSD -1
REMARK  1 active torsions:
REMARK  status: ('A' for Active; 'I' for Inactive)
REMARK    1  A    between atoms: C3_4  and  O_7 
ROOT
ATOM      1  C   UNL d   1       0.625   0.655  -0.298  0.00  0.00    -0.033 A 
ATOM      2  C1  UNL d   1       1.139   1.493   0.693  0.00  0.00     0.039 A 
ATOM      3  C2  UNL d   1       1.772   2.687   0.342  0.00  0.00    -0.080 A 
ATOM      4  C3  UNL d   1       1.882   3.032  -1.003  0.00  0.00     0.150 A 
ATOM      5  C4  UNL d   1       1.369   2.203  -1.995  0.00  0.00    -0.007 A 
ATOM      6  C5  UNL d   1       0.739   1.011  -1.642  0.00  0.00     0.039 A 
ENDROOT
BRANCH   4   7
ATOM      7  O   UNL d   1       2.495   4.185  -1.395  0.00  0.00    -0.526 OA
ATOM      8  H5  UNL d   1       2.825   4.642  -0.604  0.00  0.00     0.418 HD
ENDBRANCH   4   7
TORSDOF 1
ENDMDL
