MODEL 1
REMARK minimizedAffinity -5.82873583
REMARK minimizedRMSD -1
REMARK  1 active torsions:
REMARK  status: ('A' for Active; 'I' for Inactive)
REMARK    1  A    between atoms: C3_4  and  O_7 
ROOT
ATOM      1  C   UNL d   1       0.988   0.497  -0.366  0.00  0.00    -0.033 A 
ATOM      2  C1  UNL d   1       0.691   1.519   0.537  0.00  0.00     0.039 A 
ATOM      3  C2  UNL d   1       0.890   2.853   0.176  0.00  0.00    -0.080 A 
ATOM      4  C3  UNL d   1       1.385   3.151  -1.090  0.00  0.00     0.150 A 
ATOM      5  C4  UNL d   1       1.680   2.138  -1.997  0.00  0.00    -0.007 A 
ATOM      6  C5  UNL d   1       1.482   0.807  -1.634  0.00  0.00     0.039 A 
ENDROOT
BRANCH   4   7
ATOM      7  O   UNL d   1       1.601   4.438  -1.486  0.00  0.00    -0.526 OA
ATOM      8  H5  UNL d   1       1.380   5.029  -0.747  0.00  0.00     0.418 HD
ENDBRANCH   4   7
TORSDOF 1
ENDMDL
