MODEL 1
REMARK minimizedAffinity -4.83115196
REMARK minimizedRMSD -1
REMARK  1 active torsions:
REMARK  status: ('A' for Active; 'I' for Inactive)
REMARK    1  A    between atoms: C3_4  and  O_7 
ROOT
ATOM      1  C   UNL d   1       1.115  -0.248  -0.707  0.00  0.00    -0.033 A 
ATOM      2  C1  UNL d   1       1.560   0.214  -1.947  0.00  0.00     0.039 A 
ATOM      3  C2  UNL d   1       1.650   1.585  -2.192  0.00  0.00    -0.080 A 
ATOM      4  C3  UNL d   1       1.293   2.483  -1.190  0.00  0.00     0.150 A 
ATOM      5  C4  UNL d   1       0.853   2.030   0.049  0.00  0.00    -0.007 A 
ATOM      6  C5  UNL d   1       0.762   0.660   0.291  0.00  0.00     0.039 A 
ENDROOT
BRANCH   4   7
ATOM      7  O   UNL d   1       1.360   3.831  -1.384  0.00  0.00    -0.526 OA
ATOM      8  H5  UNL d   1       1.654   3.996  -2.296  0.00  0.00     0.418 HD
ENDBRANCH   4   7
TORSDOF 1
ENDMDL
