MODEL 1
REMARK minimizedAffinity -0.32011959
REMARK minimizedRMSD -1
REMARK  1 active torsions:
REMARK  status: ('A' for Active; 'I' for Inactive)
REMARK    1  A    between atoms: C3_4  and  O_7 
ROOT
ATOM      1  C   UNL d   1       1.424   2.727  -0.838  0.00  0.00    -0.033 A 
ATOM      2  C1  UNL d   1       2.130   1.806  -1.614  0.00  0.00     0.039 A 
ATOM      3  C2  UNL d   1       2.004   0.438  -1.363  0.00  0.00    -0.080 A 
ATOM      4  C3  UNL d   1       1.170   0.006  -0.336  0.00  0.00     0.150 A 
ATOM      5  C4  UNL d   1       0.462   0.918   0.439  0.00  0.00    -0.007 A 
ATOM      6  C5  UNL d   1       0.589   2.283   0.188  0.00  0.00     0.039 A 
ENDROOT
BRANCH   4   7
ATOM      7  O   UNL d   1       1.020  -1.319  -0.050  0.00  0.00    -0.526 OA
ATOM      8  H5  UNL d   1       1.591  -1.829  -0.648  0.00  0.00     0.418 HD
ENDBRANCH   4   7
TORSDOF 1
ENDMDL
