MODEL 1
REMARK minimizedAffinity -3.04828429
REMARK minimizedRMSD -1
REMARK  1 active torsions:
REMARK  status: ('A' for Active; 'I' for Inactive)
REMARK    1  A    between atoms: C3_4  and  O_7 
ROOT
ATOM      1  C   UNL d   1       1.390   3.120  -0.202  0.00  0.00    -0.033 A 
ATOM      2  C1  UNL d   1       0.955   2.233   0.785  0.00  0.00     0.039 A 
ATOM      3  C2  UNL d   1       0.907   0.862   0.521  0.00  0.00    -0.080 A 
ATOM      4  C3  UNL d   1       1.296   0.393  -0.730  0.00  0.00     0.150 A 
ATOM      5  C4  UNL d   1       1.733   1.271  -1.716  0.00  0.00    -0.007 A 
ATOM      6  C5  UNL d   1       1.780   2.639  -1.452  0.00  0.00     0.039 A 
ENDROOT
BRANCH   4   7
ATOM      7  O   UNL d   1       1.261  -0.935  -1.035  0.00  0.00    -0.526 OA
ATOM      8  H5  UNL d   1       0.911  -1.418  -0.268  0.00  0.00     0.418 HD
ENDBRANCH   4   7
TORSDOF 1
ENDMDL
