MODEL 1
REMARK minimizedAffinity 6.04063702
REMARK minimizedRMSD -1
REMARK  1 active torsions:
REMARK  status: ('A' for Active; 'I' for Inactive)
REMARK    1  A    between atoms: C3_4  and  O_7 
ROOT
ATOM      1  C   UNL d   1       1.855   2.099  -0.189  0.00  0.00    -0.033 A 
ATOM      2  C1  UNL d   1       1.045   2.076  -1.326  0.00  0.00     0.039 A 
ATOM      3  C2  UNL d   1       0.582   0.859  -1.831  0.00  0.00    -0.080 A 
ATOM      4  C3  UNL d   1       0.936  -0.325  -1.191  0.00  0.00     0.150 A 
ATOM      5  C4  UNL d   1       1.740  -0.309  -0.056  0.00  0.00    -0.007 A 
ATOM      6  C5  UNL d   1       2.202   0.907   0.447  0.00  0.00     0.039 A 
ENDROOT
BRANCH   4   7
ATOM      7  O   UNL d   1       0.512  -1.537  -1.649  0.00  0.00    -0.526 OA
ATOM      8  H5  UNL d   1      -0.011  -1.395  -2.456  0.00  0.00     0.418 HD
ENDBRANCH   4   7
TORSDOF 1
ENDMDL
