MODEL 1
REMARK minimizedAffinity -4.24620914
REMARK minimizedRMSD -1
REMARK  1 active torsions:
REMARK  status: ('A' for Active; 'I' for Inactive)
REMARK    1  A    between atoms: C3_4  and  O_7 
ROOT
ATOM      1  C   UNL d   1       0.941   0.786   0.211  0.00  0.00    -0.033 A 
ATOM      2  C1  UNL d   1       0.887   1.759   1.211  0.00  0.00     0.039 A 
ATOM      3  C2  UNL d   1       1.146   3.096   0.902  0.00  0.00    -0.080 A 
ATOM      4  C3  UNL d   1       1.456   3.446  -0.409  0.00  0.00     0.150 A 
ATOM      5  C4  UNL d   1       1.508   2.482  -1.411  0.00  0.00    -0.007 A 
ATOM      6  C5  UNL d   1       1.250   1.148  -1.100  0.00  0.00     0.039 A 
ENDROOT
BRANCH   4   7
ATOM      7  O   UNL d   1       1.720   4.737  -0.759  0.00  0.00    -0.526 OA
ATOM      8  H5  UNL d   1       1.676   5.287   0.041  0.00  0.00     0.418 HD
ENDBRANCH   4   7
TORSDOF 1
ENDMDL
