MODEL 1
REMARK minimizedAffinity -4.46870947
REMARK minimizedRMSD -1
REMARK  1 active torsions:
REMARK  status: ('A' for Active; 'I' for Inactive)
REMARK    1  A    between atoms: C3_4  and  O_7 
ROOT
ATOM      1  C   UNL d   1       0.918   1.070  -0.473  0.00  0.00    -0.033 A 
ATOM      2  C1  UNL d   1       0.865   2.119   0.447  0.00  0.00     0.039 A 
ATOM      3  C2  UNL d   1       1.211   3.413   0.053  0.00  0.00    -0.080 A 
ATOM      4  C3  UNL d   1       1.608   3.644  -1.261  0.00  0.00     0.150 A 
ATOM      5  C4  UNL d   1       1.659   2.605  -2.184  0.00  0.00    -0.007 A 
ATOM      6  C5  UNL d   1       1.314   1.313  -1.789  0.00  0.00     0.039 A 
ENDROOT
BRANCH   4   7
ATOM      7  O   UNL d   1       1.960   4.889  -1.691  0.00  0.00    -0.526 OA
ATOM      8  H5  UNL d   1       1.904   5.502  -0.938  0.00  0.00     0.418 HD
ENDBRANCH   4   7
TORSDOF 1
ENDMDL
