MODEL 1
REMARK minimizedAffinity 3.57418442
REMARK minimizedRMSD -1
REMARK  1 active torsions:
REMARK  status: ('A' for Active; 'I' for Inactive)
REMARK    1  A    between atoms: C3_4  and  O_7 
ROOT
ATOM      1  C   UNL d   1       0.861   4.128   0.085  0.00  0.00    -0.033 A 
ATOM      2  C1  UNL d   1       1.288   3.185   1.022  0.00  0.00     0.039 A 
ATOM      3  C2  UNL d   1       1.603   1.887   0.615  0.00  0.00    -0.080 A 
ATOM      4  C3  UNL d   1       1.488   1.546  -0.730  0.00  0.00     0.150 A 
ATOM      5  C4  UNL d   1       1.066   2.481  -1.669  0.00  0.00    -0.007 A 
ATOM      6  C5  UNL d   1       0.751   3.776  -1.261  0.00  0.00     0.039 A 
ENDROOT
BRANCH   4   7
ATOM      7  O   UNL d   1       1.779   0.290  -1.173  0.00  0.00    -0.526 OA
ATOM      8  H5  UNL d   1       2.029  -0.256  -0.409  0.00  0.00     0.418 HD
ENDBRANCH   4   7
TORSDOF 1
ENDMDL
