MODEL 1
REMARK minimizedAffinity -3.55679321
REMARK minimizedRMSD -1
REMARK  1 active torsions:
REMARK  status: ('A' for Active; 'I' for Inactive)
REMARK    1  A    between atoms: C3_4  and  O_7 
ROOT
ATOM      1  C   UNL d   1       1.125   0.913   0.717  0.00  0.00    -0.033 A 
ATOM      2  C1  UNL d   1       1.526   0.058  -0.312  0.00  0.00     0.039 A 
ATOM      3  C2  UNL d   1       1.645   0.541  -1.616  0.00  0.00    -0.080 A 
ATOM      4  C3  UNL d   1       1.363   1.879  -1.878  0.00  0.00     0.150 A 
ATOM      5  C4  UNL d   1       0.967   2.737  -0.857  0.00  0.00    -0.007 A 
ATOM      6  C5  UNL d   1       0.848   2.253   0.445  0.00  0.00     0.039 A 
ENDROOT
BRANCH   4   7
ATOM      7  O   UNL d   1       1.461   2.395  -3.136  0.00  0.00    -0.526 OA
ATOM      8  H5  UNL d   1       1.716   1.680  -3.743  0.00  0.00     0.418 HD
ENDBRANCH   4   7
TORSDOF 1
ENDMDL
