MODEL 1
REMARK minimizedAffinity -4.27525187
REMARK minimizedRMSD -1
REMARK  1 active torsions:
REMARK  status: ('A' for Active; 'I' for Inactive)
REMARK    1  A    between atoms: C3_4  and  O_7 
ROOT
ATOM      1  C   UNL d   1       1.136   3.429  -0.409  0.00  0.00    -0.033 A 
ATOM      2  C1  UNL d   1       1.048   2.789   0.829  0.00  0.00     0.039 A 
ATOM      3  C2  UNL d   1       1.103   1.396   0.903  0.00  0.00    -0.080 A 
ATOM      4  C3  UNL d   1       1.248   0.655  -0.267  0.00  0.00     0.150 A 
ATOM      5  C4  UNL d   1       1.340   1.286  -1.504  0.00  0.00    -0.007 A 
ATOM      6  C5  UNL d   1       1.283   2.677  -1.575  0.00  0.00     0.039 A 
ENDROOT
BRANCH   4   7
ATOM      7  O   UNL d   1       1.302  -0.707  -0.246  0.00  0.00    -0.526 OA
ATOM      8  H5  UNL d   1       1.197  -1.005   0.673  0.00  0.00     0.418 HD
ENDBRANCH   4   7
TORSDOF 1
ENDMDL
