MODEL 1
REMARK minimizedAffinity -1.21349764
REMARK minimizedRMSD -1
REMARK  1 active torsions:
REMARK  status: ('A' for Active; 'I' for Inactive)
REMARK    1  A    between atoms: C3_4  and  O_7 
ROOT
ATOM      1  C   UNL d   1       0.855   0.710  -0.872  0.00  0.00    -0.033 A 
ATOM      2  C1  UNL d   1       0.961   1.397  -2.084  0.00  0.00     0.039 A 
ATOM      3  C2  UNL d   1       1.172   2.777  -2.090  0.00  0.00    -0.080 A 
ATOM      4  C3  UNL d   1       1.276   3.458  -0.880  0.00  0.00     0.150 A 
ATOM      5  C4  UNL d   1       1.175   2.780   0.330  0.00  0.00    -0.007 A 
ATOM      6  C5  UNL d   1       0.963   1.402   0.335  0.00  0.00     0.039 A 
ENDROOT
BRANCH   4   7
ATOM      7  O   UNL d   1       1.477   4.805  -0.836  0.00  0.00    -0.526 OA
ATOM      8  H5  UNL d   1       1.498   5.143  -1.747  0.00  0.00     0.418 HD
ENDBRANCH   4   7
TORSDOF 1
ENDMDL
