MODEL 1
REMARK minimizedAffinity -1.97332168
REMARK minimizedRMSD -1
REMARK  1 active torsions:
REMARK  status: ('A' for Active; 'I' for Inactive)
REMARK    1  A    between atoms: C3_4  and  O_7 
ROOT
ATOM      1  C   UNL d   1       0.979   0.755  -0.564  0.00  0.00    -0.033 A 
ATOM      2  C1  UNL d   1       1.245   1.300  -1.821  0.00  0.00     0.039 A 
ATOM      3  C2  UNL d   1       1.482   2.670  -1.954  0.00  0.00    -0.080 A 
ATOM      4  C3  UNL d   1       1.451   3.481  -0.823  0.00  0.00     0.150 A 
ATOM      5  C4  UNL d   1       1.190   2.944   0.433  0.00  0.00    -0.007 A 
ATOM      6  C5  UNL d   1       0.953   1.576   0.563  0.00  0.00     0.039 A 
ENDROOT
BRANCH   4   7
ATOM      7  O   UNL d   1       1.671   4.824  -0.904  0.00  0.00    -0.526 OA
ATOM      8  H5  UNL d   1       1.808   5.058  -1.837  0.00  0.00     0.418 HD
ENDBRANCH   4   7
TORSDOF 1
ENDMDL
