MODEL 1
REMARK minimizedAffinity 7.85148764
REMARK minimizedRMSD -1
REMARK  0 active torsions:
REMARK  status: ('A' for Active; 'I' for Inactive)
ROOT
ATOM      1  C   UNL d   1       3.026   2.311   5.910  0.00  0.00     0.078 C 
ATOM      2  C1  UNL d   1       3.847   3.566   5.934  0.00  0.00    -0.077 A 
ATOM      3  C2  UNL d   1       5.246   3.512   5.945  0.00  0.00    -0.001 A 
ATOM      4  C3  UNL d   1       5.997   4.688   5.977  0.00  0.00     0.003 A 
ATOM      5  C4  UNL d   1       5.358   5.926   6.000  0.00  0.00    -0.005 A 
ATOM      6  C5  UNL d   1       3.966   5.989   5.991  0.00  0.00     0.003 A 
ATOM      7  C6  UNL d   1       3.213   4.815   5.959  0.00  0.00    -0.001 A 
ENDROOT
TORSDOF 0
ENDMDL
