MODEL 1
REMARK minimizedAffinity 9.37590694
REMARK minimizedRMSD -1
REMARK  0 active torsions:
REMARK  status: ('A' for Active; 'I' for Inactive)
ROOT
ATOM      1  C   UNL d   1       3.696   2.617   1.905  0.00  0.00     0.078 C 
ATOM      2  C1  UNL d   1       4.496   3.297   0.835  0.00  0.00    -0.077 A 
ATOM      3  C2  UNL d   1       5.252   2.556  -0.081  0.00  0.00    -0.001 A 
ATOM      4  C3  UNL d   1       6.000   3.203  -1.067  0.00  0.00     0.003 A 
ATOM      5  C4  UNL d   1       6.000   4.594  -1.145  0.00  0.00    -0.005 A 
ATOM      6  C5  UNL d   1       5.252   5.340  -0.236  0.00  0.00     0.003 A 
ATOM      7  C6  UNL d   1       4.504   4.695   0.750  0.00  0.00    -0.001 A 
ENDROOT
TORSDOF 0
ENDMDL
