MODEL 1
REMARK minimizedAffinity 0.119293027
REMARK minimizedRMSD -1
REMARK  0 active torsions:
REMARK  status: ('A' for Active; 'I' for Inactive)
ROOT
ATOM      1  C   UNL d   1      -1.961  -3.024   3.382  0.00  0.00     0.078 C 
ATOM      2  C1  UNL d   1      -1.501  -3.143   1.960  0.00  0.00    -0.077 A 
ATOM      3  C2  UNL d   1      -0.869  -4.306   1.501  0.00  0.00    -0.001 A 
ATOM      4  C3  UNL d   1      -0.437  -4.399   0.177  0.00  0.00     0.003 A 
ATOM      5  C4  UNL d   1      -0.631  -3.334  -0.699  0.00  0.00    -0.005 A 
ATOM      6  C5  UNL d   1      -1.257  -2.172  -0.251  0.00  0.00     0.003 A 
ATOM      7  C6  UNL d   1      -1.690  -2.077   1.072  0.00  0.00    -0.001 A 
ENDROOT
TORSDOF 0
ENDMDL
