MODEL 1
REMARK minimizedAffinity 6.83226919
REMARK minimizedRMSD -1
REMARK  0 active torsions:
REMARK  status: ('A' for Active; 'I' for Inactive)
ROOT
ATOM      1  C   UNL d   1      -0.330  -5.990   2.336  0.00  0.00     0.078 C 
ATOM      2  C1  UNL d   1      -0.749  -4.655   1.798  0.00  0.00    -0.077 A 
ATOM      3  C2  UNL d   1      -0.614  -4.352   0.437  0.00  0.00    -0.001 A 
ATOM      4  C3  UNL d   1      -1.000  -3.102  -0.049  0.00  0.00     0.003 A 
ATOM      5  C4  UNL d   1      -1.521  -2.144   0.819  0.00  0.00    -0.005 A 
ATOM      6  C5  UNL d   1      -1.657  -2.436   2.174  0.00  0.00     0.003 A 
ATOM      7  C6  UNL d   1      -1.272  -3.686   2.662  0.00  0.00    -0.001 A 
ENDROOT
TORSDOF 0
ENDMDL
