MODEL 1
REMARK minimizedAffinity 5.87239027
REMARK minimizedRMSD -1
REMARK  0 active torsions:
REMARK  status: ('A' for Active; 'I' for Inactive)
ROOT
ATOM      1  C   UNL d   1       5.154   4.188  -0.108  0.00  0.00     0.078 C 
ATOM      2  C1  UNL d   1       4.102   3.124  -0.007  0.00  0.00    -0.077 A 
ATOM      3  C2  UNL d   1       3.773   2.549   1.227  0.00  0.00    -0.001 A 
ATOM      4  C3  UNL d   1       2.799   1.553   1.305  0.00  0.00     0.003 A 
ATOM      5  C4  UNL d   1       2.145   1.122   0.152  0.00  0.00    -0.005 A 
ATOM      6  C5  UNL d   1       2.466   1.687  -1.081  0.00  0.00     0.003 A 
ATOM      7  C6  UNL d   1       3.441   2.683  -1.160  0.00  0.00    -0.001 A 
ENDROOT
TORSDOF 0
ENDMDL
