MODEL 1
REMARK minimizedAffinity 8.69490623
REMARK minimizedRMSD -1
REMARK  0 active torsions:
REMARK  status: ('A' for Active; 'I' for Inactive)
ROOT
ATOM      1  C   UNL d   1      -0.422  -5.018   1.141  0.00  0.00     0.078 C 
ATOM      2  C1  UNL d   1      -1.168  -3.774   0.758  0.00  0.00    -0.077 A 
ATOM      3  C2  UNL d   1      -0.694  -2.932  -0.255  0.00  0.00    -0.001 A 
ATOM      4  C3  UNL d   1      -1.393  -1.773  -0.595  0.00  0.00     0.003 A 
ATOM      5  C4  UNL d   1      -2.570  -1.445   0.075  0.00  0.00    -0.005 A 
ATOM      6  C5  UNL d   1      -3.048  -2.275   1.087  0.00  0.00     0.003 A 
ATOM      7  C6  UNL d   1      -2.350  -3.435   1.428  0.00  0.00    -0.001 A 
ENDROOT
TORSDOF 0
ENDMDL
