MODEL 1
REMARK minimizedAffinity 6.61493683
REMARK minimizedRMSD -1
REMARK  0 active torsions:
REMARK  status: ('A' for Active; 'I' for Inactive)
ROOT
ATOM      1  C   UNL d   1      -2.998   2.965   1.781  0.00  0.00     0.078 C 
ATOM      2  C1  UNL d   1      -4.036   3.829   1.129  0.00  0.00    -0.077 A 
ATOM      3  C2  UNL d   1      -4.116   5.198   1.412  0.00  0.00    -0.001 A 
ATOM      4  C3  UNL d   1      -5.094   5.988   0.805  0.00  0.00     0.003 A 
ATOM      5  C4  UNL d   1      -6.000   5.418  -0.087  0.00  0.00    -0.005 A 
ATOM      6  C5  UNL d   1      -5.929   4.056  -0.373  0.00  0.00     0.003 A 
ATOM      7  C6  UNL d   1      -4.952   3.264   0.233  0.00  0.00    -0.001 A 
ENDROOT
TORSDOF 0
ENDMDL
