MODEL 1
REMARK minimizedAffinity 3.56927943
REMARK minimizedRMSD -1
REMARK  0 active torsions:
REMARK  status: ('A' for Active; 'I' for Inactive)
ROOT
ATOM      1  C   UNL d   1      -3.261   2.427  -4.893  0.00  0.00     0.078 C 
ATOM      2  C1  UNL d   1      -4.097   3.663  -5.037  0.00  0.00    -0.077 A 
ATOM      3  C2  UNL d   1      -5.225   3.678  -5.867  0.00  0.00    -0.001 A 
ATOM      4  C3  UNL d   1      -5.988   4.839  -5.999  0.00  0.00     0.003 A 
ATOM      5  C4  UNL d   1      -5.632   5.994  -5.306  0.00  0.00    -0.005 A 
ATOM      6  C5  UNL d   1      -4.510   5.989  -4.480  0.00  0.00     0.003 A 
ATOM      7  C6  UNL d   1      -3.745   4.829  -4.346  0.00  0.00    -0.001 A 
ENDROOT
TORSDOF 0
ENDMDL
