MODEL 1
REMARK minimizedAffinity 5.51414967
REMARK minimizedRMSD -1
REMARK  0 active torsions:
REMARK  status: ('A' for Active; 'I' for Inactive)
ROOT
ATOM      1  C   UNL d   1      -2.965   2.513  -4.904  0.00  0.00     0.078 C 
ATOM      2  C1  UNL d   1      -3.927   3.656  -5.028  0.00  0.00    -0.077 A 
ATOM      3  C2  UNL d   1      -5.069   3.553  -5.832  0.00  0.00    -0.001 A 
ATOM      4  C3  UNL d   1      -5.952   4.628  -5.946  0.00  0.00     0.003 A 
ATOM      5  C4  UNL d   1      -5.701   5.814  -5.259  0.00  0.00    -0.005 A 
ATOM      6  C5  UNL d   1      -4.567   5.927  -4.458  0.00  0.00     0.003 A 
ATOM      7  C6  UNL d   1      -3.683   4.853  -4.343  0.00  0.00    -0.001 A 
ENDROOT
TORSDOF 0
ENDMDL
