MODEL 1
REMARK minimizedAffinity 7.28439713
REMARK minimizedRMSD -1
REMARK  0 active torsions:
REMARK  status: ('A' for Active; 'I' for Inactive)
ROOT
ATOM      1  C   UNL d   1      -5.998   5.986  -5.947  0.00  0.00     0.078 C 
ATOM      2  C1  UNL d   1      -4.947   5.112  -5.331  0.00  0.00    -0.077 A 
ATOM      3  C2  UNL d   1      -4.133   5.585  -4.294  0.00  0.00    -0.001 A 
ATOM      4  C3  UNL d   1      -3.153   4.763  -3.736  0.00  0.00     0.003 A 
ATOM      5  C4  UNL d   1      -2.976   3.464  -4.209  0.00  0.00    -0.005 A 
ATOM      6  C5  UNL d   1      -3.779   2.986  -5.242  0.00  0.00     0.003 A 
ATOM      7  C6  UNL d   1      -4.761   3.806  -5.801  0.00  0.00    -0.001 A 
ENDROOT
TORSDOF 0
ENDMDL
