MODEL 1
REMARK minimizedAffinity 9.10347843
REMARK minimizedRMSD -1
REMARK  0 active torsions:
REMARK  status: ('A' for Active; 'I' for Inactive)
ROOT
ATOM      1  C   UNL d   1       5.410   4.733  -0.451  0.00  0.00     0.078 C 
ATOM      2  C1  UNL d   1       4.391   3.633  -0.445  0.00  0.00    -0.077 A 
ATOM      3  C2  UNL d   1       3.977   3.041   0.755  0.00  0.00    -0.001 A 
ATOM      4  C3  UNL d   1       3.034   2.012   0.745  0.00  0.00     0.003 A 
ATOM      5  C4  UNL d   1       2.500   1.564  -0.461  0.00  0.00    -0.005 A 
ATOM      6  C5  UNL d   1       2.908   2.145  -1.660  0.00  0.00     0.003 A 
ATOM      7  C6  UNL d   1       3.850   3.175  -1.652  0.00  0.00    -0.001 A 
ENDROOT
TORSDOF 0
ENDMDL
