MODEL 1
REMARK minimizedAffinity 8.79875946
REMARK minimizedRMSD -1
REMARK  0 active torsions:
REMARK  status: ('A' for Active; 'I' for Inactive)
ROOT
ATOM      1  C   UNL d   1      -0.133  -4.609   0.111  0.00  0.00     0.078 C 
ATOM      2  C1  UNL d   1      -0.765  -3.262  -0.072  0.00  0.00    -0.077 A 
ATOM      3  C2  UNL d   1      -1.727  -2.788   0.828  0.00  0.00    -0.001 A 
ATOM      4  C3  UNL d   1      -2.315  -1.536   0.640  0.00  0.00     0.003 A 
ATOM      5  C4  UNL d   1      -1.949  -0.748  -0.450  0.00  0.00    -0.005 A 
ATOM      6  C5  UNL d   1      -0.994  -1.212  -1.352  0.00  0.00     0.003 A 
ATOM      7  C6  UNL d   1      -0.405  -2.464  -1.165  0.00  0.00    -0.001 A 
ENDROOT
TORSDOF 0
ENDMDL
