MODEL 1
REMARK minimizedAffinity 4.52482462
REMARK minimizedRMSD -1
REMARK  0 active torsions:
REMARK  status: ('A' for Active; 'I' for Inactive)
ROOT
ATOM      1  C   UNL d   1      -5.890  -1.365   5.965  0.00  0.00     0.078 C 
ATOM      2  C1  UNL d   1      -5.117  -0.080   5.979  0.00  0.00    -0.077 A 
ATOM      3  C2  UNL d   1      -5.774   1.157   5.983  0.00  0.00    -0.001 A 
ATOM      4  C3  UNL d   1      -5.042   2.345   5.987  0.00  0.00     0.003 A 
ATOM      5  C4  UNL d   1      -3.649   2.308   5.985  0.00  0.00    -0.005 A 
ATOM      6  C5  UNL d   1      -2.986   1.083   5.979  0.00  0.00     0.003 A 
ATOM      7  C6  UNL d   1      -3.717  -0.107   5.975  0.00  0.00    -0.001 A 
ENDROOT
TORSDOF 0
ENDMDL
