MODEL 1
REMARK minimizedAffinity -2.89898276
REMARK minimizedRMSD -1
REMARK  0 active torsions:
REMARK  status: ('A' for Active; 'I' for Inactive)
ROOT
ATOM      1  C   UNL d   1      -2.030  -1.889   5.257  0.00  0.00     0.078 C 
ATOM      2  C1  UNL d   1      -2.991  -0.765   5.507  0.00  0.00    -0.077 A 
ATOM      3  C2  UNL d   1      -2.557   0.567   5.512  0.00  0.00    -0.001 A 
ATOM      4  C3  UNL d   1      -3.461   1.602   5.756  0.00  0.00     0.003 A 
ATOM      5  C4  UNL d   1      -4.803   1.317   5.999  0.00  0.00    -0.005 A 
ATOM      6  C5  UNL d   1      -5.243  -0.005   5.999  0.00  0.00     0.003 A 
ATOM      7  C6  UNL d   1      -4.341  -1.042   5.755  0.00  0.00    -0.001 A 
ENDROOT
TORSDOF 0
ENDMDL
