MODEL 1
REMARK minimizedAffinity 7.82168055
REMARK minimizedRMSD -1
REMARK  0 active torsions:
REMARK  status: ('A' for Active; 'I' for Inactive)
ROOT
ATOM      1  C   UNL d   1      -3.141   1.454  -3.237  0.00  0.00     0.078 C 
ATOM      2  C1  UNL d   1      -2.150   2.147  -4.124  0.00  0.00    -0.077 A 
ATOM      3  C2  UNL d   1      -2.574   2.968  -5.176  0.00  0.00    -0.001 A 
ATOM      4  C3  UNL d   1      -1.640   3.599  -5.999  0.00  0.00     0.003 A 
ATOM      5  C4  UNL d   1      -0.276   3.415  -5.780  0.00  0.00    -0.005 A 
ATOM      6  C5  UNL d   1       0.155   2.598  -4.736  0.00  0.00     0.003 A 
ATOM      7  C6  UNL d   1      -0.777   1.966  -3.912  0.00  0.00    -0.001 A 
ENDROOT
TORSDOF 0
ENDMDL
