MODEL 1
REMARK minimizedAffinity 10.2925138
REMARK minimizedRMSD -1
REMARK  0 active torsions:
REMARK  status: ('A' for Active; 'I' for Inactive)
ROOT
ATOM      1  C   UNL d   1       5.079   4.262  -0.011  0.00  0.00     0.078 C 
ATOM      2  C1  UNL d   1       4.162   3.184   0.484  0.00  0.00    -0.077 A 
ATOM      3  C2  UNL d   1       4.293   2.663   1.777  0.00  0.00    -0.001 A 
ATOM      4  C3  UNL d   1       3.438   1.652   2.221  0.00  0.00     0.003 A 
ATOM      5  C4  UNL d   1       2.448   1.153   1.377  0.00  0.00    -0.005 A 
ATOM      6  C5  UNL d   1       2.311   1.664   0.088  0.00  0.00     0.003 A 
ATOM      7  C6  UNL d   1       3.165   2.674  -0.357  0.00  0.00    -0.001 A 
ENDROOT
TORSDOF 0
ENDMDL
