MODEL 1
REMARK minimizedAffinity 6.70826292
REMARK minimizedRMSD -1
REMARK  0 active torsions:
REMARK  status: ('A' for Active; 'I' for Inactive)
ROOT
ATOM      1  C   UNL d   1      -4.151   5.993  -1.357  0.00  0.00     0.078 C 
ATOM      2  C1  UNL d   1      -4.491   5.530   0.028  0.00  0.00    -0.077 A 
ATOM      3  C2  UNL d   1      -3.669   4.622   0.707  0.00  0.00    -0.001 A 
ATOM      4  C3  UNL d   1      -4.003   4.192   1.992  0.00  0.00     0.003 A 
ATOM      5  C4  UNL d   1      -5.159   4.665   2.610  0.00  0.00    -0.005 A 
ATOM      6  C5  UNL d   1      -5.984   5.568   1.941  0.00  0.00     0.003 A 
ATOM      7  C6  UNL d   1      -5.652   5.998   0.656  0.00  0.00    -0.001 A 
ENDROOT
TORSDOF 0
ENDMDL
