MODEL 1
REMARK minimizedAffinity 12.1684227
REMARK minimizedRMSD -1
REMARK  0 active torsions:
REMARK  status: ('A' for Active; 'I' for Inactive)
ROOT
ATOM      1  C   UNL d   1       2.579   5.999   5.954  0.00  0.00     0.078 C 
ATOM      2  C1  UNL d   1       3.724   5.081   5.649  0.00  0.00    -0.077 A 
ATOM      3  C2  UNL d   1       3.676   3.726   6.000  0.00  0.00    -0.001 A 
ATOM      4  C3  UNL d   1       4.753   2.884   5.718  0.00  0.00     0.003 A 
ATOM      5  C4  UNL d   1       5.888   3.388   5.085  0.00  0.00    -0.005 A 
ATOM      6  C5  UNL d   1       5.946   4.735   4.734  0.00  0.00     0.003 A 
ATOM      7  C6  UNL d   1       4.870   5.578   5.015  0.00  0.00    -0.001 A 
ENDROOT
TORSDOF 0
ENDMDL
