MODEL 1
REMARK minimizedAffinity 4.00818205
REMARK minimizedRMSD -1
REMARK  0 active torsions:
REMARK  status: ('A' for Active; 'I' for Inactive)
ROOT
ATOM      1  C   UNL d   1      -1.850   2.328  -4.199  0.00  0.00     0.078 C 
ATOM      2  C1  UNL d   1      -2.027   1.141  -3.300  0.00  0.00    -0.077 A 
ATOM      3  C2  UNL d   1      -3.068   1.093  -2.366  0.00  0.00    -0.001 A 
ATOM      4  C3  UNL d   1      -3.215  -0.015  -1.529  0.00  0.00     0.003 A 
ATOM      5  C4  UNL d   1      -2.323  -1.082  -1.618  0.00  0.00    -0.005 A 
ATOM      6  C5  UNL d   1      -1.283  -1.042  -2.543  0.00  0.00     0.003 A 
ATOM      7  C6  UNL d   1      -1.134   0.064  -3.381  0.00  0.00    -0.001 A 
ENDROOT
TORSDOF 0
ENDMDL
