MODEL 1
REMARK minimizedAffinity 2.00806546
REMARK minimizedRMSD -1
REMARK  0 active torsions:
REMARK  status: ('A' for Active; 'I' for Inactive)
ROOT
ATOM      1  C   UNL d   1      -4.082  -0.622   0.499  0.00  0.00     0.078 C 
ATOM      2  C1  UNL d   1      -2.998  -1.544   0.972  0.00  0.00    -0.077 A 
ATOM      3  C2  UNL d   1      -2.838  -1.831   2.333  0.00  0.00    -0.001 A 
ATOM      4  C3  UNL d   1      -1.818  -2.683   2.760  0.00  0.00     0.003 A 
ATOM      5  C4  UNL d   1      -0.949  -3.254   1.832  0.00  0.00    -0.005 A 
ATOM      6  C5  UNL d   1      -1.099  -2.973   0.475  0.00  0.00     0.003 A 
ATOM      7  C6  UNL d   1      -2.119  -2.121   0.047  0.00  0.00    -0.001 A 
ENDROOT
TORSDOF 0
ENDMDL
