MODEL 1
REMARK minimizedAffinity 2.3897779
REMARK minimizedRMSD -1
REMARK  0 active torsions:
REMARK  status: ('A' for Active; 'I' for Inactive)
ROOT
ATOM      1  C   UNL d   1      -1.728  -1.225   0.192  0.00  0.00     0.124 A 
ATOM      2  C1  UNL d   1      -1.547  -0.364  -0.882  0.00  0.00     0.062 A 
ATOM      3  C2  UNL d   1      -0.349   0.328  -1.030  0.00  0.00     0.162 A 
ATOM      4  C3  UNL d   1       0.679   0.161  -0.102  0.00  0.00    -0.034 A 
ATOM      5  C4  UNL d   1       0.490  -0.706   0.976  0.00  0.00     0.162 A 
ATOM      6  C5  UNL d   1      -0.710  -1.395   1.119  0.00  0.00     0.062 A 
ATOM      7  F   UNL d   1      -0.883  -2.227   2.157  0.00  0.00    -0.097 F 
ATOM      8  F1  UNL d   1       1.457  -0.890   1.886  0.00  0.00    -0.096 F 
ATOM      9  I   UNL d   1       2.473   1.194  -0.319  0.00  0.00    -0.060 I 
ATOM     10  F2  UNL d   1      -0.201   1.153  -2.077  0.00  0.00    -0.096 F 
ATOM     11  F3  UNL d   1      -2.530  -0.197  -1.779  0.00  0.00    -0.097 F 
ATOM     12  F4  UNL d   1      -2.883  -1.889   0.332  0.00  0.00    -0.092 F 
ENDROOT
TORSDOF 0
ENDMDL
