MODEL 1
REMARK minimizedAffinity 1.25214112
REMARK minimizedRMSD -1
REMARK  0 active torsions:
REMARK  status: ('A' for Active; 'I' for Inactive)
ROOT
ATOM      1  C   UNL d   1      -1.468  -1.227  -0.483  0.00  0.00     0.124 A 
ATOM      2  C1  UNL d   1      -0.371  -1.591   0.286  0.00  0.00     0.062 A 
ATOM      3  C2  UNL d   1       0.701  -0.716   0.434  0.00  0.00     0.162 A 
ATOM      4  C3  UNL d   1       0.682   0.532  -0.189  0.00  0.00    -0.034 A 
ATOM      5  C4  UNL d   1      -0.424   0.891  -0.962  0.00  0.00     0.162 A 
ATOM      6  C5  UNL d   1      -1.493   0.013  -1.106  0.00  0.00     0.062 A 
ATOM      7  F   UNL d   1      -2.552   0.366  -1.850  0.00  0.00    -0.097 F 
ATOM      8  F1  UNL d   1      -0.475   2.083  -1.574  0.00  0.00    -0.096 F 
ATOM      9  I   UNL d   1       2.284   1.843   0.030  0.00  0.00    -0.060 I 
ATOM     10  F2  UNL d   1       1.747  -1.094   1.183  0.00  0.00    -0.096 F 
ATOM     11  F3  UNL d   1      -0.344  -2.788   0.888  0.00  0.00    -0.097 F 
ATOM     12  F4  UNL d   1      -2.498  -2.071  -0.625  0.00  0.00    -0.092 F 
ENDROOT
TORSDOF 0
ENDMDL
