MODEL 1
REMARK minimizedAffinity -0.265740961
REMARK minimizedRMSD -1
REMARK  0 active torsions:
REMARK  status: ('A' for Active; 'I' for Inactive)
ROOT
ATOM      1  C   UNL d   1      -2.009  -0.383  -1.176  0.00  0.00     0.124 A 
ATOM      2  C1  UNL d   1      -0.717  -0.116  -1.607  0.00  0.00     0.062 A 
ATOM      3  C2  UNL d   1       0.266   0.247  -0.691  0.00  0.00     0.162 A 
ATOM      4  C3  UNL d   1      -0.038   0.343   0.667  0.00  0.00    -0.034 A 
ATOM      5  C4  UNL d   1      -1.340   0.073   1.093  0.00  0.00     0.162 A 
ATOM      6  C5  UNL d   1      -2.319  -0.288   0.173  0.00  0.00     0.062 A 
ATOM      7  F   UNL d   1      -3.566  -0.546   0.592  0.00  0.00    -0.097 F 
ATOM      8  F1  UNL d   1      -1.667   0.156   2.391  0.00  0.00    -0.096 F 
ATOM      9  I   UNL d   1       1.429   0.885   2.040  0.00  0.00    -0.060 I 
ATOM     10  F2  UNL d   1       1.506   0.499  -1.136  0.00  0.00    -0.096 F 
ATOM     11  F3  UNL d   1      -0.415  -0.206  -2.911  0.00  0.00    -0.097 F 
ATOM     12  F4  UNL d   1      -2.953  -0.731  -2.060  0.00  0.00    -0.092 F 
ENDROOT
TORSDOF 0
ENDMDL
