MODEL 1
REMARK minimizedAffinity -1.57918322
REMARK minimizedRMSD -1
REMARK  0 active torsions:
REMARK  status: ('A' for Active; 'I' for Inactive)
ROOT
ATOM      1  C   UNL d   1      -0.266  -0.272  -1.540  0.00  0.00     0.124 A 
ATOM      2  C1  UNL d   1       0.520  -0.642  -0.457  0.00  0.00     0.062 A 
ATOM      3  C2  UNL d   1      -0.048  -1.305   0.626  0.00  0.00     0.162 A 
ATOM      4  C3  UNL d   1      -1.410  -1.605   0.632  0.00  0.00    -0.034 A 
ATOM      5  C4  UNL d   1      -2.195  -1.229  -0.460  0.00  0.00     0.162 A 
ATOM      6  C5  UNL d   1      -1.622  -0.566  -1.540  0.00  0.00     0.062 A 
ATOM      7  F   UNL d   1      -2.383  -0.210  -2.586  0.00  0.00    -0.097 F 
ATOM      8  F1  UNL d   1      -3.508  -1.502  -0.487  0.00  0.00    -0.096 F 
ATOM      9  I   UNL d   1      -2.264  -2.597   2.250  0.00  0.00    -0.060 I 
ATOM     10  F2  UNL d   1       0.735  -1.651   1.659  0.00  0.00    -0.096 F 
ATOM     11  F3  UNL d   1       1.831  -0.358  -0.454  0.00  0.00    -0.097 F 
ATOM     12  F4  UNL d   1       0.284   0.367  -2.581  0.00  0.00    -0.092 F 
ENDROOT
TORSDOF 0
ENDMDL
