MODEL 1
REMARK minimizedAffinity -3.18871021
REMARK minimizedRMSD -1
REMARK  0 active torsions:
REMARK  status: ('A' for Active; 'I' for Inactive)
ROOT
ATOM      1  C   UNL d   1      -2.256  -1.378  -0.124  0.00  0.00     0.124 A 
ATOM      2  C1  UNL d   1      -1.226  -1.742   0.731  0.00  0.00     0.062 A 
ATOM      3  C2  UNL d   1       0.009  -1.105   0.652  0.00  0.00     0.162 A 
ATOM      4  C3  UNL d   1       0.221  -0.096  -0.287  0.00  0.00    -0.034 A 
ATOM      5  C4  UNL d   1      -0.820   0.265  -1.145  0.00  0.00     0.162 A 
ATOM      6  C5  UNL d   1      -2.052  -0.375  -1.061  0.00  0.00     0.062 A 
ATOM      7  F   UNL d   1      -3.046  -0.021  -1.889  0.00  0.00    -0.097 F 
ATOM      8  F1  UNL d   1      -0.651   1.231  -2.060  0.00  0.00    -0.096 F 
ATOM      9  I   UNL d   1       2.066   0.859  -0.410  0.00  0.00    -0.060 I 
ATOM     10  F2  UNL d   1       0.987  -1.478   1.491  0.00  0.00    -0.096 F 
ATOM     11  F3  UNL d   1      -1.420  -2.712   1.637  0.00  0.00    -0.097 F 
ATOM     12  F4  UNL d   1      -3.443  -1.993  -0.046  0.00  0.00    -0.092 F 
ENDROOT
TORSDOF 0
ENDMDL
