MODEL 1
REMARK minimizedAffinity -3.43956518
REMARK minimizedRMSD -1
REMARK  0 active torsions:
REMARK  status: ('A' for Active; 'I' for Inactive)
ROOT
ATOM      1  C   UNL d   1      -3.023  -1.870  -0.345  0.00  0.00     0.124 A 
ATOM      2  C1  UNL d   1      -2.306  -2.093   0.822  0.00  0.00     0.062 A 
ATOM      3  C2  UNL d   1      -1.051  -1.516   0.994  0.00  0.00     0.162 A 
ATOM      4  C3  UNL d   1      -0.505  -0.709  -0.005  0.00  0.00    -0.034 A 
ATOM      5  C4  UNL d   1      -1.232  -0.490  -1.176  0.00  0.00     0.162 A 
ATOM      6  C5  UNL d   1      -2.486  -1.069  -1.343  0.00  0.00     0.062 A 
ATOM      7  F   UNL d   1      -3.178  -0.853  -2.471  0.00  0.00    -0.097 F 
ATOM      8  F1  UNL d   1      -0.737   0.281  -2.156  0.00  0.00    -0.096 F 
ATOM      9  I   UNL d   1       1.371   0.156   0.248  0.00  0.00    -0.060 I 
ATOM     10  F2  UNL d   1      -0.381  -1.748   2.132  0.00  0.00    -0.096 F 
ATOM     11  F3  UNL d   1      -2.823  -2.867   1.787  0.00  0.00    -0.097 F 
ATOM     12  F4  UNL d   1      -4.230  -2.427  -0.508  0.00  0.00    -0.092 F 
ENDROOT
TORSDOF 0
ENDMDL
