MODEL 1
REMARK minimizedAffinity -3.09653568
REMARK minimizedRMSD -1
REMARK  0 active torsions:
REMARK  status: ('A' for Active; 'I' for Inactive)
ROOT
ATOM      1  C   UNL d   1      -1.320  -0.678  -1.469  0.00  0.00     0.124 A 
ATOM      2  C1  UNL d   1      -1.698  -0.134  -0.249  0.00  0.00     0.062 A 
ATOM      3  C2  UNL d   1      -0.821   0.687   0.453  0.00  0.00     0.162 A 
ATOM      4  C3  UNL d   1       0.444   0.971  -0.064  0.00  0.00    -0.034 A 
ATOM      5  C4  UNL d   1       0.817   0.420  -1.291  0.00  0.00     0.162 A 
ATOM      6  C5  UNL d   1      -0.064  -0.401  -1.989  0.00  0.00     0.062 A 
ATOM      7  F   UNL d   1       0.303  -0.925  -3.167  0.00  0.00    -0.097 F 
ATOM      8  F1  UNL d   1       2.025   0.672  -1.817  0.00  0.00    -0.096 F 
ATOM      9  I   UNL d   1       1.758   2.199   0.983  0.00  0.00    -0.060 I 
ATOM     10  F2  UNL d   1      -1.212   1.199   1.629  0.00  0.00    -0.096 F 
ATOM     11  F3  UNL d   1      -2.911  -0.401   0.256  0.00  0.00    -0.097 F 
ATOM     12  F4  UNL d   1      -2.166  -1.469  -2.142  0.00  0.00    -0.092 F 
ENDROOT
TORSDOF 0
ENDMDL
