MODEL 1
REMARK minimizedAffinity 4.08855057
REMARK minimizedRMSD -1
REMARK  0 active torsions:
REMARK  status: ('A' for Active; 'I' for Inactive)
ROOT
ATOM      1  C   UNL d   1       1.567  -0.104   1.037  0.00  0.00     0.124 A 
ATOM      2  C1  UNL d   1       0.746  -1.122   1.503  0.00  0.00     0.062 A 
ATOM      3  C2  UNL d   1      -0.441  -1.420   0.841  0.00  0.00     0.162 A 
ATOM      4  C3  UNL d   1      -0.815  -0.701  -0.294  0.00  0.00    -0.034 A 
ATOM      5  C4  UNL d   1       0.015   0.322  -0.755  0.00  0.00     0.162 A 
ATOM      6  C5  UNL d   1       1.201   0.617  -0.091  0.00  0.00     0.062 A 
ATOM      7  F   UNL d   1       1.993   1.601  -0.541  0.00  0.00    -0.097 F 
ATOM      8  F1  UNL d   1      -0.314   1.034  -1.843  0.00  0.00    -0.096 F 
ATOM      9  I   UNL d   1      -2.590  -1.144  -1.286  0.00  0.00    -0.060 I 
ATOM     10  F2  UNL d   1      -1.215  -2.409   1.313  0.00  0.00    -0.096 F 
ATOM     11  F3  UNL d   1       1.097  -1.819   2.593  0.00  0.00    -0.097 F 
ATOM     12  F4  UNL d   1       2.709   0.182   1.676  0.00  0.00    -0.092 F 
ENDROOT
TORSDOF 0
ENDMDL
