MODEL 1
REMARK minimizedAffinity -3.29885411
REMARK minimizedRMSD -1
REMARK  0 active torsions:
REMARK  status: ('A' for Active; 'I' for Inactive)
ROOT
ATOM      1  C   UNL d   1      -0.980  -1.236   1.054  0.00  0.00     0.124 A 
ATOM      2  C1  UNL d   1       0.316  -0.990   0.622  0.00  0.00     0.062 A 
ATOM      3  C2  UNL d   1       0.539  -0.348  -0.593  0.00  0.00     0.162 A 
ATOM      4  C3  UNL d   1      -0.538   0.053  -1.385  0.00  0.00    -0.034 A 
ATOM      5  C4  UNL d   1      -1.838  -0.200  -0.944  0.00  0.00     0.162 A 
ATOM      6  C5  UNL d   1      -2.055  -0.841   0.271  0.00  0.00     0.062 A 
ATOM      7  F   UNL d   1      -3.308  -1.078   0.687  0.00  0.00    -0.097 F 
ATOM      8  F1  UNL d   1      -2.896   0.173  -1.680  0.00  0.00    -0.096 F 
ATOM      9  I   UNL d   1      -0.209   1.012  -3.202  0.00  0.00    -0.060 I 
ATOM     10  F2  UNL d   1       1.801  -0.123  -0.986  0.00  0.00    -0.096 F 
ATOM     11  F3  UNL d   1       1.357  -1.372   1.376  0.00  0.00    -0.097 F 
ATOM     12  F4  UNL d   1      -1.191  -1.855   2.223  0.00  0.00    -0.092 F 
ENDROOT
TORSDOF 0
ENDMDL
