MODEL 1
REMARK minimizedAffinity 3.34028673
REMARK minimizedRMSD -1
REMARK  0 active torsions:
REMARK  status: ('A' for Active; 'I' for Inactive)
ROOT
ATOM      1  C   UNL d   1       2.637   0.971  -0.642  0.00  0.00     0.124 A 
ATOM      2  C1  UNL d   1       2.370   1.668   0.529  0.00  0.00     0.062 A 
ATOM      3  C2  UNL d   1       1.226   1.382   1.268  0.00  0.00     0.162 A 
ATOM      4  C3  UNL d   1       0.340   0.394   0.839  0.00  0.00    -0.034 A 
ATOM      5  C4  UNL d   1       0.614  -0.302  -0.340  0.00  0.00     0.162 A 
ATOM      6  C5  UNL d   1       1.760  -0.012  -1.075  0.00  0.00     0.062 A 
ATOM      7  F   UNL d   1       2.016  -0.686  -2.206  0.00  0.00    -0.097 F 
ATOM      8  F1  UNL d   1      -0.216  -1.258  -0.781  0.00  0.00    -0.096 F 
ATOM      9  I   UNL d   1      -1.373  -0.036   1.941  0.00  0.00    -0.060 I 
ATOM     10  F2  UNL d   1       0.993   2.071   2.395  0.00  0.00    -0.096 F 
ATOM     11  F3  UNL d   1       3.216   2.619   0.949  0.00  0.00    -0.097 F 
ATOM     12  F4  UNL d   1       3.739   1.249  -1.351  0.00  0.00    -0.092 F 
ENDROOT
TORSDOF 0
ENDMDL
