MODEL 1
REMARK minimizedAffinity 2.90497184
REMARK minimizedRMSD -1
REMARK  0 active torsions:
REMARK  status: ('A' for Active; 'I' for Inactive)
ROOT
ATOM      1  C   UNL d   1      -2.673  -0.979  -0.464  0.00  0.00     0.124 A 
ATOM      2  C1  UNL d   1      -1.975  -0.383  -1.506  0.00  0.00     0.062 A 
ATOM      3  C2  UNL d   1      -0.693   0.117  -1.294  0.00  0.00     0.162 A 
ATOM      4  C3  UNL d   1      -0.100   0.022  -0.036  0.00  0.00    -0.034 A 
ATOM      5  C4  UNL d   1      -0.808  -0.578   1.007  0.00  0.00     0.162 A 
ATOM      6  C5  UNL d   1      -2.089  -1.076   0.791  0.00  0.00     0.062 A 
ATOM      7  F   UNL d   1      -2.761  -1.651   1.798  0.00  0.00    -0.097 F 
ATOM      8  F1  UNL d   1      -0.267  -0.686   2.230  0.00  0.00    -0.096 F 
ATOM      9  I   UNL d   1       1.817   0.768   0.285  0.00  0.00    -0.060 I 
ATOM     10  F2  UNL d   1      -0.043   0.688  -2.319  0.00  0.00    -0.096 F 
ATOM     11  F3  UNL d   1      -2.538  -0.287  -2.719  0.00  0.00    -0.097 F 
ATOM     12  F4  UNL d   1      -3.906  -1.458  -0.670  0.00  0.00    -0.092 F 
ENDROOT
TORSDOF 0
ENDMDL
