MODEL 1
REMARK minimizedAffinity 1.9259361
REMARK minimizedRMSD -1
REMARK  0 active torsions:
REMARK  status: ('A' for Active; 'I' for Inactive)
ROOT
ATOM      1  C   UNL d   1      -2.109  -0.900  -0.384  0.00  0.00     0.124 A 
ATOM      2  C1  UNL d   1      -1.689  -0.245  -1.533  0.00  0.00     0.062 A 
ATOM      3  C2  UNL d   1      -0.440   0.368  -1.572  0.00  0.00     0.162 A 
ATOM      4  C3  UNL d   1       0.399   0.328  -0.458  0.00  0.00    -0.034 A 
ATOM      5  C4  UNL d   1      -0.031  -0.332   0.694  0.00  0.00     0.162 A 
ATOM      6  C5  UNL d   1      -1.280  -0.943   0.728  0.00  0.00     0.062 A 
ATOM      7  F   UNL d   1      -1.684  -1.576   1.840  0.00  0.00    -0.097 F 
ATOM      8  F1  UNL d   1       0.750  -0.389   1.783  0.00  0.00    -0.096 F 
ATOM      9  I   UNL d   1       2.267   1.244  -0.513  0.00  0.00    -0.060 I 
ATOM     10  F2  UNL d   1      -0.060   0.994  -2.696  0.00  0.00    -0.096 F 
ATOM     11  F3  UNL d   1      -2.489  -0.202  -2.608  0.00  0.00    -0.097 F 
ATOM     12  F4  UNL d   1      -3.312  -1.489  -0.348  0.00  0.00    -0.092 F 
ENDROOT
TORSDOF 0
ENDMDL
