MODEL 1
REMARK minimizedAffinity -1.84751594
REMARK minimizedRMSD -1
REMARK  0 active torsions:
REMARK  status: ('A' for Active; 'I' for Inactive)
ROOT
ATOM      1  C   UNL d   1      -2.443  -1.083   0.208  0.00  0.00     0.124 A 
ATOM      2  C1  UNL d   1      -1.976  -0.319  -0.853  0.00  0.00     0.062 A 
ATOM      3  C2  UNL d   1      -0.701   0.239  -0.807  0.00  0.00     0.162 A 
ATOM      4  C3  UNL d   1       0.117   0.033   0.304  0.00  0.00    -0.034 A 
ATOM      5  C4  UNL d   1      -0.360  -0.736   1.368  0.00  0.00     0.162 A 
ATOM      6  C5  UNL d   1      -1.635  -1.290   1.317  0.00  0.00     0.062 A 
ATOM      7  F   UNL d   1      -2.084  -2.028   2.342  0.00  0.00    -0.097 F 
ATOM      8  F1  UNL d   1       0.400  -0.953   2.451  0.00  0.00    -0.096 F 
ATOM      9  I   UNL d   1       2.023   0.864   0.377  0.00  0.00    -0.060 I 
ATOM     10  F2  UNL d   1      -0.276   0.972  -1.846  0.00  0.00    -0.096 F 
ATOM     11  F3  UNL d   1      -2.755  -0.116  -1.925  0.00  0.00    -0.097 F 
ATOM     12  F4  UNL d   1      -3.670  -1.617   0.161  0.00  0.00    -0.092 F 
ENDROOT
TORSDOF 0
ENDMDL
