MODEL 1
REMARK minimizedAffinity 0.13148208
REMARK minimizedRMSD -1
REMARK  0 active torsions:
REMARK  status: ('A' for Active; 'I' for Inactive)
ROOT
ATOM      1  C   UNL d   1      -1.389  -1.024  -1.768  0.00  0.00     0.124 A 
ATOM      2  C1  UNL d   1      -0.021  -0.930  -1.982  0.00  0.00     0.062 A 
ATOM      3  C2  UNL d   1       0.778  -0.208  -1.099  0.00  0.00     0.162 A 
ATOM      4  C3  UNL d   1       0.210   0.425   0.006  0.00  0.00    -0.034 A 
ATOM      5  C4  UNL d   1      -1.167   0.327   0.214  0.00  0.00     0.162 A 
ATOM      6  C5  UNL d   1      -1.960  -0.395  -0.671  0.00  0.00     0.062 A 
ATOM      7  F   UNL d   1      -3.282  -0.484  -0.463  0.00  0.00    -0.097 F 
ATOM      8  F1  UNL d   1      -1.745   0.924   1.267  0.00  0.00    -0.096 F 
ATOM      9  I   UNL d   1       1.401   1.505   1.328  0.00  0.00    -0.060 I 
ATOM     10  F2  UNL d   1       2.097  -0.135  -1.330  0.00  0.00    -0.096 F 
ATOM     11  F3  UNL d   1       0.534  -1.536  -3.042  0.00  0.00    -0.097 F 
ATOM     12  F4  UNL d   1      -2.155  -1.718  -2.619  0.00  0.00    -0.092 F 
ENDROOT
TORSDOF 0
ENDMDL
