MODEL 1
REMARK minimizedAffinity -0.450980246
REMARK minimizedRMSD -1
REMARK  0 active torsions:
REMARK  status: ('A' for Active; 'I' for Inactive)
ROOT
ATOM      1  C   UNL d   1      -2.291  -1.525   0.633  0.00  0.00     0.124 A 
ATOM      2  C1  UNL d   1      -2.311  -0.460  -0.257  0.00  0.00     0.062 A 
ATOM      3  C2  UNL d   1      -1.149   0.265  -0.506  0.00  0.00     0.162 A 
ATOM      4  C3  UNL d   1       0.043  -0.073   0.134  0.00  0.00    -0.034 A 
ATOM      5  C4  UNL d   1       0.054  -1.145   1.029  0.00  0.00     0.162 A 
ATOM      6  C5  UNL d   1      -1.109  -1.866   1.275  0.00  0.00     0.062 A 
ATOM      7  F   UNL d   1      -1.089  -2.895   2.135  0.00  0.00    -0.097 F 
ATOM      8  F1  UNL d   1       1.183  -1.497   1.662  0.00  0.00    -0.096 F 
ATOM      9  I   UNL d   1       1.782   1.008  -0.236  0.00  0.00    -0.060 I 
ATOM     10  F2  UNL d   1      -1.197   1.289  -1.371  0.00  0.00    -0.096 F 
ATOM     11  F3  UNL d   1      -3.452  -0.127  -0.877  0.00  0.00    -0.097 F 
ATOM     12  F4  UNL d   1      -3.411  -2.220   0.872  0.00  0.00    -0.092 F 
ENDROOT
TORSDOF 0
ENDMDL
