MODEL 1
REMARK minimizedAffinity -0.564359248
REMARK minimizedRMSD -1
REMARK  0 active torsions:
REMARK  status: ('A' for Active; 'I' for Inactive)
ROOT
ATOM      1  C   UNL d   1       5.252   4.498   3.016  0.00  0.00     0.078 C 
ATOM      2  C1  UNL d   1       5.248   3.047   3.397  0.00  0.00    -0.077 A 
ATOM      3  C2  UNL d   1       4.491   2.115   2.677  0.00  0.00    -0.001 A 
ATOM      4  C3  UNL d   1       4.489   0.769   3.049  0.00  0.00     0.003 A 
ATOM      5  C4  UNL d   1       5.242   0.344   4.142  0.00  0.00    -0.005 A 
ATOM      6  C5  UNL d   1       5.997   1.265   4.865  0.00  0.00     0.003 A 
ATOM      7  C6  UNL d   1       6.000   2.611   4.495  0.00  0.00    -0.001 A 
ENDROOT
TORSDOF 0
ENDMDL
