MODEL 1
REMARK minimizedAffinity -0.678245664
REMARK minimizedRMSD -1
REMARK  0 active torsions:
REMARK  status: ('A' for Active; 'I' for Inactive)
ROOT
ATOM      1  C   UNL d   1       5.989   2.153   4.685  0.00  0.00     0.078 C 
ATOM      2  C1  UNL d   1       5.984   3.489   4.005  0.00  0.00    -0.077 A 
ATOM      3  C2  UNL d   1       5.994   3.587   2.608  0.00  0.00    -0.001 A 
ATOM      4  C3  UNL d   1       6.000   4.838   1.988  0.00  0.00     0.003 A 
ATOM      5  C4  UNL d   1       5.996   6.000   2.757  0.00  0.00    -0.005 A 
ATOM      6  C5  UNL d   1       5.988   5.912   4.147  0.00  0.00     0.003 A 
ATOM      7  C6  UNL d   1       5.983   4.663   4.769  0.00  0.00    -0.001 A 
ENDROOT
TORSDOF 0
ENDMDL
