MODEL 1
REMARK minimizedAffinity -1.65214586
REMARK minimizedRMSD -1
REMARK  0 active torsions:
REMARK  status: ('A' for Active; 'I' for Inactive)
ROOT
ATOM      1  C   UNL d   1       5.980   0.680   3.270  0.00  0.00     0.078 C 
ATOM      2  C1  UNL d   1       5.991   2.043   3.893  0.00  0.00    -0.077 A 
ATOM      3  C2  UNL d   1       5.983   2.200   5.285  0.00  0.00    -0.001 A 
ATOM      4  C3  UNL d   1       5.984   3.475   5.852  0.00  0.00     0.003 A 
ATOM      5  C4  UNL d   1       5.992   4.604   5.034  0.00  0.00    -0.005 A 
ATOM      6  C5  UNL d   1       5.998   4.458   3.649  0.00  0.00     0.003 A 
ATOM      7  C6  UNL d   1       5.997   3.183   3.080  0.00  0.00    -0.001 A 
ENDROOT
TORSDOF 0
ENDMDL
