MODEL 1
REMARK minimizedAffinity -1.55681312
REMARK minimizedRMSD -1
REMARK  0 active torsions:
REMARK  status: ('A' for Active; 'I' for Inactive)
ROOT
ATOM      1  C   UNL d   1       5.763  -2.151   4.893  0.00  0.00     0.078 C 
ATOM      2  C1  UNL d   1       5.852  -0.655   4.831  0.00  0.00    -0.077 A 
ATOM      3  C2  UNL d   1       5.917   0.113   6.000  0.00  0.00    -0.001 A 
ATOM      4  C3  UNL d   1       5.990   1.505   5.927  0.00  0.00     0.003 A 
ATOM      5  C4  UNL d   1       5.997   2.141   4.687  0.00  0.00    -0.005 A 
ATOM      6  C5  UNL d   1       5.930   1.385   3.518  0.00  0.00     0.003 A 
ATOM      7  C6  UNL d   1       5.857  -0.007   3.589  0.00  0.00    -0.001 A 
ENDROOT
TORSDOF 0
ENDMDL
