MODEL 1
REMARK minimizedAffinity -1.69683576
REMARK minimizedRMSD -1
REMARK  0 active torsions:
REMARK  status: ('A' for Active; 'I' for Inactive)
ROOT
ATOM      1  C   UNL d   1       5.991  -1.313   5.171  0.00  0.00     0.078 C 
ATOM      2  C1  UNL d   1       5.730   0.017   4.530  0.00  0.00    -0.077 A 
ATOM      3  C2  UNL d   1       5.999   0.229   3.172  0.00  0.00    -0.001 A 
ATOM      4  C3  UNL d   1       5.760   1.475   2.591  0.00  0.00     0.003 A 
ATOM      5  C4  UNL d   1       5.253   2.521   3.361  0.00  0.00    -0.005 A 
ATOM      6  C5  UNL d   1       4.985   2.320   4.714  0.00  0.00     0.003 A 
ATOM      7  C6  UNL d   1       5.223   1.074   5.296  0.00  0.00    -0.001 A 
ENDROOT
TORSDOF 0
ENDMDL
