MODEL 1
REMARK minimizedAffinity -2.60076308
REMARK minimizedRMSD -1
REMARK  0 active torsions:
REMARK  status: ('A' for Active; 'I' for Inactive)
ROOT
ATOM      1  C   UNL d   1       5.266   3.757   3.008  0.00  0.00     0.078 C 
ATOM      2  C1  UNL d   1       5.376   2.344   3.498  0.00  0.00    -0.077 A 
ATOM      3  C2  UNL d   1       4.994   2.000   4.800  0.00  0.00    -0.001 A 
ATOM      4  C3  UNL d   1       5.111   0.683   5.246  0.00  0.00     0.003 A 
ATOM      5  C4  UNL d   1       5.612  -0.301   4.396  0.00  0.00    -0.005 A 
ATOM      6  C5  UNL d   1       5.997   0.031   3.099  0.00  0.00     0.003 A 
ATOM      7  C6  UNL d   1       5.881   1.348   2.652  0.00  0.00    -0.001 A 
ENDROOT
TORSDOF 0
ENDMDL
