MODEL 1
REMARK minimizedAffinity 0.292221069
REMARK minimizedRMSD -1
REMARK  0 active torsions:
REMARK  status: ('A' for Active; 'I' for Inactive)
ROOT
ATOM      1  C   UNL d   1       5.972   5.504   0.899  0.00  0.00     0.078 C 
ATOM      2  C1  UNL d   1       5.978   5.052   2.328  0.00  0.00    -0.077 A 
ATOM      3  C2  UNL d   1       5.997   3.690   2.654  0.00  0.00    -0.001 A 
ATOM      4  C3  UNL d   1       5.992   3.283   3.989  0.00  0.00     0.003 A 
ATOM      5  C4  UNL d   1       5.967   4.231   5.009  0.00  0.00    -0.005 A 
ATOM      6  C5  UNL d   1       5.945   5.589   4.695  0.00  0.00     0.003 A 
ATOM      7  C6  UNL d   1       5.950   5.998   3.361  0.00  0.00    -0.001 A 
ENDROOT
TORSDOF 0
ENDMDL
