MODEL 1
REMARK minimizedAffinity -0.124111257
REMARK minimizedRMSD -1
REMARK  0 active torsions:
REMARK  status: ('A' for Active; 'I' for Inactive)
ROOT
ATOM      1  C   UNL d   1       6.000   4.612   2.588  0.00  0.00     0.078 C 
ATOM      2  C1  UNL d   1       5.988   3.377   3.438  0.00  0.00    -0.077 A 
ATOM      3  C2  UNL d   1       6.000   3.463   4.836  0.00  0.00    -0.001 A 
ATOM      4  C3  UNL d   1       5.999   2.305   5.615  0.00  0.00     0.003 A 
ATOM      5  C4  UNL d   1       5.986   1.052   5.005  0.00  0.00    -0.005 A 
ATOM      6  C5  UNL d   1       5.977   0.956   3.615  0.00  0.00     0.003 A 
ATOM      7  C6  UNL d   1       5.978   2.113   2.835  0.00  0.00    -0.001 A 
ENDROOT
TORSDOF 0
ENDMDL
