MODEL 1
REMARK minimizedAffinity -2.65210366
REMARK minimizedRMSD -1
REMARK  0 active torsions:
REMARK  status: ('A' for Active; 'I' for Inactive)
ROOT
ATOM      1  C   UNL d   1       5.864  -1.753   5.987  0.00  0.00     0.078 C 
ATOM      2  C1  UNL d   1       5.904  -0.451   5.245  0.00  0.00    -0.077 A 
ATOM      3  C2  UNL d   1       5.909  -0.418   3.845  0.00  0.00    -0.001 A 
ATOM      4  C3  UNL d   1       5.956   0.801   3.168  0.00  0.00     0.003 A 
ATOM      5  C4  UNL d   1       5.999   1.997   3.881  0.00  0.00    -0.005 A 
ATOM      6  C5  UNL d   1       5.996   1.975   5.274  0.00  0.00     0.003 A 
ATOM      7  C6  UNL d   1       5.949   0.756   5.954  0.00  0.00    -0.001 A 
ENDROOT
TORSDOF 0
ENDMDL
