MODEL 1
REMARK minimizedAffinity 1.48891354
REMARK minimizedRMSD -1
REMARK  0 active torsions:
REMARK  status: ('A' for Active; 'I' for Inactive)
ROOT
ATOM      1  C   UNL d   1       6.000  -2.603   4.466  0.00  0.00     0.078 C 
ATOM      2  C1  UNL d   1       5.987  -1.108   4.344  0.00  0.00    -0.077 A 
ATOM      3  C2  UNL d   1       5.999  -0.487   3.089  0.00  0.00    -0.001 A 
ATOM      4  C3  UNL d   1       5.997   0.905   2.991  0.00  0.00     0.003 A 
ATOM      5  C4  UNL d   1       5.984   1.688   4.144  0.00  0.00    -0.005 A 
ATOM      6  C5  UNL d   1       5.974   1.079   5.397  0.00  0.00     0.003 A 
ATOM      7  C6  UNL d   1       5.976  -0.313   5.497  0.00  0.00    -0.001 A 
ENDROOT
TORSDOF 0
ENDMDL
