MODEL 1
REMARK minimizedAffinity -0.864499211
REMARK minimizedRMSD -1
REMARK  0 active torsions:
REMARK  status: ('A' for Active; 'I' for Inactive)
ROOT
ATOM      1  C   UNL d   1       5.990   1.636   4.498  0.00  0.00     0.078 C 
ATOM      2  C1  UNL d   1       5.984   3.128   4.342  0.00  0.00    -0.077 A 
ATOM      3  C2  UNL d   1       5.995   3.720   3.074  0.00  0.00    -0.001 A 
ATOM      4  C3  UNL d   1       6.000   5.110   2.944  0.00  0.00     0.003 A 
ATOM      5  C4  UNL d   1       5.995   5.919   4.079  0.00  0.00    -0.005 A 
ATOM      6  C5  UNL d   1       5.986   5.338   5.345  0.00  0.00     0.003 A 
ATOM      7  C6  UNL d   1       5.982   3.949   5.477  0.00  0.00    -0.001 A 
ENDROOT
TORSDOF 0
ENDMDL
