MODEL 1
REMARK minimizedAffinity 10.7880907
REMARK minimizedRMSD -1
REMARK  0 active torsions:
REMARK  status: ('A' for Active; 'I' for Inactive)
ROOT
ATOM      1  C   UNL d   1      -1.487   5.244   4.497  0.00  0.00     0.078 C 
ATOM      2  C1  UNL d   1      -1.147   4.384   3.317  0.00  0.00    -0.077 A 
ATOM      3  C2  UNL d   1       0.184   4.079   3.006  0.00  0.00    -0.001 A 
ATOM      4  C3  UNL d   1       0.486   3.284   1.899  0.00  0.00     0.003 A 
ATOM      5  C4  UNL d   1      -0.537   2.789   1.093  0.00  0.00    -0.005 A 
ATOM      6  C5  UNL d   1      -1.865   3.089   1.393  0.00  0.00     0.003 A 
ATOM      7  C6  UNL d   1      -2.169   3.883   2.500  0.00  0.00    -0.001 A 
ENDROOT
TORSDOF 0
ENDMDL
