MODEL 1
REMARK minimizedAffinity -2.01620269
REMARK minimizedRMSD -1
REMARK  0 active torsions:
REMARK  status: ('A' for Active; 'I' for Inactive)
ROOT
ATOM      1  C   UNL d   1       5.999   4.182   3.369  0.00  0.00     0.078 C 
ATOM      2  C1  UNL d   1       5.993   2.732   3.751  0.00  0.00    -0.077 A 
ATOM      3  C2  UNL d   1       5.999   1.728   2.774  0.00  0.00    -0.001 A 
ATOM      4  C3  UNL d   1       5.983   0.383   3.145  0.00  0.00     0.003 A 
ATOM      5  C4  UNL d   1       5.960   0.028   4.492  0.00  0.00    -0.005 A 
ATOM      6  C5  UNL d   1       5.951   1.019   5.471  0.00  0.00     0.003 A 
ATOM      7  C6  UNL d   1       5.967   2.366   5.103  0.00  0.00    -0.001 A 
ENDROOT
TORSDOF 0
ENDMDL
