MODEL 1
REMARK minimizedAffinity -0.260848135
REMARK minimizedRMSD -1
REMARK  0 active torsions:
REMARK  status: ('A' for Active; 'I' for Inactive)
ROOT
ATOM      1  C   UNL d   1       5.999   4.220   2.693  0.00  0.00     0.078 C 
ATOM      2  C1  UNL d   1       5.990   3.087   3.676  0.00  0.00    -0.077 A 
ATOM      3  C2  UNL d   1       5.998   3.329   5.056  0.00  0.00    -0.001 A 
ATOM      4  C3  UNL d   1       5.999   2.265   5.959  0.00  0.00     0.003 A 
ATOM      5  C4  UNL d   1       5.995   0.952   5.493  0.00  0.00    -0.005 A 
ATOM      6  C5  UNL d   1       5.989   0.701   4.123  0.00  0.00     0.003 A 
ATOM      7  C6  UNL d   1       5.988   1.764   3.218  0.00  0.00    -0.001 A 
ENDROOT
TORSDOF 0
ENDMDL
