MODEL 1
REMARK minimizedAffinity -3.89669752
REMARK minimizedRMSD -1
REMARK  1 active torsions:
REMARK  status: ('A' for Active; 'I' for Inactive)
REMARK    1  A    between atoms: C3_4  and  O_7 
ROOT
ATOM      1  C   UNL d   1       1.489  -1.789   3.563  0.00  0.00    -0.033 A 
ATOM      2  C1  UNL d   1       2.549  -1.767   4.471  0.00  0.00     0.039 A 
ATOM      3  C2  UNL d   1       3.787  -1.246   4.088  0.00  0.00    -0.080 A 
ATOM      4  C3  UNL d   1       3.950  -0.750   2.798  0.00  0.00     0.150 A 
ATOM      5  C4  UNL d   1       2.897  -0.765   1.890  0.00  0.00    -0.007 A 
ATOM      6  C5  UNL d   1       1.662  -1.286   2.274  0.00  0.00     0.039 A 
ENDROOT
BRANCH   4   7
ATOM      7  O   UNL d   1       5.141  -0.236   2.378  0.00  0.00    -0.526 OA
ATOM      8  H5  UNL d   1       5.784  -0.317   3.101  0.00  0.00     0.418 HD
ENDBRANCH   4   7
TORSDOF 1
ENDMDL
