MODEL 1
REMARK minimizedAffinity -3.3880415
REMARK minimizedRMSD -1
REMARK  1 active torsions:
REMARK  status: ('A' for Active; 'I' for Inactive)
REMARK    1  A    between atoms: C3_4  and  O_7 
ROOT
ATOM      1  C   UNL d   1       1.252  -1.175   3.062  0.00  0.00    -0.033 A 
ATOM      2  C1  UNL d   1       1.615  -0.779   1.773  0.00  0.00     0.039 A 
ATOM      3  C2  UNL d   1       2.963  -0.620   1.444  0.00  0.00    -0.080 A 
ATOM      4  C3  UNL d   1       3.935  -0.861   2.410  0.00  0.00     0.150 A 
ATOM      5  C4  UNL d   1       3.581  -1.259   3.695  0.00  0.00    -0.007 A 
ATOM      6  C5  UNL d   1       2.235  -1.416   4.022  0.00  0.00     0.039 A 
ENDROOT
BRANCH   4   7
ATOM      7  O   UNL d   1       5.263  -0.714   2.137  0.00  0.00    -0.526 OA
ATOM      8  H5  UNL d   1       5.356  -0.407   1.219  0.00  0.00     0.418 HD
ENDBRANCH   4   7
TORSDOF 1
ENDMDL
