MODEL 1
REMARK minimizedAffinity -3.86254787
REMARK minimizedRMSD -1
REMARK  1 active torsions:
REMARK  status: ('A' for Active; 'I' for Inactive)
REMARK    1  A    between atoms: C3_4  and  O_7 
ROOT
ATOM      1  C   UNL d   1      -4.864   0.986  -0.909  0.00  0.00    -0.033 A 
ATOM      2  C1  UNL d   1      -3.702   0.220  -0.796  0.00  0.00     0.039 A 
ATOM      3  C2  UNL d   1      -2.639   0.427  -1.676  0.00  0.00    -0.080 A 
ATOM      4  C3  UNL d   1      -2.749   1.403  -2.663  0.00  0.00     0.150 A 
ATOM      5  C4  UNL d   1      -3.902   2.172  -2.779  0.00  0.00    -0.007 A 
ATOM      6  C5  UNL d   1      -4.963   1.964  -1.899  0.00  0.00     0.039 A 
ENDROOT
BRANCH   4   7
ATOM      7  O   UNL d   1      -1.740   1.638  -3.549  0.00  0.00    -0.526 OA
ATOM      8  H5  UNL d   1      -1.019   1.012  -3.367  0.00  0.00     0.418 HD
ENDBRANCH   4   7
TORSDOF 1
ENDMDL
