MODEL 1
REMARK minimizedAffinity 0.227634519
REMARK minimizedRMSD -1
REMARK  1 active torsions:
REMARK  status: ('A' for Active; 'I' for Inactive)
REMARK    1  A    between atoms: C3_4  and  O_7 
ROOT
ATOM      1  C   UNL d   1      -1.449   1.936  -3.708  0.00  0.00    -0.033 A 
ATOM      2  C1  UNL d   1      -1.189   3.044  -4.516  0.00  0.00     0.039 A 
ATOM      3  C2  UNL d   1      -2.208   3.597  -5.295  0.00  0.00    -0.080 A 
ATOM      4  C3  UNL d   1      -3.480   3.034  -5.254  0.00  0.00     0.150 A 
ATOM      5  C4  UNL d   1      -3.747   1.932  -4.448  0.00  0.00    -0.007 A 
ATOM      6  C5  UNL d   1      -2.728   1.381  -3.672  0.00  0.00     0.039 A 
ENDROOT
BRANCH   4   7
ATOM      7  O   UNL d   1      -4.505   3.536  -6.000  0.00  0.00    -0.526 OA
ATOM      8  H5  UNL d   1      -4.167   4.277  -6.529  0.00  0.00     0.418 HD
ENDBRANCH   4   7
TORSDOF 1
ENDMDL
