MODEL 1
REMARK minimizedAffinity -2.03913975
REMARK minimizedRMSD -1
REMARK  1 active torsions:
REMARK  status: ('A' for Active; 'I' for Inactive)
REMARK    1  A    between atoms: C3_4  and  O_7 
ROOT
ATOM      1  C   UNL d   1       1.895  -2.779   2.041  0.00  0.00    -0.033 A 
ATOM      2  C1  UNL d   1       0.866  -2.908   1.106  0.00  0.00     0.039 A 
ATOM      3  C2  UNL d   1       0.363  -1.778   0.458  0.00  0.00    -0.080 A 
ATOM      4  C3  UNL d   1       0.898  -0.527   0.752  0.00  0.00     0.150 A 
ATOM      5  C4  UNL d   1       1.926  -0.392   1.679  0.00  0.00    -0.007 A 
ATOM      6  C5  UNL d   1       2.426  -1.521   2.326  0.00  0.00     0.039 A 
ENDROOT
BRANCH   4   7
ATOM      7  O   UNL d   1       0.437   0.605   0.149  0.00  0.00    -0.526 OA
ATOM      8  H5  UNL d   1      -0.293   0.361  -0.446  0.00  0.00     0.418 HD
ENDBRANCH   4   7
TORSDOF 1
ENDMDL
