MODEL 1
REMARK minimizedAffinity -1.83452141
REMARK minimizedRMSD -1
REMARK  1 active torsions:
REMARK  status: ('A' for Active; 'I' for Inactive)
REMARK    1  A    between atoms: C3_4  and  O_7 
ROOT
ATOM      1  C   UNL d   1       4.226  -0.851   3.505  0.00  0.00    -0.033 A 
ATOM      2  C1  UNL d   1       3.004  -1.261   4.043  0.00  0.00     0.039 A 
ATOM      3  C2  UNL d   1       1.858  -1.271   3.246  0.00  0.00    -0.080 A 
ATOM      4  C3  UNL d   1       1.946  -0.872   1.915  0.00  0.00     0.150 A 
ATOM      5  C4  UNL d   1       3.161  -0.467   1.372  0.00  0.00    -0.007 A 
ATOM      6  C5  UNL d   1       4.305  -0.455   2.169  0.00  0.00     0.039 A 
ENDROOT
BRANCH   4   7
ATOM      7  O   UNL d   1       0.854  -0.861   1.100  0.00  0.00    -0.526 OA
ATOM      8  H5  UNL d   1       0.080  -1.138   1.619  0.00  0.00     0.418 HD
ENDBRANCH   4   7
TORSDOF 1
ENDMDL
