MODEL 1
REMARK minimizedAffinity -3.00140166
REMARK minimizedRMSD -1
REMARK  1 active torsions:
REMARK  status: ('A' for Active; 'I' for Inactive)
REMARK    1  A    between atoms: C3_4  and  O_7 
ROOT
ATOM      1  C   UNL d   1       2.576  -1.827   1.926  0.00  0.00    -0.033 A 
ATOM      2  C1  UNL d   1       1.443  -1.731   2.736  0.00  0.00     0.039 A 
ATOM      3  C2  UNL d   1       0.347  -0.974   2.319  0.00  0.00    -0.080 A 
ATOM      4  C3  UNL d   1       0.395  -0.320   1.091  0.00  0.00     0.150 A 
ATOM      5  C4  UNL d   1       1.519  -0.414   0.278  0.00  0.00    -0.007 A 
ATOM      6  C5  UNL d   1       2.614  -1.170   0.696  0.00  0.00     0.039 A 
ENDROOT
BRANCH   4   7
ATOM      7  O   UNL d   1      -0.648   0.435   0.644  0.00  0.00    -0.526 OA
ATOM      8  H5  UNL d   1      -1.343   0.432   1.323  0.00  0.00     0.418 HD
ENDBRANCH   4   7
TORSDOF 1
ENDMDL
