MODEL 1
REMARK minimizedAffinity 1.74122465
REMARK minimizedRMSD -1
REMARK  1 active torsions:
REMARK  status: ('A' for Active; 'I' for Inactive)
REMARK    1  A    between atoms: C3_4  and  O_7 
ROOT
ATOM      1  C   UNL d   1      -2.749   1.341  -2.560  0.00  0.00    -0.033 A 
ATOM      2  C1  UNL d   1      -1.410   0.973  -2.709  0.00  0.00     0.039 A 
ATOM      3  C2  UNL d   1      -0.478   1.899  -3.182  0.00  0.00    -0.080 A 
ATOM      4  C3  UNL d   1      -0.897   3.187  -3.503  0.00  0.00     0.150 A 
ATOM      5  C4  UNL d   1      -2.229   3.561  -3.354  0.00  0.00    -0.007 A 
ATOM      6  C5  UNL d   1      -3.158   2.635  -2.882  0.00  0.00     0.039 A 
ENDROOT
BRANCH   4   7
ATOM      7  O   UNL d   1      -0.026   4.124  -3.973  0.00  0.00    -0.526 OA
ATOM      8  H5  UNL d   1       0.852   3.715  -4.052  0.00  0.00     0.418 HD
ENDBRANCH   4   7
TORSDOF 1
ENDMDL
