MODEL 1
REMARK minimizedAffinity -3.78393173
REMARK minimizedRMSD -1
REMARK  1 active torsions:
REMARK  status: ('A' for Active; 'I' for Inactive)
REMARK    1  A    between atoms: C3_4  and  O_7 
ROOT
ATOM      1  C   UNL d   1      -4.547  -1.138  -0.006  0.00  0.00    -0.033 A 
ATOM      2  C1  UNL d   1      -5.639  -0.269   0.046  0.00  0.00     0.039 A 
ATOM      3  C2  UNL d   1      -5.787   0.728  -0.920  0.00  0.00    -0.080 A 
ATOM      4  C3  UNL d   1      -4.838   0.845  -1.932  0.00  0.00     0.150 A 
ATOM      5  C4  UNL d   1      -3.750  -0.020  -1.992  0.00  0.00    -0.007 A 
ATOM      6  C5  UNL d   1      -3.603  -1.014  -1.026  0.00  0.00     0.039 A 
ENDROOT
BRANCH   4   7
ATOM      7  O   UNL d   1      -4.938   1.805  -2.894  0.00  0.00    -0.526 OA
ATOM      8  H5  UNL d   1      -5.723   2.347  -2.709  0.00  0.00     0.418 HD
ENDBRANCH   4   7
TORSDOF 1
ENDMDL
