MODEL 1
REMARK minimizedAffinity 0.746912241
REMARK minimizedRMSD -1
REMARK  1 active torsions:
REMARK  status: ('A' for Active; 'I' for Inactive)
REMARK    1  A    between atoms: C3_4  and  O_7 
ROOT
ATOM      1  C   UNL d   1       0.493   4.925   0.784  0.00  0.00    -0.033 A 
ATOM      2  C1  UNL d   1       0.948   3.862   0.002  0.00  0.00     0.039 A 
ATOM      3  C2  UNL d   1       2.315   3.590  -0.083  0.00  0.00    -0.080 A 
ATOM      4  C3  UNL d   1       3.215   4.388   0.618  0.00  0.00     0.150 A 
ATOM      5  C4  UNL d   1       2.768   5.447   1.402  0.00  0.00    -0.007 A 
ATOM      6  C5  UNL d   1       1.403   5.717   1.485  0.00  0.00     0.039 A 
ENDROOT
BRANCH   4   7
ATOM      7  O   UNL d   1       4.559   4.165   0.563  0.00  0.00    -0.526 OA
ATOM      8  H5  UNL d   1       4.722   3.420  -0.039  0.00  0.00     0.418 HD
ENDBRANCH   4   7
TORSDOF 1
ENDMDL
