MODEL 1
REMARK minimizedAffinity 2.12742543
REMARK minimizedRMSD -1
REMARK  1 active torsions:
REMARK  status: ('A' for Active; 'I' for Inactive)
REMARK    1  A    between atoms: C3_4  and  O_7 
ROOT
ATOM      1  C   UNL d   1       1.491  -0.706  -0.278  0.00  0.00    -0.033 A 
ATOM      2  C1  UNL d   1       0.521  -0.333   0.655  0.00  0.00     0.039 A 
ATOM      3  C2  UNL d   1      -0.513  -1.213   0.980  0.00  0.00    -0.080 A 
ATOM      4  C3  UNL d   1      -0.565  -2.462   0.367  0.00  0.00     0.150 A 
ATOM      5  C4  UNL d   1       0.400  -2.842  -0.560  0.00  0.00    -0.007 A 
ATOM      6  C5  UNL d   1       1.431  -1.961  -0.884  0.00  0.00     0.039 A 
ENDROOT
BRANCH   4   7
ATOM      7  O   UNL d   1      -1.557  -3.353   0.649  0.00  0.00    -0.526 OA
ATOM      8  H5  UNL d   1      -2.168  -2.944   1.284  0.00  0.00     0.418 HD
ENDBRANCH   4   7
TORSDOF 1
ENDMDL
