MODEL 1
REMARK minimizedAffinity 4.59307957
REMARK minimizedRMSD -1
REMARK  1 active torsions:
REMARK  status: ('A' for Active; 'I' for Inactive)
REMARK    1  A    between atoms: C3_4  and  O_7 
ROOT
ATOM      1  C   UNL d   1       4.668  -1.009   3.229  0.00  0.00    -0.033 A 
ATOM      2  C1  UNL d   1       3.394  -1.455   3.586  0.00  0.00     0.039 A 
ATOM      3  C2  UNL d   1       2.346  -1.390   2.665  0.00  0.00    -0.080 A 
ATOM      4  C3  UNL d   1       2.585  -0.878   1.393  0.00  0.00     0.150 A 
ATOM      5  C4  UNL d   1       3.853  -0.436   1.029  0.00  0.00    -0.007 A 
ATOM      6  C5  UNL d   1       4.898  -0.500   1.950  0.00  0.00     0.039 A 
ENDROOT
BRANCH   4   7
ATOM      7  O   UNL d   1       1.593  -0.791   0.462  0.00  0.00    -0.526 OA
ATOM      8  H5  UNL d   1       0.766  -1.106   0.863  0.00  0.00     0.418 HD
ENDBRANCH   4   7
TORSDOF 1
ENDMDL
