MODEL 1
REMARK minimizedAffinity 6.55961752
REMARK minimizedRMSD -1
REMARK  1 active torsions:
REMARK  status: ('A' for Active; 'I' for Inactive)
REMARK    1  A    between atoms: C3_4  and  O_7 
ROOT
ATOM      1  C   UNL d   1      -2.071   0.856  -2.496  0.00  0.00    -0.033 A 
ATOM      2  C1  UNL d   1      -0.679   0.956  -2.452  0.00  0.00     0.039 A 
ATOM      3  C2  UNL d   1      -0.035   2.040  -3.052  0.00  0.00    -0.080 A 
ATOM      4  C3  UNL d   1      -0.794   3.016  -3.692  0.00  0.00     0.150 A 
ATOM      5  C4  UNL d   1      -2.181   2.925  -3.736  0.00  0.00    -0.007 A 
ATOM      6  C5  UNL d   1      -2.822   1.841  -3.137  0.00  0.00     0.039 A 
ENDROOT
BRANCH   4   7
ATOM      7  O   UNL d   1      -0.210   4.090  -4.296  0.00  0.00    -0.526 OA
ATOM      8  H5  UNL d   1       0.754   4.005  -4.210  0.00  0.00     0.418 HD
ENDBRANCH   4   7
TORSDOF 1
ENDMDL
