MODEL 1
REMARK minimizedAffinity 1.69178593
REMARK minimizedRMSD -1
REMARK  1 active torsions:
REMARK  status: ('A' for Active; 'I' for Inactive)
REMARK    1  A    between atoms: C3_4  and  O_7 
ROOT
ATOM      1  C   UNL d   1      -3.376  -5.694  -4.729  0.00  0.00    -0.033 A 
ATOM      2  C1  UNL d   1      -2.623  -5.376  -3.597  0.00  0.00     0.039 A 
ATOM      3  C2  UNL d   1      -1.229  -5.367  -3.664  0.00  0.00    -0.080 A 
ATOM      4  C3  UNL d   1      -0.600  -5.676  -4.867  0.00  0.00     0.150 A 
ATOM      5  C4  UNL d   1      -1.344  -5.990  -6.000  0.00  0.00    -0.007 A 
ATOM      6  C5  UNL d   1      -2.736  -6.000  -5.931  0.00  0.00     0.039 A 
ENDROOT
BRANCH   4   7
ATOM      7  O   UNL d   1       0.758  -5.686  -4.979  0.00  0.00    -0.526 OA
ATOM      8  H5  UNL d   1       1.140  -5.478  -4.110  0.00  0.00     0.418 HD
ENDBRANCH   4   7
TORSDOF 1
ENDMDL
