MODEL 1
REMARK minimizedAffinity 0.920815825
REMARK minimizedRMSD -1
REMARK  1 active torsions:
REMARK  status: ('A' for Active; 'I' for Inactive)
REMARK    1  A    between atoms: C3_4  and  O_7 
ROOT
ATOM      1  C   UNL d   1       1.023  -0.700   1.181  0.00  0.00    -0.033 A 
ATOM      2  C1  UNL d   1       1.514  -0.897   2.473  0.00  0.00     0.039 A 
ATOM      3  C2  UNL d   1       2.889  -1.008   2.690  0.00  0.00    -0.080 A 
ATOM      4  C3  UNL d   1       3.761  -0.921   1.609  0.00  0.00     0.150 A 
ATOM      5  C4  UNL d   1       3.279  -0.722   0.319  0.00  0.00    -0.007 A 
ATOM      6  C5  UNL d   1       1.906  -0.611   0.104  0.00  0.00     0.039 A 
ENDROOT
BRANCH   4   7
ATOM      7  O   UNL d   1       5.110  -1.029   1.770  0.00  0.00    -0.526 OA
ATOM      8  H5  UNL d   1       5.295  -1.193   2.710  0.00  0.00     0.418 HD
ENDBRANCH   4   7
TORSDOF 1
ENDMDL
