MODEL 1
REMARK minimizedAffinity -0.132857904
REMARK minimizedRMSD -1
REMARK  1 active torsions:
REMARK  status: ('A' for Active; 'I' for Inactive)
REMARK    1  A    between atoms: C1_2  and  C2_3 
ROOT
ATOM      1  C2  UNL d   1       5.835  -3.625   3.572  0.00  0.00    -0.076 A 
ATOM      2  C3  UNL d   1       5.726  -2.944   4.797  0.00  0.00     0.004 A 
ATOM      3  C4  UNL d   1       5.620  -3.642   5.999  0.00  0.00    -0.003 A 
ATOM      4  C5  UNL d   1       5.623  -5.032   5.995  0.00  0.00     0.000 A 
ATOM      5  C6  UNL d   1       5.749  -5.724   4.791  0.00  0.00     0.000 A 
ATOM      6  C7  UNL d   1       5.873  -5.036   3.572  0.00  0.00    -0.073 A 
ATOM      7  C8  UNL d   1       6.000  -5.832   2.303  0.00  0.00     0.078 C 
ENDROOT
BRANCH   1   8
ATOM      8  C1  UNL d   1       5.919  -2.815   2.298  0.00  0.00     0.053 C 
ATOM      9  C   UNL d   1       6.000  -1.319   2.563  0.00  0.00     0.018 C 
ENDBRANCH   1   8
TORSDOF 1
ENDMDL
