MODEL 1
REMARK minimizedAffinity 1.99240088
REMARK minimizedRMSD -1
REMARK  1 active torsions:
REMARK  status: ('A' for Active; 'I' for Inactive)
REMARK    1  A    between atoms: C1_2  and  C2_3 
ROOT
ATOM      1  C2  UNL d   1       5.484  -3.985   3.618  0.00  0.00    -0.076 A 
ATOM      2  C3  UNL d   1       5.999  -2.709   3.903  0.00  0.00     0.004 A 
ATOM      3  C4  UNL d   1       5.666  -2.048   5.084  0.00  0.00    -0.003 A 
ATOM      4  C5  UNL d   1       4.812  -2.654   6.000  0.00  0.00     0.000 A 
ATOM      5  C6  UNL d   1       4.305  -3.927   5.741  0.00  0.00     0.000 A 
ATOM      6  C7  UNL d   1       4.645  -4.613   4.562  0.00  0.00    -0.073 A 
ATOM      7  C8  UNL d   1       4.064  -5.982   4.332  0.00  0.00     0.078 C 
ENDROOT
BRANCH   1   8
ATOM      8  C1  UNL d   1       5.859  -4.641   2.308  0.00  0.00     0.053 C 
ATOM      9  C   UNL d   1       5.999  -3.639   1.173  0.00  0.00     0.018 C 
ENDBRANCH   1   8
TORSDOF 1
ENDMDL
