MODEL 1
REMARK minimizedAffinity -2.58838415
REMARK minimizedRMSD -1
REMARK  1 active torsions:
REMARK  status: ('A' for Active; 'I' for Inactive)
REMARK    1  A    between atoms: C1_2  and  C2_3 
ROOT
ATOM      1  C2  UNL d   1       5.739  -4.401   3.658  0.00  0.00    -0.076 A 
ATOM      2  C3  UNL d   1       5.997  -3.142   3.088  0.00  0.00     0.004 A 
ATOM      3  C4  UNL d   1       5.881  -1.976   3.844  0.00  0.00    -0.003 A 
ATOM      4  C5  UNL d   1       5.507  -2.050   5.181  0.00  0.00     0.000 A 
ATOM      5  C6  UNL d   1       5.265  -3.293   5.767  0.00  0.00     0.000 A 
ATOM      6  C7  UNL d   1       5.393  -4.479   5.024  0.00  0.00    -0.073 A 
ATOM      7  C8  UNL d   1       5.114  -5.791   5.705  0.00  0.00     0.078 C 
ENDROOT
BRANCH   1   8
ATOM      8  C1  UNL d   1       5.854  -5.629   2.783  0.00  0.00     0.053 C 
ATOM      9  C   UNL d   1       6.000  -5.282   1.309  0.00  0.00     0.018 C 
ENDBRANCH   1   8
TORSDOF 1
ENDMDL
