MODEL 1
REMARK minimizedAffinity -3.11695838
REMARK minimizedRMSD -1
REMARK  1 active torsions:
REMARK  status: ('A' for Active; 'I' for Inactive)
REMARK    1  A    between atoms: C1_2  and  C2_3 
ROOT
ATOM      1  C2  UNL d   1       5.869  -4.290   4.468  0.00  0.00    -0.076 A 
ATOM      2  C3  UNL d   1       5.790  -3.059   5.142  0.00  0.00     0.004 A 
ATOM      3  C4  UNL d   1       5.799  -1.855   4.440  0.00  0.00    -0.003 A 
ATOM      4  C5  UNL d   1       5.887  -1.863   3.052  0.00  0.00     0.000 A 
ATOM      5  C6  UNL d   1       5.949  -3.075   2.366  0.00  0.00     0.000 A 
ATOM      6  C7  UNL d   1       5.924  -4.299   3.058  0.00  0.00    -0.073 A 
ATOM      7  C8  UNL d   1       6.000  -5.576   2.268  0.00  0.00     0.078 C 
ENDROOT
BRANCH   1   8
ATOM      8  C1  UNL d   1       5.883  -5.563   5.284  0.00  0.00     0.053 C 
ATOM      9  C   UNL d   1       4.559  -5.817   5.989  0.00  0.00     0.018 C 
ENDBRANCH   1   8
TORSDOF 1
ENDMDL
