MODEL 1
REMARK minimizedAffinity -3.54178286
REMARK minimizedRMSD -1
REMARK  1 active torsions:
REMARK  status: ('A' for Active; 'I' for Inactive)
REMARK    1  A    between atoms: C1_2  and  C2_3 
ROOT
ATOM      1  C2  UNL d   1       5.248  -3.494   4.326  0.00  0.00    -0.076 A 
ATOM      2  C3  UNL d   1       5.225  -2.999   3.010  0.00  0.00     0.004 A 
ATOM      3  C4  UNL d   1       5.593  -3.805   1.934  0.00  0.00    -0.003 A 
ATOM      4  C5  UNL d   1       5.988  -5.119   2.156  0.00  0.00     0.000 A 
ATOM      5  C6  UNL d   1       6.000  -5.632   3.452  0.00  0.00     0.000 A 
ATOM      6  C7  UNL d   1       5.617  -4.838   4.547  0.00  0.00    -0.073 A 
ATOM      7  C8  UNL d   1       5.654  -5.441   5.924  0.00  0.00     0.078 C 
ENDROOT
BRANCH   1   8
ATOM      8  C1  UNL d   1       4.866  -2.565   5.456  0.00  0.00     0.053 C 
ATOM      9  C   UNL d   1       3.388  -2.652   5.807  0.00  0.00     0.018 C 
ENDBRANCH   1   8
TORSDOF 1
ENDMDL
