MODEL 1
REMARK minimizedAffinity -3.35787034
REMARK minimizedRMSD -1
REMARK  1 active torsions:
REMARK  status: ('A' for Active; 'I' for Inactive)
REMARK    1  A    between atoms: C1_2  and  C2_3 
ROOT
ATOM      1  C2  UNL d   1       5.467  -4.303   4.431  0.00  0.00    -0.076 A 
ATOM      2  C3  UNL d   1       5.074  -3.008   4.809  0.00  0.00     0.004 A 
ATOM      3  C4  UNL d   1       4.843  -2.020   3.852  0.00  0.00    -0.003 A 
ATOM      4  C5  UNL d   1       5.001  -2.313   2.502  0.00  0.00     0.000 A 
ATOM      5  C6  UNL d   1       5.374  -3.598   2.108  0.00  0.00     0.000 A 
ATOM      6  C7  UNL d   1       5.594  -4.609   3.059  0.00  0.00    -0.073 A 
ATOM      7  C8  UNL d   1       6.000  -5.976   2.579  0.00  0.00     0.078 C 
ENDROOT
BRANCH   1   8
ATOM      8  C1  UNL d   1       5.730  -5.325   5.514  0.00  0.00     0.053 C 
ATOM      9  C   UNL d   1       4.456  -6.000   6.000  0.00  0.00     0.018 C 
ENDBRANCH   1   8
TORSDOF 1
ENDMDL
