MODEL 1
REMARK minimizedAffinity -3.15501857
REMARK minimizedRMSD -1
REMARK  1 active torsions:
REMARK  status: ('A' for Active; 'I' for Inactive)
REMARK    1  A    between atoms: C1_2  and  C2_3 
ROOT
ATOM      1  C2  UNL d   1       5.877  -4.415   4.374  0.00  0.00    -0.076 A 
ATOM      2  C3  UNL d   1       5.940  -4.920   3.064  0.00  0.00     0.004 A 
ATOM      3  C4  UNL d   1       6.000  -4.063   1.966  0.00  0.00    -0.003 A 
ATOM      4  C5  UNL d   1       5.999  -2.686   2.161  0.00  0.00     0.000 A 
ATOM      5  C6  UNL d   1       5.954  -2.168   3.455  0.00  0.00     0.000 A 
ATOM      6  C7  UNL d   1       5.910  -3.018   4.573  0.00  0.00    -0.073 A 
ATOM      7  C8  UNL d   1       5.857  -2.404   5.945  0.00  0.00     0.078 C 
ENDROOT
BRANCH   1   8
ATOM      8  C1  UNL d   1       5.786  -5.393   5.524  0.00  0.00     0.053 C 
ATOM      9  C   UNL d   1       4.388  -5.969   5.689  0.00  0.00     0.018 C 
ENDBRANCH   1   8
TORSDOF 1
ENDMDL
