MODEL 1
REMARK minimizedAffinity 9.41203403
REMARK minimizedRMSD -1
REMARK  1 active torsions:
REMARK  status: ('A' for Active; 'I' for Inactive)
REMARK    1  A    between atoms: C1_2  and  C2_3 
ROOT
ATOM      1  C2  UNL d   1      -0.230   3.596   1.233  0.00  0.00    -0.076 A 
ATOM      2  C3  UNL d   1       0.803   2.954   0.529  0.00  0.00     0.004 A 
ATOM      3  C4  UNL d   1       2.120   3.401   0.621  0.00  0.00    -0.003 A 
ATOM      4  C5  UNL d   1       2.425   4.497   1.421  0.00  0.00     0.000 A 
ATOM      5  C6  UNL d   1       1.416   5.135   2.141  0.00  0.00     0.000 A 
ATOM      6  C7  UNL d   1       0.085   4.687   2.071  0.00  0.00    -0.073 A 
ATOM      7  C8  UNL d   1      -0.964   5.417   2.864  0.00  0.00     0.078 C 
ENDROOT
BRANCH   1   8
ATOM      8  C1  UNL d   1      -1.644   3.084   1.073  0.00  0.00     0.053 C 
ATOM      9  C   UNL d   1      -2.127   3.149  -0.368  0.00  0.00     0.018 C 
ENDBRANCH   1   8
TORSDOF 1
ENDMDL
