MODEL 1
REMARK minimizedAffinity -3.53554535
REMARK minimizedRMSD -1
REMARK  1 active torsions:
REMARK  status: ('A' for Active; 'I' for Inactive)
REMARK    1  A    between atoms: C1_2  and  C2_3 
ROOT
ATOM      1  C2  UNL d   1       5.936  -4.415   4.398  0.00  0.00    -0.076 A 
ATOM      2  C3  UNL d   1       5.897  -3.127   4.958  0.00  0.00     0.004 A 
ATOM      3  C4  UNL d   1       5.915  -1.992   4.148  0.00  0.00    -0.003 A 
ATOM      4  C5  UNL d   1       5.972  -2.128   2.765  0.00  0.00     0.000 A 
ATOM      5  C6  UNL d   1       5.994  -3.399   2.192  0.00  0.00     0.000 A 
ATOM      6  C7  UNL d   1       5.960  -4.553   2.993  0.00  0.00    -0.073 A 
ATOM      7  C8  UNL d   1       5.991  -5.899   2.322  0.00  0.00     0.078 C 
ENDROOT
BRANCH   1   8
ATOM      8  C1  UNL d   1       5.942  -5.609   5.326  0.00  0.00     0.053 C 
ATOM      9  C   UNL d   1       4.564  -5.912   5.894  0.00  0.00     0.018 C 
ENDBRANCH   1   8
TORSDOF 1
ENDMDL
