MODEL 1
REMARK minimizedAffinity -3.27182841
REMARK minimizedRMSD -1
REMARK  1 active torsions:
REMARK  status: ('A' for Active; 'I' for Inactive)
REMARK    1  A    between atoms: C1_2  and  C2_3 
ROOT
ATOM      1  C2  UNL d   1       5.340  -3.472   4.642  0.00  0.00    -0.076 A 
ATOM      2  C3  UNL d   1       5.638  -2.849   3.418  0.00  0.00     0.004 A 
ATOM      3  C4  UNL d   1       5.964  -3.602   2.291  0.00  0.00    -0.003 A 
ATOM      4  C5  UNL d   1       5.996  -4.990   2.370  0.00  0.00     0.000 A 
ATOM      5  C6  UNL d   1       5.685  -5.625   3.572  0.00  0.00     0.000 A 
ATOM      6  C7  UNL d   1       5.339  -4.881   4.713  0.00  0.00    -0.073 A 
ATOM      7  C8  UNL d   1       5.019  -5.618   5.985  0.00  0.00     0.078 C 
ENDROOT
BRANCH   1   8
ATOM      8  C1  UNL d   1       5.020  -2.602   5.837  0.00  0.00     0.053 C 
ATOM      9  C   UNL d   1       5.944  -1.399   5.947  0.00  0.00     0.018 C 
ENDBRANCH   1   8
TORSDOF 1
ENDMDL
