MODEL 1
REMARK minimizedAffinity 1.41730475
REMARK minimizedRMSD -1
REMARK  1 active torsions:
REMARK  status: ('A' for Active; 'I' for Inactive)
REMARK    1  A    between atoms: C1_2  and  C2_3 
ROOT
ATOM      1  C2  UNL d   1       5.982  -4.382   4.031  0.00  0.00    -0.076 A 
ATOM      2  C3  UNL d   1       5.999  -4.897   2.723  0.00  0.00     0.004 A 
ATOM      3  C4  UNL d   1       5.999  -4.048   1.618  0.00  0.00    -0.003 A 
ATOM      4  C5  UNL d   1       5.982  -2.670   1.803  0.00  0.00     0.000 A 
ATOM      5  C6  UNL d   1       5.983  -2.142   3.093  0.00  0.00     0.000 A 
ATOM      6  C7  UNL d   1       6.000  -2.984   4.218  0.00  0.00    -0.073 A 
ATOM      7  C8  UNL d   1       5.994  -2.360   5.587  0.00  0.00     0.078 C 
ENDROOT
BRANCH   1   8
ATOM      8  C1  UNL d   1       5.956  -5.352   5.191  0.00  0.00     0.053 C 
ATOM      9  C   UNL d   1       4.669  -5.263   5.996  0.00  0.00     0.018 C 
ENDBRANCH   1   8
TORSDOF 1
ENDMDL
