MODEL 1
REMARK minimizedAffinity -0.633281112
REMARK minimizedRMSD -1
REMARK  1 active torsions:
REMARK  status: ('A' for Active; 'I' for Inactive)
REMARK    1  A    between atoms: C1_2  and  C2_3 
ROOT
ATOM      1  C2  UNL d   1       5.725  -4.125   5.109  0.00  0.00    -0.076 A 
ATOM      2  C3  UNL d   1       5.685  -3.038   6.000  0.00  0.00     0.004 A 
ATOM      3  C4  UNL d   1       5.808  -1.728   5.539  0.00  0.00    -0.003 A 
ATOM      4  C5  UNL d   1       5.972  -1.484   4.180  0.00  0.00     0.000 A 
ATOM      5  C6  UNL d   1       5.997  -2.549   3.280  0.00  0.00     0.000 A 
ATOM      6  C7  UNL d   1       5.858  -3.875   3.726  0.00  0.00    -0.073 A 
ATOM      7  C8  UNL d   1       5.898  -4.985   2.713  0.00  0.00     0.078 C 
ENDROOT
BRANCH   1   8
ATOM      8  C1  UNL d   1       5.614  -5.525   5.669  0.00  0.00     0.053 C 
ATOM      9  C   UNL d   1       4.175  -5.925   5.956  0.00  0.00     0.018 C 
ENDBRANCH   1   8
TORSDOF 1
ENDMDL
