MODEL 1
REMARK minimizedAffinity -3.1014998
REMARK minimizedRMSD -1
REMARK  1 active torsions:
REMARK  status: ('A' for Active; 'I' for Inactive)
REMARK    1  A    between atoms: C1_2  and  C2_3 
ROOT
ATOM      1  C2  UNL d   1       5.577  -2.998   3.567  0.00  0.00    -0.076 A 
ATOM      2  C3  UNL d   1       5.339  -2.312   4.770  0.00  0.00     0.004 A 
ATOM      3  C4  UNL d   1       5.222  -3.000   5.977  0.00  0.00    -0.003 A 
ATOM      4  C5  UNL d   1       5.342  -4.385   6.000  0.00  0.00     0.000 A 
ATOM      5  C6  UNL d   1       5.596  -5.080   4.818  0.00  0.00     0.000 A 
ATOM      6  C7  UNL d   1       5.732  -4.401   3.595  0.00  0.00    -0.073 A 
ATOM      7  C8  UNL d   1       5.999  -5.201   2.350  0.00  0.00     0.078 C 
ENDROOT
BRANCH   1   8
ATOM      8  C1  UNL d   1       5.667  -2.202   2.285  0.00  0.00     0.053 C 
ATOM      9  C   UNL d   1       4.379  -2.250   1.477  0.00  0.00     0.018 C 
ENDBRANCH   1   8
TORSDOF 1
ENDMDL
