MODEL 1
REMARK minimizedAffinity -2.58797383
REMARK minimizedRMSD -1
REMARK  1 active torsions:
REMARK  status: ('A' for Active; 'I' for Inactive)
REMARK    1  A    between atoms: C1_2  and  C2_3 
ROOT
ATOM      1  C2  UNL d   1       4.688  -3.747   5.125  0.00  0.00    -0.076 A 
ATOM      2  C3  UNL d   1       3.466  -3.052   5.155  0.00  0.00     0.004 A 
ATOM      3  C4  UNL d   1       2.297  -3.674   5.588  0.00  0.00    -0.003 A 
ATOM      4  C5  UNL d   1       2.330  -5.002   5.999  0.00  0.00     0.000 A 
ATOM      5  C6  UNL d   1       3.537  -5.702   5.993  0.00  0.00     0.000 A 
ATOM      6  C7  UNL d   1       4.728  -5.084   5.574  0.00  0.00    -0.073 A 
ATOM      7  C8  UNL d   1       5.999  -5.887   5.582  0.00  0.00     0.078 C 
ENDROOT
BRANCH   1   8
ATOM      8  C1  UNL d   1       5.918  -3.027   4.620  0.00  0.00     0.053 C 
ATOM      9  C   UNL d   1       5.977  -2.969   3.101  0.00  0.00     0.018 C 
ENDBRANCH   1   8
TORSDOF 1
ENDMDL
