MODEL 1
REMARK minimizedAffinity -3.09754419
REMARK minimizedRMSD -1
REMARK  1 active torsions:
REMARK  status: ('A' for Active; 'I' for Inactive)
REMARK    1  A    between atoms: C1_2  and  C2_3 
ROOT
ATOM      1  C2  UNL d   1       5.479  -4.706   4.536  0.00  0.00    -0.076 A 
ATOM      2  C3  UNL d   1       5.598  -5.533   3.405  0.00  0.00     0.004 A 
ATOM      3  C4  UNL d   1       5.856  -4.994   2.146  0.00  0.00    -0.003 A 
ATOM      4  C5  UNL d   1       6.000  -3.619   1.997  0.00  0.00     0.000 A 
ATOM      5  C6  UNL d   1       5.902  -2.785   3.110  0.00  0.00     0.000 A 
ATOM      6  C7  UNL d   1       5.659  -3.314   4.390  0.00  0.00    -0.073 A 
ATOM      7  C8  UNL d   1       5.557  -2.367   5.554  0.00  0.00     0.078 C 
ENDROOT
BRANCH   1   8
ATOM      8  C1  UNL d   1       5.172  -5.345   5.871  0.00  0.00     0.053 C 
ATOM      9  C   UNL d   1       3.799  -5.999   5.903  0.00  0.00     0.018 C 
ENDBRANCH   1   8
TORSDOF 1
ENDMDL
