MODEL 1
REMARK minimizedAffinity -3.43430638
REMARK minimizedRMSD -1
REMARK  1 active torsions:
REMARK  status: ('A' for Active; 'I' for Inactive)
REMARK    1  A    between atoms: C1_2  and  C2_3 
ROOT
ATOM      1  C2  UNL d   1       5.626  -4.909   3.760  0.00  0.00    -0.076 A 
ATOM      2  C3  UNL d   1       5.536  -6.000   2.878  0.00  0.00     0.004 A 
ATOM      3  C4  UNL d   1       5.660  -5.821   1.501  0.00  0.00    -0.003 A 
ATOM      4  C5  UNL d   1       5.876  -4.548   0.984  0.00  0.00     0.000 A 
ATOM      5  C6  UNL d   1       5.986  -3.458   1.846  0.00  0.00     0.000 A 
ATOM      6  C7  UNL d   1       5.880  -3.623   3.238  0.00  0.00    -0.073 A 
ATOM      7  C8  UNL d   1       6.000  -2.411   4.120  0.00  0.00     0.078 C 
ENDROOT
BRANCH   1   8
ATOM      8  C1  UNL d   1       5.457  -5.161   5.242  0.00  0.00     0.053 C 
ATOM      9  C   UNL d   1       4.227  -5.999   5.554  0.00  0.00     0.018 C 
ENDBRANCH   1   8
TORSDOF 1
ENDMDL
