MODEL 1
REMARK minimizedAffinity -2.66233945
REMARK minimizedRMSD -1
REMARK  1 active torsions:
REMARK  status: ('A' for Active; 'I' for Inactive)
REMARK    1  A    between atoms: C1_2  and  C2_3 
ROOT
ATOM      1  C2  UNL d   1       5.959  -4.915   4.098  0.00  0.00    -0.076 A 
ATOM      2  C3  UNL d   1       5.984  -5.337   2.757  0.00  0.00     0.004 A 
ATOM      3  C4  UNL d   1       6.000  -4.413   1.714  0.00  0.00    -0.003 A 
ATOM      4  C5  UNL d   1       5.992  -3.051   1.994  0.00  0.00     0.000 A 
ATOM      5  C6  UNL d   1       5.986  -2.614   3.318  0.00  0.00     0.000 A 
ATOM      6  C7  UNL d   1       5.986  -3.533   4.382  0.00  0.00    -0.073 A 
ATOM      7  C8  UNL d   1       5.973  -3.006   5.791  0.00  0.00     0.078 C 
ENDROOT
BRANCH   1   8
ATOM      8  C1  UNL d   1       5.915  -5.963   5.187  0.00  0.00     0.053 C 
ATOM      9  C   UNL d   1       4.579  -5.992   5.914  0.00  0.00     0.018 C 
ENDBRANCH   1   8
TORSDOF 1
ENDMDL
