MODEL 1
REMARK minimizedAffinity -2.5722065
REMARK minimizedRMSD -1
REMARK  1 active torsions:
REMARK  status: ('A' for Active; 'I' for Inactive)
REMARK    1  A    between atoms: C1_2  and  C2_3 
ROOT
ATOM      1  C2  UNL d   1       5.585  -4.564   3.885  0.00  0.00    -0.076 A 
ATOM      2  C3  UNL d   1       6.000  -3.373   3.263  0.00  0.00     0.004 A 
ATOM      3  C4  UNL d   1       5.894  -2.147   3.918  0.00  0.00    -0.003 A 
ATOM      4  C5  UNL d   1       5.373  -2.092   5.206  0.00  0.00     0.000 A 
ATOM      5  C6  UNL d   1       4.974  -3.266   5.845  0.00  0.00     0.000 A 
ATOM      6  C7  UNL d   1       5.088  -4.512   5.205  0.00  0.00    -0.073 A 
ATOM      7  C8  UNL d   1       4.636  -5.744   5.938  0.00  0.00     0.078 C 
ENDROOT
BRANCH   1   8
ATOM      8  C1  UNL d   1       5.698  -5.860   3.115  0.00  0.00     0.053 C 
ATOM      9  C   UNL d   1       5.996  -5.638   1.640  0.00  0.00     0.018 C 
ENDBRANCH   1   8
TORSDOF 1
ENDMDL
