MODEL 1
REMARK minimizedAffinity 9.70739365
REMARK minimizedRMSD -1
REMARK  1 active torsions:
REMARK  status: ('A' for Active; 'I' for Inactive)
REMARK    1  A    between atoms: C1_2  and  C2_3 
ROOT
ATOM      1  C2  UNL d   1       0.157  -1.346  -2.306  0.00  0.00    -0.073 A 
ATOM      2  C3  UNL d   1      -0.506  -2.295  -3.092  0.00  0.00    -0.002 A 
ATOM      3  C4  UNL d   1       0.100  -2.807  -4.239  0.00  0.00     0.004 A 
ATOM      4  C5  UNL d   1       1.377  -2.382  -4.609  0.00  0.00    -0.004 A 
ATOM      5  C6  UNL d   1       2.060  -1.443  -3.829  0.00  0.00    -0.075 A 
ATOM      6  C7  UNL d   1       3.433  -0.974  -4.214  0.00  0.00     0.076 C 
ATOM      7  C8  UNL d   1       1.444  -0.931  -2.680  0.00  0.00     0.001 A 
ENDROOT
BRANCH   1   8
ATOM      8  C1  UNL d   1      -0.491  -0.794  -1.062  0.00  0.00     0.053 C 
ATOM      9  C   UNL d   1       0.051   0.579  -0.698  0.00  0.00     0.018 C 
ENDBRANCH   1   8
TORSDOF 1
ENDMDL
