MODEL 1
REMARK minimizedAffinity 0.484945863
REMARK minimizedRMSD -1
REMARK  1 active torsions:
REMARK  status: ('A' for Active; 'I' for Inactive)
REMARK    1  A    between atoms: C1_2  and  C2_3 
ROOT
ATOM      1  C2  UNL d   1      -0.109  -5.987   2.329  0.00  0.00    -0.073 A 
ATOM      2  C3  UNL d   1       1.058  -5.988   1.556  0.00  0.00    -0.002 A 
ATOM      3  C4  UNL d   1       2.311  -5.982   2.171  0.00  0.00     0.004 A 
ATOM      4  C5  UNL d   1       2.410  -5.984   3.563  0.00  0.00    -0.004 A 
ATOM      5  C6  UNL d   1       1.255  -5.995   4.352  0.00  0.00    -0.075 A 
ATOM      6  C7  UNL d   1       1.344  -5.994   5.850  0.00  0.00     0.076 C 
ATOM      7  C8  UNL d   1       0.001  -5.997   3.726  0.00  0.00     0.001 A 
ENDROOT
BRANCH   1   8
ATOM      8  C1  UNL d   1      -1.463  -5.999   1.669  0.00  0.00     0.053 C 
ATOM      9  C   UNL d   1      -1.359  -5.993   0.152  0.00  0.00     0.018 C 
ENDBRANCH   1   8
TORSDOF 1
ENDMDL
