MODEL 1
REMARK minimizedAffinity 6.33868456
REMARK minimizedRMSD -1
REMARK  1 active torsions:
REMARK  status: ('A' for Active; 'I' for Inactive)
REMARK    1  A    between atoms: C1_2  and  C2_3 
ROOT
ATOM      1  C2  UNL d   1      -0.584  -2.129  -4.321  0.00  0.00    -0.073 A 
ATOM      2  C3  UNL d   1      -1.062  -3.245  -5.017  0.00  0.00    -0.002 A 
ATOM      3  C4  UNL d   1      -2.236  -3.880  -4.610  0.00  0.00     0.004 A 
ATOM      4  C5  UNL d   1      -2.948  -3.402  -3.510  0.00  0.00    -0.004 A 
ATOM      5  C6  UNL d   1      -2.493  -2.281  -2.809  0.00  0.00    -0.075 A 
ATOM      6  C7  UNL d   1      -3.246  -1.755  -1.622  0.00  0.00     0.076 C 
ATOM      7  C8  UNL d   1      -1.311  -1.650  -3.221  0.00  0.00     0.001 A 
ENDROOT
BRANCH   1   8
ATOM      8  C1  UNL d   1       0.680  -1.437  -4.760  0.00  0.00     0.053 C 
ATOM      9  C   UNL d   1       1.747  -1.458  -3.677  0.00  0.00     0.018 C 
ENDBRANCH   1   8
TORSDOF 1
ENDMDL
