MODEL 1
REMARK minimizedAffinity 7.67344141
REMARK minimizedRMSD -1
REMARK  1 active torsions:
REMARK  status: ('A' for Active; 'I' for Inactive)
REMARK    1  A    between atoms: C1_2  and  C2_3 
ROOT
ATOM      1  C2  UNL d   1      -2.523  -1.660  -1.437  0.00  0.00    -0.073 A 
ATOM      2  C3  UNL d   1      -1.956  -0.435  -1.806  0.00  0.00    -0.002 A 
ATOM      3  C4  UNL d   1      -1.460  -0.247  -3.097  0.00  0.00     0.004 A 
ATOM      4  C5  UNL d   1      -1.532  -1.279  -4.033  0.00  0.00    -0.004 A 
ATOM      5  C6  UNL d   1      -2.106  -2.507  -3.687  0.00  0.00    -0.075 A 
ATOM      6  C7  UNL d   1      -2.188  -3.627  -4.682  0.00  0.00     0.076 C 
ATOM      7  C8  UNL d   1      -2.599  -2.688  -2.388  0.00  0.00     0.001 A 
ENDROOT
BRANCH   1   8
ATOM      8  C1  UNL d   1      -3.065  -1.866  -0.046  0.00  0.00     0.053 C 
ATOM      9  C   UNL d   1      -1.992  -2.343   0.919  0.00  0.00     0.018 C 
ENDBRANCH   1   8
TORSDOF 1
ENDMDL
