MODEL 1
REMARK minimizedAffinity 2.15846968
REMARK minimizedRMSD -1
REMARK  1 active torsions:
REMARK  status: ('A' for Active; 'I' for Inactive)
REMARK    1  A    between atoms: C1_2  and  C2_3 
ROOT
ATOM      1  C2  UNL d   1      -0.125  -5.804   2.450  0.00  0.00    -0.073 A 
ATOM      2  C3  UNL d   1       1.046  -5.998   1.708  0.00  0.00    -0.002 A 
ATOM      3  C4  UNL d   1       2.295  -5.823   2.305  0.00  0.00     0.004 A 
ATOM      4  C5  UNL d   1       2.387  -5.461   3.649  0.00  0.00    -0.004 A 
ATOM      5  C6  UNL d   1       1.228  -5.274   4.410  0.00  0.00    -0.075 A 
ATOM      6  C7  UNL d   1       1.310  -4.881   5.856  0.00  0.00     0.076 C 
ATOM      7  C8  UNL d   1      -0.023  -5.448   3.803  0.00  0.00     0.001 A 
ENDROOT
BRANCH   1   8
ATOM      8  C1  UNL d   1      -1.476  -5.997   1.811  0.00  0.00     0.053 C 
ATOM      9  C   UNL d   1      -1.396  -5.983   0.293  0.00  0.00     0.018 C 
ENDBRANCH   1   8
TORSDOF 1
ENDMDL
