MODEL 1
REMARK minimizedAffinity 7.92966318
REMARK minimizedRMSD -1
REMARK  1 active torsions:
REMARK  status: ('A' for Active; 'I' for Inactive)
REMARK    1  A    between atoms: C1_2  and  C2_3 
ROOT
ATOM      1  C2  UNL d   1      -1.715  -5.987   1.900  0.00  0.00    -0.073 A 
ATOM      2  C3  UNL d   1      -3.067  -5.998   2.260  0.00  0.00    -0.002 A 
ATOM      3  C4  UNL d   1      -4.058  -5.999   1.277  0.00  0.00     0.004 A 
ATOM      4  C5  UNL d   1      -3.708  -5.995  -0.073  0.00  0.00    -0.004 A 
ATOM      5  C6  UNL d   1      -2.361  -5.996  -0.452  0.00  0.00    -0.075 A 
ATOM      6  C7  UNL d   1      -1.968  -5.990  -1.900  0.00  0.00     0.076 C 
ATOM      7  C8  UNL d   1      -1.372  -5.993   0.540  0.00  0.00     0.001 A 
ENDROOT
BRANCH   1   8
ATOM      8  C1  UNL d   1      -0.641  -5.993   2.958  0.00  0.00     0.053 C 
ATOM      9  C   UNL d   1       0.754  -5.976   2.354  0.00  0.00     0.018 C 
ENDBRANCH   1   8
TORSDOF 1
ENDMDL
