MODEL 1
REMARK minimizedAffinity 9.8458519
REMARK minimizedRMSD -1
REMARK  1 active torsions:
REMARK  status: ('A' for Active; 'I' for Inactive)
REMARK    1  A    between atoms: C1_2  and  C2_3 
ROOT
ATOM      1  C2  UNL d   1       2.385  -5.984   2.703  0.00  0.00    -0.073 A 
ATOM      2  C3  UNL d   1       1.340  -5.978   1.771  0.00  0.00    -0.002 A 
ATOM      3  C4  UNL d   1       0.013  -5.974   2.201  0.00  0.00     0.004 A 
ATOM      4  C5  UNL d   1      -0.284  -5.968   3.564  0.00  0.00    -0.004 A 
ATOM      5  C6  UNL d   1       0.746  -5.962   4.510  0.00  0.00    -0.075 A 
ATOM      6  C7  UNL d   1       0.444  -5.958   5.980  0.00  0.00     0.076 C 
ATOM      7  C8  UNL d   1       2.077  -5.969   4.071  0.00  0.00     0.001 A 
ENDROOT
BRANCH   1   8
ATOM      8  C1  UNL d   1       3.820  -5.982   2.243  0.00  0.00     0.053 C 
ATOM      9  C   UNL d   1       4.726  -5.234   3.208  0.00  0.00     0.018 C 
ENDBRANCH   1   8
TORSDOF 1
ENDMDL
