MODEL 1
REMARK minimizedAffinity 7.26944208
REMARK minimizedRMSD -1
REMARK  1 active torsions:
REMARK  status: ('A' for Active; 'I' for Inactive)
REMARK    1  A    between atoms: C1_2  and  C2_3 
ROOT
ATOM      1  C2  UNL d   1      -1.951  -0.469  -1.146  0.00  0.00    -0.073 A 
ATOM      2  C3  UNL d   1      -2.365  -1.389  -0.176  0.00  0.00    -0.002 A 
ATOM      3  C4  UNL d   1      -1.726  -1.442   1.063  0.00  0.00     0.004 A 
ATOM      4  C5  UNL d   1      -0.673  -0.573   1.348  0.00  0.00    -0.004 A 
ATOM      5  C6  UNL d   1      -0.252   0.361   0.396  0.00  0.00    -0.075 A 
ATOM      6  C7  UNL d   1       0.881   1.302   0.686  0.00  0.00     0.076 C 
ATOM      7  C8  UNL d   1      -0.897   0.407  -0.847  0.00  0.00     0.001 A 
ENDROOT
BRANCH   1   8
ATOM      8  C1  UNL d   1      -2.642  -0.403  -2.483  0.00  0.00     0.053 C 
ATOM      9  C   UNL d   1      -2.737  -1.769  -3.144  0.00  0.00     0.018 C 
ENDBRANCH   1   8
TORSDOF 1
ENDMDL
