MODEL 1
REMARK minimizedAffinity 3.11590505
REMARK minimizedRMSD -1
REMARK  1 active torsions:
REMARK  status: ('A' for Active; 'I' for Inactive)
REMARK    1  A    between atoms: C1_2  and  C2_3 
ROOT
ATOM      1  C2  UNL d   1      -1.373  -4.588   1.823  0.00  0.00    -0.073 A 
ATOM      2  C3  UNL d   1      -1.733  -3.918   2.998  0.00  0.00    -0.002 A 
ATOM      3  C4  UNL d   1      -2.251  -2.623   2.941  0.00  0.00     0.004 A 
ATOM      4  C5  UNL d   1      -2.421  -1.989   1.710  0.00  0.00    -0.004 A 
ATOM      5  C6  UNL d   1      -2.078  -2.646   0.524  0.00  0.00    -0.075 A 
ATOM      6  C7  UNL d   1      -2.253  -1.976  -0.807  0.00  0.00     0.076 C 
ATOM      7  C8  UNL d   1      -1.556  -3.945   0.590  0.00  0.00     0.001 A 
ENDROOT
BRANCH   1   8
ATOM      8  C1  UNL d   1      -0.819  -5.988   1.879  0.00  0.00     0.053 C 
ATOM      9  C   UNL d   1       0.701  -6.000   1.877  0.00  0.00     0.018 C 
ENDBRANCH   1   8
TORSDOF 1
ENDMDL
