MODEL 1
REMARK minimizedAffinity -2.17194271
REMARK minimizedRMSD -1
REMARK  1 active torsions:
REMARK  status: ('A' for Active; 'I' for Inactive)
REMARK    1  A    between atoms: C1_2  and  C2_3 
ROOT
ATOM      1  C2  UNL d   1      -2.595   0.682   3.007  0.00  0.00    -0.073 A 
ATOM      2  C3  UNL d   1      -2.662  -0.714   3.076  0.00  0.00    -0.002 A 
ATOM      3  C4  UNL d   1      -1.563  -1.492   2.708  0.00  0.00     0.004 A 
ATOM      4  C5  UNL d   1      -0.386  -0.883   2.274  0.00  0.00    -0.004 A 
ATOM      5  C6  UNL d   1      -0.296   0.512   2.209  0.00  0.00    -0.075 A 
ATOM      6  C7  UNL d   1       0.963   1.182   1.742  0.00  0.00     0.076 C 
ATOM      7  C8  UNL d   1      -1.404   1.285   2.578  0.00  0.00     0.001 A 
ENDROOT
BRANCH   1   8
ATOM      8  C1  UNL d   1      -3.777   1.526   3.410  0.00  0.00     0.053 C 
ATOM      9  C   UNL d   1      -4.902   0.688   3.996  0.00  0.00     0.018 C 
ENDBRANCH   1   8
TORSDOF 1
ENDMDL
