MODEL 1
REMARK minimizedAffinity 1.21569705
REMARK minimizedRMSD -1
REMARK  1 active torsions:
REMARK  status: ('A' for Active; 'I' for Inactive)
REMARK    1  A    between atoms: C1_2  and  C2_3 
ROOT
ATOM      1  C2  UNL d   1      -1.055  -4.822   3.327  0.00  0.00    -0.073 A 
ATOM      2  C3  UNL d   1      -1.738  -6.000   3.006  0.00  0.00    -0.002 A 
ATOM      3  C4  UNL d   1      -2.712  -6.000   2.006  0.00  0.00     0.004 A 
ATOM      4  C5  UNL d   1      -3.006  -4.826   1.313  0.00  0.00    -0.004 A 
ATOM      5  C6  UNL d   1      -2.325  -3.641   1.611  0.00  0.00    -0.075 A 
ATOM      6  C7  UNL d   1      -2.632  -2.369   0.876  0.00  0.00     0.076 C 
ATOM      7  C8  UNL d   1      -1.351  -3.649   2.618  0.00  0.00     0.001 A 
ENDROOT
BRANCH   1   8
ATOM      8  C1  UNL d   1       0.002  -4.818   4.402  0.00  0.00     0.053 C 
ATOM      9  C   UNL d   1       1.406  -4.866   3.821  0.00  0.00     0.018 C 
ENDBRANCH   1   8
TORSDOF 1
ENDMDL
