MODEL 1
REMARK minimizedAffinity 0.0336321667
REMARK minimizedRMSD -1
REMARK  1 active torsions:
REMARK  status: ('A' for Active; 'I' for Inactive)
REMARK    1  A    between atoms: C1_2  and  C2_3 
ROOT
ATOM      1  C2  UNL d   1      -4.015   1.077   4.000  0.00  0.00    -0.073 A 
ATOM      2  C3  UNL d   1      -4.537  -0.120   4.504  0.00  0.00    -0.002 A 
ATOM      3  C4  UNL d   1      -5.522  -0.098   5.492  0.00  0.00     0.004 A 
ATOM      4  C5  UNL d   1      -6.000   1.117   5.981  0.00  0.00    -0.004 A 
ATOM      5  C6  UNL d   1      -5.499   2.324   5.482  0.00  0.00    -0.075 A 
ATOM      6  C7  UNL d   1      -6.000   3.640   6.000  0.00  0.00     0.076 C 
ATOM      7  C8  UNL d   1      -4.507   2.294   4.492  0.00  0.00     0.001 A 
ENDROOT
BRANCH   1   8
ATOM      8  C1  UNL d   1      -2.955   1.059   2.929  0.00  0.00     0.053 C 
ATOM      9  C   UNL d   1      -1.890   0.008   3.198  0.00  0.00     0.018 C 
ENDBRANCH   1   8
TORSDOF 1
ENDMDL
