MODEL 1
REMARK minimizedAffinity -4.39325047
REMARK minimizedRMSD -1
REMARK  0 active torsions:
REMARK  status: ('A' for Active; 'I' for Inactive)
ROOT
ATOM      1  C   UNL d   1      -0.009   0.774  -0.845  0.00  0.00     0.078 C 
ATOM      2  C1  UNL d   1       0.418   0.220   0.481  0.00  0.00    -0.077 A 
ATOM      3  C2  UNL d   1       1.642   0.586   1.055  0.00  0.00    -0.001 A 
ATOM      4  C3  UNL d   1       2.031   0.055   2.286  0.00  0.00     0.003 A 
ATOM      5  C4  UNL d   1       1.204  -0.847   2.952  0.00  0.00    -0.005 A 
ATOM      6  C5  UNL d   1      -0.015  -1.219   2.388  0.00  0.00     0.003 A 
ATOM      7  C6  UNL d   1      -0.406  -0.689   1.157  0.00  0.00    -0.001 A 
ENDROOT
TORSDOF 0
ENDMDL
