MODEL 1
REMARK minimizedAffinity -2.2481966
REMARK minimizedRMSD -1
REMARK  0 active torsions:
REMARK  status: ('A' for Active; 'I' for Inactive)
ROOT
ATOM      1  C   UNL d   1       1.498  -1.202   1.592  0.00  0.00     0.078 C 
ATOM      2  C1  UNL d   1       0.932  -2.405   2.285  0.00  0.00    -0.077 A 
ATOM      3  C2  UNL d   1      -0.167  -2.291   3.145  0.00  0.00    -0.001 A 
ATOM      4  C3  UNL d   1      -0.678  -3.418   3.791  0.00  0.00     0.003 A 
ATOM      5  C4  UNL d   1      -0.096  -4.667   3.583  0.00  0.00    -0.005 A 
ATOM      6  C5  UNL d   1       0.999  -4.790   2.730  0.00  0.00     0.003 A 
ATOM      7  C6  UNL d   1       1.511  -3.664   2.084  0.00  0.00    -0.001 A 
ENDROOT
TORSDOF 0
ENDMDL
