MODEL 1
REMARK minimizedAffinity -4.15827608
REMARK minimizedRMSD -1
REMARK  0 active torsions:
REMARK  status: ('A' for Active; 'I' for Inactive)
ROOT
ATOM      1  C   UNL d   1      -1.665  -0.393   0.366  0.00  0.00     0.078 C 
ATOM      2  C1  UNL d   1      -0.189  -0.580   0.551  0.00  0.00    -0.077 A 
ATOM      3  C2  UNL d   1       0.656  -0.780  -0.547  0.00  0.00    -0.001 A 
ATOM      4  C3  UNL d   1       2.027  -0.963  -0.359  0.00  0.00     0.003 A 
ATOM      5  C4  UNL d   1       2.565  -0.949   0.926  0.00  0.00    -0.005 A 
ATOM      6  C5  UNL d   1       1.732  -0.753   2.026  0.00  0.00     0.003 A 
ATOM      7  C6  UNL d   1       0.361  -0.570   1.840  0.00  0.00    -0.001 A 
ENDROOT
TORSDOF 0
ENDMDL
