MODEL 1
REMARK minimizedAffinity -3.75105786
REMARK minimizedRMSD -1
REMARK  0 active torsions:
REMARK  status: ('A' for Active; 'I' for Inactive)
ROOT
ATOM      1  C   UNL d   1       1.431   0.152   3.124  0.00  0.00     0.078 C 
ATOM      2  C1  UNL d   1       0.601  -0.060   1.893  0.00  0.00    -0.077 A 
ATOM      3  C2  UNL d   1       1.196  -0.149   0.629  0.00  0.00    -0.001 A 
ATOM      4  C3  UNL d   1       0.410  -0.337  -0.510  0.00  0.00     0.003 A 
ATOM      5  C4  UNL d   1      -0.975  -0.436  -0.395  0.00  0.00    -0.005 A 
ATOM      6  C5  UNL d   1      -1.576  -0.346   0.859  0.00  0.00     0.003 A 
ATOM      7  C6  UNL d   1      -0.792  -0.159   1.998  0.00  0.00    -0.001 A 
ENDROOT
TORSDOF 0
ENDMDL
