MODEL 1
REMARK minimizedAffinity -1.23627734
REMARK minimizedRMSD -1
REMARK  0 active torsions:
REMARK  status: ('A' for Active; 'I' for Inactive)
ROOT
ATOM      1  C   UNL d   1       3.006  -2.613   2.062  0.00  0.00     0.078 C 
ATOM      2  C1  UNL d   1       1.579  -3.016   2.280  0.00  0.00    -0.077 A 
ATOM      3  C2  UNL d   1       0.528  -2.140   1.982  0.00  0.00    -0.001 A 
ATOM      4  C3  UNL d   1      -0.796  -2.526   2.199  0.00  0.00     0.003 A 
ATOM      5  C4  UNL d   1      -1.081  -3.787   2.717  0.00  0.00    -0.005 A 
ATOM      6  C5  UNL d   1      -0.042  -4.665   3.019  0.00  0.00     0.003 A 
ATOM      7  C6  UNL d   1       1.282  -4.281   2.803  0.00  0.00    -0.001 A 
ENDROOT
TORSDOF 0
ENDMDL
