MODEL 1
REMARK minimizedAffinity -4.87401199
REMARK minimizedRMSD -1
REMARK  0 active torsions:
REMARK  status: ('A' for Active; 'I' for Inactive)
ROOT
ATOM      1  C   UNL d   1      -1.578  -0.629   0.048  0.00  0.00     0.078 C 
ATOM      2  C1  UNL d   1      -0.276  -0.651   0.792  0.00  0.00    -0.077 A 
ATOM      3  C2  UNL d   1       0.944  -0.539   0.113  0.00  0.00    -0.001 A 
ATOM      4  C3  UNL d   1       2.149  -0.571   0.817  0.00  0.00     0.003 A 
ATOM      5  C4  UNL d   1       2.146  -0.716   2.203  0.00  0.00    -0.005 A 
ATOM      6  C5  UNL d   1       0.937  -0.830   2.887  0.00  0.00     0.003 A 
ATOM      7  C6  UNL d   1      -0.269  -0.798   2.184  0.00  0.00    -0.001 A 
ENDROOT
TORSDOF 0
ENDMDL
