MODEL 1
REMARK minimizedAffinity -2.74849296
REMARK minimizedRMSD -1
REMARK  0 active torsions:
REMARK  status: ('A' for Active; 'I' for Inactive)
ROOT
ATOM      1  C   UNL d   1      -3.931   3.289  -2.286  0.00  0.00     0.078 C 
ATOM      2  C1  UNL d   1      -2.448   3.075  -2.325  0.00  0.00    -0.077 A 
ATOM      3  C2  UNL d   1      -1.866   1.946  -1.736  0.00  0.00    -0.001 A 
ATOM      4  C3  UNL d   1      -0.482   1.765  -1.772  0.00  0.00     0.003 A 
ATOM      5  C4  UNL d   1       0.331   2.710  -2.395  0.00  0.00    -0.005 A 
ATOM      6  C5  UNL d   1      -0.239   3.837  -2.983  0.00  0.00     0.003 A 
ATOM      7  C6  UNL d   1      -1.622   4.020  -2.948  0.00  0.00    -0.001 A 
ENDROOT
TORSDOF 0
ENDMDL
