MODEL 1
REMARK minimizedAffinity -1.8698957
REMARK minimizedRMSD -1
REMARK  0 active torsions:
REMARK  status: ('A' for Active; 'I' for Inactive)
ROOT
ATOM      1  C   UNL d   1       0.451  -1.796   3.224  0.00  0.00     0.078 C 
ATOM      2  C1  UNL d   1       0.090  -1.086   1.954  0.00  0.00    -0.077 A 
ATOM      3  C2  UNL d   1      -1.110  -0.374   1.841  0.00  0.00    -0.001 A 
ATOM      4  C3  UNL d   1      -1.437   0.275   0.649  0.00  0.00     0.003 A 
ATOM      5  C4  UNL d   1      -0.570   0.217  -0.439  0.00  0.00    -0.005 A 
ATOM      6  C5  UNL d   1       0.626  -0.491  -0.337  0.00  0.00     0.003 A 
ATOM      7  C6  UNL d   1       0.955  -1.140   0.854  0.00  0.00    -0.001 A 
ENDROOT
TORSDOF 0
ENDMDL
