MODEL 1
REMARK minimizedAffinity -4.5534029
REMARK minimizedRMSD -1
REMARK  0 active torsions:
REMARK  status: ('A' for Active; 'I' for Inactive)
ROOT
ATOM      1  C   UNL d   1       1.370  -0.671   2.420  0.00  0.00     0.078 C 
ATOM      2  C1  UNL d   1       0.921  -0.602   0.991  0.00  0.00    -0.077 A 
ATOM      3  C2  UNL d   1      -0.342  -0.101   0.655  0.00  0.00    -0.001 A 
ATOM      4  C3  UNL d   1      -0.751  -0.052  -0.678  0.00  0.00     0.003 A 
ATOM      5  C4  UNL d   1       0.098  -0.504  -1.687  0.00  0.00    -0.005 A 
ATOM      6  C5  UNL d   1       1.356  -1.007  -1.362  0.00  0.00     0.003 A 
ATOM      7  C6  UNL d   1       1.766  -1.057  -0.029  0.00  0.00    -0.001 A 
ENDROOT
TORSDOF 0
ENDMDL
