MODEL 1
REMARK minimizedAffinity -4.23318434
REMARK minimizedRMSD -1
REMARK  1 active torsions:
REMARK  status: ('A' for Active; 'I' for Inactive)
REMARK    1  A    between atoms: N_2  and  C1_3 
ROOT
ATOM      1  C1  UNL d   1       0.351  -0.273   3.526  0.00  0.00     0.143 A 
ATOM      2  C2  UNL d   1      -0.165   0.113   2.284  0.00  0.00    -0.057 A 
ATOM      3  C3  UNL d   1      -1.133   1.119   2.181  0.00  0.00     0.033 A 
ATOM      4  C4  UNL d   1      -1.624   1.740   3.324  0.00  0.00    -0.042 A 
ATOM      5  C5  UNL d   1      -1.144   1.356   4.571  0.00  0.00     0.033 A 
ATOM      6  C6  UNL d   1      -0.173   0.355   4.667  0.00  0.00    -0.057 A 
ENDROOT
BRANCH   1   7
ATOM      7  N   UNL d   1       1.242  -1.334   3.702  0.00  0.00    -0.732 N 
ATOM      8  C   UNL d   1       2.075  -1.409   4.883  0.00  0.00     0.284 C 
ATOM      9  H3  UNL d   1       0.844  -2.226   3.417  0.00  0.00     0.395 HD
ENDBRANCH   1   7
TORSDOF 1
ENDMDL
