MODEL 1
REMARK minimizedAffinity 4.04715443
REMARK minimizedRMSD -1
REMARK  1 active torsions:
REMARK  status: ('A' for Active; 'I' for Inactive)
REMARK    1  A    between atoms: N_2  and  C1_3 
ROOT
ATOM      1  C1  UNL d   1      -0.315  -0.190   0.357  0.00  0.00     0.143 A 
ATOM      2  C2  UNL d   1      -1.172  -0.538  -0.692  0.00  0.00    -0.057 A 
ATOM      3  C3  UNL d   1      -2.563  -0.446  -0.554  0.00  0.00     0.033 A 
ATOM      4  C4  UNL d   1      -3.122  -0.029   0.649  0.00  0.00    -0.042 A 
ATOM      5  C5  UNL d   1      -2.290   0.298   1.714  0.00  0.00     0.033 A 
ATOM      6  C6  UNL d   1      -0.902   0.210   1.568  0.00  0.00    -0.057 A 
ENDROOT
BRANCH   1   7
ATOM      7  N   UNL d   1       1.072  -0.355   0.315  0.00  0.00    -0.732 N 
ATOM      8  C   UNL d   1       1.926   0.709  -0.169  0.00  0.00     0.284 C 
ATOM      9  H3  UNL d   1       1.431  -0.834   1.138  0.00  0.00     0.395 HD
ENDBRANCH   1   7
TORSDOF 1
ENDMDL
