MODEL 1
REMARK minimizedAffinity 7.48316622
REMARK minimizedRMSD -1
REMARK  1 active torsions:
REMARK  status: ('A' for Active; 'I' for Inactive)
REMARK    1  A    between atoms: N_2  and  C1_3 
ROOT
ATOM      1  C1  UNL d   1       0.103  -0.283   2.262  0.00  0.00     0.143 A 
ATOM      2  C2  UNL d   1      -0.109  -0.288   0.879  0.00  0.00    -0.057 A 
ATOM      3  C3  UNL d   1      -1.336   0.103   0.331  0.00  0.00     0.033 A 
ATOM      4  C4  UNL d   1      -2.387   0.480   1.161  0.00  0.00    -0.042 A 
ATOM      5  C5  UNL d   1      -2.207   0.469   2.539  0.00  0.00     0.033 A 
ATOM      6  C6  UNL d   1      -0.977   0.084   3.080  0.00  0.00    -0.057 A 
ENDROOT
BRANCH   1   7
ATOM      7  N   UNL d   1       1.268  -0.755   2.872  0.00  0.00    -0.732 N 
ATOM      8  C   UNL d   1       1.255  -1.179   4.256  0.00  0.00     0.284 C 
ATOM      9  H3  UNL d   1       1.812  -1.356   2.258  0.00  0.00     0.395 HD
ENDBRANCH   1   7
TORSDOF 1
ENDMDL
