MODEL 1
REMARK minimizedAffinity 7.12015867
REMARK minimizedRMSD -1
REMARK  1 active torsions:
REMARK  status: ('A' for Active; 'I' for Inactive)
REMARK    1  A    between atoms: N_2  and  C1_3 
ROOT
ATOM      1  C1  UNL d   1      -0.722  -0.978   3.040  0.00  0.00     0.143 A 
ATOM      2  C2  UNL d   1      -2.065  -0.727   3.342  0.00  0.00    -0.057 A 
ATOM      3  C3  UNL d   1      -2.868   0.044   2.493  0.00  0.00     0.033 A 
ATOM      4  C4  UNL d   1      -2.332   0.605   1.338  0.00  0.00    -0.042 A 
ATOM      5  C5  UNL d   1      -0.994   0.389   1.031  0.00  0.00     0.033 A 
ATOM      6  C6  UNL d   1      -0.198  -0.388   1.879  0.00  0.00    -0.057 A 
ENDROOT
BRANCH   1   7
ATOM      7  N   UNL d   1       0.154  -1.655   3.892  0.00  0.00    -0.732 N 
ATOM      8  C   UNL d   1       1.563  -1.328   3.912  0.00  0.00     0.284 C 
ATOM      9  H3  UNL d   1      -0.248  -1.817   4.813  0.00  0.00     0.395 HD
ENDBRANCH   1   7
TORSDOF 1
ENDMDL
