MODEL 1
REMARK minimizedAffinity -1.08371139
REMARK minimizedRMSD -1
REMARK  1 active torsions:
REMARK  status: ('A' for Active; 'I' for Inactive)
REMARK    1  A    between atoms: N_2  and  C1_3 
ROOT
ATOM      1  C1  UNL d   1       3.924   5.297   2.853  0.00  0.00     0.143 A 
ATOM      2  C2  UNL d   1       3.873   3.914   3.058  0.00  0.00    -0.057 A 
ATOM      3  C3  UNL d   1       4.828   3.261   3.847  0.00  0.00     0.033 A 
ATOM      4  C4  UNL d   1       5.871   3.978   4.423  0.00  0.00    -0.042 A 
ATOM      5  C5  UNL d   1       5.957   5.350   4.212  0.00  0.00     0.033 A 
ATOM      6  C6  UNL d   1       4.996   5.997   3.429  0.00  0.00    -0.057 A 
ENDROOT
BRANCH   1   7
ATOM      7  N   UNL d   1       3.062   5.989   2.000  0.00  0.00    -0.732 N 
ATOM      8  C   UNL d   1       3.290   5.999   0.571  0.00  0.00     0.284 C 
ATOM      9  H3  UNL d   1       2.085   5.882   2.264  0.00  0.00     0.395 HD
ENDBRANCH   1   7
TORSDOF 1
ENDMDL
