MODEL 1
REMARK minimizedAffinity 0.292858839
REMARK minimizedRMSD -1
REMARK  1 active torsions:
REMARK  status: ('A' for Active; 'I' for Inactive)
REMARK    1  A    between atoms: C1_2  and  C2_3 
ROOT
ATOM      1  C2  UNL d   1      -0.877   2.810  -1.822  0.00  0.00    -0.073 A 
ATOM      2  C3  UNL d   1      -0.208   4.039  -1.834  0.00  0.00    -0.002 A 
ATOM      3  C4  UNL d   1       0.373   4.537  -0.667  0.00  0.00     0.004 A 
ATOM      4  C5  UNL d   1       0.298   3.809   0.520  0.00  0.00    -0.004 A 
ATOM      5  C6  UNL d   1      -0.356   2.573   0.550  0.00  0.00    -0.075 A 
ATOM      6  C7  UNL d   1      -0.448   1.779   1.819  0.00  0.00     0.076 C 
ATOM      7  C8  UNL d   1      -0.940   2.082  -0.626  0.00  0.00     0.001 A 
ENDROOT
BRANCH   1   8
ATOM      8  C1  UNL d   1      -1.500   2.266  -3.082  0.00  0.00     0.053 C 
ATOM      9  C   UNL d   1      -2.742   1.438  -2.791  0.00  0.00     0.018 C 
ENDBRANCH   1   8
TORSDOF 1
ENDMDL
