MODEL 1
REMARK minimizedAffinity 2.84516811
REMARK minimizedRMSD -1
REMARK  1 active torsions:
REMARK  status: ('A' for Active; 'I' for Inactive)
REMARK    1  A    between atoms: C1_2  and  C2_3 
ROOT
ATOM      1  C2  UNL d   1      -0.291   2.719   0.493  0.00  0.00    -0.073 A 
ATOM      2  C3  UNL d   1       0.597   3.509   1.232  0.00  0.00    -0.002 A 
ATOM      3  C4  UNL d   1       0.637   3.412   2.623  0.00  0.00     0.004 A 
ATOM      4  C5  UNL d   1      -0.205   2.521   3.289  0.00  0.00    -0.004 A 
ATOM      5  C6  UNL d   1      -1.091   1.715   2.568  0.00  0.00    -0.075 A 
ATOM      6  C7  UNL d   1      -2.005   0.753   3.269  0.00  0.00     0.076 C 
ATOM      7  C8  UNL d   1      -1.127   1.820   1.171  0.00  0.00     0.001 A 
ENDROOT
BRANCH   1   8
ATOM      8  C1  UNL d   1      -0.333   2.816  -1.010  0.00  0.00     0.053 C 
ATOM      9  C   UNL d   1       0.288   4.109  -1.516  0.00  0.00     0.018 C 
ENDBRANCH   1   8
TORSDOF 1
ENDMDL
