MODEL 1
REMARK minimizedAffinity 1.75618458
REMARK minimizedRMSD -1
REMARK  1 active torsions:
REMARK  status: ('A' for Active; 'I' for Inactive)
REMARK    1  A    between atoms: C1_2  and  C2_3 
ROOT
ATOM      1  C2  UNL d   1      -0.924   2.478  -1.574  0.00  0.00    -0.073 A 
ATOM      2  C3  UNL d   1      -0.162   3.650  -1.648  0.00  0.00    -0.002 A 
ATOM      3  C4  UNL d   1       0.500   4.133  -0.519  0.00  0.00     0.004 A 
ATOM      4  C5  UNL d   1       0.414   3.446   0.692  0.00  0.00    -0.004 A 
ATOM      5  C6  UNL d   1      -0.332   2.267   0.784  0.00  0.00    -0.075 A 
ATOM      6  C7  UNL d   1      -0.436   1.519   2.080  0.00  0.00     0.076 C 
ATOM      7  C8  UNL d   1      -0.997   1.790  -0.354  0.00  0.00     0.001 A 
ENDROOT
BRANCH   1   8
ATOM      8  C1  UNL d   1      -1.635   1.949  -2.792  0.00  0.00     0.053 C 
ATOM      9  C   UNL d   1      -2.810   1.057  -2.424  0.00  0.00     0.018 C 
ENDBRANCH   1   8
TORSDOF 1
ENDMDL
