MODEL 1
REMARK minimizedAffinity 15.9662991
REMARK minimizedRMSD -1
REMARK  1 active torsions:
REMARK  status: ('A' for Active; 'I' for Inactive)
REMARK    1  A    between atoms: C1_2  and  C2_3 
ROOT
ATOM      1  C2  UNL d   1      -2.381   2.639  -2.837  0.00  0.00    -0.073 A 
ATOM      2  C3  UNL d   1      -2.218   1.811  -1.721  0.00  0.00    -0.002 A 
ATOM      3  C4  UNL d   1      -3.185   0.856  -1.404  0.00  0.00     0.004 A 
ATOM      4  C5  UNL d   1      -4.320   0.715  -2.202  0.00  0.00    -0.004 A 
ATOM      5  C6  UNL d   1      -4.496   1.525  -3.329  0.00  0.00    -0.075 A 
ATOM      6  C7  UNL d   1      -5.712   1.387  -4.196  0.00  0.00     0.076 C 
ATOM      7  C8  UNL d   1      -3.522   2.484  -3.639  0.00  0.00     0.001 A 
ENDROOT
BRANCH   1   8
ATOM      8  C1  UNL d   1      -1.337   3.668  -3.187  0.00  0.00     0.053 C 
ATOM      9  C   UNL d   1      -0.257   3.768  -2.122  0.00  0.00     0.018 C 
ENDBRANCH   1   8
TORSDOF 1
ENDMDL
