MODEL 1
REMARK minimizedAffinity 8.05222416
REMARK minimizedRMSD -1
REMARK  1 active torsions:
REMARK  status: ('A' for Active; 'I' for Inactive)
REMARK    1  A    between atoms: C1_2  and  C2_3 
ROOT
ATOM      1  C2  UNL d   1      -1.217   2.817  -1.922  0.00  0.00    -0.073 A 
ATOM      2  C3  UNL d   1      -0.350   3.900  -2.103  0.00  0.00    -0.002 A 
ATOM      3  C4  UNL d   1       0.495   4.308  -1.070  0.00  0.00     0.004 A 
ATOM      4  C5  UNL d   1       0.486   3.634   0.151  0.00  0.00    -0.004 A 
ATOM      5  C6  UNL d   1      -0.365   2.542   0.348  0.00  0.00    -0.075 A 
ATOM      6  C7  UNL d   1      -0.389   1.808   1.657  0.00  0.00     0.076 C 
ATOM      7  C8  UNL d   1      -1.212   2.140  -0.694  0.00  0.00     0.001 A 
ENDROOT
BRANCH   1   8
ATOM      8  C1  UNL d   1      -2.126   2.369  -3.037  0.00  0.00     0.053 C 
ATOM      9  C   UNL d   1      -3.077   1.270  -2.590  0.00  0.00     0.018 C 
ENDBRANCH   1   8
TORSDOF 1
ENDMDL
