MODEL 1
REMARK minimizedAffinity 13.7814245
REMARK minimizedRMSD -1
REMARK  1 active torsions:
REMARK  status: ('A' for Active; 'I' for Inactive)
REMARK    1  A    between atoms: C1_2  and  C2_3 
ROOT
ATOM      1  C2  UNL d   1      -0.017   2.448  -0.311  0.00  0.00    -0.073 A 
ATOM      2  C3  UNL d   1       0.021   2.542  -1.707  0.00  0.00    -0.002 A 
ATOM      3  C4  UNL d   1       0.349   3.751  -2.322  0.00  0.00     0.004 A 
ATOM      4  C5  UNL d   1       0.649   4.873  -1.551  0.00  0.00    -0.004 A 
ATOM      5  C6  UNL d   1       0.628   4.796  -0.155  0.00  0.00    -0.075 A 
ATOM      6  C7  UNL d   1       0.945   5.995   0.690  0.00  0.00     0.076 C 
ATOM      7  C8  UNL d   1       0.294   3.579   0.457  0.00  0.00     0.001 A 
ENDROOT
BRANCH   1   8
ATOM      8  C1  UNL d   1      -0.365   1.144   0.359  0.00  0.00     0.053 C 
ATOM      9  C   UNL d   1       0.002   1.145   1.834  0.00  0.00     0.018 C 
ENDBRANCH   1   8
TORSDOF 1
ENDMDL
