MODEL 1
REMARK minimizedAffinity 10.0638371
REMARK minimizedRMSD -1
REMARK  1 active torsions:
REMARK  status: ('A' for Active; 'I' for Inactive)
REMARK    1  A    between atoms: C1_2  and  C2_3 
ROOT
ATOM      1  C2  UNL d   1      -1.639   4.702   0.264  0.00  0.00    -0.073 A 
ATOM      2  C3  UNL d   1      -1.818   3.391   0.721  0.00  0.00    -0.002 A 
ATOM      3  C4  UNL d   1      -0.888   2.401   0.402  0.00  0.00     0.004 A 
ATOM      4  C5  UNL d   1       0.231   2.711  -0.370  0.00  0.00    -0.004 A 
ATOM      5  C6  UNL d   1       0.434   4.018  -0.825  0.00  0.00    -0.075 A 
ATOM      6  C7  UNL d   1       1.632   4.367  -1.658  0.00  0.00     0.076 C 
ATOM      7  C8  UNL d   1      -0.506   5.006  -0.503  0.00  0.00     0.001 A 
ENDROOT
BRANCH   1   8
ATOM      8  C1  UNL d   1      -2.637   5.776   0.611  0.00  0.00     0.053 C 
ATOM      9  C   UNL d   1      -3.905   5.201   1.221  0.00  0.00     0.018 C 
ENDBRANCH   1   8
TORSDOF 1
ENDMDL
