MODEL 1
REMARK minimizedAffinity 8.57881641
REMARK minimizedRMSD -1
REMARK  1 active torsions:
REMARK  status: ('A' for Active; 'I' for Inactive)
REMARK    1  A    between atoms: C1_2  and  C2_3 
ROOT
ATOM      1  C2  UNL d   1      -0.164   3.178  -0.048  0.00  0.00    -0.073 A 
ATOM      2  C3  UNL d   1       0.020   4.464   0.473  0.00  0.00    -0.002 A 
ATOM      3  C4  UNL d   1      -0.151   5.585  -0.341  0.00  0.00     0.004 A 
ATOM      4  C5  UNL d   1      -0.514   5.432  -1.679  0.00  0.00    -0.004 A 
ATOM      5  C6  UNL d   1      -0.714   4.155  -2.214  0.00  0.00    -0.075 A 
ATOM      6  C7  UNL d   1      -1.102   3.974  -3.652  0.00  0.00     0.076 C 
ATOM      7  C8  UNL d   1      -0.537   3.035  -1.392  0.00  0.00     0.001 A 
ENDROOT
BRANCH   1   8
ATOM      8  C1  UNL d   1       0.014   1.965   0.829  0.00  0.00     0.053 C 
ATOM      9  C   UNL d   1      -1.281   1.567   1.520  0.00  0.00     0.018 C 
ENDBRANCH   1   8
TORSDOF 1
ENDMDL
