MODEL 1
REMARK minimizedAffinity 6.75181293
REMARK minimizedRMSD -1
REMARK  1 active torsions:
REMARK  status: ('A' for Active; 'I' for Inactive)
REMARK    1  A    between atoms: C1_2  and  C2_3 
ROOT
ATOM      1  C2  UNL d   1      -0.587   3.614  -2.121  0.00  0.00    -0.073 A 
ATOM      2  C3  UNL d   1       0.567   3.028  -1.589  0.00  0.00    -0.002 A 
ATOM      3  C4  UNL d   1       1.034   3.407  -0.330  0.00  0.00     0.004 A 
ATOM      4  C5  UNL d   1       0.349   4.370   0.412  0.00  0.00    -0.004 A 
ATOM      5  C6  UNL d   1      -0.812   4.959  -0.097  0.00  0.00    -0.075 A 
ATOM      6  C7  UNL d   1      -1.558   5.998   0.687  0.00  0.00     0.076 C 
ATOM      7  C8  UNL d   1      -1.273   4.575  -1.364  0.00  0.00     0.001 A 
ENDROOT
BRANCH   1   8
ATOM      8  C1  UNL d   1      -1.099   3.203  -3.477  0.00  0.00     0.053 C 
ATOM      9  C   UNL d   1      -2.433   2.478  -3.388  0.00  0.00     0.018 C 
ENDBRANCH   1   8
TORSDOF 1
ENDMDL
