MODEL 1
REMARK minimizedAffinity 0.825259209
REMARK minimizedRMSD -1
REMARK  1 active torsions:
REMARK  status: ('A' for Active; 'I' for Inactive)
REMARK    1  A    between atoms: C1_2  and  C2_3 
ROOT
ATOM      1  C2  UNL d   1      -0.444  -1.956   2.860  0.00  0.00    -0.073 A 
ATOM      2  C3  UNL d   1      -0.125  -3.179   2.257  0.00  0.00    -0.002 A 
ATOM      3  C4  UNL d   1      -0.486  -4.380   2.868  0.00  0.00     0.004 A 
ATOM      4  C5  UNL d   1      -1.175  -4.373   4.081  0.00  0.00    -0.004 A 
ATOM      5  C6  UNL d   1      -1.513  -3.161   4.692  0.00  0.00    -0.075 A 
ATOM      6  C7  UNL d   1      -2.252  -3.136   5.998  0.00  0.00     0.076 C 
ATOM      7  C8  UNL d   1      -1.145  -1.959   4.074  0.00  0.00     0.001 A 
ENDROOT
BRANCH   1   8
ATOM      8  C1  UNL d   1      -0.062  -0.656   2.201  0.00  0.00     0.053 C 
ATOM      9  C   UNL d   1      -1.128   0.412   2.387  0.00  0.00     0.018 C 
ENDBRANCH   1   8
TORSDOF 1
ENDMDL
