MODEL 1
REMARK minimizedAffinity 7.02410984
REMARK minimizedRMSD -1
REMARK  1 active torsions:
REMARK  status: ('A' for Active; 'I' for Inactive)
REMARK    1  A    between atoms: C1_2  and  C2_3 
ROOT
ATOM      1  C2  UNL d   1       0.143   3.485   1.022  0.00  0.00    -0.073 A 
ATOM      2  C3  UNL d   1      -0.686   4.583   1.277  0.00  0.00    -0.002 A 
ATOM      3  C4  UNL d   1      -0.832   5.593   0.325  0.00  0.00     0.004 A 
ATOM      4  C5  UNL d   1      -0.157   5.512  -0.893  0.00  0.00    -0.004 A 
ATOM      5  C6  UNL d   1       0.666   4.416  -1.172  0.00  0.00    -0.075 A 
ATOM      6  C7  UNL d   1       1.401   4.315  -2.476  0.00  0.00     0.076 C 
ATOM      7  C8  UNL d   1       0.810   3.408  -0.209  0.00  0.00     0.001 A 
ENDROOT
BRANCH   1   8
ATOM      8  C1  UNL d   1       0.298   2.389   2.044  0.00  0.00     0.053 C 
ATOM      9  C   UNL d   1      -1.044   1.908   2.574  0.00  0.00     0.018 C 
ENDBRANCH   1   8
TORSDOF 1
ENDMDL
