MODEL 1
REMARK minimizedAffinity 8.31829357
REMARK minimizedRMSD -1
REMARK  1 active torsions:
REMARK  status: ('A' for Active; 'I' for Inactive)
REMARK    1  A    between atoms: C1_2  and  C2_3 
ROOT
ATOM      1  C2  UNL d   1      -0.656  -0.428   3.400  0.00  0.00    -0.073 A 
ATOM      2  C3  UNL d   1      -2.012  -0.338   3.735  0.00  0.00    -0.002 A 
ATOM      3  C4  UNL d   1      -2.729  -1.483   4.085  0.00  0.00     0.004 A 
ATOM      4  C5  UNL d   1      -2.098  -2.726   4.110  0.00  0.00    -0.004 A 
ATOM      5  C6  UNL d   1      -0.740  -2.835   3.790  0.00  0.00    -0.075 A 
ATOM      6  C7  UNL d   1      -0.047  -4.165   3.810  0.00  0.00     0.076 C 
ATOM      7  C8  UNL d   1      -0.028  -1.681   3.437  0.00  0.00     0.001 A 
ENDROOT
BRANCH   1   8
ATOM      8  C1  UNL d   1       0.124   0.807   3.028  0.00  0.00     0.053 C 
ATOM      9  C   UNL d   1       0.261   1.768   4.198  0.00  0.00     0.018 C 
ENDBRANCH   1   8
TORSDOF 1
ENDMDL
