MODEL 1
REMARK minimizedAffinity -1.6401875
REMARK minimizedRMSD -1
REMARK  1 active torsions:
REMARK  status: ('A' for Active; 'I' for Inactive)
REMARK    1  A    between atoms: C1_2  and  C2_3 
ROOT
ATOM      1  C2  UNL d   1      -3.587  -2.786   5.611  0.00  0.00    -0.073 A 
ATOM      2  C3  UNL d   1      -2.832  -1.864   4.877  0.00  0.00    -0.002 A 
ATOM      3  C4  UNL d   1      -1.517  -2.159   4.516  0.00  0.00     0.004 A 
ATOM      4  C5  UNL d   1      -0.946  -3.379   4.877  0.00  0.00    -0.004 A 
ATOM      5  C6  UNL d   1      -1.689  -4.318   5.601  0.00  0.00    -0.075 A 
ATOM      6  C7  UNL d   1      -1.088  -5.634   6.000  0.00  0.00     0.076 C 
ATOM      7  C8  UNL d   1      -3.008  -4.013   5.963  0.00  0.00     0.001 A 
ENDROOT
BRANCH   1   8
ATOM      8  C1  UNL d   1      -5.010  -2.474   5.999  0.00  0.00     0.053 C 
ATOM      9  C   UNL d   1      -5.893  -3.712   5.968  0.00  0.00     0.018 C 
ENDBRANCH   1   8
TORSDOF 1
ENDMDL
