MODEL 1
REMARK minimizedAffinity 7.13856649
REMARK minimizedRMSD -1
REMARK  0 active torsions:
REMARK  status: ('A' for Active; 'I' for Inactive)
ROOT
ATOM      1  C4' PXY d   1       3.630   0.806  -1.080  0.00  0.00     0.077 C 
ATOM      2  C1' PXY d   1      -0.723   3.399  -3.862  0.00  0.00     0.077 C 
ATOM      3  C1  PXY d   1       0.426   2.720  -3.143  0.00  0.00    -0.082 A 
ATOM      4  C2  PXY d   1       0.175   1.901  -2.135  0.00  0.00     0.003 A 
ATOM      5  C3  PXY d   1       1.203   1.304  -1.453  0.00  0.00     0.003 A 
ATOM      6  C4  PXY d   1       2.501   1.506  -1.841  0.00  0.00    -0.082 A 
ATOM      7  C5  PXY d   1       2.765   2.331  -2.876  0.00  0.00     0.003 A 
ATOM      8  C6  PXY d   1       1.709   2.960  -3.528  0.00  0.00     0.003 A 
ENDROOT
TORSDOF 0
ENDMDL
