MODEL 1
REMARK minimizedAffinity 7.12981415
REMARK minimizedRMSD -1
REMARK  0 active torsions:
REMARK  status: ('A' for Active; 'I' for Inactive)
ROOT
ATOM      1  C4' PXY d   1      -6.000   4.442  -3.857  0.00  0.00     0.077 C 
ATOM      2  C1' PXY d   1      -0.806   5.972  -5.881  0.00  0.00     0.077 C 
ATOM      3  C1  PXY d   1      -2.173   5.581  -5.356  0.00  0.00    -0.082 A 
ATOM      4  C2  PXY d   1      -2.267   4.824  -4.275  0.00  0.00     0.003 A 
ATOM      5  C3  PXY d   1      -3.495   4.435  -3.805  0.00  0.00     0.003 A 
ATOM      6  C4  PXY d   1      -4.640   4.868  -4.417  0.00  0.00    -0.082 A 
ATOM      7  C5  PXY d   1      -4.553   5.650  -5.515  0.00  0.00     0.003 A 
ATOM      8  C6  PXY d   1      -3.296   6.000  -6.000  0.00  0.00     0.003 A 
ENDROOT
TORSDOF 0
ENDMDL
