MODEL 1
REMARK minimizedAffinity 9.25591564
REMARK minimizedRMSD -1
REMARK  0 active torsions:
REMARK  status: ('A' for Active; 'I' for Inactive)
ROOT
ATOM      1  C4' PXY d   1       2.048   3.028  -2.898  0.00  0.00     0.077 C 
ATOM      2  C1' PXY d   1      -2.183   5.996  -5.487  0.00  0.00     0.077 C 
ATOM      3  C1  PXY d   1      -1.068   5.229  -4.804  0.00  0.00    -0.082 A 
ATOM      4  C2  PXY d   1      -0.762   4.011  -5.220  0.00  0.00     0.003 A 
ATOM      5  C3  PXY d   1       0.222   3.290  -4.593  0.00  0.00     0.003 A 
ATOM      6  C4  PXY d   1       0.936   3.843  -3.564  0.00  0.00    -0.082 A 
ATOM      7  C5  PXY d   1       0.637   5.090  -3.141  0.00  0.00     0.003 A 
ATOM      8  C6  PXY d   1      -0.393   5.789  -3.764  0.00  0.00     0.003 A 
ENDROOT
TORSDOF 0
ENDMDL
