MODEL 1
REMARK minimizedAffinity 9.8575325
REMARK minimizedRMSD -1
REMARK  0 active torsions:
REMARK  status: ('A' for Active; 'I' for Inactive)
ROOT
ATOM      1  C4' PXY d   1      -1.316  -0.019  -0.073  0.00  0.00     0.077 C 
ATOM      2  C1' PXY d   1      -2.212   0.514   5.613  0.00  0.00     0.077 C 
ATOM      3  C1  PXY d   1      -1.967   0.365   4.124  0.00  0.00    -0.082 A 
ATOM      4  C2  PXY d   1      -2.319   1.342   3.303  0.00  0.00     0.003 A 
ATOM      5  C3  PXY d   1      -2.135   1.211   1.951  0.00  0.00     0.003 A 
ATOM      6  C4  PXY d   1      -1.535   0.091   1.438  0.00  0.00    -0.082 A 
ATOM      7  C5  PXY d   1      -1.164  -0.904   2.271  0.00  0.00     0.003 A 
ATOM      8  C6  PXY d   1      -1.397  -0.770   3.636  0.00  0.00     0.003 A 
ENDROOT
TORSDOF 0
ENDMDL
