MODEL 1
REMARK minimizedAffinity 9.10975647
REMARK minimizedRMSD -1
REMARK  0 active torsions:
REMARK  status: ('A' for Active; 'I' for Inactive)
ROOT
ATOM      1  C4' PXY d   1      -5.995   5.991  -5.011  0.00  0.00     0.077 C 
ATOM      2  C1' PXY d   1      -0.243   5.529  -4.662  0.00  0.00     0.077 C 
ATOM      3  C1  PXY d   1      -1.753   5.643  -4.742  0.00  0.00    -0.082 A 
ATOM      4  C2  PXY d   1      -2.331   5.851  -5.914  0.00  0.00     0.003 A 
ATOM      5  C3  PXY d   1      -3.693   5.989  -6.000  0.00  0.00     0.003 A 
ATOM      6  C4  PXY d   1      -4.474   5.859  -4.883  0.00  0.00    -0.082 A 
ATOM      7  C5  PXY d   1      -3.892   5.636  -3.686  0.00  0.00     0.003 A 
ATOM      8  C6  PXY d   1      -2.506   5.541  -3.613  0.00  0.00     0.003 A 
ENDROOT
TORSDOF 0
ENDMDL
