MODEL 1
REMARK minimizedAffinity 14.8990126
REMARK minimizedRMSD -1
REMARK  0 active torsions:
REMARK  status: ('A' for Active; 'I' for Inactive)
ROOT
ATOM      1  C4' PXY d   1      -4.661   0.560   0.782  0.00  0.00     0.077 C 
ATOM      2  C1' PXY d   1       0.304  -1.755   2.627  0.00  0.00     0.077 C 
ATOM      3  C1  PXY d   1      -0.999  -1.142   2.155  0.00  0.00    -0.082 A 
ATOM      4  C2  PXY d   1      -1.717  -1.760   1.231  0.00  0.00     0.003 A 
ATOM      5  C3  PXY d   1      -2.881  -1.204   0.769  0.00  0.00     0.003 A 
ATOM      6  C4  PXY d   1      -3.344  -0.028   1.296  0.00  0.00    -0.082 A 
ATOM      7  C5  PXY d   1      -2.623   0.604   2.247  0.00  0.00     0.003 A 
ATOM      8  C6  PXY d   1      -1.423   0.043   2.672  0.00  0.00     0.003 A 
ENDROOT
TORSDOF 0
ENDMDL
