MODEL 1
REMARK minimizedAffinity 12.4619017
REMARK minimizedRMSD -1
REMARK  0 active torsions:
REMARK  status: ('A' for Active; 'I' for Inactive)
ROOT
ATOM      1  C4' PXY d   1      -0.372   4.381  -4.547  0.00  0.00     0.077 C 
ATOM      2  C1' PXY d   1       3.135   1.275  -1.162  0.00  0.00     0.077 C 
ATOM      3  C1  PXY d   1       2.224   2.099  -2.050  0.00  0.00    -0.082 A 
ATOM      4  C2  PXY d   1       0.915   1.915  -1.995  0.00  0.00     0.003 A 
ATOM      5  C3  PXY d   1       0.079   2.629  -2.814  0.00  0.00     0.003 A 
ATOM      6  C4  PXY d   1       0.585   3.578  -3.661  0.00  0.00    -0.082 A 
ATOM      7  C5  PXY d   1       1.918   3.780  -3.716  0.00  0.00     0.003 A 
ATOM      8  C6  PXY d   1       2.753   3.016  -2.905  0.00  0.00     0.003 A 
ENDROOT
TORSDOF 0
ENDMDL
