MODEL 1
REMARK minimizedAffinity 13.7361917
REMARK minimizedRMSD -1
REMARK  0 active torsions:
REMARK  status: ('A' for Active; 'I' for Inactive)
ROOT
ATOM      1  C4' PXY d   1       0.571  -1.145   2.570  0.00  0.00     0.077 C 
ATOM      2  C1' PXY d   1      -5.178  -1.739   2.523  0.00  0.00     0.077 C 
ATOM      3  C1  PXY d   1      -3.672  -1.571   2.539  0.00  0.00    -0.082 A 
ATOM      4  C2  PXY d   1      -2.918  -2.351   1.781  0.00  0.00     0.003 A 
ATOM      5  C3  PXY d   1      -1.553  -2.234   1.808  0.00  0.00     0.003 A 
ATOM      6  C4  PXY d   1      -0.954  -1.273   2.578  0.00  0.00    -0.082 A 
ATOM      7  C5  PXY d   1      -1.717  -0.466   3.346  0.00  0.00     0.003 A 
ATOM      8  C6  PXY d   1      -3.099  -0.629   3.336  0.00  0.00     0.003 A 
ENDROOT
TORSDOF 0
ENDMDL
