MODEL 1
REMARK minimizedAffinity 7.89828825
REMARK minimizedRMSD -1
REMARK  0 active torsions:
REMARK  status: ('A' for Active; 'I' for Inactive)
ROOT
ATOM      1  C4' PXY d   1       1.109   4.642  -3.195  0.00  0.00     0.077 C 
ATOM      2  C1' PXY d   1      -4.447   5.104  -1.668  0.00  0.00     0.077 C 
ATOM      3  C1  PXY d   1      -2.993   4.977  -2.080  0.00  0.00    -0.082 A 
ATOM      4  C2  PXY d   1      -2.052   4.934  -1.152  0.00  0.00     0.003 A 
ATOM      5  C3  PXY d   1      -0.730   4.852  -1.507  0.00  0.00     0.003 A 
ATOM      6  C4  PXY d   1      -0.372   4.759  -2.826  0.00  0.00    -0.082 A 
ATOM      7  C5  PXY d   1      -1.327   4.792  -3.779  0.00  0.00     0.003 A 
ATOM      8  C6  PXY d   1      -2.660   4.917  -3.398  0.00  0.00     0.003 A 
ENDROOT
TORSDOF 0
ENDMDL
