MODEL 1
REMARK minimizedAffinity 11.1866274
REMARK minimizedRMSD -1
REMARK  0 active torsions:
REMARK  status: ('A' for Active; 'I' for Inactive)
ROOT
ATOM      1  C4' PXY d   1       4.498   2.982  -6.000  0.00  0.00     0.077 C 
ATOM      2  C1' PXY d   1       5.279   5.998  -1.131  0.00  0.00     0.077 C 
ATOM      3  C1  PXY d   1       5.066   5.200  -2.402  0.00  0.00    -0.082 A 
ATOM      4  C2  PXY d   1       6.000   5.199  -3.338  0.00  0.00     0.003 A 
ATOM      5  C3  PXY d   1       5.810   4.508  -4.507  0.00  0.00     0.003 A 
ATOM      6  C4  PXY d   1       4.675   3.766  -4.697  0.00  0.00    -0.082 A 
ATOM      7  C5  PXY d   1       3.721   3.753  -3.741  0.00  0.00     0.003 A 
ATOM      8  C6  PXY d   1       3.915   4.495  -2.580  0.00  0.00     0.003 A 
ENDROOT
TORSDOF 0
ENDMDL
