MODEL 1
REMARK minimizedAffinity 15.6804228
REMARK minimizedRMSD -1
REMARK  0 active torsions:
REMARK  status: ('A' for Active; 'I' for Inactive)
ROOT
ATOM      1  C4' PXY d   1       0.697  -3.452   1.558  0.00  0.00     0.077 C 
ATOM      2  C1' PXY d   1       5.698  -2.855  -1.279  0.00  0.00     0.077 C 
ATOM      3  C1  PXY d   1       4.382  -3.020  -0.544  0.00  0.00    -0.082 A 
ATOM      4  C2  PXY d   1       3.967  -2.068   0.275  0.00  0.00     0.003 A 
ATOM      5  C3  PXY d   1       2.795  -2.215   0.972  0.00  0.00     0.003 A 
ATOM      6  C4  PXY d   1       2.014  -3.324   0.788  0.00  0.00    -0.082 A 
ATOM      7  C5  PXY d   1       2.426  -4.295  -0.054  0.00  0.00     0.003 A 
ATOM      8  C6  PXY d   1       3.638  -4.145  -0.721  0.00  0.00     0.003 A 
ENDROOT
TORSDOF 0
ENDMDL
