MODEL 1
REMARK minimizedAffinity 16.1706905
REMARK minimizedRMSD -1
REMARK  0 active torsions:
REMARK  status: ('A' for Active; 'I' for Inactive)
ROOT
ATOM      1  C4' PXY d   1       4.043   3.705  -5.073  0.00  0.00     0.077 C 
ATOM      2  C1' PXY d   1       1.355   1.515  -0.448  0.00  0.00     0.077 C 
ATOM      3  C1  PXY d   1       2.048   2.091  -1.667  0.00  0.00    -0.082 A 
ATOM      4  C2  PXY d   1       3.303   1.759  -1.924  0.00  0.00     0.003 A 
ATOM      5  C3  PXY d   1       3.955   2.296  -3.004  0.00  0.00     0.003 A 
ATOM      6  C4  PXY d   1       3.300   3.140  -3.859  0.00  0.00    -0.082 A 
ATOM      7  C5  PXY d   1       2.017   3.476  -3.610  0.00  0.00     0.003 A 
ATOM      8  C6  PXY d   1       1.385   2.952  -2.486  0.00  0.00     0.003 A 
ENDROOT
TORSDOF 0
ENDMDL
