MODEL 1
REMARK minimizedAffinity 13.7492189
REMARK minimizedRMSD -1
REMARK  0 active torsions:
REMARK  status: ('A' for Active; 'I' for Inactive)
ROOT
ATOM      1  C4' PXY d   1      -0.854  -3.498  -0.784  0.00  0.00     0.077 C 
ATOM      2  C1' PXY d   1      -0.744  -5.999  -5.994  0.00  0.00     0.077 C 
ATOM      3  C1  PXY d   1      -0.760  -5.342  -4.628  0.00  0.00    -0.082 A 
ATOM      4  C2  PXY d   1      -1.753  -5.595  -3.792  0.00  0.00     0.003 A 
ATOM      5  C3  PXY d   1      -1.800  -4.985  -2.565  0.00  0.00     0.003 A 
ATOM      6  C4  PXY d   1      -0.792  -4.147  -2.169  0.00  0.00    -0.082 A 
ATOM      7  C5  PXY d   1       0.231  -3.891  -3.013  0.00  0.00     0.003 A 
ATOM      8  C6  PXY d   1       0.238  -4.489  -4.270  0.00  0.00     0.003 A 
ENDROOT
TORSDOF 0
ENDMDL
