MODEL 1
REMARK minimizedAffinity 17.003109
REMARK minimizedRMSD -1
REMARK  0 active torsions:
REMARK  status: ('A' for Active; 'I' for Inactive)
ROOT
ATOM      1  C4' PXY d   1       4.144   2.610  -5.985  0.00  0.00     0.077 C 
ATOM      2  C1' PXY d   1       5.636   5.701  -1.333  0.00  0.00     0.077 C 
ATOM      3  C1  PXY d   1       5.251   4.899  -2.560  0.00  0.00    -0.082 A 
ATOM      4  C2  PXY d   1       4.189   4.111  -2.520  0.00  0.00     0.003 A 
ATOM      5  C3  PXY d   1       3.845   3.354  -3.611  0.00  0.00     0.003 A 
ATOM      6  C4  PXY d   1       4.565   3.446  -4.772  0.00  0.00    -0.082 A 
ATOM      7  C5  PXY d   1       5.643   4.256  -4.825  0.00  0.00     0.003 A 
ATOM      8  C6  PXY d   1       6.000   4.984  -3.693  0.00  0.00     0.003 A 
ENDROOT
TORSDOF 0
ENDMDL
