MODEL 1
REMARK minimizedAffinity 14.1031075
REMARK minimizedRMSD -1
REMARK  0 active torsions:
REMARK  status: ('A' for Active; 'I' for Inactive)
ROOT
ATOM      1  C4' PXY d   1       6.000   4.879  -0.635  0.00  0.00     0.077 C 
ATOM      2  C1' PXY d   1       1.941   1.347   1.477  0.00  0.00     0.077 C 
ATOM      3  C1  PXY d   1       3.000   2.283   0.930  0.00  0.00    -0.082 A 
ATOM      4  C2  PXY d   1       3.548   2.034  -0.248  0.00  0.00     0.003 A 
ATOM      5  C3  PXY d   1       4.530   2.853  -0.743  0.00  0.00     0.003 A 
ATOM      6  C4  PXY d   1       4.919   3.967  -0.048  0.00  0.00    -0.082 A 
ATOM      7  C5  PXY d   1       4.358   4.233   1.150  0.00  0.00     0.003 A 
ATOM      8  C6  PXY d   1       3.392   3.367   1.654  0.00  0.00     0.003 A 
ENDROOT
TORSDOF 0
ENDMDL
