MODEL 1
REMARK minimizedAffinity 10.8629265
REMARK minimizedRMSD -1
REMARK  0 active torsions:
REMARK  status: ('A' for Active; 'I' for Inactive)
ROOT
ATOM      1  C4' PXY d   1      -5.991  -0.342  -5.999  0.00  0.00     0.077 C 
ATOM      2  C1' PXY d   1      -5.960   0.382  -0.264  0.00  0.00     0.077 C 
ATOM      3  C1  PXY d   1      -5.963   0.180  -1.767  0.00  0.00    -0.082 A 
ATOM      4  C2  PXY d   1      -5.939   1.233  -2.568  0.00  0.00     0.003 A 
ATOM      5  C3  PXY d   1      -5.974   1.069  -3.929  0.00  0.00     0.003 A 
ATOM      6  C4  PXY d   1      -5.979  -0.186  -4.476  0.00  0.00    -0.082 A 
ATOM      7  C5  PXY d   1      -5.993  -1.265  -3.666  0.00  0.00     0.003 A 
ATOM      8  C6  PXY d   1      -5.999  -1.077  -2.286  0.00  0.00     0.003 A 
ENDROOT
TORSDOF 0
ENDMDL
