MODEL 1
REMARK minimizedAffinity 9.32010078
REMARK minimizedRMSD -1
REMARK  0 active torsions:
REMARK  status: ('A' for Active; 'I' for Inactive)
ROOT
ATOM      1  C4' PXY d   1      -5.601   0.505   0.286  0.00  0.00     0.077 C 
ATOM      2  C1' PXY d   1      -5.996   0.239  -5.475  0.00  0.00     0.077 C 
ATOM      3  C1  PXY d   1      -5.889   0.321  -3.965  0.00  0.00    -0.082 A 
ATOM      4  C2  PXY d   1      -5.707  -0.785  -3.261  0.00  0.00     0.003 A 
ATOM      5  C3  PXY d   1      -5.640  -0.732  -1.892  0.00  0.00     0.003 A 
ATOM      6  C4  PXY d   1      -5.706   0.471  -1.241  0.00  0.00    -0.082 A 
ATOM      7  C5  PXY d   1      -5.880   1.604  -1.953  0.00  0.00     0.003 A 
ATOM      8  C6  PXY d   1      -5.988   1.525  -3.338  0.00  0.00     0.003 A 
ENDROOT
TORSDOF 0
ENDMDL
