MODEL 1
REMARK minimizedAffinity 11.7180119
REMARK minimizedRMSD -1
REMARK  0 active torsions:
REMARK  status: ('A' for Active; 'I' for Inactive)
ROOT
ATOM      1  C4' PXY d   1      -4.708   1.985   4.205  0.00  0.00     0.077 C 
ATOM      2  C1' PXY d   1      -1.743  -2.009   1.261  0.00  0.00     0.077 C 
ATOM      3  C1  PXY d   1      -2.528  -0.960   2.022  0.00  0.00    -0.082 A 
ATOM      4  C2  PXY d   1      -1.973  -0.350   3.057  0.00  0.00     0.003 A 
ATOM      5  C3  PXY d   1      -2.680   0.578   3.777  0.00  0.00     0.003 A 
ATOM      6  C4  PXY d   1      -3.950   0.926   3.401  0.00  0.00    -0.082 A 
ATOM      7  C5  PXY d   1      -4.520   0.316   2.340  0.00  0.00     0.003 A 
ATOM      8  C6  PXY d   1      -3.800  -0.654   1.648  0.00  0.00     0.003 A 
ENDROOT
TORSDOF 0
ENDMDL
