MODEL 1
REMARK minimizedAffinity 9.03351402
REMARK minimizedRMSD -1
REMARK  0 active torsions:
REMARK  status: ('A' for Active; 'I' for Inactive)
ROOT
ATOM      1  C4' PXY d   1      -6.000  -6.000   6.000  0.00  0.00     0.077 C 
ATOM      2  C1' PXY d   1      -3.118  -3.144   1.882  0.00  0.00     0.077 C 
ATOM      3  C1  PXY d   1      -3.867  -3.887   2.971  0.00  0.00    -0.082 A 
ATOM      4  C2  PXY d   1      -4.436  -5.049   2.697  0.00  0.00     0.003 A 
ATOM      5  C3  PXY d   1      -5.145  -5.719   3.662  0.00  0.00     0.003 A 
ATOM      6  C4  PXY d   1      -5.226  -5.219   4.934  0.00  0.00    -0.082 A 
ATOM      7  C5  PXY d   1      -4.638  -4.039   5.224  0.00  0.00     0.003 A 
ATOM      8  C6  PXY d   1      -3.959  -3.355   4.220  0.00  0.00     0.003 A 
ENDROOT
TORSDOF 0
ENDMDL
