MODEL 1
REMARK minimizedAffinity 6.97511911
REMARK minimizedRMSD -1
REMARK  1 active torsions:
REMARK  status: ('A' for Active; 'I' for Inactive)
REMARK    1  A    between atoms: C1_2  and  C2_3 
ROOT
ATOM      1  C2  UNL d   1       3.562   4.690   5.822  0.00  0.00    -0.076 A 
ATOM      2  C3  UNL d   1       2.858   3.484   5.985  0.00  0.00     0.004 A 
ATOM      3  C4  UNL d   1       3.520   2.258   5.961  0.00  0.00    -0.003 A 
ATOM      4  C5  UNL d   1       4.898   2.218   5.773  0.00  0.00     0.000 A 
ATOM      5  C6  UNL d   1       5.614   3.405   5.627  0.00  0.00     0.000 A 
ATOM      6  C7  UNL d   1       4.964   4.651   5.666  0.00  0.00    -0.073 A 
ATOM      7  C8  UNL d   1       5.785   5.899   5.497  0.00  0.00     0.078 C 
ENDROOT
BRANCH   1   8
ATOM      8  C1  UNL d   1       2.787   5.988   5.830  0.00  0.00     0.053 C 
ATOM      9  C   UNL d   1       1.656   5.998   4.812  0.00  0.00     0.018 C 
ENDBRANCH   1   8
TORSDOF 1
ENDMDL
