MODEL 1
REMARK minimizedAffinity 9.79628849
REMARK minimizedRMSD -1
REMARK  1 active torsions:
REMARK  status: ('A' for Active; 'I' for Inactive)
REMARK    1  A    between atoms: C1_2  and  C2_3 
ROOT
ATOM      1  C2  UNL d   1      -1.237  -1.513  -0.287  0.00  0.00    -0.076 A 
ATOM      2  C3  UNL d   1      -0.578  -2.625   0.266  0.00  0.00     0.004 A 
ATOM      3  C4  UNL d   1      -1.152  -3.357   1.304  0.00  0.00    -0.003 A 
ATOM      4  C5  UNL d   1      -2.396  -2.990   1.806  0.00  0.00     0.000 A 
ATOM      5  C6  UNL d   1      -3.072  -1.900   1.258  0.00  0.00     0.000 A 
ATOM      6  C7  UNL d   1      -2.514  -1.161   0.200  0.00  0.00    -0.073 A 
ATOM      7  C8  UNL d   1      -3.285   0.008  -0.348  0.00  0.00     0.078 C 
ENDROOT
BRANCH   1   8
ATOM      8  C1  UNL d   1      -0.554  -0.742  -1.392  0.00  0.00     0.053 C 
ATOM      9  C   UNL d   1      -0.892  -1.279  -2.774  0.00  0.00     0.018 C 
ENDBRANCH   1   8
TORSDOF 1
ENDMDL
