MODEL 1
REMARK minimizedAffinity 7.91521406
REMARK minimizedRMSD -1
REMARK  1 active torsions:
REMARK  status: ('A' for Active; 'I' for Inactive)
REMARK    1  A    between atoms: C1_2  and  C2_3 
ROOT
ATOM      1  C2  UNL d   1       3.728   4.638   5.065  0.00  0.00    -0.076 A 
ATOM      2  C3  UNL d   1       2.983   3.848   4.172  0.00  0.00     0.004 A 
ATOM      3  C4  UNL d   1       3.615   2.992   3.272  0.00  0.00    -0.003 A 
ATOM      4  C5  UNL d   1       5.003   2.910   3.251  0.00  0.00     0.000 A 
ATOM      5  C6  UNL d   1       5.757   3.673   4.141  0.00  0.00     0.000 A 
ATOM      6  C7  UNL d   1       5.135   4.529   5.066  0.00  0.00    -0.073 A 
ATOM      7  C8  UNL d   1       5.999   5.333   5.999  0.00  0.00     0.078 C 
ENDROOT
BRANCH   1   8
ATOM      8  C1  UNL d   1       2.989   5.568   6.000  0.00  0.00     0.053 C 
ATOM      9  C   UNL d   1       1.640   5.999   5.446  0.00  0.00     0.018 C 
ENDBRANCH   1   8
TORSDOF 1
ENDMDL
