MODEL 1
REMARK minimizedAffinity 15.5619488
REMARK minimizedRMSD -1
REMARK  1 active torsions:
REMARK  status: ('A' for Active; 'I' for Inactive)
REMARK    1  A    between atoms: C1_2  and  C2_3 
ROOT
ATOM      1  C2  UNL d   1       3.847   4.420   3.908  0.00  0.00    -0.076 A 
ATOM      2  C3  UNL d   1       5.095   3.774   3.932  0.00  0.00     0.004 A 
ATOM      3  C4  UNL d   1       6.000   4.000   4.969  0.00  0.00    -0.003 A 
ATOM      4  C5  UNL d   1       5.670   4.875   5.998  0.00  0.00     0.000 A 
ATOM      5  C6  UNL d   1       4.428   5.510   5.999  0.00  0.00     0.000 A 
ATOM      6  C7  UNL d   1       3.499   5.281   4.971  0.00  0.00    -0.073 A 
ATOM      7  C8  UNL d   1       2.177   5.997   5.019  0.00  0.00     0.078 C 
ENDROOT
BRANCH   1   8
ATOM      8  C1  UNL d   1       2.918   4.157   2.744  0.00  0.00     0.053 C 
ATOM      9  C   UNL d   1       3.665   3.751   1.483  0.00  0.00     0.018 C 
ENDBRANCH   1   8
TORSDOF 1
ENDMDL
