MODEL 1
REMARK minimizedAffinity 7.67524195
REMARK minimizedRMSD -1
REMARK  1 active torsions:
REMARK  status: ('A' for Active; 'I' for Inactive)
REMARK    1  A    between atoms: C1_2  and  C2_3 
ROOT
ATOM      1  C2  UNL d   1       3.855   3.577   5.704  0.00  0.00    -0.076 A 
ATOM      2  C3  UNL d   1       3.222   4.807   5.953  0.00  0.00     0.004 A 
ATOM      3  C4  UNL d   1       3.949   5.995   5.986  0.00  0.00    -0.003 A 
ATOM      4  C5  UNL d   1       5.323   5.973   5.770  0.00  0.00     0.000 A 
ATOM      5  C6  UNL d   1       5.965   4.764   5.504  0.00  0.00     0.000 A 
ATOM      6  C7  UNL d   1       5.243   3.559   5.451  0.00  0.00    -0.073 A 
ATOM      7  C8  UNL d   1       5.988   2.283   5.166  0.00  0.00     0.078 C 
ENDROOT
BRANCH   1   8
ATOM      8  C1  UNL d   1       3.018   2.317   5.707  0.00  0.00     0.053 C 
ATOM      9  C   UNL d   1       3.843   1.071   5.988  0.00  0.00     0.018 C 
ENDBRANCH   1   8
TORSDOF 1
ENDMDL
