MODEL 1
REMARK minimizedAffinity 5.35099363
REMARK minimizedRMSD -1
REMARK  1 active torsions:
REMARK  status: ('A' for Active; 'I' for Inactive)
REMARK    1  A    between atoms: C1_2  and  C2_3 
ROOT
ATOM      1  C2  UNL d   1       4.185   3.628   4.910  0.00  0.00    -0.076 A 
ATOM      2  C3  UNL d   1       5.280   3.660   5.791  0.00  0.00     0.004 A 
ATOM      3  C4  UNL d   1       6.000   4.835   5.999  0.00  0.00    -0.003 A 
ATOM      4  C5  UNL d   1       5.636   5.998   5.329  0.00  0.00     0.000 A 
ATOM      5  C6  UNL d   1       4.542   5.989   4.465  0.00  0.00     0.000 A 
ATOM      6  C7  UNL d   1       3.796   4.817   4.257  0.00  0.00    -0.073 A 
ATOM      7  C8  UNL d   1       2.629   4.863   3.309  0.00  0.00     0.078 C 
ENDROOT
BRANCH   1   8
ATOM      8  C1  UNL d   1       3.459   2.318   4.704  0.00  0.00     0.053 C 
ATOM      9  C   UNL d   1       3.295   1.534   5.997  0.00  0.00     0.018 C 
ENDBRANCH   1   8
TORSDOF 1
ENDMDL
