MODEL 1
REMARK minimizedAffinity 10.1201954
REMARK minimizedRMSD -1
REMARK  1 active torsions:
REMARK  status: ('A' for Active; 'I' for Inactive)
REMARK    1  A    between atoms: C1_2  and  C2_3 
ROOT
ATOM      1  C2  UNL d   1       3.836   3.565   5.684  0.00  0.00    -0.076 A 
ATOM      2  C3  UNL d   1       3.202   4.790   5.953  0.00  0.00     0.004 A 
ATOM      3  C4  UNL d   1       3.926   5.980   5.992  0.00  0.00    -0.003 A 
ATOM      4  C5  UNL d   1       5.297   5.964   5.762  0.00  0.00     0.000 A 
ATOM      5  C6  UNL d   1       5.941   4.760   5.476  0.00  0.00     0.000 A 
ATOM      6  C7  UNL d   1       5.222   3.554   5.417  0.00  0.00    -0.073 A 
ATOM      7  C8  UNL d   1       5.968   2.284   5.111  0.00  0.00     0.078 C 
ENDROOT
BRANCH   1   8
ATOM      8  C1  UNL d   1       3.004   2.303   5.682  0.00  0.00     0.053 C 
ATOM      9  C   UNL d   1       3.828   1.060   5.980  0.00  0.00     0.018 C 
ENDBRANCH   1   8
TORSDOF 1
ENDMDL
