MODEL 1
REMARK minimizedAffinity 23.9277248
REMARK minimizedRMSD -1
REMARK  1 active torsions:
REMARK  status: ('A' for Active; 'I' for Inactive)
REMARK    1  A    between atoms: C1_2  and  C2_3 
ROOT
ATOM      1  C2  UNL d   1      -3.979   3.509  -4.896  0.00  0.00    -0.076 A 
ATOM      2  C3  UNL d   1      -3.602   4.820  -4.555  0.00  0.00     0.004 A 
ATOM      3  C4  UNL d   1      -4.379   5.912  -4.938  0.00  0.00    -0.003 A 
ATOM      4  C5  UNL d   1      -5.546   5.711  -5.667  0.00  0.00     0.000 A 
ATOM      5  C6  UNL d   1      -5.944   4.416  -5.998  0.00  0.00     0.000 A 
ATOM      6  C7  UNL d   1      -5.181   3.303  -5.606  0.00  0.00    -0.073 A 
ATOM      7  C8  UNL d   1      -5.654   1.930  -5.996  0.00  0.00     0.078 C 
ENDROOT
BRANCH   1   8
ATOM      8  C1  UNL d   1      -3.083   2.366  -4.477  0.00  0.00     0.053 C 
ATOM      9  C   UNL d   1      -1.626   2.784  -4.348  0.00  0.00     0.018 C 
ENDBRANCH   1   8
TORSDOF 1
ENDMDL
