MODEL 1
REMARK minimizedAffinity 23.5445442
REMARK minimizedRMSD -1
REMARK  1 active torsions:
REMARK  status: ('A' for Active; 'I' for Inactive)
REMARK    1  A    between atoms: C1_2  and  C2_3 
ROOT
ATOM      1  C2  UNL d   1      -3.392   3.196  -1.935  0.00  0.00    -0.076 A 
ATOM      2  C3  UNL d   1      -3.504   1.818  -1.678  0.00  0.00     0.004 A 
ATOM      3  C4  UNL d   1      -3.408   0.886  -2.709  0.00  0.00    -0.003 A 
ATOM      4  C5  UNL d   1      -3.198   1.315  -4.015  0.00  0.00     0.000 A 
ATOM      5  C6  UNL d   1      -3.066   2.677  -4.286  0.00  0.00     0.000 A 
ATOM      6  C7  UNL d   1      -3.144   3.629  -3.255  0.00  0.00    -0.073 A 
ATOM      7  C8  UNL d   1      -3.001   5.085  -3.606  0.00  0.00     0.078 C 
ENDROOT
BRANCH   1   8
ATOM      8  C1  UNL d   1      -3.532   4.162  -0.781  0.00  0.00     0.053 C 
ATOM      9  C   UNL d   1      -3.512   3.463   0.570  0.00  0.00     0.018 C 
ENDBRANCH   1   8
TORSDOF 1
ENDMDL
