MODEL 1
REMARK minimizedAffinity 19.0640392
REMARK minimizedRMSD -1
REMARK  1 active torsions:
REMARK  status: ('A' for Active; 'I' for Inactive)
REMARK    1  A    between atoms: C1_2  and  C2_3 
ROOT
ATOM      1  C2  UNL d   1      -1.482  -2.747  -1.227  0.00  0.00    -0.076 A 
ATOM      2  C3  UNL d   1      -2.661  -2.818  -0.465  0.00  0.00     0.004 A 
ATOM      3  C4  UNL d   1      -3.205  -1.677   0.123  0.00  0.00    -0.003 A 
ATOM      4  C5  UNL d   1      -2.579  -0.446  -0.043  0.00  0.00     0.000 A 
ATOM      5  C6  UNL d   1      -1.418  -0.354  -0.810  0.00  0.00     0.000 A 
ATOM      6  C7  UNL d   1      -0.866  -1.492  -1.423  0.00  0.00    -0.073 A 
ATOM      7  C8  UNL d   1       0.391  -1.336  -2.235  0.00  0.00     0.078 C 
ENDROOT
BRANCH   1   8
ATOM      8  C1  UNL d   1      -0.923  -4.022  -1.818  0.00  0.00     0.053 C 
ATOM      9  C   UNL d   1      -1.252  -5.246  -0.978  0.00  0.00     0.018 C 
ENDBRANCH   1   8
TORSDOF 1
ENDMDL
