MODEL 1
REMARK minimizedAffinity 13.5780935
REMARK minimizedRMSD -1
REMARK  1 active torsions:
REMARK  status: ('A' for Active; 'I' for Inactive)
REMARK    1  A    between atoms: C1_2  and  C2_3 
ROOT
ATOM      1  C2  UNL d   1       3.684   3.543   5.849  0.00  0.00    -0.076 A 
ATOM      2  C3  UNL d   1       2.977   4.757   5.805  0.00  0.00     0.004 A 
ATOM      3  C4  UNL d   1       3.647   5.974   5.695  0.00  0.00    -0.003 A 
ATOM      4  C5  UNL d   1       5.036   5.997   5.627  0.00  0.00     0.000 A 
ATOM      5  C6  UNL d   1       5.753   4.802   5.652  0.00  0.00     0.000 A 
ATOM      6  C7  UNL d   1       5.092   3.565   5.746  0.00  0.00    -0.073 A 
ATOM      7  C8  UNL d   1       5.915   2.307   5.774  0.00  0.00     0.078 C 
ENDROOT
BRANCH   1   8
ATOM      8  C1  UNL d   1       2.905   2.256   5.996  0.00  0.00     0.053 C 
ATOM      9  C   UNL d   1       3.506   1.115   5.189  0.00  0.00     0.018 C 
ENDBRANCH   1   8
TORSDOF 1
ENDMDL
