MODEL 1
REMARK minimizedAffinity 1.76082301
REMARK minimizedRMSD -1
REMARK  1 active torsions:
REMARK  status: ('A' for Active; 'I' for Inactive)
REMARK    1  A    between atoms: C1_2  and  C2_3 
ROOT
ATOM      1  C2  UNL d   1       3.679   4.126   4.633  0.00  0.00    -0.076 A 
ATOM      2  C3  UNL d   1       4.971   3.576   4.695  0.00  0.00     0.004 A 
ATOM      3  C4  UNL d   1       5.998   4.231   5.373  0.00  0.00    -0.003 A 
ATOM      4  C5  UNL d   1       5.749   5.447   6.000  0.00  0.00     0.000 A 
ATOM      5  C6  UNL d   1       4.469   5.999   5.963  0.00  0.00     0.000 A 
ATOM      6  C7  UNL d   1       3.419   5.344   5.298  0.00  0.00    -0.073 A 
ATOM      7  C8  UNL d   1       2.060   5.988   5.284  0.00  0.00     0.078 C 
ENDROOT
BRANCH   1   8
ATOM      8  C1  UNL d   1       2.612   3.384   3.860  0.00  0.00     0.053 C 
ATOM      9  C   UNL d   1       3.035   3.077   2.432  0.00  0.00     0.018 C 
ENDBRANCH   1   8
TORSDOF 1
ENDMDL
