MODEL 1
REMARK minimizedAffinity 9.9371233
REMARK minimizedRMSD -1
REMARK  1 active torsions:
REMARK  status: ('A' for Active; 'I' for Inactive)
REMARK    1  A    between atoms: C1_2  and  C2_3 
ROOT
ATOM      1  C2  UNL d   1       4.942   3.531   5.359  0.00  0.00    -0.076 A 
ATOM      2  C3  UNL d   1       5.446   4.840   5.268  0.00  0.00     0.004 A 
ATOM      3  C4  UNL d   1       4.628   5.942   5.514  0.00  0.00    -0.003 A 
ATOM      4  C5  UNL d   1       3.294   5.752   5.855  0.00  0.00     0.000 A 
ATOM      5  C6  UNL d   1       2.782   4.460   5.967  0.00  0.00     0.000 A 
ATOM      6  C7  UNL d   1       3.597   3.338   5.739  0.00  0.00    -0.073 A 
ATOM      7  C8  UNL d   1       2.991   1.967   5.867  0.00  0.00     0.078 C 
ENDROOT
BRANCH   1   8
ATOM      8  C1  UNL d   1       5.869   2.376   5.055  0.00  0.00     0.053 C 
ATOM      9  C   UNL d   1       5.817   1.955   3.594  0.00  0.00     0.018 C 
ENDBRANCH   1   8
TORSDOF 1
ENDMDL
