MODEL 1
REMARK minimizedAffinity 17.4278221
REMARK minimizedRMSD -1
REMARK  1 active torsions:
REMARK  status: ('A' for Active; 'I' for Inactive)
REMARK    1  A    between atoms: C1_2  and  C2_3 
ROOT
ATOM      1  C2  UNL d   1       5.178   2.245  -1.887  0.00  0.00    -0.076 A 
ATOM      2  C3  UNL d   1       5.826   3.117  -0.995  0.00  0.00     0.004 A 
ATOM      3  C4  UNL d   1       5.123   3.747   0.030  0.00  0.00    -0.003 A 
ATOM      4  C5  UNL d   1       3.761   3.515   0.181  0.00  0.00     0.000 A 
ATOM      5  C6  UNL d   1       3.105   2.639  -0.684  0.00  0.00     0.000 A 
ATOM      6  C7  UNL d   1       3.802   1.983  -1.713  0.00  0.00    -0.073 A 
ATOM      7  C8  UNL d   1       3.044   1.054  -2.621  0.00  0.00     0.078 C 
ENDROOT
BRANCH   1   8
ATOM      8  C1  UNL d   1       5.987   1.611  -2.996  0.00  0.00     0.053 C 
ATOM      9  C   UNL d   1       6.000   2.453  -4.263  0.00  0.00     0.018 C 
ENDBRANCH   1   8
TORSDOF 1
ENDMDL
