MODEL 1
REMARK minimizedAffinity 12.288826
REMARK minimizedRMSD -1
REMARK  1 active torsions:
REMARK  status: ('A' for Active; 'I' for Inactive)
REMARK    1  A    between atoms: C1_2  and  C2_3 
ROOT
ATOM      1  C2  UNL d   1       2.970   1.088  -1.214  0.00  0.00    -0.076 A 
ATOM      2  C3  UNL d   1       2.163   1.743  -0.267  0.00  0.00     0.004 A 
ATOM      3  C4  UNL d   1       2.650   2.824   0.466  0.00  0.00    -0.003 A 
ATOM      4  C5  UNL d   1       3.952   3.269   0.263  0.00  0.00     0.000 A 
ATOM      5  C6  UNL d   1       4.760   2.643  -0.685  0.00  0.00     0.000 A 
ATOM      6  C7  UNL d   1       4.280   1.562  -1.444  0.00  0.00    -0.073 A 
ATOM      7  C8  UNL d   1       5.197   0.920  -2.448  0.00  0.00     0.078 C 
ENDROOT
BRANCH   1   8
ATOM      8  C1  UNL d   1       2.397  -0.096  -1.960  0.00  0.00     0.053 C 
ATOM      9  C   UNL d   1       0.931  -0.335  -1.633  0.00  0.00     0.018 C 
ENDBRANCH   1   8
TORSDOF 1
ENDMDL
