MODEL 1
REMARK minimizedAffinity -0.171960697
REMARK minimizedRMSD -1
REMARK  0 active torsions:
REMARK  status: ('A' for Active; 'I' for Inactive)
ROOT
ATOM      1  N1  IND d   1      -0.391   1.435  -1.511  0.00  0.00    -0.196 N 
ATOM      2  C2  IND d   1      -0.332   2.718  -1.043  0.00  0.00     0.054 A 
ATOM      3  C3  IND d   1       0.530   2.801  -0.005  0.00  0.00    -0.031 A 
ATOM      4  C4  IND d   1       2.027   0.979   1.027  0.00  0.00     0.051 A 
ATOM      5  C5  IND d   1       2.296  -0.360   0.961  0.00  0.00    -0.031 A 
ATOM      6  C6  IND d   1       1.672  -1.185   0.047  0.00  0.00     0.015 A 
ATOM      7  C7  IND d   1       0.760  -0.697  -0.846  0.00  0.00    -0.016 A 
ATOM      8  C8  IND d   1       0.480   0.660  -0.777  0.00  0.00    -0.047 A 
ATOM      9  C9  IND d   1       1.079   1.494   0.176  0.00  0.00    -0.096 A 
ATOM     10  HN1 IND d   1      -0.888   1.159  -2.156  0.00  0.00     0.298 HD
ENDROOT
TORSDOF 0
ENDMDL
