MODEL 1
REMARK minimizedAffinity 2.2979188
REMARK minimizedRMSD -1
REMARK  0 active torsions:
REMARK  status: ('A' for Active; 'I' for Inactive)
ROOT
ATOM      1  N1  IND d   1      -0.321  -1.602   2.732  0.00  0.00    -0.196 N 
ATOM      2  C2  IND d   1       1.030  -1.614   2.942  0.00  0.00     0.054 A 
ATOM      3  C3  IND d   1       1.667  -0.961   1.944  0.00  0.00    -0.031 A 
ATOM      4  C4  IND d   1       0.685   0.293  -0.078  0.00  0.00     0.051 A 
ATOM      5  C5  IND d   1      -0.496   0.551  -0.716  0.00  0.00    -0.031 A 
ATOM      6  C6  IND d   1      -1.704   0.097  -0.226  0.00  0.00     0.015 A 
ATOM      7  C7  IND d   1      -1.777  -0.624   0.932  0.00  0.00    -0.016 A 
ATOM      8  C8  IND d   1      -0.579  -0.894   1.578  0.00  0.00    -0.047 A 
ATOM      9  C9  IND d   1       0.654  -0.473   1.063  0.00  0.00    -0.096 A 
ATOM     10  HN1 IND d   1      -0.911  -1.974   3.235  0.00  0.00     0.298 HD
ENDROOT
TORSDOF 0
ENDMDL
