MODEL 1
REMARK minimizedAffinity 0.835569978
REMARK minimizedRMSD -1
REMARK  0 active torsions:
REMARK  status: ('A' for Active; 'I' for Inactive)
ROOT
ATOM      1  N1  IND d   1       0.529  -0.454  -2.215  0.00  0.00    -0.196 N 
ATOM      2  C2  IND d   1      -0.728   0.084  -2.211  0.00  0.00     0.054 A 
ATOM      3  C3  IND d   1      -1.070   0.471  -0.961  0.00  0.00    -0.031 A 
ATOM      4  C4  IND d   1       0.318   0.411   1.207  0.00  0.00     0.051 A 
ATOM      5  C5  IND d   1       1.511  -0.026   1.710  0.00  0.00    -0.031 A 
ATOM      6  C6  IND d   1       2.458  -0.638   0.915  0.00  0.00     0.015 A 
ATOM      7  C7  IND d   1       2.251  -0.826  -0.423  0.00  0.00    -0.016 A 
ATOM      8  C8  IND d   1       1.037  -0.390  -0.936  0.00  0.00    -0.047 A 
ATOM      9  C9  IND d   1       0.055   0.193  -0.125  0.00  0.00    -0.096 A 
ATOM     10  HN1 IND d   1       0.934  -0.778  -2.901  0.00  0.00     0.298 HD
ENDROOT
TORSDOF 0
ENDMDL
