MODEL 1
REMARK minimizedAffinity -1.10871267
REMARK minimizedRMSD -1
REMARK  0 active torsions:
REMARK  status: ('A' for Active; 'I' for Inactive)
ROOT
ATOM      1  N1  IND d   1      -0.387   0.190  -1.470  0.00  0.00    -0.196 N 
ATOM      2  C2  IND d   1      -0.048   0.024  -0.156  0.00  0.00     0.054 A 
ATOM      3  C3  IND d   1       0.216   1.220   0.416  0.00  0.00    -0.031 A 
ATOM      4  C4  IND d   1       0.056   3.585  -0.590  0.00  0.00     0.051 A 
ATOM      5  C5  IND d   1      -0.177   4.242  -1.765  0.00  0.00    -0.031 A 
ATOM      6  C6  IND d   1      -0.502   3.568  -2.925  0.00  0.00     0.015 A 
ATOM      7  C7  IND d   1      -0.616   2.207  -2.950  0.00  0.00    -0.016 A 
ATOM      8  C8  IND d   1      -0.373   1.536  -1.760  0.00  0.00    -0.047 A 
ATOM      9  C9  IND d   1      -0.002   2.211  -0.590  0.00  0.00    -0.096 A 
ATOM     10  HN1 IND d   1      -0.576  -0.442  -2.022  0.00  0.00     0.298 HD
ENDROOT
TORSDOF 0
ENDMDL
