MODEL 1
REMARK minimizedAffinity -4.84910202
REMARK minimizedRMSD -1
REMARK  0 active torsions:
REMARK  status: ('A' for Active; 'I' for Inactive)
ROOT
ATOM      1  N1  IND d   1      -0.575  -0.349  -0.806  0.00  0.00    -0.196 N 
ATOM      2  C2  IND d   1       0.221  -0.714  -1.856  0.00  0.00     0.054 A 
ATOM      3  C3  IND d   1       1.481  -0.955  -1.430  0.00  0.00    -0.031 A 
ATOM      4  C4  IND d   1       2.435  -0.912   0.961  0.00  0.00     0.051 A 
ATOM      5  C5  IND d   1       2.101  -0.599   2.249  0.00  0.00    -0.031 A 
ATOM      6  C6  IND d   1       0.831  -0.182   2.592  0.00  0.00     0.015 A 
ATOM      7  C7  IND d   1      -0.159  -0.072   1.657  0.00  0.00    -0.016 A 
ATOM      8  C8  IND d   1       0.178  -0.381   0.347  0.00  0.00    -0.047 A 
ATOM      9  C9  IND d   1       1.477  -0.765  -0.014  0.00  0.00    -0.096 A 
ATOM     10  HN1 IND d   1      -1.406  -0.136  -0.857  0.00  0.00     0.298 HD
ENDROOT
TORSDOF 0
ENDMDL
