MODEL 1
REMARK minimizedAffinity 2.83355021
REMARK minimizedRMSD -1
REMARK  0 active torsions:
REMARK  status: ('A' for Active; 'I' for Inactive)
ROOT
ATOM      1  N1  IND d   1      -0.107   1.635  -1.671  0.00  0.00    -0.196 N 
ATOM      2  C2  IND d   1      -0.407   2.724  -0.900  0.00  0.00     0.054 A 
ATOM      3  C3  IND d   1       0.001   2.526   0.373  0.00  0.00    -0.031 A 
ATOM      4  C4  IND d   1       1.272   0.532   1.392  0.00  0.00     0.051 A 
ATOM      5  C5  IND d   1       1.736  -0.718   1.090  0.00  0.00    -0.031 A 
ATOM      6  C6  IND d   1       1.609  -1.257  -0.174  0.00  0.00     0.015 A 
ATOM      7  C7  IND d   1       1.021  -0.558  -1.191  0.00  0.00    -0.016 A 
ATOM      8  C8  IND d   1       0.542   0.708  -0.886  0.00  0.00    -0.047 A 
ATOM      9  C9  IND d   1       0.630   1.243   0.406  0.00  0.00    -0.096 A 
ATOM     10  HN1 IND d   1      -0.293   1.545  -2.505  0.00  0.00     0.298 HD
ENDROOT
TORSDOF 0
ENDMDL
