MODEL 1
REMARK minimizedAffinity -5.15353298
REMARK minimizedRMSD -1
REMARK  0 active torsions:
REMARK  status: ('A' for Active; 'I' for Inactive)
ROOT
ATOM      1  N1  IND d   1      -0.423   0.456  -0.796  0.00  0.00    -0.196 N 
ATOM      2  C2  IND d   1      -1.616  -0.210  -0.818  0.00  0.00     0.054 A 
ATOM      3  C3  IND d   1      -1.723  -1.020   0.260  0.00  0.00    -0.031 A 
ATOM      4  C4  IND d   1      -0.105  -1.332   2.238  0.00  0.00     0.051 A 
ATOM      5  C5  IND d   1       1.133  -0.965   2.685  0.00  0.00    -0.031 A 
ATOM      6  C6  IND d   1       1.931  -0.085   1.982  0.00  0.00     0.015 A 
ATOM      7  C7  IND d   1       1.514   0.471   0.806  0.00  0.00    -0.016 A 
ATOM      8  C8  IND d   1       0.260   0.095   0.345  0.00  0.00    -0.047 A 
ATOM      9  C9  IND d   1      -0.537  -0.830   1.033  0.00  0.00    -0.096 A 
ATOM     10  HN1 IND d   1      -0.145   1.008  -1.394  0.00  0.00     0.298 HD
ENDROOT
TORSDOF 0
ENDMDL
