MODEL 1
REMARK minimizedAffinity -1.22232461
REMARK minimizedRMSD -1
REMARK  0 active torsions:
REMARK  status: ('A' for Active; 'I' for Inactive)
ROOT
ATOM      1  N1  IND d   1      -2.813  -0.913  -1.693  0.00  0.00    -0.196 N 
ATOM      2  C2  IND d   1      -3.718  -1.568  -0.904  0.00  0.00     0.054 A 
ATOM      3  C3  IND d   1      -3.296  -1.585   0.380  0.00  0.00    -0.031 A 
ATOM      4  C4  IND d   1      -1.205  -0.512   1.430  0.00  0.00     0.051 A 
ATOM      5  C5  IND d   1      -0.060   0.159   1.104  0.00  0.00    -0.031 A 
ATOM      6  C6  IND d   1       0.230   0.518  -0.196  0.00  0.00     0.015 A 
ATOM      7  C7  IND d   1      -0.623   0.226  -1.223  0.00  0.00    -0.016 A 
ATOM      8  C8  IND d   1      -1.783  -0.462  -0.897  0.00  0.00    -0.047 A 
ATOM      9  C9  IND d   1      -2.063  -0.866   0.415  0.00  0.00    -0.096 A 
ATOM     10  HN1 IND d   1      -2.877  -0.801  -2.543  0.00  0.00     0.298 HD
ENDROOT
TORSDOF 0
ENDMDL
