MODEL 1
REMARK minimizedAffinity 1.887326
REMARK minimizedRMSD -1
REMARK  1 active torsions:
REMARK  status: ('A' for Active; 'I' for Inactive)
REMARK    1  A    between atoms: C1_2  and  C2_3 
ROOT
ATOM      1  C2  UNL d   1       1.325   0.768   0.389  0.00  0.00    -0.081 A 
ATOM      2  C3  UNL d   1      -0.049   1.031   0.456  0.00  0.00     0.006 A 
ATOM      3  C4  UNL d   1      -0.941   0.039   0.869  0.00  0.00     0.002 A 
ATOM      4  C5  UNL d   1      -0.474  -1.230   1.229  0.00  0.00    -0.080 A 
ATOM      5  C6  UNL d   1      -1.418  -2.295   1.703  0.00  0.00     0.076 C 
ATOM      6  C7  UNL d   1       0.896  -1.498   1.146  0.00  0.00     0.002 A 
ATOM      7  C8  UNL d   1       1.788  -0.507   0.732  0.00  0.00     0.006 A 
ENDROOT
BRANCH   1   8
ATOM      8  C1  UNL d   1       2.296   1.855   0.006  0.00  0.00     0.054 C 
ATOM      9  C   UNL d   1       2.438   2.887   1.117  0.00  0.00     0.018 C 
ENDBRANCH   1   8
TORSDOF 1
ENDMDL
