MODEL 1
REMARK minimizedAffinity -4.28877497
REMARK minimizedRMSD -1
REMARK  1 active torsions:
REMARK  status: ('A' for Active; 'I' for Inactive)
REMARK    1  A    between atoms: C1_2  and  C2_3 
ROOT
ATOM      1  C2  UNL d   1       0.649   0.063   0.217  0.00  0.00    -0.081 A 
ATOM      2  C3  UNL d   1      -0.213   0.608  -0.742  0.00  0.00     0.006 A 
ATOM      3  C4  UNL d   1      -1.538   0.175  -0.830  0.00  0.00     0.002 A 
ATOM      4  C5  UNL d   1      -2.026  -0.802   0.044  0.00  0.00    -0.080 A 
ATOM      5  C6  UNL d   1      -3.455  -1.253  -0.020  0.00  0.00     0.076 C 
ATOM      6  C7  UNL d   1      -1.160  -1.359   0.992  0.00  0.00     0.002 A 
ATOM      7  C8  UNL d   1       0.166  -0.927   1.079  0.00  0.00     0.006 A 
ENDROOT
BRANCH   1   8
ATOM      8  C1  UNL d   1       2.061   0.573   0.357  0.00  0.00     0.054 C 
ATOM      9  C   UNL d   1       2.102   1.878   1.140  0.00  0.00     0.018 C 
ENDBRANCH   1   8
TORSDOF 1
ENDMDL
