MODEL 1
REMARK minimizedAffinity -4.74393082
REMARK minimizedRMSD -1
REMARK  1 active torsions:
REMARK  status: ('A' for Active; 'I' for Inactive)
REMARK    1  A    between atoms: C1_2  and  C2_3 
ROOT
ATOM      1  C2  UNL d   1       1.080   0.264  -0.148  0.00  0.00    -0.081 A 
ATOM      2  C3  UNL d   1       0.347   0.475  -1.322  0.00  0.00     0.006 A 
ATOM      3  C4  UNL d   1      -0.981   0.050  -1.414  0.00  0.00     0.002 A 
ATOM      4  C5  UNL d   1      -1.599  -0.586  -0.332  0.00  0.00    -0.080 A 
ATOM      5  C6  UNL d   1      -3.033  -1.020  -0.407  0.00  0.00     0.076 C 
ATOM      6  C7  UNL d   1      -0.862  -0.812   0.835  0.00  0.00     0.002 A 
ATOM      7  C8  UNL d   1       0.466  -0.388   0.927  0.00  0.00     0.006 A 
ENDROOT
BRANCH   1   8
ATOM      8  C1  UNL d   1       2.491   0.779  -0.022  0.00  0.00     0.054 C 
ATOM      9  C   UNL d   1       2.532   2.100   0.732  0.00  0.00     0.018 C 
ENDBRANCH   1   8
TORSDOF 1
ENDMDL
