MODEL 1
REMARK minimizedAffinity -4.05513382
REMARK minimizedRMSD -1
REMARK  1 active torsions:
REMARK  status: ('A' for Active; 'I' for Inactive)
REMARK    1  A    between atoms: C1_2  and  C2_3 
ROOT
ATOM      1  C2  UNL d   1       0.958   1.073   0.576  0.00  0.00    -0.081 A 
ATOM      2  C3  UNL d   1       1.389   0.578  -0.661  0.00  0.00     0.006 A 
ATOM      3  C4  UNL d   1       0.504  -0.105  -1.497  0.00  0.00     0.002 A 
ATOM      4  C5  UNL d   1      -0.828  -0.299  -1.115  0.00  0.00    -0.080 A 
ATOM      5  C6  UNL d   1      -1.797  -1.004  -2.017  0.00  0.00     0.076 C 
ATOM      6  C7  UNL d   1      -1.254   0.181   0.128  0.00  0.00     0.002 A 
ATOM      7  C8  UNL d   1      -0.370   0.864   0.965  0.00  0.00     0.006 A 
ENDROOT
BRANCH   1   8
ATOM      8  C1  UNL d   1       1.893   1.868   1.452  0.00  0.00     0.054 C 
ATOM      9  C   UNL d   1       1.796   3.358   1.157  0.00  0.00     0.018 C 
ENDBRANCH   1   8
TORSDOF 1
ENDMDL
