MODEL 1
REMARK minimizedAffinity -4.70086861
REMARK minimizedRMSD -1
REMARK  1 active torsions:
REMARK  status: ('A' for Active; 'I' for Inactive)
REMARK    1  A    between atoms: C1_2  and  C2_3 
ROOT
ATOM      1  C2  UNL d   1       1.180   0.437   0.408  0.00  0.00    -0.081 A 
ATOM      2  C3  UNL d   1       0.223   0.982   1.272  0.00  0.00     0.006 A 
ATOM      3  C4  UNL d   1      -1.137   0.733   1.071  0.00  0.00     0.002 A 
ATOM      4  C5  UNL d   1      -1.561  -0.073   0.009  0.00  0.00    -0.080 A 
ATOM      5  C6  UNL d   1      -3.015  -0.374  -0.200  0.00  0.00     0.076 C 
ATOM      6  C7  UNL d   1      -0.606  -0.604  -0.865  0.00  0.00     0.002 A 
ATOM      7  C8  UNL d   1       0.754  -0.354  -0.665  0.00  0.00     0.006 A 
ENDROOT
BRANCH   1   8
ATOM      8  C1  UNL d   1       2.651   0.651   0.660  0.00  0.00     0.054 C 
ATOM      9  C   UNL d   1       3.173   1.859  -0.105  0.00  0.00     0.018 C 
ENDBRANCH   1   8
TORSDOF 1
ENDMDL
