MODEL 1
REMARK minimizedAffinity -4.82174253
REMARK minimizedRMSD -1
REMARK  1 active torsions:
REMARK  status: ('A' for Active; 'I' for Inactive)
REMARK    1  A    between atoms: C1_2  and  C2_3 
ROOT
ATOM      1  C2  UNL d   1       0.750   0.320   0.246  0.00  0.00    -0.081 A 
ATOM      2  C3  UNL d   1       0.081  -0.443   1.211  0.00  0.00     0.006 A 
ATOM      3  C4  UNL d   1      -1.251  -0.819   1.018  0.00  0.00     0.002 A 
ATOM      4  C5  UNL d   1      -1.932  -0.446  -0.146  0.00  0.00    -0.080 A 
ATOM      5  C6  UNL d   1      -3.351  -0.869  -0.380  0.00  0.00     0.076 C 
ATOM      6  C7  UNL d   1      -1.268   0.330  -1.102  0.00  0.00     0.002 A 
ATOM      7  C8  UNL d   1       0.063   0.707  -0.909  0.00  0.00     0.006 A 
ENDROOT
BRANCH   1   8
ATOM      8  C1  UNL d   1       2.206   0.672   0.422  0.00  0.00     0.054 C 
ATOM      9  C   UNL d   1       2.402   1.661   1.562  0.00  0.00     0.018 C 
ENDBRANCH   1   8
TORSDOF 1
ENDMDL
