MODEL 1
REMARK minimizedAffinity -4.76011753
REMARK minimizedRMSD -1
REMARK  1 active torsions:
REMARK  status: ('A' for Active; 'I' for Inactive)
REMARK    1  A    between atoms: C1_2  and  C2_3 
ROOT
ATOM      1  C2  UNL d   1      -0.617  -0.134  -0.170  0.00  0.00    -0.081 A 
ATOM      2  C3  UNL d   1       0.698  -0.471  -0.516  0.00  0.00     0.006 A 
ATOM      3  C4  UNL d   1       1.775   0.230   0.031  0.00  0.00     0.002 A 
ATOM      4  C5  UNL d   1       1.558   1.273   0.937  0.00  0.00    -0.080 A 
ATOM      5  C6  UNL d   1       2.707   2.013   1.555  0.00  0.00     0.076 C 
ATOM      6  C7  UNL d   1       0.244   1.621   1.270  0.00  0.00     0.002 A 
ATOM      7  C8  UNL d   1      -0.834   0.921   0.723  0.00  0.00     0.006 A 
ENDROOT
BRANCH   1   8
ATOM      8  C1  UNL d   1      -1.779  -0.930  -0.707  0.00  0.00     0.054 C 
ATOM      9  C   UNL d   1      -2.904  -1.025   0.314  0.00  0.00     0.018 C 
ENDBRANCH   1   8
TORSDOF 1
ENDMDL
