MODEL 1
REMARK minimizedAffinity -4.12094545
REMARK minimizedRMSD -1
REMARK  1 active torsions:
REMARK  status: ('A' for Active; 'I' for Inactive)
REMARK    1  A    between atoms: C1_2  and  C2_3 
ROOT
ATOM      1  C2  UNL d   1       1.022   0.511   0.077  0.00  0.00    -0.081 A 
ATOM      2  C3  UNL d   1       0.380   0.311  -1.151  0.00  0.00     0.006 A 
ATOM      3  C4  UNL d   1      -0.913  -0.216  -1.197  0.00  0.00     0.002 A 
ATOM      4  C5  UNL d   1      -1.588  -0.544  -0.016  0.00  0.00    -0.080 A 
ATOM      5  C6  UNL d   1      -2.987  -1.082  -0.049  0.00  0.00     0.076 C 
ATOM      6  C7  UNL d   1      -0.940  -0.361   1.210  0.00  0.00     0.002 A 
ATOM      7  C8  UNL d   1       0.353   0.165   1.257  0.00  0.00     0.006 A 
ENDROOT
BRANCH   1   8
ATOM      8  C1  UNL d   1       2.391   1.139   0.133  0.00  0.00     0.054 C 
ATOM      9  C   UNL d   1       2.545   2.022   1.363  0.00  0.00     0.018 C 
ENDBRANCH   1   8
TORSDOF 1
ENDMDL
