MODEL 1
REMARK minimizedAffinity -5.24336672
REMARK minimizedRMSD -1
REMARK  1 active torsions:
REMARK  status: ('A' for Active; 'I' for Inactive)
REMARK    1  A    between atoms: C1_2  and  C2_3 
ROOT
ATOM      1  C2  UNL d   1       0.774   0.638   0.275  0.00  0.00    -0.081 A 
ATOM      2  C3  UNL d   1       0.157   0.806  -0.971  0.00  0.00     0.006 A 
ATOM      3  C4  UNL d   1      -1.140   0.335  -1.187  0.00  0.00     0.002 A 
ATOM      4  C5  UNL d   1      -1.845  -0.303  -0.161  0.00  0.00    -0.080 A 
ATOM      5  C6  UNL d   1      -3.249  -0.786  -0.372  0.00  0.00     0.076 C 
ATOM      6  C7  UNL d   1      -1.222  -0.487   1.078  0.00  0.00     0.002 A 
ATOM      7  C8  UNL d   1       0.076  -0.018   1.295  0.00  0.00     0.006 A 
ENDROOT
BRANCH   1   8
ATOM      8  C1  UNL d   1       2.148   1.201   0.532  0.00  0.00     0.054 C 
ATOM      9  C   UNL d   1       2.110   2.293   1.592  0.00  0.00     0.018 C 
ENDBRANCH   1   8
TORSDOF 1
ENDMDL
