MODEL 1
REMARK minimizedAffinity -5.17054987
REMARK minimizedRMSD -1
REMARK  0 active torsions:
REMARK  status: ('A' for Active; 'I' for Inactive)
ROOT
ATOM      1  N1  IND d   1      -0.841  -1.350  -0.251  0.00  0.00    -0.196 N 
ATOM      2  C2  IND d   1      -0.637  -1.716  -1.552  0.00  0.00     0.054 A 
ATOM      3  C3  IND d   1      -0.605  -0.624  -2.349  0.00  0.00    -0.031 A 
ATOM      4  C4  IND d   1      -0.763   1.866  -1.718  0.00  0.00     0.051 A 
ATOM      5  C5  IND d   1      -0.989   2.696  -0.656  0.00  0.00    -0.031 A 
ATOM      6  C6  IND d   1      -1.179   2.210   0.622  0.00  0.00     0.015 A 
ATOM      7  C7  IND d   1      -1.138   0.871   0.888  0.00  0.00    -0.016 A 
ATOM      8  C8  IND d   1      -0.915   0.025  -0.190  0.00  0.00    -0.047 A 
ATOM      9  C9  IND d   1      -0.764   0.510  -1.495  0.00  0.00    -0.096 A 
ATOM     10  HN1 IND d   1      -0.912  -1.887   0.416  0.00  0.00     0.298 HD
ENDROOT
TORSDOF 0
ENDMDL
