MODEL 1
REMARK minimizedAffinity -4.79381323
REMARK minimizedRMSD -1
REMARK  0 active torsions:
REMARK  status: ('A' for Active; 'I' for Inactive)
ROOT
ATOM      1  N1  IND d   1      -1.138   2.080  -0.537  0.00  0.00    -0.196 N 
ATOM      2  C2  IND d   1      -1.458   3.268   0.058  0.00  0.00     0.054 A 
ATOM      3  C3  IND d   1      -1.153   3.231   1.375  0.00  0.00    -0.031 A 
ATOM      4  C4  IND d   1      -0.030   1.361   2.742  0.00  0.00     0.051 A 
ATOM      5  C5  IND d   1       0.413   0.072   2.643  0.00  0.00    -0.031 A 
ATOM      6  C6  IND d   1       0.364  -0.627   1.454  0.00  0.00     0.015 A 
ATOM      7  C7  IND d   1      -0.123  -0.056   0.312  0.00  0.00    -0.016 A 
ATOM      8  C8  IND d   1      -0.580   1.250   0.411  0.00  0.00    -0.047 A 
ATOM      9  C9  IND d   1      -0.572   1.950   1.624  0.00  0.00    -0.096 A 
ATOM     10  HN1 IND d   1      -1.264   1.884  -1.365  0.00  0.00     0.298 HD
ENDROOT
TORSDOF 0
ENDMDL
