MODEL 1
REMARK minimizedAffinity -5.69660568
REMARK minimizedRMSD -1
REMARK  0 active torsions:
REMARK  status: ('A' for Active; 'I' for Inactive)
ROOT
ATOM      1  N1  IND d   1      -0.725   0.561  -0.946  0.00  0.00    -0.196 N 
ATOM      2  C2  IND d   1       0.084  -0.526  -1.128  0.00  0.00     0.054 A 
ATOM      3  C3  IND d   1       0.792  -0.780  -0.005  0.00  0.00    -0.031 A 
ATOM      4  C4  IND d   1       0.706   0.397   2.283  0.00  0.00     0.051 A 
ATOM      5  C5  IND d   1       0.145   1.466   2.924  0.00  0.00    -0.031 A 
ATOM      6  C6  IND d   1      -0.754   2.303   2.296  0.00  0.00     0.015 A 
ATOM      7  C7  IND d   1      -1.137   2.095   1.002  0.00  0.00    -0.016 A 
ATOM      8  C8  IND d   1      -0.564   1.014   0.345  0.00  0.00    -0.047 A 
ATOM      9  C9  IND d   1       0.381   0.186   0.964  0.00  0.00    -0.096 A 
ATOM     10  HN1 IND d   1      -1.246   0.903  -1.537  0.00  0.00     0.298 HD
ENDROOT
TORSDOF 0
ENDMDL
