MODEL 1
REMARK minimizedAffinity 0.698446393
REMARK minimizedRMSD -1
REMARK  0 active torsions:
REMARK  status: ('A' for Active; 'I' for Inactive)
ROOT
ATOM      1  N1  IND d   1       0.256   0.390  -1.264  0.00  0.00    -0.196 N 
ATOM      2  C2  IND d   1      -0.385  -0.787  -1.531  0.00  0.00     0.054 A 
ATOM      3  C3  IND d   1      -0.592  -1.480  -0.388  0.00  0.00    -0.031 A 
ATOM      4  C4  IND d   1      -0.052  -0.825   2.042  0.00  0.00     0.051 A 
ATOM      5  C5  IND d   1       0.567   0.140   2.785  0.00  0.00    -0.031 A 
ATOM      6  C6  IND d   1       1.124   1.262   2.206  0.00  0.00     0.015 A 
ATOM      7  C7  IND d   1       1.071   1.467   0.856  0.00  0.00    -0.016 A 
ATOM      8  C8  IND d   1       0.449   0.485   0.097  0.00  0.00    -0.047 A 
ATOM      9  C9  IND d   1      -0.080  -0.676   0.676  0.00  0.00    -0.096 A 
ATOM     10  HN1 IND d   1       0.498   0.973  -1.847  0.00  0.00     0.298 HD
ENDROOT
TORSDOF 0
ENDMDL
