MODEL 1
REMARK minimizedAffinity -3.3543067
REMARK minimizedRMSD -1
REMARK  0 active torsions:
REMARK  status: ('A' for Active; 'I' for Inactive)
ROOT
ATOM      1  N1  IND d   1       0.180   2.182  -1.773  0.00  0.00    -0.196 N 
ATOM      2  C2  IND d   1       0.389   0.934  -2.290  0.00  0.00     0.054 A 
ATOM      3  C3  IND d   1       0.670   0.056  -1.301  0.00  0.00    -0.031 A 
ATOM      4  C4  IND d   1       0.741   0.428   1.245  0.00  0.00     0.051 A 
ATOM      5  C5  IND d   1       0.654   1.409   2.193  0.00  0.00    -0.031 A 
ATOM      6  C6  IND d   1       0.397   2.723   1.861  0.00  0.00     0.015 A 
ATOM      7  C7  IND d   1       0.205   3.106   0.564  0.00  0.00    -0.016 A 
ATOM      8  C8  IND d   1       0.300   2.114  -0.402  0.00  0.00    -0.047 A 
ATOM      9  C9  IND d   1       0.602   0.786  -0.075  0.00  0.00    -0.096 A 
ATOM     10  HN1 IND d   1       0.005   2.890  -2.227  0.00  0.00     0.298 HD
ENDROOT
TORSDOF 0
ENDMDL
