MODEL 1
REMARK minimizedAffinity -4.89313889
REMARK minimizedRMSD -1
REMARK  0 active torsions:
REMARK  status: ('A' for Active; 'I' for Inactive)
ROOT
ATOM      1  N1  IND d   1       0.063   0.327   2.230  0.00  0.00    -0.196 N 
ATOM      2  C2  IND d   1      -0.517   1.463   2.723  0.00  0.00     0.054 A 
ATOM      3  C3  IND d   1      -0.746   2.346   1.725  0.00  0.00    -0.031 A 
ATOM      4  C4  IND d   1      -0.343   2.095  -0.805  0.00  0.00     0.051 A 
ATOM      5  C5  IND d   1       0.202   1.249  -1.730  0.00  0.00    -0.031 A 
ATOM      6  C6  IND d   1       0.737   0.028  -1.376  0.00  0.00     0.015 A 
ATOM      7  C7  IND d   1       0.736  -0.401  -0.079  0.00  0.00    -0.016 A 
ATOM      8  C8  IND d   1       0.190   0.458   0.864  0.00  0.00    -0.047 A 
ATOM      9  C9  IND d   1      -0.316   1.717   0.517  0.00  0.00    -0.096 A 
ATOM     10  HN1 IND d   1       0.306  -0.354   2.694  0.00  0.00     0.298 HD
ENDROOT
TORSDOF 0
ENDMDL
