MODEL 1
REMARK minimizedAffinity -1.62438273
REMARK minimizedRMSD -1
REMARK  0 active torsions:
REMARK  status: ('A' for Active; 'I' for Inactive)
ROOT
ATOM      1  N1  IND d   1       1.047  -0.404  -0.150  0.00  0.00    -0.196 N 
ATOM      2  C2  IND d   1       1.342  -0.331   1.183  0.00  0.00     0.054 A 
ATOM      3  C3  IND d   1       0.324   0.247   1.858  0.00  0.00    -0.031 A 
ATOM      4  C4  IND d   1      -1.962   1.056   0.994  0.00  0.00     0.051 A 
ATOM      5  C5  IND d   1      -2.678   1.232  -0.157  0.00  0.00    -0.031 A 
ATOM      6  C6  IND d   1      -2.179   0.860  -1.389  0.00  0.00     0.015 A 
ATOM      7  C7  IND d   1      -0.946   0.287  -1.516  0.00  0.00    -0.016 A 
ATOM      8  C8  IND d   1      -0.213   0.114  -0.350  0.00  0.00    -0.047 A 
ATOM      9  C9  IND d   1      -0.696   0.528   0.898  0.00  0.00    -0.096 A 
ATOM     10  HN1 IND d   1       1.563  -0.721  -0.761  0.00  0.00     0.298 HD
ENDROOT
TORSDOF 0
ENDMDL
