MODEL 1
REMARK minimizedAffinity 4.34355736
REMARK minimizedRMSD -1
REMARK  0 active torsions:
REMARK  status: ('A' for Active; 'I' for Inactive)
ROOT
ATOM      1  N1  IND d   1       4.158   6.000  -1.501  0.00  0.00    -0.196 N 
ATOM      2  C2  IND d   1       3.002   5.314  -1.750  0.00  0.00     0.054 A 
ATOM      3  C3  IND d   1       2.726   4.471  -0.730  0.00  0.00    -0.031 A 
ATOM      4  C4  IND d   1       3.978   4.128   1.493  0.00  0.00     0.051 A 
ATOM      5  C5  IND d   1       5.110   4.503   2.161  0.00  0.00    -0.031 A 
ATOM      6  C6  IND d   1       6.000   5.416   1.632  0.00  0.00     0.015 A 
ATOM      7  C7  IND d   1       5.783   6.000   0.416  0.00  0.00    -0.016 A 
ATOM      8  C8  IND d   1       4.638   5.616  -0.268  0.00  0.00    -0.047 A 
ATOM      9  C9  IND d   1       3.754   4.659   0.245  0.00  0.00    -0.096 A 
ATOM     10  HN1 IND d   1       4.525   6.573  -2.026  0.00  0.00     0.298 HD
ENDROOT
TORSDOF 0
ENDMDL
