MODEL 1
REMARK minimizedAffinity 19.0882301
REMARK minimizedRMSD -1
REMARK  0 active torsions:
REMARK  status: ('A' for Active; 'I' for Inactive)
ROOT
ATOM      1  N1  IND d   1      -1.927   1.649  -1.611  0.00  0.00    -0.196 N 
ATOM      2  C2  IND d   1      -2.290   0.722  -0.674  0.00  0.00     0.054 A 
ATOM      3  C3  IND d   1      -1.263  -0.123  -0.427  0.00  0.00    -0.031 A 
ATOM      4  C4  IND d   1       1.132  -0.107  -1.371  0.00  0.00     0.051 A 
ATOM      5  C5  IND d   1       1.925   0.528  -2.286  0.00  0.00    -0.031 A 
ATOM      6  C6  IND d   1       1.466   1.591  -3.035  0.00  0.00     0.015 A 
ATOM      7  C7  IND d   1       0.195   2.070  -2.890  0.00  0.00    -0.016 A 
ATOM      8  C8  IND d   1      -0.616   1.424  -1.967  0.00  0.00    -0.047 A 
ATOM      9  C9  IND d   1      -0.169   0.317  -1.234  0.00  0.00    -0.096 A 
ATOM     10  HN1 IND d   1      -2.433   2.269  -1.925  0.00  0.00     0.298 HD
ENDROOT
TORSDOF 0
ENDMDL
