MODEL 1
REMARK minimizedAffinity 13.9385872
REMARK minimizedRMSD -1
REMARK  0 active torsions:
REMARK  status: ('A' for Active; 'I' for Inactive)
ROOT
ATOM      1  N1  IND d   1       1.597   1.171  -3.054  0.00  0.00    -0.196 N 
ATOM      2  C2  IND d   1       0.487   0.644  -2.454  0.00  0.00     0.054 A 
ATOM      3  C3  IND d   1       0.842  -0.297  -1.552  0.00  0.00    -0.031 A 
ATOM      4  C4  IND d   1       3.190  -1.062  -0.824  0.00  0.00     0.051 A 
ATOM      5  C5  IND d   1       4.515  -0.896  -1.115  0.00  0.00    -0.031 A 
ATOM      6  C6  IND d   1       4.944  -0.013  -2.085  0.00  0.00     0.015 A 
ATOM      7  C7  IND d   1       4.060   0.749  -2.795  0.00  0.00    -0.016 A 
ATOM      8  C8  IND d   1       2.714   0.578  -2.508  0.00  0.00    -0.047 A 
ATOM      9  C9  IND d   1       2.270  -0.348  -1.554  0.00  0.00    -0.096 A 
ATOM     10  HN1 IND d   1       1.597   1.771  -3.670  0.00  0.00     0.298 HD
ENDROOT
TORSDOF 0
ENDMDL
