MODEL 1
REMARK minimizedAffinity 19.3424702
REMARK minimizedRMSD -1
REMARK  0 active torsions:
REMARK  status: ('A' for Active; 'I' for Inactive)
ROOT
ATOM      1  N1  IND d   1      -2.239   5.305   5.418  0.00  0.00    -0.196 N 
ATOM      2  C2  IND d   1      -3.270   6.000   5.986  0.00  0.00     0.054 A 
ATOM      3  C3  IND d   1      -4.457   5.496   5.579  0.00  0.00    -0.031 A 
ATOM      4  C4  IND d   1      -4.941   3.472   4.064  0.00  0.00     0.051 A 
ATOM      5  C5  IND d   1      -4.321   2.542   3.277  0.00  0.00    -0.031 A 
ATOM      6  C6  IND d   1      -2.947   2.483   3.164  0.00  0.00     0.015 A 
ATOM      7  C7  IND d   1      -2.138   3.348   3.845  0.00  0.00    -0.016 A 
ATOM      8  C8  IND d   1      -2.765   4.298   4.639  0.00  0.00    -0.047 A 
ATOM      9  C9  IND d   1      -4.160   4.390   4.725  0.00  0.00    -0.096 A 
ATOM     10  HN1 IND d   1      -1.402   5.470   5.529  0.00  0.00     0.298 HD
ENDROOT
TORSDOF 0
ENDMDL
