MODEL 1
REMARK minimizedAffinity -1.16112435
REMARK minimizedRMSD -1
REMARK  0 active torsions:
REMARK  status: ('A' for Active; 'I' for Inactive)
ROOT
ATOM      1  N1  IND d   1       0.939   0.464  -2.290  0.00  0.00    -0.196 N 
ATOM      2  C2  IND d   1       2.299   0.339  -2.350  0.00  0.00     0.054 A 
ATOM      3  C3  IND d   1       2.892   1.286  -1.590  0.00  0.00    -0.031 A 
ATOM      4  C4  IND d   1       1.825   3.078  -0.081  0.00  0.00     0.051 A 
ATOM      5  C5  IND d   1       0.615   3.607   0.274  0.00  0.00    -0.031 A 
ATOM      6  C6  IND d   1      -0.572   3.103  -0.216  0.00  0.00     0.015 A 
ATOM      7  C7  IND d   1      -0.595   2.040  -1.074  0.00  0.00    -0.016 A 
ATOM      8  C8  IND d   1       0.631   1.505  -1.441  0.00  0.00    -0.047 A 
ATOM      9  C9  IND d   1       1.842   2.038  -0.981  0.00  0.00    -0.096 A 
ATOM     10  HN1 IND d   1       0.371  -0.025  -2.711  0.00  0.00     0.298 HD
ENDROOT
TORSDOF 0
ENDMDL
