MODEL 1
REMARK minimizedAffinity 5.10942888
REMARK minimizedRMSD -1
REMARK  0 active torsions:
REMARK  status: ('A' for Active; 'I' for Inactive)
ROOT
ATOM      1  N1  IND d   1       3.854  -2.065   3.834  0.00  0.00    -0.196 N 
ATOM      2  C2  IND d   1       4.826  -1.130   4.055  0.00  0.00     0.054 A 
ATOM      3  C3  IND d   1       5.780  -1.627   4.875  0.00  0.00    -0.031 A 
ATOM      4  C4  IND d   1       6.000  -3.983   5.888  0.00  0.00     0.051 A 
ATOM      5  C5  IND d   1       5.338  -5.174   6.000  0.00  0.00    -0.031 A 
ATOM      6  C6  IND d   1       4.124  -5.394   5.381  0.00  0.00     0.015 A 
ATOM      7  C7  IND d   1       3.530  -4.432   4.615  0.00  0.00    -0.016 A 
ATOM      8  C8  IND d   1       4.196  -3.219   4.504  0.00  0.00    -0.047 A 
ATOM      9  C9  IND d   1       5.407  -2.975   5.164  0.00  0.00    -0.096 A 
ATOM     10  HN1 IND d   1       3.148  -1.952   3.357  0.00  0.00     0.298 HD
ENDROOT
TORSDOF 0
ENDMDL
