MODEL 1
REMARK minimizedAffinity 17.2330112
REMARK minimizedRMSD -1
REMARK  0 active torsions:
REMARK  status: ('A' for Active; 'I' for Inactive)
ROOT
ATOM      1  N1  IND d   1      -3.450  -0.376   4.078  0.00  0.00    -0.196 N 
ATOM      2  C2  IND d   1      -4.669  -0.939   3.821  0.00  0.00     0.054 A 
ATOM      3  C3  IND d   1      -5.453  -0.073   3.142  0.00  0.00    -0.031 A 
ATOM      4  C4  IND d   1      -4.905   2.282   2.257  0.00  0.00     0.051 A 
ATOM      5  C5  IND d   1      -3.930   3.240   2.276  0.00  0.00    -0.031 A 
ATOM      6  C6  IND d   1      -2.720   3.036   2.906  0.00  0.00     0.015 A 
ATOM      7  C7  IND d   1      -2.434   1.857   3.535  0.00  0.00    -0.016 A 
ATOM      8  C8  IND d   1      -3.424   0.885   3.524  0.00  0.00    -0.047 A 
ATOM      9  C9  IND d   1      -4.670   1.102   2.923  0.00  0.00    -0.096 A 
ATOM     10  HN1 IND d   1      -2.807  -0.747   4.512  0.00  0.00     0.298 HD
ENDROOT
TORSDOF 0
ENDMDL
