MODEL 1
REMARK minimizedAffinity 9.27002144
REMARK minimizedRMSD -1
REMARK  0 active torsions:
REMARK  status: ('A' for Active; 'I' for Inactive)
ROOT
ATOM      1  N1  IND d   1       2.621   0.754  -1.607  0.00  0.00    -0.196 N 
ATOM      2  C2  IND d   1       1.880  -0.393  -1.546  0.00  0.00     0.054 A 
ATOM      3  C3  IND d   1       0.917  -0.382  -2.495  0.00  0.00    -0.031 A 
ATOM      4  C4  IND d   1       0.441   1.369  -4.321  0.00  0.00     0.051 A 
ATOM      5  C5  IND d   1       0.828   2.605  -4.755  0.00  0.00    -0.031 A 
ATOM      6  C6  IND d   1       1.856   3.301  -4.152  0.00  0.00     0.015 A 
ATOM      7  C7  IND d   1       2.545   2.778  -3.094  0.00  0.00    -0.016 A 
ATOM      8  C8  IND d   1       2.149   1.526  -2.646  0.00  0.00    -0.047 A 
ATOM      9  C9  IND d   1       1.079   0.834  -3.227  0.00  0.00    -0.096 A 
ATOM     10  HN1 IND d   1       3.273   0.959  -1.085  0.00  0.00     0.298 HD
ENDROOT
TORSDOF 0
ENDMDL
