MODEL 1
REMARK minimizedAffinity 20.9282341
REMARK minimizedRMSD -1
REMARK  0 active torsions:
REMARK  status: ('A' for Active; 'I' for Inactive)
ROOT
ATOM      1  N1  IND d   1       0.208  -2.640  -4.214  0.00  0.00    -0.196 N 
ATOM      2  C2  IND d   1       0.710  -3.643  -3.433  0.00  0.00     0.054 A 
ATOM      3  C3  IND d   1       1.453  -3.128  -2.427  0.00  0.00    -0.031 A 
ATOM      4  C4  IND d   1       1.894  -0.667  -1.813  0.00  0.00     0.051 A 
ATOM      5  C5  IND d   1       1.676   0.608  -2.253  0.00  0.00    -0.031 A 
ATOM      6  C6  IND d   1       0.940   0.872  -3.390  0.00  0.00     0.015 A 
ATOM      7  C7  IND d   1       0.383  -0.135  -4.127  0.00  0.00    -0.016 A 
ATOM      8  C8  IND d   1       0.608  -1.432  -3.688  0.00  0.00    -0.047 A 
ATOM      9  C9  IND d   1       1.390  -1.707  -2.558  0.00  0.00    -0.096 A 
ATOM     10  HN1 IND d   1      -0.277  -2.746  -4.916  0.00  0.00     0.298 HD
ENDROOT
TORSDOF 0
ENDMDL
