MODEL 1
REMARK minimizedAffinity 5.81236219
REMARK minimizedRMSD -1
REMARK  0 active torsions:
REMARK  status: ('A' for Active; 'I' for Inactive)
ROOT
ATOM      1  N1  IND d   1       0.771   2.572  -2.816  0.00  0.00    -0.196 N 
ATOM      2  C2  IND d   1       1.882   3.367  -2.762  0.00  0.00     0.054 A 
ATOM      3  C3  IND d   1       2.920   2.688  -2.224  0.00  0.00    -0.031 A 
ATOM      4  C4  IND d   1       3.047   0.234  -1.456  0.00  0.00     0.051 A 
ATOM      5  C5  IND d   1       2.276  -0.880  -1.276  0.00  0.00    -0.031 A 
ATOM      6  C6  IND d   1       0.937  -0.901  -1.610  0.00  0.00     0.015 A 
ATOM      7  C7  IND d   1       0.320   0.192  -2.149  0.00  0.00    -0.016 A 
ATOM      8  C8  IND d   1       1.098   1.327  -2.326  0.00  0.00    -0.047 A 
ATOM      9  C9  IND d   1       2.447   1.368  -1.950  0.00  0.00    -0.096 A 
ATOM     10  HN1 IND d   1      -0.003   2.810  -3.108  0.00  0.00     0.298 HD
ENDROOT
TORSDOF 0
ENDMDL
