MODEL 1
REMARK minimizedAffinity 15.5398645
REMARK minimizedRMSD -1
REMARK  0 active torsions:
REMARK  status: ('A' for Active; 'I' for Inactive)
ROOT
ATOM      1  N1  IND d   1      -2.090   4.743   5.012  0.00  0.00    -0.196 N 
ATOM      2  C2  IND d   1      -2.459   5.638   5.977  0.00  0.00     0.054 A 
ATOM      3  C3  IND d   1      -3.752   5.998   5.814  0.00  0.00    -0.031 A 
ATOM      4  C4  IND d   1      -5.477   5.166   4.094  0.00  0.00     0.051 A 
ATOM      5  C5  IND d   1      -5.599   4.374   2.987  0.00  0.00    -0.031 A 
ATOM      6  C6  IND d   1      -4.536   3.648   2.490  0.00  0.00     0.015 A 
ATOM      7  C7  IND d   1      -3.309   3.677   3.091  0.00  0.00    -0.016 A 
ATOM      8  C8  IND d   1      -3.181   4.486   4.211  0.00  0.00    -0.047 A 
ATOM      9  C9  IND d   1      -4.244   5.259   4.695  0.00  0.00    -0.096 A 
ATOM     10  HN1 IND d   1      -1.307   4.398   4.921  0.00  0.00     0.298 HD
ENDROOT
TORSDOF 0
ENDMDL
