MODEL 1
REMARK minimizedAffinity 3.6626451
REMARK minimizedRMSD -1
REMARK  0 active torsions:
REMARK  status: ('A' for Active; 'I' for Inactive)
ROOT
ATOM      1  N1  IND d   1      -5.641   0.408   2.749  0.00  0.00    -0.196 N 
ATOM      2  C2  IND d   1      -5.999  -0.735   2.091  0.00  0.00     0.054 A 
ATOM      3  C3  IND d   1      -5.002  -1.645   2.153  0.00  0.00    -0.031 A 
ATOM      4  C4  IND d   1      -2.736  -1.509   3.366  0.00  0.00     0.051 A 
ATOM      5  C5  IND d   1      -1.942  -0.650   4.073  0.00  0.00    -0.031 A 
ATOM      6  C6  IND d   1      -2.351   0.631   4.384  0.00  0.00     0.015 A 
ATOM      7  C7  IND d   1      -3.578   1.099   4.007  0.00  0.00    -0.016 A 
ATOM      8  C8  IND d   1      -4.383   0.231   3.283  0.00  0.00    -0.047 A 
ATOM      9  C9  IND d   1      -3.957  -1.055   2.928  0.00  0.00    -0.096 A 
ATOM     10  HN1 IND d   1      -6.120   1.119   2.818  0.00  0.00     0.298 HD
ENDROOT
TORSDOF 0
ENDMDL
