MODEL 1
REMARK minimizedAffinity 9.63221073
REMARK minimizedRMSD -1
REMARK  0 active torsions:
REMARK  status: ('A' for Active; 'I' for Inactive)
ROOT
ATOM      1  N1  IND d   1      -2.383  -0.270   5.066  0.00  0.00    -0.196 N 
ATOM      2  C2  IND d   1      -2.406   1.049   5.425  0.00  0.00     0.054 A 
ATOM      3  C3  IND d   1      -3.339   1.715   4.708  0.00  0.00    -0.031 A 
ATOM      4  C4  IND d   1      -5.010   0.820   2.966  0.00  0.00     0.051 A 
ATOM      5  C5  IND d   1      -5.347  -0.312   2.279  0.00  0.00    -0.031 A 
ATOM      6  C6  IND d   1      -4.702  -1.513   2.493  0.00  0.00     0.015 A 
ATOM      7  C7  IND d   1      -3.699  -1.630   3.413  0.00  0.00    -0.016 A 
ATOM      8  C8  IND d   1      -3.350  -0.480   4.107  0.00  0.00    -0.047 A 
ATOM      9  C9  IND d   1      -3.972   0.751   3.865  0.00  0.00    -0.096 A 
ATOM     10  HN1 IND d   1      -1.854  -0.867   5.386  0.00  0.00     0.298 HD
ENDROOT
TORSDOF 0
ENDMDL
