MODEL 1
REMARK minimizedAffinity 9.1183939
REMARK minimizedRMSD -1
REMARK  0 active torsions:
REMARK  status: ('A' for Active; 'I' for Inactive)
ROOT
ATOM      1  N1  IND d   1       1.366   1.726  -3.826  0.00  0.00    -0.196 N 
ATOM      2  C2  IND d   1       0.601   0.708  -3.329  0.00  0.00     0.054 A 
ATOM      3  C3  IND d   1       0.392   0.879  -2.004  0.00  0.00    -0.031 A 
ATOM      4  C4  IND d   1       1.127   2.812  -0.470  0.00  0.00     0.051 A 
ATOM      5  C5  IND d   1       1.877   3.954  -0.460  0.00  0.00    -0.031 A 
ATOM      6  C6  IND d   1       2.505   4.423  -1.596  0.00  0.00     0.015 A 
ATOM      7  C7  IND d   1       2.397   3.770  -2.791  0.00  0.00    -0.016 A 
ATOM      8  C8  IND d   1       1.643   2.606  -2.803  0.00  0.00    -0.047 A 
ATOM      9  C9  IND d   1       1.038   2.102  -1.644  0.00  0.00    -0.096 A 
ATOM     10  HN1 IND d   1       1.631   1.803  -4.640  0.00  0.00     0.298 HD
ENDROOT
TORSDOF 0
ENDMDL
