MODEL 1
REMARK minimizedAffinity 6.11549807
REMARK minimizedRMSD -1
REMARK  0 active torsions:
REMARK  status: ('A' for Active; 'I' for Inactive)
ROOT
ATOM      1  N1  IND d   1       0.773   2.523  -2.290  0.00  0.00    -0.196 N 
ATOM      2  C2  IND d   1       0.518   1.180  -2.290  0.00  0.00     0.054 A 
ATOM      3  C3  IND d   1       1.164   0.579  -3.315  0.00  0.00    -0.031 A 
ATOM      4  C4  IND d   1       2.771   1.590  -5.054  0.00  0.00     0.051 A 
ATOM      5  C5  IND d   1       3.285   2.783  -5.480  0.00  0.00    -0.031 A 
ATOM      6  C6  IND d   1       2.983   3.973  -4.851  0.00  0.00     0.015 A 
ATOM      7  C7  IND d   1       2.162   4.014  -3.759  0.00  0.00    -0.016 A 
ATOM      8  C8  IND d   1       1.633   2.806  -3.328  0.00  0.00    -0.047 A 
ATOM      9  C9  IND d   1       1.902   1.600  -3.988  0.00  0.00    -0.096 A 
ATOM     10  HN1 IND d   1       0.449   3.095  -1.735  0.00  0.00     0.298 HD
ENDROOT
TORSDOF 0
ENDMDL
