MODEL 1
REMARK minimizedAffinity 6.22592783
REMARK minimizedRMSD -1
REMARK  0 active torsions:
REMARK  status: ('A' for Active; 'I' for Inactive)
ROOT
ATOM      1  N1  IND d   1       0.754   1.907  -1.438  0.00  0.00    -0.196 N 
ATOM      2  C2  IND d   1       0.402   0.587  -1.374  0.00  0.00     0.054 A 
ATOM      3  C3  IND d   1       0.911  -0.087  -2.429  0.00  0.00    -0.031 A 
ATOM      4  C4  IND d   1       2.434   0.752  -4.327  0.00  0.00     0.051 A 
ATOM      5  C5  IND d   1       2.996   1.891  -4.833  0.00  0.00    -0.031 A 
ATOM      6  C6  IND d   1       2.838   3.117  -4.220  0.00  0.00     0.015 A 
ATOM      7  C7  IND d   1       2.119   3.249  -3.066  0.00  0.00    -0.016 A 
ATOM      8  C8  IND d   1       1.541   2.096  -2.553  0.00  0.00    -0.047 A 
ATOM      9  C9  IND d   1       1.662   0.857  -3.194  0.00  0.00    -0.096 A 
ATOM     10  HN1 IND d   1       0.522   2.516  -0.878  0.00  0.00     0.298 HD
ENDROOT
TORSDOF 0
ENDMDL
