MODEL 1
REMARK minimizedAffinity 4.78362131
REMARK minimizedRMSD -1
REMARK  0 active torsions:
REMARK  status: ('A' for Active; 'I' for Inactive)
ROOT
ATOM      1  N1  IND d   1       3.882   3.818  -3.655  0.00  0.00    -0.196 N 
ATOM      2  C2  IND d   1       3.695   4.724  -2.649  0.00  0.00     0.054 A 
ATOM      3  C3  IND d   1       2.690   4.325  -1.837  0.00  0.00    -0.031 A 
ATOM      4  C4  IND d   1       1.285   2.170  -1.912  0.00  0.00     0.051 A 
ATOM      5  C5  IND d   1       1.064   1.054  -2.669  0.00  0.00    -0.031 A 
ATOM      6  C6  IND d   1       1.788   0.795  -3.815  0.00  0.00     0.015 A 
ATOM      7  C7  IND d   1       2.772   1.641  -4.242  0.00  0.00    -0.016 A 
ATOM      8  C8  IND d   1       2.994   2.779  -3.480  0.00  0.00    -0.047 A 
ATOM      9  C9  IND d   1       2.233   3.069  -2.339  0.00  0.00    -0.096 A 
ATOM     10  HN1 IND d   1       4.458   3.885  -4.290  0.00  0.00     0.298 HD
ENDROOT
TORSDOF 0
ENDMDL
