MODEL 1
REMARK minimizedAffinity -4.89555931
REMARK minimizedRMSD -1
REMARK  1 active torsions:
REMARK  status: ('A' for Active; 'I' for Inactive)
REMARK    1  A    between atoms: C1_2  and  C2_3 
ROOT
ATOM      1  C2  UNL d   1       0.062  -1.056   0.226  0.00  0.00    -0.077 A 
ATOM      2  C3  UNL d   1       1.386  -1.441  -0.026  0.00  0.00     0.002 A 
ATOM      3  C4  UNL d   1       2.073  -2.247   0.883  0.00  0.00     0.002 A 
ATOM      4  C5  UNL d   1       1.443  -2.679   2.048  0.00  0.00    -0.004 A 
ATOM      5  C6  UNL d   1       0.126  -2.300   2.309  0.00  0.00     0.002 A 
ATOM      6  C7  UNL d   1      -0.561  -1.493   1.402  0.00  0.00     0.002 A 
ENDROOT
BRANCH   1   7
ATOM      7  C1  UNL d   1      -0.697  -0.227  -0.777  0.00  0.00     0.055 C 
ATOM      8  C   UNL d   1      -0.757   1.234  -0.355  0.00  0.00     0.019 C 
ENDBRANCH   1   7
TORSDOF 1
ENDMDL
