MODEL 1
REMARK minimizedAffinity -5.01486874
REMARK minimizedRMSD -1
REMARK  1 active torsions:
REMARK  status: ('A' for Active; 'I' for Inactive)
REMARK    1  A    between atoms: C1_2  and  C2_3 
ROOT
ATOM      1  C2  UNL d   1      -0.239   0.216   0.012  0.00  0.00    -0.077 A 
ATOM      2  C3  UNL d   1      -0.514  -1.129   0.294  0.00  0.00     0.002 A 
ATOM      3  C4  UNL d   1       0.528  -2.033   0.507  0.00  0.00     0.002 A 
ATOM      4  C5  UNL d   1       1.851  -1.602   0.444  0.00  0.00    -0.004 A 
ATOM      5  C6  UNL d   1       2.135  -0.266   0.162  0.00  0.00     0.002 A 
ATOM      6  C7  UNL d   1       1.095   0.639  -0.052  0.00  0.00     0.002 A 
ENDROOT
BRANCH   1   7
ATOM      7  C1  UNL d   1      -1.362   1.204  -0.170  0.00  0.00     0.055 C 
ATOM      8  C   UNL d   1      -2.262   0.811  -1.333  0.00  0.00     0.019 C 
ENDBRANCH   1   7
TORSDOF 1
ENDMDL
