MODEL 1
REMARK minimizedAffinity -2.57383871
REMARK minimizedRMSD -1
REMARK  1 active torsions:
REMARK  status: ('A' for Active; 'I' for Inactive)
REMARK    1  A    between atoms: C1_2  and  C2_3 
ROOT
ATOM      1  C2  UNL d   1       1.242  -1.711   0.853  0.00  0.00    -0.077 A 
ATOM      2  C3  UNL d   1       1.546  -0.671  -0.036  0.00  0.00     0.002 A 
ATOM      3  C4  UNL d   1       0.533   0.155  -0.528  0.00  0.00     0.002 A 
ATOM      4  C5  UNL d   1      -0.787  -0.048  -0.134  0.00  0.00    -0.004 A 
ATOM      5  C6  UNL d   1      -1.100  -1.081   0.748  0.00  0.00     0.002 A 
ATOM      6  C7  UNL d   1      -0.090  -1.909   1.241  0.00  0.00     0.002 A 
ENDROOT
BRANCH   1   7
ATOM      7  C1  UNL d   1       2.338  -2.573   1.424  0.00  0.00     0.055 C 
ATOM      8  C   UNL d   1       3.202  -1.792   2.404  0.00  0.00     0.019 C 
ENDBRANCH   1   7
TORSDOF 1
ENDMDL
