MODEL 1
REMARK minimizedAffinity -3.93923831
REMARK minimizedRMSD -1
REMARK  1 active torsions:
REMARK  status: ('A' for Active; 'I' for Inactive)
REMARK    1  A    between atoms: C1_2  and  C2_3 
ROOT
ATOM      1  C2  UNL d   1       0.345   0.095  -0.138  0.00  0.00    -0.077 A 
ATOM      2  C3  UNL d   1      -0.308  -0.995   0.454  0.00  0.00     0.002 A 
ATOM      3  C4  UNL d   1       0.424  -2.090   0.916  0.00  0.00     0.002 A 
ATOM      4  C5  UNL d   1       1.811  -2.105   0.795  0.00  0.00    -0.004 A 
ATOM      5  C6  UNL d   1       2.470  -1.026   0.205  0.00  0.00     0.002 A 
ATOM      6  C7  UNL d   1       1.741   0.069  -0.258  0.00  0.00     0.002 A 
ENDROOT
BRANCH   1   7
ATOM      7  C1  UNL d   1      -0.437   1.300  -0.592  0.00  0.00     0.055 C 
ATOM      8  C   UNL d   1      -1.555   0.906  -1.547  0.00  0.00     0.019 C 
ENDBRANCH   1   7
TORSDOF 1
ENDMDL
