MODEL 1
REMARK minimizedAffinity -4.74081707
REMARK minimizedRMSD -1
REMARK  1 active torsions:
REMARK  status: ('A' for Active; 'I' for Inactive)
REMARK    1  A    between atoms: C1_2  and  C2_3 
ROOT
ATOM      1  C2  UNL d   1       0.069   0.434  -0.214  0.00  0.00    -0.077 A 
ATOM      2  C3  UNL d   1      -0.380  -0.643   0.563  0.00  0.00     0.002 A 
ATOM      3  C4  UNL d   1       0.516  -1.622   0.997  0.00  0.00     0.002 A 
ATOM      4  C5  UNL d   1       1.866  -1.531   0.664  0.00  0.00    -0.004 A 
ATOM      5  C6  UNL d   1       2.322  -0.464  -0.110  0.00  0.00     0.002 A 
ATOM      6  C7  UNL d   1       1.427   0.514  -0.546  0.00  0.00     0.002 A 
ENDROOT
BRANCH   1   7
ATOM      7  C1  UNL d   1      -0.887   1.517  -0.642  0.00  0.00     0.055 C 
ATOM      8  C   UNL d   1      -1.676   1.103  -1.875  0.00  0.00     0.019 C 
ENDBRANCH   1   7
TORSDOF 1
ENDMDL
