MODEL 1
REMARK minimizedAffinity -3.31121802
REMARK minimizedRMSD -1
REMARK  1 active torsions:
REMARK  status: ('A' for Active; 'I' for Inactive)
REMARK    1  A    between atoms: C1_2  and  C2_3 
ROOT
ATOM      1  C2  UNL d   1      -1.037   0.311   0.285  0.00  0.00    -0.077 A 
ATOM      2  C3  UNL d   1      -1.613  -0.408   1.341  0.00  0.00     0.002 A 
ATOM      3  C4  UNL d   1      -1.080  -1.639   1.730  0.00  0.00     0.002 A 
ATOM      4  C5  UNL d   1       0.033  -2.158   1.072  0.00  0.00    -0.004 A 
ATOM      5  C6  UNL d   1       0.611  -1.450   0.019  0.00  0.00     0.002 A 
ATOM      6  C7  UNL d   1       0.079  -0.221  -0.373  0.00  0.00     0.002 A 
ENDROOT
BRANCH   1   7
ATOM      7  C1  UNL d   1      -1.580   1.662  -0.105  0.00  0.00     0.055 C 
ATOM      8  C   UNL d   1      -1.454   1.898  -1.602  0.00  0.00     0.019 C 
ENDBRANCH   1   7
TORSDOF 1
ENDMDL
