MODEL 1
REMARK minimizedAffinity -4.52891779
REMARK minimizedRMSD -1
REMARK  1 active torsions:
REMARK  status: ('A' for Active; 'I' for Inactive)
REMARK    1  A    between atoms: C1_2  and  C2_3 
ROOT
ATOM      1  C2  UNL d   1       1.271  -0.806   0.426  0.00  0.00    -0.077 A 
ATOM      2  C3  UNL d   1       1.540   0.320  -0.364  0.00  0.00     0.002 A 
ATOM      3  C4  UNL d   1       0.497   1.130  -0.818  0.00  0.00     0.002 A 
ATOM      4  C5  UNL d   1      -0.820   0.824  -0.485  0.00  0.00    -0.004 A 
ATOM      5  C6  UNL d   1      -1.099  -0.295   0.298  0.00  0.00     0.002 A 
ATOM      6  C7  UNL d   1      -0.058  -1.106   0.753  0.00  0.00     0.002 A 
ENDROOT
BRANCH   1   7
ATOM      7  C1  UNL d   1       2.398  -1.653   0.958  0.00  0.00     0.055 C 
ATOM      8  C   UNL d   1       3.358  -0.828   1.803  0.00  0.00     0.019 C 
ENDBRANCH   1   7
TORSDOF 1
ENDMDL
