MODEL 1
REMARK minimizedAffinity -5.10963964
REMARK minimizedRMSD -1
REMARK  1 active torsions:
REMARK  status: ('A' for Active; 'I' for Inactive)
REMARK    1  A    between atoms: C1_2  and  C2_3 
ROOT
ATOM      1  C2  UNL d   1       0.037   0.008   0.466  0.00  0.00    -0.077 A 
ATOM      2  C3  UNL d   1      -0.668  -1.152   0.817  0.00  0.00     0.002 A 
ATOM      3  C4  UNL d   1       0.017  -2.303   1.213  0.00  0.00     0.002 A 
ATOM      4  C5  UNL d   1       1.409  -2.303   1.266  0.00  0.00    -0.004 A 
ATOM      5  C6  UNL d   1       2.119  -1.155   0.917  0.00  0.00     0.002 A 
ATOM      6  C7  UNL d   1       1.437  -0.005   0.519  0.00  0.00     0.002 A 
ENDROOT
BRANCH   1   7
ATOM      7  C1  UNL d   1      -0.701   1.265   0.086  0.00  0.00     0.055 C 
ATOM      8  C   UNL d   1      -1.508   1.069  -1.190  0.00  0.00     0.019 C 
ENDBRANCH   1   7
TORSDOF 1
ENDMDL
