MODEL 1
REMARK minimizedAffinity -3.87751889
REMARK minimizedRMSD -1
REMARK  1 active torsions:
REMARK  status: ('A' for Active; 'I' for Inactive)
REMARK    1  A    between atoms: C1_2  and  C2_3 
ROOT
ATOM      1  C2  UNL d   1      -0.059  -0.546  -0.225  0.00  0.00    -0.077 A 
ATOM      2  C3  UNL d   1      -0.723  -1.407   0.660  0.00  0.00     0.002 A 
ATOM      3  C4  UNL d   1       0.002  -2.293   1.460  0.00  0.00     0.002 A 
ATOM      4  C5  UNL d   1       1.393  -2.322   1.387  0.00  0.00    -0.004 A 
ATOM      5  C6  UNL d   1       2.062  -1.470   0.508  0.00  0.00     0.002 A 
ATOM      6  C7  UNL d   1       1.339  -0.586  -0.293  0.00  0.00     0.002 A 
ENDROOT
BRANCH   1   7
ATOM      7  C1  UNL d   1      -0.836   0.444  -1.053  0.00  0.00     0.055 C 
ATOM      8  C   UNL d   1      -1.474   1.516  -0.181  0.00  0.00     0.019 C 
ENDBRANCH   1   7
TORSDOF 1
ENDMDL
