MODEL 1
REMARK minimizedAffinity -3.24575543
REMARK minimizedRMSD -1
REMARK  1 active torsions:
REMARK  status: ('A' for Active; 'I' for Inactive)
REMARK    1  A    between atoms: C1_2  and  C2_3 
ROOT
ATOM      1  C2  UNL d   1      -0.312   0.351  -0.341  0.00  0.00    -0.077 A 
ATOM      2  C3  UNL d   1      -0.836  -0.755   0.343  0.00  0.00     0.002 A 
ATOM      3  C4  UNL d   1       0.007  -1.779   0.779  0.00  0.00     0.002 A 
ATOM      4  C5  UNL d   1       1.378  -1.705   0.540  0.00  0.00    -0.004 A 
ATOM      5  C6  UNL d   1       1.907  -0.610  -0.142  0.00  0.00     0.002 A 
ATOM      6  C7  UNL d   1       1.066   0.414  -0.579  0.00  0.00     0.002 A 
ENDROOT
BRANCH   1   7
ATOM      7  C1  UNL d   1      -1.213   1.481  -0.769  0.00  0.00     0.055 C 
ATOM      8  C   UNL d   1      -1.821   1.215  -2.138  0.00  0.00     0.019 C 
ENDBRANCH   1   7
TORSDOF 1
ENDMDL
