MODEL 1
REMARK minimizedAffinity -3.76814675
REMARK minimizedRMSD -1
REMARK  1 active torsions:
REMARK  status: ('A' for Active; 'I' for Inactive)
REMARK    1  A    between atoms: C1_2  and  C2_3 
ROOT
ATOM      1  C2  UNL d   1      -1.455   1.340  -1.234  0.00  0.00    -0.077 A 
ATOM      2  C3  UNL d   1      -0.628   2.274  -1.873  0.00  0.00     0.002 A 
ATOM      3  C4  UNL d   1      -0.933   2.726  -3.158  0.00  0.00     0.002 A 
ATOM      4  C5  UNL d   1      -2.068   2.253  -3.813  0.00  0.00    -0.004 A 
ATOM      5  C6  UNL d   1      -2.897   1.323  -3.187  0.00  0.00     0.002 A 
ATOM      6  C7  UNL d   1      -2.592   0.869  -1.903  0.00  0.00     0.002 A 
ENDROOT
BRANCH   1   7
ATOM      7  C1  UNL d   1      -1.154   0.889   0.171  0.00  0.00     0.055 C 
ATOM      8  C   UNL d   1      -0.429  -0.449   0.179  0.00  0.00     0.019 C 
ENDBRANCH   1   7
TORSDOF 1
ENDMDL
