MODEL 1
REMARK minimizedAffinity -2.25314379
REMARK minimizedRMSD -1
REMARK  1 active torsions:
REMARK  status: ('A' for Active; 'I' for Inactive)
REMARK    1  A    between atoms: C1_2  and  C2_3 
ROOT
ATOM      1  C2  UNL d   1      -0.214  -1.121   0.734  0.00  0.00    -0.077 A 
ATOM      2  C3  UNL d   1      -1.163  -1.128   1.766  0.00  0.00     0.002 A 
ATOM      3  C4  UNL d   1      -0.978  -1.936   2.889  0.00  0.00     0.002 A 
ATOM      4  C5  UNL d   1       0.155  -2.740   2.993  0.00  0.00    -0.004 A 
ATOM      5  C6  UNL d   1       1.103  -2.743   1.970  0.00  0.00     0.002 A 
ATOM      6  C7  UNL d   1       0.920  -1.936   0.846  0.00  0.00     0.002 A 
ENDROOT
BRANCH   1   7
ATOM      7  C1  UNL d   1      -0.387  -0.213  -0.456  0.00  0.00     0.055 C 
ATOM      8  C   UNL d   1      -1.267   0.981  -0.117  0.00  0.00     0.019 C 
ENDBRANCH   1   7
TORSDOF 1
ENDMDL
