MODEL 1
REMARK minimizedAffinity 9.0460968
REMARK minimizedRMSD -1
REMARK  1 active torsions:
REMARK  status: ('A' for Active; 'I' for Inactive)
REMARK    1  A    between atoms: C1_2  and  C2_3 
ROOT
ATOM      1  C2  UNL d   1       0.962  -0.717  -1.892  0.00  0.00    -0.076 A 
ATOM      2  C3  UNL d   1       1.890   0.335  -1.810  0.00  0.00     0.004 A 
ATOM      3  C4  UNL d   1       2.202   1.106  -2.929  0.00  0.00    -0.003 A 
ATOM      4  C5  UNL d   1       1.590   0.836  -4.148  0.00  0.00     0.000 A 
ATOM      5  C6  UNL d   1       0.653  -0.193  -4.244  0.00  0.00     0.000 A 
ATOM      6  C7  UNL d   1       0.316  -0.968  -3.121  0.00  0.00    -0.073 A 
ATOM      7  C8  UNL d   1      -0.696  -2.069  -3.282  0.00  0.00     0.078 C 
ENDROOT
BRANCH   1   8
ATOM      8  C1  UNL d   1       0.684  -1.536  -0.651  0.00  0.00     0.053 C 
ATOM      9  C   UNL d   1       1.867  -1.566   0.304  0.00  0.00     0.018 C 
ENDBRANCH   1   8
TORSDOF 1
ENDMDL
