MODEL 1
REMARK minimizedAffinity 9.74978447
REMARK minimizedRMSD -1
REMARK  1 active torsions:
REMARK  status: ('A' for Active; 'I' for Inactive)
REMARK    1  A    between atoms: C1_2  and  C2_3 
ROOT
ATOM      1  C2  UNL d   1       1.090  -0.320  -2.049  0.00  0.00    -0.076 A 
ATOM      2  C3  UNL d   1       2.198   0.546  -2.079  0.00  0.00     0.004 A 
ATOM      3  C4  UNL d   1       2.619   1.132  -3.271  0.00  0.00    -0.003 A 
ATOM      4  C5  UNL d   1       1.939   0.862  -4.454  0.00  0.00     0.000 A 
ATOM      5  C6  UNL d   1       0.827   0.020  -4.440  0.00  0.00     0.000 A 
ATOM      6  C7  UNL d   1       0.380  -0.566  -3.244  0.00  0.00    -0.073 A 
ATOM      7  C8  UNL d   1      -0.821  -1.471  -3.288  0.00  0.00     0.078 C 
ENDROOT
BRANCH   1   8
ATOM      8  C1  UNL d   1       0.696  -0.947  -0.731  0.00  0.00     0.053 C 
ATOM      9  C   UNL d   1       1.752  -0.752   0.346  0.00  0.00     0.018 C 
ENDBRANCH   1   8
TORSDOF 1
ENDMDL
