MODEL 1
REMARK minimizedAffinity 4.4672122
REMARK minimizedRMSD -1
REMARK  1 active torsions:
REMARK  status: ('A' for Active; 'I' for Inactive)
REMARK    1  A    between atoms: C1_2  and  C2_3 
ROOT
ATOM      1  C2  UNL d   1       1.419   0.663  -2.729  0.00  0.00    -0.076 A 
ATOM      2  C3  UNL d   1       0.979   0.943  -4.034  0.00  0.00     0.004 A 
ATOM      3  C4  UNL d   1      -0.025   0.183  -4.631  0.00  0.00    -0.003 A 
ATOM      4  C5  UNL d   1      -0.607  -0.869  -3.932  0.00  0.00     0.000 A 
ATOM      5  C6  UNL d   1      -0.195  -1.150  -2.629  0.00  0.00     0.000 A 
ATOM      6  C7  UNL d   1       0.805  -0.383  -2.007  0.00  0.00    -0.073 A 
ATOM      7  C8  UNL d   1       1.215  -0.734  -0.603  0.00  0.00     0.078 C 
ENDROOT
BRANCH   1   8
ATOM      8  C1  UNL d   1       2.531   1.504  -2.143  0.00  0.00     0.053 C 
ATOM      9  C   UNL d   1       2.011   2.599  -1.226  0.00  0.00     0.018 C 
ENDBRANCH   1   8
TORSDOF 1
ENDMDL
