MODEL 1
REMARK minimizedAffinity 2.91671729
REMARK minimizedRMSD -1
REMARK  1 active torsions:
REMARK  status: ('A' for Active; 'I' for Inactive)
REMARK    1  A    between atoms: C1_2  and  C2_3 
ROOT
ATOM      1  C2  UNL d   1       3.079  -0.668  -4.007  0.00  0.00    -0.076 A 
ATOM      2  C3  UNL d   1       1.680  -0.773  -4.094  0.00  0.00     0.004 A 
ATOM      3  C4  UNL d   1       0.850   0.151  -3.460  0.00  0.00    -0.003 A 
ATOM      4  C5  UNL d   1       1.406   1.194  -2.729  0.00  0.00     0.000 A 
ATOM      5  C6  UNL d   1       2.792   1.324  -2.646  0.00  0.00     0.000 A 
ATOM      6  C7  UNL d   1       3.643   0.410  -3.293  0.00  0.00    -0.073 A 
ATOM      7  C8  UNL d   1       5.130   0.594  -3.165  0.00  0.00     0.078 C 
ENDROOT
BRANCH   1   8
ATOM      8  C1  UNL d   1       3.927  -1.715  -4.692  0.00  0.00     0.053 C 
ATOM      9  C   UNL d   1       4.782  -2.505  -3.713  0.00  0.00     0.018 C 
ENDBRANCH   1   8
TORSDOF 1
ENDMDL
