MODEL 1
REMARK minimizedAffinity 7.33406925
REMARK minimizedRMSD -1
REMARK  1 active torsions:
REMARK  status: ('A' for Active; 'I' for Inactive)
REMARK    1  A    between atoms: C1_2  and  C2_3 
ROOT
ATOM      1  C2  UNL d   1       0.504   0.081  -4.686  0.00  0.00    -0.076 A 
ATOM      2  C3  UNL d   1       1.533   0.998  -4.963  0.00  0.00     0.004 A 
ATOM      3  C4  UNL d   1       2.395   1.434  -3.958  0.00  0.00    -0.003 A 
ATOM      4  C5  UNL d   1       2.242   0.960  -2.660  0.00  0.00     0.000 A 
ATOM      5  C6  UNL d   1       1.237   0.038  -2.370  0.00  0.00     0.000 A 
ATOM      6  C7  UNL d   1       0.370  -0.425  -3.375  0.00  0.00    -0.073 A 
ATOM      7  C8  UNL d   1      -0.700  -1.416  -3.006  0.00  0.00     0.078 C 
ENDROOT
BRANCH   1   8
ATOM      8  C1  UNL d   1      -0.417  -0.335  -5.811  0.00  0.00     0.053 C 
ATOM      9  C   UNL d   1      -0.464  -1.843  -5.997  0.00  0.00     0.018 C 
ENDBRANCH   1   8
TORSDOF 1
ENDMDL
