MODEL 1
REMARK minimizedAffinity 6.96011257
REMARK minimizedRMSD -1
REMARK  1 active torsions:
REMARK  status: ('A' for Active; 'I' for Inactive)
REMARK    1  A    between atoms: C1_2  and  C2_3 
ROOT
ATOM      1  C2  UNL d   1       2.642   1.341  -3.407  0.00  0.00    -0.076 A 
ATOM      2  C3  UNL d   1       4.036   1.334  -3.222  0.00  0.00     0.004 A 
ATOM      3  C4  UNL d   1       4.789   0.191  -3.488  0.00  0.00    -0.003 A 
ATOM      4  C5  UNL d   1       4.161  -0.962  -3.944  0.00  0.00     0.000 A 
ATOM      5  C6  UNL d   1       2.782  -0.968  -4.150  0.00  0.00     0.000 A 
ATOM      6  C7  UNL d   1       2.010   0.181  -3.902  0.00  0.00    -0.073 A 
ATOM      7  C8  UNL d   1       0.525   0.117  -4.136  0.00  0.00     0.078 C 
ENDROOT
BRANCH   1   8
ATOM      8  C1  UNL d   1       1.874   2.601  -3.076  0.00  0.00     0.053 C 
ATOM      9  C   UNL d   1       2.039   3.019  -1.623  0.00  0.00     0.018 C 
ENDBRANCH   1   8
TORSDOF 1
ENDMDL
