MODEL 1
REMARK minimizedAffinity -4.70366144
REMARK minimizedRMSD -1
REMARK  0 active torsions:
REMARK  status: ('A' for Active; 'I' for Inactive)
ROOT
ATOM      1  C4' PXY d   1      -4.598   1.191   1.081  0.00  0.00     0.077 C 
ATOM      2  C1' PXY d   1       1.013   0.591  -0.173  0.00  0.00     0.077 C 
ATOM      3  C1  PXY d   1      -0.461   0.737   0.151  0.00  0.00    -0.082 A 
ATOM      4  C2  PXY d   1      -0.996   1.944   0.237  0.00  0.00     0.003 A 
ATOM      5  C3  PXY d   1      -2.320   2.094   0.561  0.00  0.00     0.003 A 
ATOM      6  C4  PXY d   1      -3.117   0.996   0.747  0.00  0.00    -0.082 A 
ATOM      7  C5  PXY d   1      -2.581  -0.239   0.650  0.00  0.00     0.003 A 
ATOM      8  C6  PXY d   1      -1.225  -0.369   0.361  0.00  0.00     0.003 A 
ENDROOT
TORSDOF 0
ENDMDL
