MODEL 1
REMARK minimizedAffinity 4.76620054
REMARK minimizedRMSD -1
REMARK  0 active torsions:
REMARK  status: ('A' for Active; 'I' for Inactive)
ROOT
ATOM      1  C4' PXY d   1      -2.806  -1.065  -3.294  0.00  0.00     0.077 C 
ATOM      2  C1' PXY d   1      -2.866  -5.903  -0.131  0.00  0.00     0.077 C 
ATOM      3  C1  PXY d   1      -2.840  -4.638  -0.966  0.00  0.00    -0.082 A 
ATOM      4  C2  PXY d   1      -3.413  -3.538  -0.506  0.00  0.00     0.003 A 
ATOM      5  C3  PXY d   1      -3.426  -2.394  -1.263  0.00  0.00     0.003 A 
ATOM      6  C4  PXY d   1      -2.800  -2.362  -2.480  0.00  0.00    -0.082 A 
ATOM      7  C5  PXY d   1      -2.204  -3.477  -2.952  0.00  0.00     0.003 A 
ATOM      8  C6  PXY d   1      -2.238  -4.639  -2.186  0.00  0.00     0.003 A 
ENDROOT
TORSDOF 0
ENDMDL
