MODEL 1
REMARK minimizedAffinity -0.115715764
REMARK minimizedRMSD -1
REMARK  0 active torsions:
REMARK  status: ('A' for Active; 'I' for Inactive)
ROOT
ATOM      1  C4' PXY d   1      -5.311   1.609   0.584  0.00  0.00     0.077 C 
ATOM      2  C1' PXY d   1       0.418   2.299   0.242  0.00  0.00     0.077 C 
ATOM      3  C1  PXY d   1      -1.086   2.129   0.324  0.00  0.00    -0.082 A 
ATOM      4  C2  PXY d   1      -1.618   1.501   1.360  0.00  0.00     0.003 A 
ATOM      5  C3  PXY d   1      -2.974   1.310   1.434  0.00  0.00     0.003 A 
ATOM      6  C4  PXY d   1      -3.798   1.813   0.464  0.00  0.00    -0.082 A 
ATOM      7  C5  PXY d   1      -3.265   2.463  -0.591  0.00  0.00     0.003 A 
ATOM      8  C6  PXY d   1      -1.883   2.611  -0.668  0.00  0.00     0.003 A 
ENDROOT
TORSDOF 0
ENDMDL
