MODEL 1
REMARK minimizedAffinity -2.22241473
REMARK minimizedRMSD -1
REMARK  0 active torsions:
REMARK  status: ('A' for Active; 'I' for Inactive)
ROOT
ATOM      1  C4' PXY d   1       3.166   0.585   1.416  0.00  0.00     0.077 C 
ATOM      2  C1' PXY d   1      -2.188   2.268   0.032  0.00  0.00     0.077 C 
ATOM      3  C1  PXY d   1      -0.780   1.829   0.383  0.00  0.00    -0.082 A 
ATOM      4  C2  PXY d   1      -0.583   1.027   1.417  0.00  0.00     0.003 A 
ATOM      5  C3  PXY d   1       0.686   0.646   1.767  0.00  0.00     0.003 A 
ATOM      6  C4  PXY d   1       1.761   1.046   1.020  0.00  0.00    -0.082 A 
ATOM      7  C5  PXY d   1       1.568   1.856  -0.043  0.00  0.00     0.003 A 
ATOM      8  C6  PXY d   1       0.275   2.265  -0.358  0.00  0.00     0.003 A 
ENDROOT
TORSDOF 0
ENDMDL
