MODEL 1
REMARK minimizedAffinity -4.53740692
REMARK minimizedRMSD -1
REMARK  0 active torsions:
REMARK  status: ('A' for Active; 'I' for Inactive)
ROOT
ATOM      1  C4' PXY d   1      -5.358   1.879   0.596  0.00  0.00     0.077 C 
ATOM      2  C1' PXY d   1       0.245   0.459   0.525  0.00  0.00     0.077 C 
ATOM      3  C1  PXY d   1      -1.227   0.819   0.542  0.00  0.00    -0.082 A 
ATOM      4  C2  PXY d   1      -1.607   2.039   0.198  0.00  0.00     0.003 A 
ATOM      5  C3  PXY d   1      -2.931   2.391   0.239  0.00  0.00     0.003 A 
ATOM      6  C4  PXY d   1      -3.883   1.469   0.584  0.00  0.00    -0.082 A 
ATOM      7  C5  PXY d   1      -3.505   0.218   0.925  0.00  0.00     0.003 A 
ATOM      8  C6  PXY d   1      -2.151  -0.107   0.917  0.00  0.00     0.003 A 
ENDROOT
TORSDOF 0
ENDMDL
