MODEL 1
REMARK minimizedAffinity -1.99524879
REMARK minimizedRMSD -1
REMARK  0 active torsions:
REMARK  status: ('A' for Active; 'I' for Inactive)
ROOT
ATOM      1  C4' PXY d   1      -5.018   1.238   0.758  0.00  0.00     0.077 C 
ATOM      2  C1' PXY d   1       0.761   1.115   0.874  0.00  0.00     0.077 C 
ATOM      3  C1  PXY d   1      -0.755   1.159   0.849  0.00  0.00    -0.082 A 
ATOM      4  C2  PXY d   1      -1.440   0.032   0.743  0.00  0.00     0.003 A 
ATOM      5  C3  PXY d   1      -2.810   0.056   0.687  0.00  0.00     0.003 A 
ATOM      6  C4  PXY d   1      -3.487   1.241   0.796  0.00  0.00    -0.082 A 
ATOM      7  C5  PXY d   1      -2.795   2.394   0.916  0.00  0.00     0.003 A 
ATOM      8  C6  PXY d   1      -1.404   2.352   0.929  0.00  0.00     0.003 A 
ENDROOT
TORSDOF 0
ENDMDL
