MODEL 1
REMARK minimizedAffinity 4.30618525
REMARK minimizedRMSD -1
REMARK  0 active torsions:
REMARK  status: ('A' for Active; 'I' for Inactive)
ROOT
ATOM      1  C4' PXY d   1      -0.114   3.715  -0.844  0.00  0.00     0.077 C 
ATOM      2  C1' PXY d   1      -1.816  -0.675   2.508  0.00  0.00     0.077 C 
ATOM      3  C1  PXY d   1      -1.382   0.479   1.627  0.00  0.00    -0.082 A 
ATOM      4  C2  PXY d   1      -0.202   0.439   1.030  0.00  0.00     0.003 A 
ATOM      5  C3  PXY d   1       0.219   1.489   0.255  0.00  0.00     0.003 A 
ATOM      6  C4  PXY d   1      -0.597   2.568   0.047  0.00  0.00    -0.082 A 
ATOM      7  C5  PXY d   1      -1.807   2.612   0.644  0.00  0.00     0.003 A 
ATOM      8  C6  PXY d   1      -2.200   1.554   1.460  0.00  0.00     0.003 A 
ENDROOT
TORSDOF 0
ENDMDL
