MODEL 1
REMARK minimizedAffinity 5.89763498
REMARK minimizedRMSD -1
REMARK  0 active torsions:
REMARK  status: ('A' for Active; 'I' for Inactive)
ROOT
ATOM      1  C4' PXY d   1       3.025  -0.457   1.168  0.00  0.00     0.077 C 
ATOM      2  C1' PXY d   1       2.863  -5.997  -0.475  0.00  0.00     0.077 C 
ATOM      3  C1  PXY d   1       2.918  -4.544  -0.047  0.00  0.00    -0.082 A 
ATOM      4  C2  PXY d   1       2.016  -4.077   0.800  0.00  0.00     0.003 A 
ATOM      5  C3  PXY d   1       2.032  -2.757   1.173  0.00  0.00     0.003 A 
ATOM      6  C4  PXY d   1       3.014  -1.920   0.715  0.00  0.00    -0.082 A 
ATOM      7  C5  PXY d   1       3.944  -2.391  -0.141  0.00  0.00     0.003 A 
ATOM      8  C6  PXY d   1       3.886  -3.724  -0.540  0.00  0.00     0.003 A 
ENDROOT
TORSDOF 0
ENDMDL
