MODEL 1
REMARK minimizedAffinity -3.40881443
REMARK minimizedRMSD -1
REMARK  0 active torsions:
REMARK  status: ('A' for Active; 'I' for Inactive)
ROOT
ATOM      1  C4' PXY d   1      -5.328   2.315   0.805  0.00  0.00     0.077 C 
ATOM      2  C1' PXY d   1       0.354   1.421   0.225  0.00  0.00     0.077 C 
ATOM      3  C1  PXY d   1      -1.138   1.643   0.378  0.00  0.00    -0.082 A 
ATOM      4  C2  PXY d   1      -1.684   2.757  -0.080  0.00  0.00     0.003 A 
ATOM      5  C3  PXY d   1      -3.026   2.988   0.078  0.00  0.00     0.003 A 
ATOM      6  C4  PXY d   1      -3.827   2.045   0.664  0.00  0.00    -0.082 A 
ATOM      7  C5  PXY d   1      -3.279   0.900   1.124  0.00  0.00     0.003 A 
ATOM      8  C6  PXY d   1      -1.908   0.703   0.991  0.00  0.00     0.003 A 
ENDROOT
TORSDOF 0
ENDMDL
