MODEL 1
REMARK minimizedAffinity -1.4461199
REMARK minimizedRMSD -1
REMARK  0 active torsions:
REMARK  status: ('A' for Active; 'I' for Inactive)
ROOT
ATOM      1  C4' PXY d   1      -5.225   2.295   0.588  0.00  0.00     0.077 C 
ATOM      2  C1' PXY d   1       0.517   1.751   0.194  0.00  0.00     0.077 C 
ATOM      3  C1  PXY d   1      -0.990   1.881   0.296  0.00  0.00    -0.082 A 
ATOM      4  C2  PXY d   1      -1.565   3.046   0.046  0.00  0.00     0.003 A 
ATOM      5  C3  PXY d   1      -2.923   3.189   0.164  0.00  0.00     0.003 A 
ATOM      6  C4  PXY d   1      -3.707   2.115   0.489  0.00  0.00    -0.082 A 
ATOM      7  C5  PXY d   1      -3.130   0.920   0.735  0.00  0.00     0.003 A 
ATOM      8  C6  PXY d   1      -1.745   0.806   0.650  0.00  0.00     0.003 A 
ENDROOT
TORSDOF 0
ENDMDL
