MODEL 1
REMARK minimizedAffinity -4.25229597
REMARK minimizedRMSD -1
REMARK  0 active torsions:
REMARK  status: ('A' for Active; 'I' for Inactive)
ROOT
ATOM      1  C4' PXY d   1      -5.727   2.207   0.413  0.00  0.00     0.077 C 
ATOM      2  C1' PXY d   1      -0.041   1.189   0.198  0.00  0.00     0.077 C 
ATOM      3  C1  PXY d   1      -1.535   1.443   0.257  0.00  0.00    -0.082 A 
ATOM      4  C2  PXY d   1      -2.046   2.486  -0.377  0.00  0.00     0.003 A 
ATOM      5  C3  PXY d   1      -3.390   2.749  -0.307  0.00  0.00     0.003 A 
ATOM      6  C4  PXY d   1      -4.227   1.906   0.373  0.00  0.00    -0.082 A 
ATOM      7  C5  PXY d   1      -3.714   0.834   1.013  0.00  0.00     0.003 A 
ATOM      8  C6  PXY d   1      -2.342   0.607   0.965  0.00  0.00     0.003 A 
ENDROOT
TORSDOF 0
ENDMDL
