MODEL 1
REMARK minimizedAffinity -3.53706217
REMARK minimizedRMSD -1
REMARK  0 active torsions:
REMARK  status: ('A' for Active; 'I' for Inactive)
ROOT
ATOM      1  C4' PXY d   1       0.587   1.201   0.320  0.00  0.00     0.077 C 
ATOM      2  C1' PXY d   1      -5.174   1.673   0.319  0.00  0.00     0.077 C 
ATOM      3  C1  PXY d   1      -3.664   1.544   0.331  0.00  0.00    -0.082 A 
ATOM      4  C2  PXY d   1      -2.931   2.363  -0.406  0.00  0.00     0.003 A 
ATOM      5  C3  PXY d   1      -1.566   2.239  -0.431  0.00  0.00     0.003 A 
ATOM      6  C4  PXY d   1      -0.941   1.301   0.346  0.00  0.00    -0.082 A 
ATOM      7  C5  PXY d   1      -1.681   0.469   1.108  0.00  0.00     0.003 A 
ATOM      8  C6  PXY d   1      -3.068   0.584   1.088  0.00  0.00     0.003 A 
ENDROOT
TORSDOF 0
ENDMDL
