MODEL 1
REMARK minimizedAffinity -4.71814537
REMARK minimizedRMSD -1
REMARK  0 active torsions:
REMARK  status: ('A' for Active; 'I' for Inactive)
ROOT
ATOM      1  C4' PXY d   1      -5.236   1.144   0.928  0.00  0.00     0.077 C 
ATOM      2  C1' PXY d   1       0.516   0.982   0.373  0.00  0.00     0.077 C 
ATOM      3  C1  PXY d   1      -0.993   1.012   0.518  0.00  0.00    -0.082 A 
ATOM      4  C2  PXY d   1      -1.664   2.092   0.154  0.00  0.00     0.003 A 
ATOM      5  C3  PXY d   1      -3.025   2.148   0.308  0.00  0.00     0.003 A 
ATOM      6  C4  PXY d   1      -3.713   1.066   0.790  0.00  0.00    -0.082 A 
ATOM      7  C5  PXY d   1      -3.036  -0.044   1.154  0.00  0.00     0.003 A 
ATOM      8  C6  PXY d   1      -1.650  -0.065   1.028  0.00  0.00     0.003 A 
ENDROOT
TORSDOF 0
ENDMDL
