MODEL 1
REMARK minimizedAffinity 4.05865383
REMARK minimizedRMSD -1
REMARK  0 active torsions:
REMARK  status: ('A' for Active; 'I' for Inactive)
ROOT
ATOM      1  C4' PXY d   1       0.676   0.869   3.448  0.00  0.00     0.077 C 
ATOM      2  C1' PXY d   1      -2.248   2.953  -1.081  0.00  0.00     0.077 C 
ATOM      3  C1  PXY d   1      -1.478   2.396   0.100  0.00  0.00    -0.082 A 
ATOM      4  C2  PXY d   1      -1.813   2.756   1.328  0.00  0.00     0.003 A 
ATOM      5  C3  PXY d   1      -1.107   2.287   2.405  0.00  0.00     0.003 A 
ATOM      6  C4  PXY d   1      -0.080   1.399   2.227  0.00  0.00    -0.082 A 
ATOM      7  C5  PXY d   1       0.262   1.019   0.978  0.00  0.00     0.003 A 
ATOM      8  C6  PXY d   1      -0.441   1.539  -0.105  0.00  0.00     0.003 A 
ENDROOT
TORSDOF 0
ENDMDL
