MODEL 1
REMARK minimizedAffinity -0.962181091
REMARK minimizedRMSD -1
REMARK  0 active torsions:
REMARK  status: ('A' for Active; 'I' for Inactive)
ROOT
ATOM      1  C4' PXY d   1      -5.613   2.394   1.053  0.00  0.00     0.077 C 
ATOM      2  C1' PXY d   1       0.047   1.222   0.986  0.00  0.00     0.077 C 
ATOM      3  C1  PXY d   1      -1.440   1.516   1.003  0.00  0.00    -0.082 A 
ATOM      4  C2  PXY d   1      -1.881   2.684   0.563  0.00  0.00     0.003 A 
ATOM      5  C3  PXY d   1      -3.219   2.979   0.601  0.00  0.00     0.003 A 
ATOM      6  C4  PXY d   1      -4.121   2.050   1.045  0.00  0.00    -0.082 A 
ATOM      7  C5  PXY d   1      -3.680   0.852   1.486  0.00  0.00     0.003 A 
ATOM      8  C6  PXY d   1      -2.314   0.587   1.477  0.00  0.00     0.003 A 
ENDROOT
TORSDOF 0
ENDMDL
