MODEL 1
REMARK minimizedAffinity -3.66539907
REMARK minimizedRMSD -1
REMARK  0 active torsions:
REMARK  status: ('A' for Active; 'I' for Inactive)
ROOT
ATOM      1  C4' PXY d   1      -5.323   1.163   0.213  0.00  0.00     0.077 C 
ATOM      2  C1' PXY d   1       0.447   1.237   0.546  0.00  0.00     0.077 C 
ATOM      3  C1  PXY d   1      -1.066   1.204   0.457  0.00  0.00    -0.082 A 
ATOM      4  C2  PXY d   1      -1.724   2.299   0.111  0.00  0.00     0.003 A 
ATOM      5  C3  PXY d   1      -3.094   2.296   0.056  0.00  0.00     0.003 A 
ATOM      6  C4  PXY d   1      -3.795   1.147   0.307  0.00  0.00    -0.082 A 
ATOM      7  C5  PXY d   1      -3.130   0.023   0.650  0.00  0.00     0.003 A 
ATOM      8  C6  PXY d   1      -1.742   0.058   0.740  0.00  0.00     0.003 A 
ENDROOT
TORSDOF 0
ENDMDL
