MODEL 1
REMARK minimizedAffinity 1.29155529
REMARK minimizedRMSD -1
REMARK  1 active torsions:
REMARK  status: ('A' for Active; 'I' for Inactive)
REMARK    1  A    between atoms: N_2  and  C1_3 
ROOT
ATOM      1  C1  UNL d   1       0.545   1.064   2.834  0.00  0.00     0.143 A 
ATOM      2  C2  UNL d   1       1.536   1.171   1.853  0.00  0.00    -0.057 A 
ATOM      3  C3  UNL d   1       1.317   1.894   0.675  0.00  0.00     0.033 A 
ATOM      4  C4  UNL d   1       0.088   2.502   0.444  0.00  0.00    -0.042 A 
ATOM      5  C5  UNL d   1      -0.921   2.388   1.394  0.00  0.00     0.033 A 
ATOM      6  C6  UNL d   1      -0.694   1.670   2.571  0.00  0.00    -0.057 A 
ENDROOT
BRANCH   1   7
ATOM      7  N   UNL d   1       0.667   0.277   3.982  0.00  0.00    -0.732 N 
ATOM      8  C   UNL d   1       0.816  -1.159   3.879  0.00  0.00     0.284 C 
ATOM      9  H3  UNL d   1       1.263   0.707   4.686  0.00  0.00     0.395 HD
ENDBRANCH   1   7
TORSDOF 1
ENDMDL
