MODEL 1
REMARK minimizedAffinity 9.2608366
REMARK minimizedRMSD -1
REMARK  1 active torsions:
REMARK  status: ('A' for Active; 'I' for Inactive)
REMARK    1  A    between atoms: N_2  and  C1_3 
ROOT
ATOM      1  C1  UNL d   1      -0.504   1.628  -0.327  0.00  0.00     0.143 A 
ATOM      2  C2  UNL d   1      -1.285   1.500   0.826  0.00  0.00    -0.057 A 
ATOM      3  C3  UNL d   1      -0.700   1.285   2.080  0.00  0.00     0.033 A 
ATOM      4  C4  UNL d   1       0.681   1.165   2.198  0.00  0.00    -0.042 A 
ATOM      5  C5  UNL d   1       1.476   1.264   1.061  0.00  0.00     0.033 A 
ATOM      6  C6  UNL d   1       0.885   1.486  -0.187  0.00  0.00    -0.057 A 
ENDROOT
BRANCH   1   7
ATOM      7  N   UNL d   1      -1.032   1.745  -1.615  0.00  0.00    -0.732 N 
ATOM      8  C   UNL d   1      -1.840   0.684  -2.179  0.00  0.00     0.284 C 
ATOM      9  H3  UNL d   1      -1.381   2.681  -1.809  0.00  0.00     0.395 HD
ENDBRANCH   1   7
TORSDOF 1
ENDMDL
