MODEL 1
REMARK minimizedAffinity 0.176902682
REMARK minimizedRMSD -1
REMARK  1 active torsions:
REMARK  status: ('A' for Active; 'I' for Inactive)
REMARK    1  A    between atoms: N_2  and  C1_3 
ROOT
ATOM      1  C1  UNL d   1       2.646  -0.129   0.136  0.00  0.00     0.143 A 
ATOM      2  C2  UNL d   1       3.963   0.338   0.061  0.00  0.00    -0.057 A 
ATOM      3  C3  UNL d   1       4.252   1.707   0.129  0.00  0.00     0.033 A 
ATOM      4  C4  UNL d   1       3.224   2.636   0.244  0.00  0.00    -0.042 A 
ATOM      5  C5  UNL d   1       1.906   2.196   0.295  0.00  0.00     0.033 A 
ATOM      6  C6  UNL d   1       1.624   0.828   0.234  0.00  0.00    -0.057 A 
ENDROOT
BRANCH   1   7
ATOM      7  N   UNL d   1       2.287  -1.469  -0.024  0.00  0.00    -0.732 N 
ATOM      8  C   UNL d   1       1.096  -1.830  -0.764  0.00  0.00     0.284 C 
ATOM      9  H3  UNL d   1       3.089  -2.067  -0.210  0.00  0.00     0.395 HD
ENDBRANCH   1   7
TORSDOF 1
ENDMDL
