MODEL 1
REMARK minimizedAffinity -1.86732268
REMARK minimizedRMSD -1
REMARK  1 active torsions:
REMARK  status: ('A' for Active; 'I' for Inactive)
REMARK    1  A    between atoms: C3_4  and  O_7 
ROOT
ATOM      1  C   UNL d   1      -0.927  -2.179   0.846  0.00  0.00    -0.033 A 
ATOM      2  C1  UNL d   1      -0.721  -1.309   1.919  0.00  0.00     0.039 A 
ATOM      3  C2  UNL d   1      -0.265  -0.009   1.688  0.00  0.00    -0.080 A 
ATOM      4  C3  UNL d   1      -0.020   0.407   0.382  0.00  0.00     0.150 A 
ATOM      5  C4  UNL d   1      -0.227  -0.453  -0.691  0.00  0.00    -0.007 A 
ATOM      6  C5  UNL d   1      -0.682  -1.751  -0.459  0.00  0.00     0.039 A 
ENDROOT
BRANCH   4   7
ATOM      7  O   UNL d   1       0.430   1.664   0.107  0.00  0.00    -0.526 OA
ATOM      8  H5  UNL d   1       0.555   2.137   0.947  0.00  0.00     0.418 HD
ENDBRANCH   4   7
TORSDOF 1
ENDMDL
