MODEL 1
REMARK minimizedAffinity 0.338741571
REMARK minimizedRMSD -1
REMARK  1 active torsions:
REMARK  status: ('A' for Active; 'I' for Inactive)
REMARK    1  A    between atoms: C3_4  and  O_7 
ROOT
ATOM      1  C   UNL d   1      -1.856  -0.674   1.944  0.00  0.00    -0.033 A 
ATOM      2  C1  UNL d   1      -1.759  -1.742   1.050  0.00  0.00     0.039 A 
ATOM      3  C2  UNL d   1      -1.137  -1.564  -0.188  0.00  0.00    -0.080 A 
ATOM      4  C3  UNL d   1      -0.618  -0.316  -0.519  0.00  0.00     0.150 A 
ATOM      5  C4  UNL d   1      -0.709   0.752   0.368  0.00  0.00    -0.007 A 
ATOM      6  C5  UNL d   1      -1.330   0.573   1.603  0.00  0.00     0.039 A 
ENDROOT
BRANCH   4   7
ATOM      7  O   UNL d   1      -0.008  -0.093  -1.717  0.00  0.00    -0.526 OA
ATOM      8  H5  UNL d   1      -0.044  -0.913  -2.238  0.00  0.00     0.418 HD
ENDBRANCH   4   7
TORSDOF 1
ENDMDL
