MODEL 1
REMARK minimizedAffinity -5.28421354
REMARK minimizedRMSD -1
REMARK  1 active torsions:
REMARK  status: ('A' for Active; 'I' for Inactive)
REMARK    1  A    between atoms: C3_4  and  O_7 
ROOT
ATOM      1  C   UNL d   1      -0.515   0.315   0.053  0.00  0.00    -0.033 A 
ATOM      2  C1  UNL d   1       0.771  -0.167  -0.201  0.00  0.00     0.039 A 
ATOM      3  C2  UNL d   1       1.061  -1.520  -0.013  0.00  0.00    -0.080 A 
ATOM      4  C3  UNL d   1       0.058  -2.379   0.429  0.00  0.00     0.150 A 
ATOM      5  C4  UNL d   1      -1.225  -1.906   0.681  0.00  0.00    -0.007 A 
ATOM      6  C5  UNL d   1      -1.513  -0.554   0.493  0.00  0.00     0.039 A 
ENDROOT
BRANCH   4   7
ATOM      7  O   UNL d   1       0.295  -3.706   0.632  0.00  0.00    -0.526 OA
ATOM      8  H5  UNL d   1       1.232  -3.883   0.445  0.00  0.00     0.418 HD
ENDBRANCH   4   7
TORSDOF 1
ENDMDL
