MODEL 1
REMARK minimizedAffinity -2.03320599
REMARK minimizedRMSD -1
REMARK  1 active torsions:
REMARK  status: ('A' for Active; 'I' for Inactive)
REMARK    1  A    between atoms: C3_4  and  O_7 
ROOT
ATOM      1  C   UNL d   1      -0.867  -0.155   0.138  0.00  0.00    -0.033 A 
ATOM      2  C1  UNL d   1      -1.019   0.838  -0.831  0.00  0.00     0.039 A 
ATOM      3  C2  UNL d   1      -0.097   1.883  -0.913  0.00  0.00    -0.080 A 
ATOM      4  C3  UNL d   1       0.972   1.922  -0.022  0.00  0.00     0.150 A 
ATOM      5  C4  UNL d   1       1.132   0.933   0.944  0.00  0.00    -0.007 A 
ATOM      6  C5  UNL d   1       0.209  -0.109   1.024  0.00  0.00     0.039 A 
ENDROOT
BRANCH   4   7
ATOM      7  O   UNL d   1       1.895   2.925  -0.060  0.00  0.00    -0.526 OA
ATOM      8  H5  UNL d   1       1.641   3.551  -0.758  0.00  0.00     0.418 HD
ENDBRANCH   4   7
TORSDOF 1
ENDMDL
