MODEL 1
REMARK minimizedAffinity -0.0238304213
REMARK minimizedRMSD -1
REMARK  1 active torsions:
REMARK  status: ('A' for Active; 'I' for Inactive)
REMARK    1  A    between atoms: C3_4  and  O_7 
ROOT
ATOM      1  C   UNL d   1      -0.375  -5.140   0.623  0.00  0.00    -0.033 A 
ATOM      2  C1  UNL d   1      -0.725  -5.866  -0.518  0.00  0.00     0.039 A 
ATOM      3  C2  UNL d   1      -1.843  -5.495  -1.267  0.00  0.00    -0.080 A 
ATOM      4  C3  UNL d   1      -2.601  -4.398  -0.867  0.00  0.00     0.150 A 
ATOM      5  C4  UNL d   1      -2.256  -3.668   0.265  0.00  0.00    -0.007 A 
ATOM      6  C5  UNL d   1      -1.140  -4.041   1.013  0.00  0.00     0.039 A 
ENDROOT
BRANCH   4   7
ATOM      7  O   UNL d   1      -3.703  -4.001  -1.564  0.00  0.00    -0.526 OA
ATOM      8  H5  UNL d   1      -3.837  -4.616  -2.305  0.00  0.00     0.418 HD
ENDBRANCH   4   7
TORSDOF 1
ENDMDL
