MODEL 1
REMARK minimizedAffinity 3.24628997
REMARK minimizedRMSD -1
REMARK  1 active torsions:
REMARK  status: ('A' for Active; 'I' for Inactive)
REMARK    1  A    between atoms: C3_4  and  O_7 
ROOT
ATOM      1  C   UNL d   1      -1.400   1.099   1.592  0.00  0.00    -0.033 A 
ATOM      2  C1  UNL d   1      -1.002   0.632   0.337  0.00  0.00     0.039 A 
ATOM      3  C2  UNL d   1      -1.073  -0.731   0.043  0.00  0.00    -0.080 A 
ATOM      4  C3  UNL d   1      -1.544  -1.615   1.010  0.00  0.00     0.150 A 
ATOM      5  C4  UNL d   1      -1.946  -1.156   2.260  0.00  0.00    -0.007 A 
ATOM      6  C5  UNL d   1      -1.873   0.205   2.552  0.00  0.00     0.039 A 
ENDROOT
BRANCH   4   7
ATOM      7  O   UNL d   1      -1.627  -2.955   0.771  0.00  0.00    -0.526 OA
ATOM      8  H5  UNL d   1      -1.289  -3.129  -0.124  0.00  0.00     0.418 HD
ENDBRANCH   4   7
TORSDOF 1
ENDMDL
