MODEL 1
REMARK minimizedAffinity -2.72250295
REMARK minimizedRMSD -1
REMARK  1 active torsions:
REMARK  status: ('A' for Active; 'I' for Inactive)
REMARK    1  A    between atoms: C3_4  and  O_7 
ROOT
ATOM      1  C   UNL d   1       0.233   1.534   0.104  0.00  0.00    -0.033 A 
ATOM      2  C1  UNL d   1       0.884   0.969   1.202  0.00  0.00     0.039 A 
ATOM      3  C2  UNL d   1       0.489  -0.280   1.684  0.00  0.00    -0.080 A 
ATOM      4  C3  UNL d   1      -0.557  -0.954   1.059  0.00  0.00     0.150 A 
ATOM      5  C4  UNL d   1      -1.208  -0.399  -0.037  0.00  0.00    -0.007 A 
ATOM      6  C5  UNL d   1      -0.813   0.849  -0.517  0.00  0.00     0.039 A 
ENDROOT
BRANCH   4   7
ATOM      7  O   UNL d   1      -0.982  -2.173   1.497  0.00  0.00    -0.526 OA
ATOM      8  H5  UNL d   1      -0.459  -2.419   2.279  0.00  0.00     0.418 HD
ENDBRANCH   4   7
TORSDOF 1
ENDMDL
