MODEL 1
REMARK minimizedAffinity -2.03614593
REMARK minimizedRMSD -1
REMARK  1 active torsions:
REMARK  status: ('A' for Active; 'I' for Inactive)
REMARK    1  A    between atoms: C3_4  and  O_7 
ROOT
ATOM      1  C   UNL d   1       1.293   0.733  -2.047  0.00  0.00    -0.033 A 
ATOM      2  C1  UNL d   1       0.253  -0.167  -2.289  0.00  0.00     0.039 A 
ATOM      3  C2  UNL d   1      -0.595  -0.552  -1.248  0.00  0.00    -0.080 A 
ATOM      4  C3  UNL d   1      -0.393  -0.030   0.027  0.00  0.00     0.150 A 
ATOM      5  C4  UNL d   1       0.639   0.870   0.273  0.00  0.00    -0.007 A 
ATOM      6  C5  UNL d   1       1.485   1.253  -0.767  0.00  0.00     0.039 A 
ENDROOT
BRANCH   4   7
ATOM      7  O   UNL d   1      -1.192  -0.380   1.075  0.00  0.00    -0.526 OA
ATOM      8  H5  UNL d   1      -1.842  -1.030   0.762  0.00  0.00     0.418 HD
ENDBRANCH   4   7
TORSDOF 1
ENDMDL
