MODEL 1
REMARK minimizedAffinity -3.35752821
REMARK minimizedRMSD -1
REMARK  1 active torsions:
REMARK  status: ('A' for Active; 'I' for Inactive)
REMARK    1  A    between atoms: C3_4  and  O_7 
ROOT
ATOM      1  C   UNL d   1      -0.531  -0.644   1.152  0.00  0.00    -0.033 A 
ATOM      2  C1  UNL d   1      -1.034   0.207   0.166  0.00  0.00     0.039 A 
ATOM      3  C2  UNL d   1      -0.265   1.279  -0.292  0.00  0.00    -0.080 A 
ATOM      4  C3  UNL d   1       1.003   1.488   0.242  0.00  0.00     0.150 A 
ATOM      5  C4  UNL d   1       1.512   0.642   1.223  0.00  0.00    -0.007 A 
ATOM      6  C5  UNL d   1       0.742  -0.427   1.680  0.00  0.00     0.039 A 
ENDROOT
BRANCH   4   7
ATOM      7  O   UNL d   1       1.788   2.523  -0.170  0.00  0.00    -0.526 OA
ATOM      8  H5  UNL d   1       1.295   3.040  -0.829  0.00  0.00     0.418 HD
ENDBRANCH   4   7
TORSDOF 1
ENDMDL
