MODEL 1
REMARK minimizedAffinity -2.00293612
REMARK minimizedRMSD -1
REMARK  1 active torsions:
REMARK  status: ('A' for Active; 'I' for Inactive)
REMARK    1  A    between atoms: C3_4  and  O_7 
ROOT
ATOM      1  C   UNL d   1      -0.936  -2.224   0.913  0.00  0.00    -0.033 A 
ATOM      2  C1  UNL d   1      -0.763  -1.789  -0.403  0.00  0.00     0.039 A 
ATOM      3  C2  UNL d   1      -0.191  -0.541  -0.657  0.00  0.00    -0.080 A 
ATOM      4  C3  UNL d   1       0.204   0.260   0.411  0.00  0.00     0.150 A 
ATOM      5  C4  UNL d   1       0.038  -0.169   1.724  0.00  0.00    -0.007 A 
ATOM      6  C5  UNL d   1      -0.534  -1.415   1.976  0.00  0.00     0.039 A 
ENDROOT
BRANCH   4   7
ATOM      7  O   UNL d   1       0.762   1.488   0.212  0.00  0.00    -0.526 OA
ATOM      8  H5  UNL d   1       0.788   1.664  -0.743  0.00  0.00     0.418 HD
ENDBRANCH   4   7
TORSDOF 1
ENDMDL
