MODEL 1
REMARK minimizedAffinity -3.11083746
REMARK minimizedRMSD -1
REMARK  1 active torsions:
REMARK  status: ('A' for Active; 'I' for Inactive)
REMARK    1  A    between atoms: C3_4  and  O_7 
ROOT
ATOM      1  C   UNL d   1       0.017   0.355  -0.075  0.00  0.00    -0.033 A 
ATOM      2  C1  UNL d   1       0.867   0.482   1.025  0.00  0.00     0.039 A 
ATOM      3  C2  UNL d   1       1.674   1.614   1.159  0.00  0.00    -0.080 A 
ATOM      4  C3  UNL d   1       1.620   2.610   0.188  0.00  0.00     0.150 A 
ATOM      5  C4  UNL d   1       0.773   2.491  -0.909  0.00  0.00    -0.007 A 
ATOM      6  C5  UNL d   1      -0.031   1.360  -1.041  0.00  0.00     0.039 A 
ENDROOT
BRANCH   4   7
ATOM      7  O   UNL d   1       2.392   3.730   0.273  0.00  0.00    -0.526 OA
ATOM      8  H5  UNL d   1       2.948   3.661   1.067  0.00  0.00     0.418 HD
ENDBRANCH   4   7
TORSDOF 1
ENDMDL
