MODEL 1
REMARK minimizedAffinity -2.68921232
REMARK minimizedRMSD -1
REMARK  1 active torsions:
REMARK  status: ('A' for Active; 'I' for Inactive)
REMARK    1  A    between atoms: C3_4  and  O_7 
ROOT
ATOM      1  C   UNL d   1      -0.686  -0.393   1.284  0.00  0.00    -0.033 A 
ATOM      2  C1  UNL d   1      -0.452   0.491   0.229  0.00  0.00     0.039 A 
ATOM      3  C2  UNL d   1      -0.357   0.010  -1.079  0.00  0.00    -0.080 A 
ATOM      4  C3  UNL d   1      -0.498  -1.354  -1.317  0.00  0.00     0.150 A 
ATOM      5  C4  UNL d   1      -0.736  -2.240  -0.271  0.00  0.00    -0.007 A 
ATOM      6  C5  UNL d   1      -0.830  -1.758   1.034  0.00  0.00     0.039 A 
ENDROOT
BRANCH   4   7
ATOM      7  O   UNL d   1      -0.408  -1.871  -2.575  0.00  0.00    -0.526 OA
ATOM      8  H5  UNL d   1      -0.213  -1.146  -3.192  0.00  0.00     0.418 HD
ENDBRANCH   4   7
TORSDOF 1
ENDMDL
