MODEL 1
REMARK minimizedAffinity -3.51340747
REMARK minimizedRMSD -1
REMARK  1 active torsions:
REMARK  status: ('A' for Active; 'I' for Inactive)
REMARK    1  A    between atoms: C3_4  and  O_7 
ROOT
ATOM      1  C   UNL d   1       0.174  -0.671  -2.023  0.00  0.00    -0.033 A 
ATOM      2  C1  UNL d   1      -0.244  -1.969  -1.722  0.00  0.00     0.039 A 
ATOM      3  C2  UNL d   1      -0.665  -2.287  -0.430  0.00  0.00    -0.080 A 
ATOM      4  C3  UNL d   1      -0.665  -1.299   0.551  0.00  0.00     0.150 A 
ATOM      5  C4  UNL d   1      -0.254  -0.003   0.258  0.00  0.00    -0.007 A 
ATOM      6  C5  UNL d   1       0.168   0.312  -1.033  0.00  0.00     0.039 A 
ENDROOT
BRANCH   4   7
ATOM      7  O   UNL d   1      -1.064  -1.563   1.828  0.00  0.00    -0.526 OA
ATOM      8  H5  UNL d   1      -1.293  -2.505   1.890  0.00  0.00     0.418 HD
ENDBRANCH   4   7
TORSDOF 1
ENDMDL
