MODEL 1
REMARK minimizedAffinity -3.45035028
REMARK minimizedRMSD -1
REMARK  1 active torsions:
REMARK  status: ('A' for Active; 'I' for Inactive)
REMARK    1  A    between atoms: C3_4  and  O_7 
ROOT
ATOM      1  C   UNL d   1       0.100  -0.243   0.298  0.00  0.00    -0.033 A 
ATOM      2  C1  UNL d   1       0.741   0.126   1.483  0.00  0.00     0.039 A 
ATOM      3  C2  UNL d   1       1.214   1.429   1.646  0.00  0.00    -0.080 A 
ATOM      4  C3  UNL d   1       1.041   2.353   0.619  0.00  0.00     0.150 A 
ATOM      5  C4  UNL d   1       0.400   1.994  -0.562  0.00  0.00    -0.007 A 
ATOM      6  C5  UNL d   1      -0.071   0.692  -0.724  0.00  0.00     0.039 A 
ENDROOT
BRANCH   4   7
ATOM      7  O   UNL d   1       1.490   3.635   0.731  0.00  0.00    -0.526 OA
ATOM      8  H5  UNL d   1       1.937   3.731   1.589  0.00  0.00     0.418 HD
ENDBRANCH   4   7
TORSDOF 1
ENDMDL
