MODEL 1
REMARK minimizedAffinity -2.4208436
REMARK minimizedRMSD -1
REMARK  1 active torsions:
REMARK  status: ('A' for Active; 'I' for Inactive)
REMARK    1  A    between atoms: C3_4  and  O_7 
ROOT
ATOM      1  C   UNL d   1      -0.049   1.035  -0.286  0.00  0.00    -0.033 A 
ATOM      2  C1  UNL d   1      -0.709   0.960   0.942  0.00  0.00     0.039 A 
ATOM      3  C2  UNL d   1      -1.046  -0.283   1.482  0.00  0.00    -0.080 A 
ATOM      4  C3  UNL d   1      -0.717  -1.442   0.784  0.00  0.00     0.150 A 
ATOM      5  C4  UNL d   1      -0.056  -1.375  -0.438  0.00  0.00    -0.007 A 
ATOM      6  C5  UNL d   1       0.278  -0.133  -0.975  0.00  0.00     0.039 A 
ENDROOT
BRANCH   4   7
ATOM      7  O   UNL d   1      -1.029  -2.677   1.268  0.00  0.00    -0.526 OA
ATOM      8  H5  UNL d   1      -1.509  -2.567   2.106  0.00  0.00     0.418 HD
ENDBRANCH   4   7
TORSDOF 1
ENDMDL
