MODEL 1
REMARK minimizedAffinity -2.70594978
REMARK minimizedRMSD -1
REMARK  1 active torsions:
REMARK  status: ('A' for Active; 'I' for Inactive)
REMARK    1  A    between atoms: C3_4  and  O_7 
ROOT
ATOM      1  C   UNL d   1      -1.316  -2.109   0.731  0.00  0.00    -0.033 A 
ATOM      2  C1  UNL d   1      -1.009  -1.689  -0.564  0.00  0.00     0.039 A 
ATOM      3  C2  UNL d   1      -0.283  -0.513  -0.765  0.00  0.00    -0.080 A 
ATOM      4  C3  UNL d   1       0.131   0.231   0.336  0.00  0.00     0.150 A 
ATOM      5  C4  UNL d   1      -0.167  -0.185   1.630  0.00  0.00    -0.007 A 
ATOM      6  C5  UNL d   1      -0.894  -1.358   1.828  0.00  0.00     0.039 A 
ENDROOT
BRANCH   4   7
ATOM      7  O   UNL d   1       0.838   1.387   0.190  0.00  0.00    -0.526 OA
ATOM      8  H5  UNL d   1       0.946   1.564  -0.759  0.00  0.00     0.418 HD
ENDBRANCH   4   7
TORSDOF 1
ENDMDL
