MODEL 1
REMARK minimizedAffinity -3.01035523
REMARK minimizedRMSD -1
REMARK  1 active torsions:
REMARK  status: ('A' for Active; 'I' for Inactive)
REMARK    1  A    between atoms: C3_4  and  O_7 
ROOT
ATOM      1  C   UNL d   1      -0.782  -0.931   1.232  0.00  0.00    -0.033 A 
ATOM      2  C1  UNL d   1      -0.888  -2.227   0.723  0.00  0.00     0.039 A 
ATOM      3  C2  UNL d   1      -0.542  -2.488  -0.605  0.00  0.00    -0.080 A 
ATOM      4  C3  UNL d   1      -0.091  -1.446  -1.411  0.00  0.00     0.150 A 
ATOM      5  C4  UNL d   1       0.021  -0.154  -0.909  0.00  0.00    -0.007 A 
ATOM      6  C5  UNL d   1      -0.325   0.105   0.417  0.00  0.00     0.039 A 
ENDROOT
BRANCH   4   7
ATOM      7  O   UNL d   1       0.254  -1.651  -2.713  0.00  0.00    -0.526 OA
ATOM      8  H5  UNL d   1       0.098  -2.586  -2.930  0.00  0.00     0.418 HD
ENDBRANCH   4   7
TORSDOF 1
ENDMDL
