MODEL 1
REMARK minimizedAffinity 7.65233231
REMARK minimizedRMSD -1
REMARK  0 active torsions:
REMARK  status: ('A' for Active; 'I' for Inactive)
ROOT
ATOM      1  C   UNL d   1      -5.919   0.465   1.399  0.00  0.00    -0.002 A 
ATOM      2  C1  UNL d   1      -5.953  -0.833   1.889  0.00  0.00     0.010 A 
ATOM      3  C2  UNL d   1      -5.978  -1.072   3.265  0.00  0.00     0.041 A 
ATOM      4  C3  UNL d   1      -5.970   0.025   4.148  0.00  0.00    -0.075 A 
ATOM      5  S   UNL d   1      -5.997  -0.027   5.871  0.00  0.00     0.015 SA
ATOM      6  C4  UNL d   1      -5.965   1.672   5.997  0.00  0.00     0.022 A 
ATOM      7  C5  UNL d   1      -5.934   2.280   4.765  0.00  0.00     0.026 A 
ATOM      8  C6  UNL d   1      -5.937   1.341   3.678  0.00  0.00    -0.082 A 
ATOM      9  C7  UNL d   1      -5.911   1.551   2.279  0.00  0.00     0.045 A 
ENDROOT
TORSDOF 0
ENDMDL
