MODEL 1
REMARK minimizedAffinity 2.77688289
REMARK minimizedRMSD -1
REMARK  0 active torsions:
REMARK  status: ('A' for Active; 'I' for Inactive)
ROOT
ATOM      1  C   UNL d   1       3.988  -1.258  -3.576  0.00  0.00    -0.002 A 
ATOM      2  C1  UNL d   1       3.137  -1.930  -2.710  0.00  0.00     0.010 A 
ATOM      3  C2  UNL d   1       2.022  -1.287  -2.169  0.00  0.00     0.041 A 
ATOM      4  C3  UNL d   1       1.773   0.055  -2.518  0.00  0.00    -0.075 A 
ATOM      5  S   UNL d   1       0.468   1.044  -1.979  0.00  0.00     0.015 SA
ATOM      6  C4  UNL d   1       1.009   2.381  -2.886  0.00  0.00     0.022 A 
ATOM      7  C5  UNL d   1       2.156   2.098  -3.588  0.00  0.00     0.026 A 
ATOM      8  C6  UNL d   1       2.615   0.752  -3.389  0.00  0.00    -0.082 A 
ATOM      9  C7  UNL d   1       3.738   0.073  -3.920  0.00  0.00     0.045 A 
ENDROOT
TORSDOF 0
ENDMDL
