MODEL 1
REMARK minimizedAffinity 19.4170628
REMARK minimizedRMSD -1
REMARK  0 active torsions:
REMARK  status: ('A' for Active; 'I' for Inactive)
ROOT
ATOM      1  C   UNL d   1      -1.650  -5.943   2.021  0.00  0.00    -0.002 A 
ATOM      2  C1  UNL d   1      -1.608  -5.852   0.637  0.00  0.00     0.010 A 
ATOM      3  C2  UNL d   1      -0.385  -5.811  -0.035  0.00  0.00     0.041 A 
ATOM      4  C3  UNL d   1       0.807  -5.866   0.714  0.00  0.00    -0.075 A 
ATOM      5  S   UNL d   1       2.420  -5.832   0.106  0.00  0.00     0.015 SA
ATOM      6  C4  UNL d   1       3.091  -5.939   1.669  0.00  0.00     0.022 A 
ATOM      7  C5  UNL d   1       2.122  -5.999   2.643  0.00  0.00     0.026 A 
ATOM      8  C6  UNL d   1       0.790  -5.959   2.109  0.00  0.00    -0.082 A 
ATOM      9  C7  UNL d   1      -0.466  -5.998   2.761  0.00  0.00     0.045 A 
ENDROOT
TORSDOF 0
ENDMDL
