MODEL 1
REMARK minimizedAffinity 8.14851093
REMARK minimizedRMSD -1
REMARK  0 active torsions:
REMARK  status: ('A' for Active; 'I' for Inactive)
ROOT
ATOM      1  C   UNL d   1      -0.824   1.403  -1.579  0.00  0.00    -0.002 A 
ATOM      2  C1  UNL d   1       0.069   2.095  -2.385  0.00  0.00     0.010 A 
ATOM      3  C2  UNL d   1      -0.118   2.151  -3.767  0.00  0.00     0.041 A 
ATOM      4  C3  UNL d   1      -1.230   1.494  -4.332  0.00  0.00    -0.075 A 
ATOM      5  S   UNL d   1      -1.661   1.427  -6.000  0.00  0.00     0.015 SA
ATOM      6  C4  UNL d   1      -3.041   0.479  -5.682  0.00  0.00     0.022 A 
ATOM      7  C5  UNL d   1      -3.184   0.211  -4.341  0.00  0.00     0.026 A 
ATOM      8  C6  UNL d   1      -2.143   0.792  -3.541  0.00  0.00    -0.082 A 
ATOM      9  C7  UNL d   1      -1.925   0.753  -2.143  0.00  0.00     0.045 A 
ENDROOT
TORSDOF 0
ENDMDL
