MODEL 1
REMARK minimizedAffinity 4.22082901
REMARK minimizedRMSD -1
REMARK  0 active torsions:
REMARK  status: ('A' for Active; 'I' for Inactive)
ROOT
ATOM      1  C   UNL d   1      -3.721   0.550   1.590  0.00  0.00    -0.002 A 
ATOM      2  C1  UNL d   1      -2.555   0.049   2.152  0.00  0.00     0.010 A 
ATOM      3  C2  UNL d   1      -2.502  -0.274   3.509  0.00  0.00     0.041 A 
ATOM      4  C3  UNL d   1      -3.653  -0.085   4.300  0.00  0.00    -0.075 A 
ATOM      5  S   UNL d   1      -3.822  -0.412   5.984  0.00  0.00     0.015 SA
ATOM      6  C4  UNL d   1      -5.446   0.103   5.997  0.00  0.00     0.022 A 
ATOM      7  C5  UNL d   1      -5.866   0.519   4.756  0.00  0.00     0.026 A 
ATOM      8  C6  UNL d   1      -4.839   0.416   3.757  0.00  0.00    -0.082 A 
ATOM      9  C7  UNL d   1      -4.860   0.735   2.378  0.00  0.00     0.045 A 
ENDROOT
TORSDOF 0
ENDMDL
