MODEL 1
REMARK minimizedAffinity -1.73420393
REMARK minimizedRMSD -1
REMARK  0 active torsions:
REMARK  status: ('A' for Active; 'I' for Inactive)
ROOT
ATOM      1  C   UNL d   1       2.263   1.106  -2.599  0.00  0.00    -0.002 A 
ATOM      2  C1  UNL d   1       2.204  -0.231  -2.967  0.00  0.00     0.010 A 
ATOM      3  C2  UNL d   1       1.066  -0.747  -3.591  0.00  0.00     0.041 A 
ATOM      4  C3  UNL d   1      -0.021   0.113  -3.844  0.00  0.00    -0.075 A 
ATOM      5  S   UNL d   1      -1.516  -0.297  -4.598  0.00  0.00     0.015 SA
ATOM      6  C4  UNL d   1      -2.111   1.294  -4.451  0.00  0.00     0.022 A 
ATOM      7  C5  UNL d   1      -1.204   2.130  -3.844  0.00  0.00     0.026 A 
ATOM      8  C6  UNL d   1       0.016   1.463  -3.485  0.00  0.00    -0.082 A 
ATOM      9  C7  UNL d   1       1.183   1.955  -2.852  0.00  0.00     0.045 A 
ENDROOT
TORSDOF 0
ENDMDL
