MODEL 1
REMARK minimizedAffinity -1.20868468
REMARK minimizedRMSD -1
REMARK  0 active torsions:
REMARK  status: ('A' for Active; 'I' for Inactive)
ROOT
ATOM      1  C   UNL d   1       2.263   0.574  -2.273  0.00  0.00    -0.002 A 
ATOM      2  C1  UNL d   1       2.153  -0.707  -2.795  0.00  0.00     0.010 A 
ATOM      3  C2  UNL d   1       1.060  -1.059  -3.590  0.00  0.00     0.041 A 
ATOM      4  C3  UNL d   1       0.071  -0.092  -3.856  0.00  0.00    -0.075 A 
ATOM      5  S   UNL d   1      -1.354  -0.296  -4.804  0.00  0.00     0.015 SA
ATOM      6  C4  UNL d   1      -1.850   1.313  -4.540  0.00  0.00     0.022 A 
ATOM      7  C5  UNL d   1      -0.962   2.003  -3.749  0.00  0.00     0.026 A 
ATOM      8  C6  UNL d   1       0.160   1.205  -3.342  0.00  0.00    -0.082 A 
ATOM      9  C7  UNL d   1       1.280   1.531  -2.539  0.00  0.00     0.045 A 
ENDROOT
TORSDOF 0
ENDMDL
