MODEL 1
REMARK minimizedAffinity 9.26270771
REMARK minimizedRMSD -1
REMARK  0 active torsions:
REMARK  status: ('A' for Active; 'I' for Inactive)
ROOT
ATOM      1  C   UNL d   1      -0.836   1.269  -1.427  0.00  0.00    -0.002 A 
ATOM      2  C1  UNL d   1      -0.053   2.106  -2.208  0.00  0.00     0.010 A 
ATOM      3  C2  UNL d   1      -0.386   2.350  -3.542  0.00  0.00     0.041 A 
ATOM      4  C3  UNL d   1      -1.533   1.734  -4.082  0.00  0.00    -0.075 A 
ATOM      5  S   UNL d   1      -2.136   1.888  -5.689  0.00  0.00     0.015 SA
ATOM      6  C4  UNL d   1      -3.449   0.847  -5.376  0.00  0.00     0.022 A 
ATOM      7  C5  UNL d   1      -3.442   0.384  -4.082  0.00  0.00     0.026 A 
ATOM      8  C6  UNL d   1      -2.338   0.888  -3.314  0.00  0.00    -0.082 A 
ATOM      9  C7  UNL d   1      -1.973   0.660  -1.965  0.00  0.00     0.045 A 
ENDROOT
TORSDOF 0
ENDMDL
