MODEL 1
REMARK minimizedAffinity 15.9893913
REMARK minimizedRMSD -1
REMARK  0 active torsions:
REMARK  status: ('A' for Active; 'I' for Inactive)
ROOT
ATOM      1  C   UNL d   1       1.511  -5.247   2.659  0.00  0.00    -0.002 A 
ATOM      2  C1  UNL d   1       1.629  -3.935   2.222  0.00  0.00     0.010 A 
ATOM      3  C2  UNL d   1       0.622  -3.350   1.452  0.00  0.00     0.041 A 
ATOM      4  C3  UNL d   1      -0.518  -4.113   1.127  0.00  0.00    -0.075 A 
ATOM      5  S   UNL d   1      -1.877  -3.605   0.196  0.00  0.00     0.015 SA
ATOM      6  C4  UNL d   1      -2.646  -5.118   0.357  0.00  0.00     0.022 A 
ATOM      7  C5  UNL d   1      -1.898  -6.000   1.100  0.00  0.00     0.026 A 
ATOM      8  C6  UNL d   1      -0.659  -5.435   1.556  0.00  0.00    -0.082 A 
ATOM      9  C7  UNL d   1       0.380  -6.000   2.335  0.00  0.00     0.045 A 
ENDROOT
TORSDOF 0
ENDMDL
