MODEL 1
REMARK minimizedAffinity 20.0872078
REMARK minimizedRMSD -1
REMARK  0 active torsions:
REMARK  status: ('A' for Active; 'I' for Inactive)
ROOT
ATOM      1  C   UNL d   1      -4.495   3.006   5.770  0.00  0.00    -0.002 A 
ATOM      2  C1  UNL d   1      -5.494   2.072   6.000  0.00  0.00     0.010 A 
ATOM      3  C2  UNL d   1      -5.997   1.297   4.953  0.00  0.00     0.041 A 
ATOM      4  C3  UNL d   1      -5.472   1.478   3.658  0.00  0.00    -0.075 A 
ATOM      5  S   UNL d   1      -5.933   0.642   2.223  0.00  0.00     0.015 SA
ATOM      6  C4  UNL d   1      -4.814   1.504   1.271  0.00  0.00     0.022 A 
ATOM      7  C5  UNL d   1      -4.097   2.413   2.013  0.00  0.00     0.026 A 
ATOM      8  C6  UNL d   1      -4.464   2.412   3.402  0.00  0.00    -0.082 A 
ATOM      9  C7  UNL d   1      -3.976   3.183   4.484  0.00  0.00     0.045 A 
ENDROOT
TORSDOF 0
ENDMDL
