MODEL 1
REMARK minimizedAffinity 2.01190257
REMARK minimizedRMSD -1
REMARK  0 active torsions:
REMARK  status: ('A' for Active; 'I' for Inactive)
ROOT
ATOM      1  C   UNL d   1       2.145   1.037  -2.228  0.00  0.00    -0.002 A 
ATOM      2  C1  UNL d   1       2.007  -0.305  -2.552  0.00  0.00     0.010 A 
ATOM      3  C2  UNL d   1       0.865  -0.762  -3.213  0.00  0.00     0.041 A 
ATOM      4  C3  UNL d   1      -0.144   0.162  -3.548  0.00  0.00    -0.075 A 
ATOM      5  S   UNL d   1      -1.629  -0.170  -4.360  0.00  0.00     0.015 SA
ATOM      6  C4  UNL d   1      -2.114   1.463  -4.297  0.00  0.00     0.022 A 
ATOM      7  C5  UNL d   1      -1.179   2.255  -3.675  0.00  0.00     0.026 A 
ATOM      8  C6  UNL d   1      -0.028   1.518  -3.234  0.00  0.00    -0.082 A 
ATOM      9  C7  UNL d   1       1.142   1.951  -2.563  0.00  0.00     0.045 A 
ENDROOT
TORSDOF 0
ENDMDL
