MODEL 1
REMARK minimizedAffinity 6.08030844
REMARK minimizedRMSD -1
REMARK  0 active torsions:
REMARK  status: ('A' for Active; 'I' for Inactive)
ROOT
ATOM      1  C   UNL d   1      -1.548   0.653   0.299  0.00  0.00    -0.002 A 
ATOM      2  C1  UNL d   1      -2.289  -0.454  -0.091  0.00  0.00     0.010 A 
ATOM      3  C2  UNL d   1      -2.627  -0.646  -1.432  0.00  0.00     0.041 A 
ATOM      4  C3  UNL d   1      -2.202   0.301  -2.384  0.00  0.00    -0.075 A 
ATOM      5  S   UNL d   1      -2.497   0.272  -4.083  0.00  0.00     0.015 SA
ATOM      6  C4  UNL d   1      -1.646   1.728  -4.331  0.00  0.00     0.022 A 
ATOM      7  C5  UNL d   1      -1.143   2.237  -3.157  0.00  0.00     0.026 A 
ATOM      8  C6  UNL d   1      -1.454   1.423  -2.016  0.00  0.00    -0.082 A 
ATOM      9  C7  UNL d   1      -1.129   1.591  -0.649  0.00  0.00     0.045 A 
ENDROOT
TORSDOF 0
ENDMDL
