MODEL 1
REMARK minimizedAffinity -1.95749366
REMARK minimizedRMSD -1
REMARK  1 active torsions:
REMARK  status: ('A' for Active; 'I' for Inactive)
REMARK    1  A    between atoms: C1_2  and  C2_3 
ROOT
ATOM      1  C2  UNL d   1       2.554   5.615   5.138  0.00  0.00    -0.081 A 
ATOM      2  C3  UNL d   1       1.518   5.996   6.000  0.00  0.00     0.006 A 
ATOM      3  C4  UNL d   1       0.193   6.000   5.557  0.00  0.00     0.002 A 
ATOM      4  C5  UNL d   1      -0.119   5.616   4.249  0.00  0.00    -0.080 A 
ATOM      5  C6  UNL d   1      -1.540   5.586   3.771  0.00  0.00     0.076 C 
ATOM      6  C7  UNL d   1       0.917   5.252   3.382  0.00  0.00     0.002 A 
ATOM      7  C8  UNL d   1       2.242   5.249   3.824  0.00  0.00     0.006 A 
ENDROOT
BRANCH   1   8
ATOM      8  C1  UNL d   1       3.977   5.548   5.631  0.00  0.00     0.054 C 
ATOM      9  C   UNL d   1       4.967   5.679   4.483  0.00  0.00     0.018 C 
ENDBRANCH   1   8
TORSDOF 1
ENDMDL
