MODEL 1
REMARK minimizedAffinity 3.0991056
REMARK minimizedRMSD -1
REMARK  1 active torsions:
REMARK  status: ('A' for Active; 'I' for Inactive)
REMARK    1  A    between atoms: C1_2  and  C2_3 
ROOT
ATOM      1  C2  UNL d   1       1.993  -4.696   2.378  0.00  0.00    -0.081 A 
ATOM      2  C3  UNL d   1       3.288  -4.204   2.174  0.00  0.00     0.006 A 
ATOM      3  C4  UNL d   1       3.489  -2.996   1.501  0.00  0.00     0.002 A 
ATOM      4  C5  UNL d   1       2.399  -2.257   1.029  0.00  0.00    -0.080 A 
ATOM      5  C6  UNL d   1       2.600  -0.944   0.333  0.00  0.00     0.076 C 
ATOM      6  C7  UNL d   1       1.106  -2.756   1.218  0.00  0.00     0.002 A 
ATOM      7  C8  UNL d   1       0.904  -3.964   1.889  0.00  0.00     0.006 A 
ENDROOT
BRANCH   1   8
ATOM      8  C1  UNL d   1       1.769  -5.965   3.159  0.00  0.00     0.054 C 
ATOM      9  C   UNL d   1       0.380  -5.996   3.780  0.00  0.00     0.018 C 
ENDBRANCH   1   8
TORSDOF 1
ENDMDL
