MODEL 1
REMARK minimizedAffinity 7.01447248
REMARK minimizedRMSD -1
REMARK  1 active torsions:
REMARK  status: ('A' for Active; 'I' for Inactive)
REMARK    1  A    between atoms: C1_2  and  C2_3 
ROOT
ATOM      1  C2  UNL d   1       2.488  -3.128   1.011  0.00  0.00    -0.081 A 
ATOM      2  C3  UNL d   1       2.218  -1.803   0.646  0.00  0.00     0.006 A 
ATOM      3  C4  UNL d   1       1.061  -1.165   1.099  0.00  0.00     0.002 A 
ATOM      4  C5  UNL d   1       0.159  -1.838   1.930  0.00  0.00    -0.080 A 
ATOM      5  C6  UNL d   1      -1.072  -1.156   2.449  0.00  0.00     0.076 C 
ATOM      6  C7  UNL d   1       0.420  -3.168   2.281  0.00  0.00     0.002 A 
ATOM      7  C8  UNL d   1       1.577  -3.806   1.827  0.00  0.00     0.006 A 
ENDROOT
BRANCH   1   8
ATOM      8  C1  UNL d   1       3.767  -3.797   0.576  0.00  0.00     0.054 C 
ATOM      9  C   UNL d   1       4.588  -4.253   1.774  0.00  0.00     0.018 C 
ENDBRANCH   1   8
TORSDOF 1
ENDMDL
