MODEL 1
REMARK minimizedAffinity 6.92379475
REMARK minimizedRMSD -1
REMARK  1 active torsions:
REMARK  status: ('A' for Active; 'I' for Inactive)
REMARK    1  A    between atoms: C1_2  and  C2_3 
ROOT
ATOM      1  C2  UNL d   1      -0.909   5.212   5.312  0.00  0.00    -0.081 A 
ATOM      2  C3  UNL d   1      -2.078   4.864   6.000  0.00  0.00     0.006 A 
ATOM      3  C4  UNL d   1      -3.058   4.084   5.382  0.00  0.00     0.002 A 
ATOM      4  C5  UNL d   1      -2.881   3.630   4.070  0.00  0.00    -0.080 A 
ATOM      5  C6  UNL d   1      -3.911   2.766   3.406  0.00  0.00     0.076 C 
ATOM      6  C7  UNL d   1      -1.721   3.991   3.377  0.00  0.00     0.002 A 
ATOM      7  C8  UNL d   1      -0.742   4.773   3.994  0.00  0.00     0.006 A 
ENDROOT
BRANCH   1   8
ATOM      8  C1  UNL d   1       0.178   5.999   5.997  0.00  0.00     0.054 C 
ATOM      9  C   UNL d   1       1.464   5.992   5.183  0.00  0.00     0.018 C 
ENDBRANCH   1   8
TORSDOF 1
ENDMDL
