MODEL 1
REMARK minimizedAffinity 2.07916093
REMARK minimizedRMSD -1
REMARK  1 active torsions:
REMARK  status: ('A' for Active; 'I' for Inactive)
REMARK    1  A    between atoms: C1_2  and  C2_3 
ROOT
ATOM      1  C2  UNL d   1      -1.028   5.127   4.855  0.00  0.00    -0.081 A 
ATOM      2  C3  UNL d   1      -0.257   4.909   3.707  0.00  0.00     0.006 A 
ATOM      3  C4  UNL d   1       1.109   5.202   3.704  0.00  0.00     0.002 A 
ATOM      4  C5  UNL d   1       1.728   5.708   4.851  0.00  0.00    -0.080 A 
ATOM      5  C6  UNL d   1       3.200   5.998   4.871  0.00  0.00     0.076 C 
ATOM      6  C7  UNL d   1       0.955   5.942   5.994  0.00  0.00     0.002 A 
ATOM      7  C8  UNL d   1      -0.411   5.651   5.997  0.00  0.00     0.006 A 
ENDROOT
BRANCH   1   8
ATOM      8  C1  UNL d   1      -2.488   4.752   4.882  0.00  0.00     0.054 C 
ATOM      9  C   UNL d   1      -2.784   3.759   5.997  0.00  0.00     0.018 C 
ENDBRANCH   1   8
TORSDOF 1
ENDMDL
