MODEL 1
REMARK minimizedAffinity -2.91874766
REMARK minimizedRMSD -1
REMARK  1 active torsions:
REMARK  status: ('A' for Active; 'I' for Inactive)
REMARK    1  A    between atoms: C1_2  and  C2_3 
ROOT
ATOM      1  C2  UNL d   1      -3.046   3.287   5.026  0.00  0.00    -0.081 A 
ATOM      2  C3  UNL d   1      -2.978   4.358   4.126  0.00  0.00     0.006 A 
ATOM      3  C4  UNL d   1      -1.900   5.245   4.161  0.00  0.00     0.002 A 
ATOM      4  C5  UNL d   1      -0.868   5.072   5.090  0.00  0.00    -0.080 A 
ATOM      5  C6  UNL d   1       0.310   6.000   5.118  0.00  0.00     0.076 C 
ATOM      6  C7  UNL d   1      -0.944   4.013   6.000  0.00  0.00     0.002 A 
ATOM      7  C8  UNL d   1      -2.023   3.126   5.966  0.00  0.00     0.006 A 
ENDROOT
BRANCH   1   8
ATOM      8  C1  UNL d   1      -4.175   2.291   4.948  0.00  0.00     0.054 C 
ATOM      9  C   UNL d   1      -5.075   2.567   3.752  0.00  0.00     0.018 C 
ENDBRANCH   1   8
TORSDOF 1
ENDMDL
