MODEL 1
REMARK minimizedAffinity 4.02041149
REMARK minimizedRMSD -1
REMARK  1 active torsions:
REMARK  status: ('A' for Active; 'I' for Inactive)
REMARK    1  A    between atoms: C1_2  and  C2_3 
ROOT
ATOM      1  C2  UNL d   1      -2.600   0.477  -0.063  0.00  0.00    -0.081 A 
ATOM      2  C3  UNL d   1      -1.640   1.431  -0.420  0.00  0.00     0.006 A 
ATOM      3  C4  UNL d   1      -1.767   2.155  -1.608  0.00  0.00     0.002 A 
ATOM      4  C5  UNL d   1      -2.860   1.942  -2.455  0.00  0.00    -0.080 A 
ATOM      5  C6  UNL d   1      -3.024   2.733  -3.718  0.00  0.00     0.076 C 
ATOM      6  C7  UNL d   1      -3.811   0.976  -2.108  0.00  0.00     0.002 A 
ATOM      7  C8  UNL d   1      -3.683   0.252  -0.920  0.00  0.00     0.006 A 
ENDROOT
BRANCH   1   8
ATOM      8  C1  UNL d   1      -2.500  -0.259   1.248  0.00  0.00     0.054 C 
ATOM      9  C   UNL d   1      -1.146  -0.035   1.906  0.00  0.00     0.018 C 
ENDBRANCH   1   8
TORSDOF 1
ENDMDL
