MODEL 1
REMARK minimizedAffinity 2.73238087
REMARK minimizedRMSD -1
REMARK  1 active torsions:
REMARK  status: ('A' for Active; 'I' for Inactive)
REMARK    1  A    between atoms: C1_2  and  C2_3 
ROOT
ATOM      1  C2  UNL d   1       4.508  -3.703   1.569  0.00  0.00    -0.081 A 
ATOM      2  C3  UNL d   1       4.548  -2.318   1.773  0.00  0.00     0.006 A 
ATOM      3  C4  UNL d   1       3.394  -1.546   1.618  0.00  0.00     0.002 A 
ATOM      4  C5  UNL d   1       2.181  -2.146   1.264  0.00  0.00    -0.080 A 
ATOM      5  C6  UNL d   1       0.929  -1.333   1.123  0.00  0.00     0.076 C 
ATOM      6  C7  UNL d   1       2.145  -3.527   1.043  0.00  0.00     0.002 A 
ATOM      7  C8  UNL d   1       3.298  -4.299   1.197  0.00  0.00     0.006 A 
ENDROOT
BRANCH   1   8
ATOM      8  C1  UNL d   1       5.736  -4.547   1.799  0.00  0.00     0.054 C 
ATOM      9  C   UNL d   1       5.489  -5.999   1.413  0.00  0.00     0.018 C 
ENDBRANCH   1   8
TORSDOF 1
ENDMDL
