MODEL 1
REMARK minimizedAffinity -2.80135489
REMARK minimizedRMSD -1
REMARK  0 active torsions:
REMARK  status: ('A' for Active; 'I' for Inactive)
ROOT
ATOM      1  C   UNL d   1       0.397   1.852   0.120  0.00  0.00     0.020 A 
ATOM      2  C1  UNL d   1      -0.668   1.459  -0.690  0.00  0.00     0.020 A 
ATOM      3  C2  UNL d   1      -0.811   0.118  -1.054  0.00  0.00     0.034 A 
ATOM      4  C3  UNL d   1       0.112  -0.835  -0.607  0.00  0.00     0.017 A 
ATOM      5  C4  UNL d   1       1.180  -0.440   0.206  0.00  0.00     0.017 A 
ATOM      6  C5  UNL d   1       1.319   0.904   0.567  0.00  0.00     0.034 A 
ATOM      7 Cl   UNL d   1       2.358  -1.558   0.797  0.00  0.00    -0.070 Cl
ATOM      8 Cl1  UNL d   1      -0.127  -2.475  -1.095  0.00  0.00    -0.070 Cl
ENDROOT
TORSDOF 0
ENDMDL
