MODEL 1
REMARK minimizedAffinity -3.2873342
REMARK minimizedRMSD -1
REMARK  0 active torsions:
REMARK  status: ('A' for Active; 'I' for Inactive)
ROOT
ATOM      1  C   UNL d   1      -0.798   0.285  -0.744  0.00  0.00     0.020 A 
ATOM      2  C1  UNL d   1      -0.516  -1.075  -0.867  0.00  0.00     0.020 A 
ATOM      3  C2  UNL d   1       0.662  -1.595  -0.326  0.00  0.00     0.034 A 
ATOM      4  C3  UNL d   1       1.562  -0.756   0.340  0.00  0.00     0.017 A 
ATOM      5  C4  UNL d   1       1.278   0.609   0.463  0.00  0.00     0.017 A 
ATOM      6  C5  UNL d   1       0.097   1.125  -0.080  0.00  0.00     0.034 A 
ATOM      7 Cl   UNL d   1       2.340   1.708   1.271  0.00  0.00    -0.070 Cl
ATOM      8 Cl1  UNL d   1       2.999  -1.467   0.984  0.00  0.00    -0.070 Cl
ENDROOT
TORSDOF 0
ENDMDL
