MODEL 1
REMARK minimizedAffinity -1.02348542
REMARK minimizedRMSD -1
REMARK  0 active torsions:
REMARK  status: ('A' for Active; 'I' for Inactive)
ROOT
ATOM      1  C   UNL d   1       0.725   1.652  -0.190  0.00  0.00     0.020 A 
ATOM      2  C1  UNL d   1      -0.249   1.076  -1.003  0.00  0.00     0.020 A 
ATOM      3  C2  UNL d   1      -0.316  -0.313  -1.136  0.00  0.00     0.034 A 
ATOM      4  C3  UNL d   1       0.593  -1.130  -0.454  0.00  0.00     0.017 A 
ATOM      5  C4  UNL d   1       1.571  -0.550   0.363  0.00  0.00     0.017 A 
ATOM      6  C5  UNL d   1       1.633   0.841   0.492  0.00  0.00     0.034 A 
ATOM      7 Cl   UNL d   1       2.728  -1.492   1.236  0.00  0.00    -0.070 Cl
ATOM      8 Cl1  UNL d   1       0.452  -2.839  -0.663  0.00  0.00    -0.070 Cl
ENDROOT
TORSDOF 0
ENDMDL
