MODEL 1
REMARK minimizedAffinity -5.13651323
REMARK minimizedRMSD -1
REMARK  0 active torsions:
REMARK  status: ('A' for Active; 'I' for Inactive)
ROOT
ATOM      1  C   UNL d   1       3.067  -0.808   0.667  0.00  0.00     0.020 A 
ATOM      2  C1  UNL d   1       2.850   0.550   0.900  0.00  0.00     0.020 A 
ATOM      3  C2  UNL d   1       1.607   1.118   0.615  0.00  0.00     0.034 A 
ATOM      4  C3  UNL d   1       0.575   0.328   0.095  0.00  0.00     0.017 A 
ATOM      5  C4  UNL d   1       0.794  -1.035  -0.139  0.00  0.00     0.017 A 
ATOM      6  C5  UNL d   1       2.041  -1.598   0.148  0.00  0.00     0.034 A 
ATOM      7 Cl   UNL d   1      -0.431  -2.073  -0.780  0.00  0.00    -0.070 Cl
ATOM      8 Cl1  UNL d   1      -0.937   1.096  -0.234  0.00  0.00    -0.070 Cl
ENDROOT
TORSDOF 0
ENDMDL
