MODEL 1
REMARK minimizedAffinity 6.07396317
REMARK minimizedRMSD -1
REMARK  0 active torsions:
REMARK  status: ('A' for Active; 'I' for Inactive)
ROOT
ATOM      1  C   UNL d   1      -5.822   5.581  -2.014  0.00  0.00     0.077 C 
ATOM      2  C1  UNL d   1      -4.997   4.414  -2.470  0.00  0.00    -0.074 A 
ATOM      3  C2  UNL d   1      -4.835   4.136  -3.831  0.00  0.00    -0.005 A 
ATOM      4  C3  UNL d   1      -4.057   3.053  -4.240  0.00  0.00     0.006 A 
ATOM      5  C4  UNL d   1      -3.435   2.238  -3.294  0.00  0.00    -0.005 A 
ATOM      6  C5  UNL d   1      -3.584   2.501  -1.929  0.00  0.00    -0.074 A 
ATOM      7  C6  UNL d   1      -2.914   1.640  -0.899  0.00  0.00     0.077 C 
ATOM      8  C7  UNL d   1      -4.362   3.595  -1.526  0.00  0.00    -0.001 A 
ENDROOT
TORSDOF 0
ENDMDL
