MODEL 1
REMARK minimizedAffinity 4.40943813
REMARK minimizedRMSD -1
REMARK  0 active torsions:
REMARK  status: ('A' for Active; 'I' for Inactive)
ROOT
ATOM      1  C   UNL d   1       2.089   0.324   2.695  0.00  0.00     0.077 C 
ATOM      2  C1  UNL d   1       2.100  -1.155   2.948  0.00  0.00    -0.074 A 
ATOM      3  C2  UNL d   1       2.518  -2.050   1.958  0.00  0.00    -0.005 A 
ATOM      4  C3  UNL d   1       2.533  -3.421   2.211  0.00  0.00     0.006 A 
ATOM      5  C4  UNL d   1       2.131  -3.911   3.454  0.00  0.00    -0.005 A 
ATOM      6  C5  UNL d   1       1.710  -3.031   4.456  0.00  0.00    -0.074 A 
ATOM      7  C6  UNL d   1       1.284  -3.540   5.801  0.00  0.00     0.077 C 
ATOM      8  C7  UNL d   1       1.705  -1.654   4.197  0.00  0.00    -0.001 A 
ENDROOT
TORSDOF 0
ENDMDL
