MODEL 1
REMARK minimizedAffinity -3.45301199
REMARK minimizedRMSD -1
REMARK  0 active torsions:
REMARK  status: ('A' for Active; 'I' for Inactive)
ROOT
ATOM      1  C   UNL d   1       1.620  -0.493   4.517  0.00  0.00     0.077 C 
ATOM      2  C1  UNL d   1       1.800  -1.601   3.522  0.00  0.00    -0.074 A 
ATOM      3  C2  UNL d   1       2.348  -2.829   3.906  0.00  0.00    -0.005 A 
ATOM      4  C3  UNL d   1       2.501  -3.854   2.972  0.00  0.00     0.006 A 
ATOM      5  C4  UNL d   1       2.108  -3.661   1.647  0.00  0.00    -0.005 A 
ATOM      6  C5  UNL d   1       1.557  -2.440   1.245  0.00  0.00    -0.074 A 
ATOM      7  C6  UNL d   1       1.120  -2.219  -0.173  0.00  0.00     0.077 C 
ATOM      8  C7  UNL d   1       1.401  -1.417   2.191  0.00  0.00    -0.001 A 
ENDROOT
TORSDOF 0
ENDMDL
