MODEL 1
REMARK minimizedAffinity 9.45394993
REMARK minimizedRMSD -1
REMARK  0 active torsions:
REMARK  status: ('A' for Active; 'I' for Inactive)
ROOT
ATOM      1  C   UNL d   1       2.305  -0.509   3.145  0.00  0.00     0.077 C 
ATOM      2  C1  UNL d   1       1.407  -0.810   1.982  0.00  0.00    -0.074 A 
ATOM      3  C2  UNL d   1       0.019  -0.687   2.094  0.00  0.00    -0.005 A 
ATOM      4  C3  UNL d   1      -0.803  -0.962   1.001  0.00  0.00     0.006 A 
ATOM      5  C4  UNL d   1      -0.245  -1.361  -0.214  0.00  0.00    -0.005 A 
ATOM      6  C5  UNL d   1       1.142  -1.489  -0.346  0.00  0.00    -0.074 A 
ATOM      7  C6  UNL d   1       1.758  -1.907  -1.648  0.00  0.00     0.077 C 
ATOM      8  C7  UNL d   1       1.961  -1.204   0.755  0.00  0.00    -0.001 A 
ENDROOT
TORSDOF 0
ENDMDL
