MODEL 1
REMARK minimizedAffinity 2.07469773
REMARK minimizedRMSD -1
REMARK  0 active torsions:
REMARK  status: ('A' for Active; 'I' for Inactive)
ROOT
ATOM      1  C   UNL d   1      -5.996  -1.866  -4.630  0.00  0.00     0.077 C 
ATOM      2  C1  UNL d   1      -5.876  -0.448  -4.157  0.00  0.00    -0.074 A 
ATOM      3  C2  UNL d   1      -6.000  -0.130  -2.801  0.00  0.00    -0.005 A 
ATOM      4  C3  UNL d   1      -5.877   1.193  -2.375  0.00  0.00     0.006 A 
ATOM      5  C4  UNL d   1      -5.630   2.209  -3.299  0.00  0.00    -0.005 A 
ATOM      6  C5  UNL d   1      -5.502   1.909  -4.659  0.00  0.00    -0.074 A 
ATOM      7  C6  UNL d   1      -5.227   2.988  -5.665  0.00  0.00     0.077 C 
ATOM      8  C7  UNL d   1      -5.620   0.577  -5.079  0.00  0.00    -0.001 A 
ENDROOT
TORSDOF 0
ENDMDL
