MODEL 1
REMARK minimizedAffinity -0.691389024
REMARK minimizedRMSD -1
REMARK  0 active torsions:
REMARK  status: ('A' for Active; 'I' for Inactive)
ROOT
ATOM      1  C   UNL d   1       2.451  -1.254   0.886  0.00  0.00     0.077 C 
ATOM      2  C1  UNL d   1       2.329  -1.543   2.353  0.00  0.00    -0.074 A 
ATOM      3  C2  UNL d   1       1.549  -0.732   3.183  0.00  0.00    -0.005 A 
ATOM      4  C3  UNL d   1       1.437  -1.019   4.543  0.00  0.00     0.006 A 
ATOM      5  C4  UNL d   1       2.103  -2.118   5.087  0.00  0.00    -0.005 A 
ATOM      6  C5  UNL d   1       2.887  -2.941   4.272  0.00  0.00    -0.074 A 
ATOM      7  C6  UNL d   1       3.601  -4.132   4.838  0.00  0.00     0.077 C 
ATOM      8  C7  UNL d   1       2.989  -2.650   2.905  0.00  0.00    -0.001 A 
ENDROOT
TORSDOF 0
ENDMDL
