MODEL 1
REMARK minimizedAffinity 4.07926464
REMARK minimizedRMSD -1
REMARK  0 active torsions:
REMARK  status: ('A' for Active; 'I' for Inactive)
ROOT
ATOM      1  C   UNL d   1      -5.925   1.209  -1.700  0.00  0.00     0.077 C 
ATOM      2  C1  UNL d   1      -5.958   1.177  -3.199  0.00  0.00    -0.074 A 
ATOM      3  C2  UNL d   1      -5.963   2.362  -3.943  0.00  0.00    -0.005 A 
ATOM      4  C3  UNL d   1      -5.984   2.316  -5.337  0.00  0.00     0.006 A 
ATOM      5  C4  UNL d   1      -6.000   1.089  -6.000  0.00  0.00    -0.005 A 
ATOM      6  C5  UNL d   1      -5.993  -0.106  -5.273  0.00  0.00    -0.074 A 
ATOM      7  C6  UNL d   1      -6.000  -1.434  -5.970  0.00  0.00     0.077 C 
ATOM      8  C7  UNL d   1      -5.965  -0.052  -3.872  0.00  0.00    -0.001 A 
ENDROOT
TORSDOF 0
ENDMDL
