MODEL 1
REMARK minimizedAffinity -6.67418146
REMARK minimizedRMSD -1
REMARK  0 active torsions:
REMARK  status: ('A' for Active; 'I' for Inactive)
ROOT
ATOM      1  C1  DEN d   1      -1.010   3.240  -0.133  0.00  0.00     0.130 A 
ATOM      2  C2  DEN d   1      -2.035   3.259   0.908  0.00  0.00    -0.031 A 
ATOM      3  C3  DEN d   1      -2.061   1.928   1.547  0.00  0.00     0.027 A 
ATOM      4  C4  DEN d   1      -0.618  -0.147   1.034  0.00  0.00     0.027 A 
ATOM      5  C5  DEN d   1       0.379  -0.650   0.227  0.00  0.00    -0.003 A 
ATOM      6  C6  DEN d   1       0.955   0.092  -0.770  0.00  0.00     0.001 A 
ATOM      7  C7  DEN d   1       0.569   1.393  -0.957  0.00  0.00     0.017 A 
ATOM      8  C8  DEN d   1      -0.441   1.904  -0.153  0.00  0.00    -0.094 A 
ATOM      9  C9  DEN d   1      -1.002   1.142   0.858  0.00  0.00    -0.072 A 
ENDROOT
TORSDOF 0
ENDMDL
