MODEL 1
REMARK minimizedAffinity -4.91519165
REMARK minimizedRMSD -1
REMARK  0 active torsions:
REMARK  status: ('A' for Active; 'I' for Inactive)
ROOT
ATOM      1  C1  DEN d   1       0.481   0.220  -1.529  0.00  0.00     0.130 A 
ATOM      2  C2  DEN d   1       1.090  -1.102  -1.404  0.00  0.00    -0.031 A 
ATOM      3  C3  DEN d   1       0.817  -1.603  -0.042  0.00  0.00     0.027 A 
ATOM      4  C4  DEN d   1      -0.487  -0.470   1.873  0.00  0.00     0.027 A 
ATOM      5  C5  DEN d   1      -1.179   0.661   2.244  0.00  0.00    -0.003 A 
ATOM      6  C6  DEN d   1      -1.336   1.730   1.402  0.00  0.00     0.001 A 
ATOM      7  C7  DEN d   1      -0.832   1.672   0.130  0.00  0.00     0.017 A 
ATOM      8  C8  DEN d   1      -0.126   0.537  -0.249  0.00  0.00    -0.094 A 
ATOM      9  C9  DEN d   1       0.011  -0.538   0.612  0.00  0.00    -0.072 A 
ENDROOT
TORSDOF 0
ENDMDL
