MODEL 1
REMARK minimizedAffinity -3.41995382
REMARK minimizedRMSD -1
REMARK  0 active torsions:
REMARK  status: ('A' for Active; 'I' for Inactive)
ROOT
ATOM      1  C1  DEN d   1       1.253  -0.870  -0.219  0.00  0.00     0.130 A 
ATOM      2  C2  DEN d   1       1.594   0.165  -1.190  0.00  0.00    -0.031 A 
ATOM      3  C3  DEN d   1       0.681   1.307  -0.980  0.00  0.00     0.027 A 
ATOM      4  C4  DEN d   1      -1.215   1.571   0.749  0.00  0.00     0.027 A 
ATOM      5  C5  DEN d   1      -1.889   0.953   1.779  0.00  0.00    -0.003 A 
ATOM      6  C6  DEN d   1      -1.588  -0.319   2.189  0.00  0.00     0.001 A 
ATOM      7  C7  DEN d   1      -0.556  -0.997   1.596  0.00  0.00     0.017 A 
ATOM      8  C8  DEN d   1       0.123  -0.383   0.552  0.00  0.00    -0.094 A 
ATOM      9  C9  DEN d   1      -0.188   0.908   0.160  0.00  0.00    -0.072 A 
ENDROOT
TORSDOF 0
ENDMDL
