MODEL 1
REMARK minimizedAffinity -3.29880953
REMARK minimizedRMSD -1
REMARK  0 active torsions:
REMARK  status: ('A' for Active; 'I' for Inactive)
ROOT
ATOM      1  C1  DEN d   1      -1.405   0.009   1.552  0.00  0.00     0.130 A 
ATOM      2  C2  DEN d   1      -2.114   1.285   1.587  0.00  0.00    -0.031 A 
ATOM      3  C3  DEN d   1      -1.595   2.125   0.489  0.00  0.00     0.027 A 
ATOM      4  C4  DEN d   1       0.223   1.575  -1.256  0.00  0.00     0.027 A 
ATOM      5  C5  DEN d   1       1.119   0.619  -1.680  0.00  0.00    -0.003 A 
ATOM      6  C6  DEN d   1       1.260  -0.584  -1.041  0.00  0.00     0.001 A 
ATOM      7  C7  DEN d   1       0.460  -0.881   0.030  0.00  0.00     0.017 A 
ATOM      8  C8  DEN d   1      -0.441   0.080   0.468  0.00  0.00    -0.094 A 
ATOM      9  C9  DEN d   1      -0.577   1.286  -0.198  0.00  0.00    -0.072 A 
ENDROOT
TORSDOF 0
ENDMDL
