MODEL 1
REMARK minimizedAffinity -2.87572742
REMARK minimizedRMSD -1
REMARK  0 active torsions:
REMARK  status: ('A' for Active; 'I' for Inactive)
ROOT
ATOM      1  C1  DEN d   1      -1.419   1.864  -0.176  0.00  0.00     0.130 A 
ATOM      2  C2  DEN d   1      -1.867   2.087   1.196  0.00  0.00    -0.031 A 
ATOM      3  C3  DEN d   1      -1.326   1.000   2.035  0.00  0.00     0.027 A 
ATOM      4  C4  DEN d   1       0.158  -0.995   1.348  0.00  0.00     0.027 A 
ATOM      5  C5  DEN d   1       0.788  -1.614   0.291  0.00  0.00    -0.003 A 
ATOM      6  C6  DEN d   1       0.699  -1.140  -0.991  0.00  0.00     0.001 A 
ATOM      7  C7  DEN d   1       0.000   0.011  -1.242  0.00  0.00     0.017 A 
ATOM      8  C8  DEN d   1      -0.643   0.637  -0.182  0.00  0.00    -0.094 A 
ATOM      9  C9  DEN d   1      -0.531   0.149   1.109  0.00  0.00    -0.072 A 
ENDROOT
TORSDOF 0
ENDMDL
