MODEL 1
REMARK minimizedAffinity -5.35463381
REMARK minimizedRMSD -1
REMARK  0 active torsions:
REMARK  status: ('A' for Active; 'I' for Inactive)
ROOT
ATOM      1  C1  DEN d   1      -1.326   2.527  -0.204  0.00  0.00     0.130 A 
ATOM      2  C2  DEN d   1      -2.149   2.510   1.002  0.00  0.00    -0.031 A 
ATOM      3  C3  DEN d   1      -1.785   1.312   1.786  0.00  0.00     0.027 A 
ATOM      4  C4  DEN d   1      -0.033  -0.504   1.254  0.00  0.00     0.027 A 
ATOM      5  C5  DEN d   1       0.906  -0.924   0.337  0.00  0.00    -0.003 A 
ATOM      6  C6  DEN d   1       1.140  -0.247  -0.831  0.00  0.00     0.001 A 
ATOM      7  C7  DEN d   1       0.458   0.912  -1.092  0.00  0.00     0.017 A 
ATOM      8  C8  DEN d   1      -0.495   1.338  -0.176  0.00  0.00    -0.094 A 
ATOM      9  C9  DEN d   1      -0.708   0.646   1.005  0.00  0.00    -0.072 A 
ENDROOT
TORSDOF 0
ENDMDL
