MODEL 1
REMARK minimizedAffinity -3.42585897
REMARK minimizedRMSD -1
REMARK  0 active torsions:
REMARK  status: ('A' for Active; 'I' for Inactive)
ROOT
ATOM      1  C1  DEN d   1      -1.719   1.738  -0.057  0.00  0.00     0.130 A 
ATOM      2  C2  DEN d   1      -2.122   1.961   1.329  0.00  0.00    -0.031 A 
ATOM      3  C3  DEN d   1      -1.367   1.021   2.181  0.00  0.00     0.027 A 
ATOM      4  C4  DEN d   1       0.380  -0.748   1.493  0.00  0.00     0.027 A 
ATOM      5  C5  DEN d   1       1.043  -1.316   0.428  0.00  0.00    -0.003 A 
ATOM      6  C6  DEN d   1       0.809  -0.933  -0.866  0.00  0.00     0.001 A 
ATOM      7  C7  DEN d   1      -0.079   0.078  -1.125  0.00  0.00     0.017 A 
ATOM      8  C8  DEN d   1      -0.757   0.651  -0.056  0.00  0.00    -0.094 A 
ATOM      9  C9  DEN d   1      -0.497   0.258   1.246  0.00  0.00    -0.072 A 
ENDROOT
TORSDOF 0
ENDMDL
