MODEL 1
REMARK minimizedAffinity -5.99134684
REMARK minimizedRMSD -1
REMARK  0 active torsions:
REMARK  status: ('A' for Active; 'I' for Inactive)
ROOT
ATOM      1  C1  DEN d   1      -1.585   2.339   1.410  0.00  0.00     0.130 A 
ATOM      2  C2  DEN d   1      -1.602   2.720   0.000  0.00  0.00    -0.031 A 
ATOM      3  C3  DEN d   1      -0.909   1.665  -0.766  0.00  0.00     0.027 A 
ATOM      4  C4  DEN d   1       0.178  -0.513   0.089  0.00  0.00     0.027 A 
ATOM      5  C5  DEN d   1       0.454  -1.265   1.209  0.00  0.00    -0.003 A 
ATOM      6  C6  DEN d   1       0.103  -0.856   2.468  0.00  0.00     0.001 A 
ATOM      7  C7  DEN d   1      -0.586   0.317   2.633  0.00  0.00     0.017 A 
ATOM      8  C8  DEN d   1      -0.861   1.085   1.509  0.00  0.00    -0.094 A 
ATOM      9  C9  DEN d   1      -0.508   0.648   0.244  0.00  0.00    -0.072 A 
ENDROOT
TORSDOF 0
ENDMDL
