MODEL 1
REMARK minimizedAffinity -6.65481949
REMARK minimizedRMSD -1
REMARK  0 active torsions:
REMARK  status: ('A' for Active; 'I' for Inactive)
ROOT
ATOM      1  C1  DEN d   1       0.647  -0.408   0.448  0.00  0.00     0.130 A 
ATOM      2  C2  DEN d   1       1.704  -0.133  -0.522  0.00  0.00    -0.031 A 
ATOM      3  C3  DEN d   1       1.508   1.237  -1.036  0.00  0.00     0.027 A 
ATOM      4  C4  DEN d   1      -0.317   2.954  -0.423  0.00  0.00     0.027 A 
ATOM      5  C5  DEN d   1      -1.440   3.173   0.344  0.00  0.00    -0.003 A 
ATOM      6  C6  DEN d   1      -1.962   2.210   1.167  0.00  0.00     0.001 A 
ATOM      7  C7  DEN d   1      -1.333   0.998   1.276  0.00  0.00     0.017 A 
ATOM      8  C8  DEN d   1      -0.205   0.767   0.501  0.00  0.00    -0.094 A 
ATOM      9  C9  DEN d   1       0.314   1.757  -0.316  0.00  0.00    -0.072 A 
ENDROOT
TORSDOF 0
ENDMDL
