MODEL 1
REMARK minimizedAffinity -4.68652534
REMARK minimizedRMSD -1
REMARK  0 active torsions:
REMARK  status: ('A' for Active; 'I' for Inactive)
ROOT
ATOM      1  C1  DEN d   1      -1.282   1.953  -0.274  0.00  0.00     0.130 A 
ATOM      2  C2  DEN d   1      -1.781   2.354   1.038  0.00  0.00    -0.031 A 
ATOM      3  C3  DEN d   1      -1.332   1.350   2.024  0.00  0.00     0.027 A 
ATOM      4  C4  DEN d   1       0.085  -0.772   1.648  0.00  0.00     0.027 A 
ATOM      5  C5  DEN d   1       0.732  -1.537   0.703  0.00  0.00    -0.003 A 
ATOM      6  C6  DEN d   1       0.725  -1.213  -0.628  0.00  0.00     0.001 A 
ATOM      7  C7  DEN d   1       0.095  -0.071  -1.045  0.00  0.00     0.017 A 
ATOM      8  C8  DEN d   1      -0.566   0.702  -0.099  0.00  0.00    -0.094 A 
ATOM      9  C9  DEN d   1      -0.537   0.364   1.243  0.00  0.00    -0.072 A 
ENDROOT
TORSDOF 0
ENDMDL
