MODEL 1
REMARK minimizedAffinity -6.77222061
REMARK minimizedRMSD -1
REMARK  0 active torsions:
REMARK  status: ('A' for Active; 'I' for Inactive)
ROOT
ATOM      1  C1  DEN d   1       1.134   0.594  -0.581  0.00  0.00     0.130 A 
ATOM      2  C2  DEN d   1       0.706  -0.530   0.248  0.00  0.00    -0.031 A 
ATOM      3  C3  DEN d   1      -0.400  -0.066   1.110  0.00  0.00     0.027 A 
ATOM      4  C4  DEN d   1      -1.490   2.268   1.236  0.00  0.00     0.027 A 
ATOM      5  C5  DEN d   1      -1.458   3.550   0.734  0.00  0.00    -0.003 A 
ATOM      6  C6  DEN d   1      -0.546   3.943  -0.210  0.00  0.00     0.001 A 
ATOM      7  C7  DEN d   1       0.344   3.031  -0.714  0.00  0.00     0.017 A 
ATOM      8  C8  DEN d   1       0.323   1.739  -0.207  0.00  0.00    -0.094 A 
ATOM      9  C9  DEN d   1      -0.615   1.358   0.738  0.00  0.00    -0.072 A 
ENDROOT
TORSDOF 0
ENDMDL
