MODEL 1
REMARK minimizedAffinity -6.56624746
REMARK minimizedRMSD -1
REMARK  0 active torsions:
REMARK  status: ('A' for Active; 'I' for Inactive)
ROOT
ATOM      1  C1  DEN d   1       1.162   0.863  -1.696  0.00  0.00     0.130 A 
ATOM      2  C2  DEN d   1       0.349  -0.343  -1.560  0.00  0.00    -0.031 A 
ATOM      3  C3  DEN d   1      -1.067   0.069  -1.472  0.00  0.00     0.027 A 
ATOM      4  C4  DEN d   1      -2.074   2.443  -1.539  0.00  0.00     0.027 A 
ATOM      5  C5  DEN d   1      -1.778   3.785  -1.632  0.00  0.00    -0.003 A 
ATOM      6  C6  DEN d   1      -0.491   4.245  -1.718  0.00  0.00     0.001 A 
ATOM      7  C7  DEN d   1       0.547   3.353  -1.758  0.00  0.00     0.017 A 
ATOM      8  C8  DEN d   1       0.258   1.999  -1.657  0.00  0.00    -0.094 A 
ATOM      9  C9  DEN d   1      -1.050   1.552  -1.584  0.00  0.00    -0.072 A 
ENDROOT
TORSDOF 0
ENDMDL
