MODEL 1
REMARK minimizedAffinity -2.31870914
REMARK minimizedRMSD -1
REMARK  0 active torsions:
REMARK  status: ('A' for Active; 'I' for Inactive)
ROOT
ATOM      1  C1  DEN d   1       0.993   0.376  -0.491  0.00  0.00     0.130 A 
ATOM      2  C2  DEN d   1       1.978  -0.079   0.487  0.00  0.00    -0.031 A 
ATOM      3  C3  DEN d   1       1.276  -0.901   1.493  0.00  0.00     0.027 A 
ATOM      4  C4  DEN d   1      -1.226  -1.514   1.629  0.00  0.00     0.027 A 
ATOM      5  C5  DEN d   1      -2.455  -1.351   1.030  0.00  0.00    -0.003 A 
ATOM      6  C6  DEN d   1      -2.626  -0.580  -0.089  0.00  0.00     0.001 A 
ATOM      7  C7  DEN d   1      -1.542   0.022  -0.671  0.00  0.00     0.017 A 
ATOM      8  C8  DEN d   1      -0.300  -0.132  -0.069  0.00  0.00    -0.094 A 
ATOM      9  C9  DEN d   1      -0.146  -0.926   1.055  0.00  0.00    -0.072 A 
ENDROOT
TORSDOF 0
ENDMDL
