MODEL 1
REMARK minimizedAffinity -2.97189856
REMARK minimizedRMSD -1
REMARK  0 active torsions:
REMARK  status: ('A' for Active; 'I' for Inactive)
ROOT
ATOM      1  C1  DEN d   1      -0.953  -2.254   2.151  0.00  0.00     0.130 A 
ATOM      2  C2  DEN d   1       0.491  -2.035   2.143  0.00  0.00    -0.031 A 
ATOM      3  C3  DEN d   1       0.818  -1.184   0.982  0.00  0.00     0.027 A 
ATOM      4  C4  DEN d   1      -0.764  -0.184  -0.793  0.00  0.00     0.027 A 
ATOM      5  C5  DEN d   1      -2.074  -0.102  -1.211  0.00  0.00    -0.003 A 
ATOM      6  C6  DEN d   1      -3.089  -0.754  -0.563  0.00  0.00     0.001 A 
ATOM      7  C7  DEN d   1      -2.817  -1.481   0.566  0.00  0.00     0.017 A 
ATOM      8  C8  DEN d   1      -1.498  -1.574   0.989  0.00  0.00    -0.094 A 
ATOM      9  C9  DEN d   1      -0.487  -0.898   0.327  0.00  0.00    -0.072 A 
ENDROOT
TORSDOF 0
ENDMDL
