MODEL 1
REMARK minimizedAffinity -4.02586889
REMARK minimizedRMSD -1
REMARK  0 active torsions:
REMARK  status: ('A' for Active; 'I' for Inactive)
ROOT
ATOM      1  C1  DEN d   1       0.716   2.929   1.256  0.00  0.00     0.130 A 
ATOM      2  C2  DEN d   1       2.136   2.997   1.589  0.00  0.00    -0.031 A 
ATOM      3  C3  DEN d   1       2.679   1.624   1.555  0.00  0.00     0.027 A 
ATOM      4  C4  DEN d   1       1.465  -0.588   1.018  0.00  0.00     0.027 A 
ATOM      5  C5  DEN d   1       0.253  -1.151   0.687  0.00  0.00    -0.003 A 
ATOM      6  C6  DEN d   1      -0.888  -0.405   0.557  0.00  0.00     0.001 A 
ATOM      7  C7  DEN d   1      -0.831   0.955   0.715  0.00  0.00     0.017 A 
ATOM      8  C8  DEN d   1       0.386   1.529   1.056  0.00  0.00    -0.094 A 
ATOM      9  C9  DEN d   1       1.531   0.759   1.171  0.00  0.00    -0.072 A 
ENDROOT
TORSDOF 0
ENDMDL
