MODEL 1
REMARK minimizedAffinity -4.99845171
REMARK minimizedRMSD -1
REMARK  0 active torsions:
REMARK  status: ('A' for Active; 'I' for Inactive)
ROOT
ATOM      1  C1  DEN d   1      -2.541  -0.728  -1.856  0.00  0.00     0.130 A 
ATOM      2  C2  DEN d   1      -3.341  -0.796  -0.637  0.00  0.00    -0.031 A 
ATOM      3  C3  DEN d   1      -2.428  -0.657   0.516  0.00  0.00     0.027 A 
ATOM      4  C4  DEN d   1       0.131  -0.339   0.530  0.00  0.00     0.027 A 
ATOM      5  C5  DEN d   1       1.253  -0.232  -0.261  0.00  0.00    -0.003 A 
ATOM      6  C6  DEN d   1       1.194  -0.316  -1.627  0.00  0.00     0.001 A 
ATOM      7  C7  DEN d   1      -0.018  -0.468  -2.246  0.00  0.00     0.017 A 
ATOM      8  C8  DEN d   1      -1.153  -0.584  -1.454  0.00  0.00    -0.094 A 
ATOM      9  C9  DEN d   1      -1.074  -0.484  -0.076  0.00  0.00    -0.072 A 
ENDROOT
TORSDOF 0
ENDMDL
