MODEL 1
REMARK minimizedAffinity -4.04865837
REMARK minimizedRMSD -1
REMARK  0 active torsions:
REMARK  status: ('A' for Active; 'I' for Inactive)
ROOT
ATOM      1  C1  DEN d   1       1.054  -0.241  -0.148  0.00  0.00     0.130 A 
ATOM      2  C2  DEN d   1       1.220  -0.012  -1.580  0.00  0.00    -0.031 A 
ATOM      3  C3  DEN d   1      -0.110  -0.113  -2.215  0.00  0.00     0.027 A 
ATOM      4  C4  DEN d   1      -2.396  -0.596  -1.124  0.00  0.00     0.027 A 
ATOM      5  C5  DEN d   1      -3.038  -0.870   0.064  0.00  0.00    -0.003 A 
ATOM      6  C6  DEN d   1      -2.362  -0.987   1.249  0.00  0.00     0.001 A 
ATOM      7  C7  DEN d   1      -1.007  -0.784   1.280  0.00  0.00     0.017 A 
ATOM      8  C8  DEN d   1      -0.352  -0.514   0.086  0.00  0.00    -0.094 A 
ATOM      9  C9  DEN d   1      -1.056  -0.388  -1.100  0.00  0.00    -0.072 A 
ENDROOT
TORSDOF 0
ENDMDL
