MODEL 1
REMARK minimizedAffinity -5.87851763
REMARK minimizedRMSD -1
REMARK  0 active torsions:
REMARK  status: ('A' for Active; 'I' for Inactive)
ROOT
ATOM      1  C1  DEN d   1      -0.642   1.500  -4.614  0.00  0.00     0.130 A 
ATOM      2  C2  DEN d   1      -0.129   1.408  -5.978  0.00  0.00    -0.031 A 
ATOM      3  C3  DEN d   1       1.065   0.539  -5.959  0.00  0.00     0.027 A 
ATOM      4  C4  DEN d   1       2.161  -0.669  -3.961  0.00  0.00     0.027 A 
ATOM      5  C5  DEN d   1       2.091  -0.882  -2.602  0.00  0.00    -0.003 A 
ATOM      6  C6  DEN d   1       1.133  -0.293  -1.820  0.00  0.00     0.001 A 
ATOM      7  C7  DEN d   1       0.179   0.502  -2.398  0.00  0.00     0.017 A 
ATOM      8  C8  DEN d   1       0.248   0.727  -3.766  0.00  0.00    -0.094 A 
ATOM      9  C9  DEN d   1       1.216   0.113  -4.542  0.00  0.00    -0.072 A 
ENDROOT
TORSDOF 0
ENDMDL
