MODEL 1
REMARK minimizedAffinity -2.78289866
REMARK minimizedRMSD -1
REMARK  0 active torsions:
REMARK  status: ('A' for Active; 'I' for Inactive)
ROOT
ATOM      1  C1  DEN d   1       3.496   3.424   0.617  0.00  0.00     0.130 A 
ATOM      2  C2  DEN d   1       2.718   3.504   1.850  0.00  0.00    -0.031 A 
ATOM      3  C3  DEN d   1       1.914   2.271   1.964  0.00  0.00     0.027 A 
ATOM      4  C4  DEN d   1       1.801   0.253   0.362  0.00  0.00     0.027 A 
ATOM      5  C5  DEN d   1       2.273  -0.266  -0.824  0.00  0.00    -0.003 A 
ATOM      6  C6  DEN d   1       3.151   0.417  -1.622  0.00  0.00     0.001 A 
ATOM      7  C7  DEN d   1       3.622   1.640  -1.223  0.00  0.00     0.017 A 
ATOM      8  C8  DEN d   1       3.145   2.174  -0.033  0.00  0.00    -0.094 A 
ATOM      9  C9  DEN d   1       2.267   1.462   0.767  0.00  0.00    -0.072 A 
ENDROOT
TORSDOF 0
ENDMDL
