MODEL 1
REMARK minimizedAffinity -0.24127008
REMARK minimizedRMSD -1
REMARK  0 active torsions:
REMARK  status: ('A' for Active; 'I' for Inactive)
ROOT
ATOM      1  C1  DEN d   1       3.288  -0.977  -2.668  0.00  0.00     0.130 A 
ATOM      2  C2  DEN d   1       2.874  -0.881  -4.065  0.00  0.00    -0.031 A 
ATOM      3  C3  DEN d   1       1.466  -0.435  -4.095  0.00  0.00     0.027 A 
ATOM      4  C4  DEN d   1      -0.102   0.117  -2.123  0.00  0.00     0.027 A 
ATOM      5  C5  DEN d   1      -0.203   0.172  -0.750  0.00  0.00    -0.003 A 
ATOM      6  C6  DEN d   1       0.833  -0.182   0.073  0.00  0.00     0.001 A 
ATOM      7  C7  DEN d   1       2.031  -0.564  -0.470  0.00  0.00     0.017 A 
ATOM      8  C8  DEN d   1       2.138  -0.629  -1.853  0.00  0.00    -0.094 A 
ATOM      9  C9  DEN d   1       1.083  -0.255  -2.668  0.00  0.00    -0.072 A 
ENDROOT
TORSDOF 0
ENDMDL
