MODEL 1
REMARK minimizedAffinity -5.61746502
REMARK minimizedRMSD -1
REMARK  0 active torsions:
REMARK  status: ('A' for Active; 'I' for Inactive)
ROOT
ATOM      1  C1  DEN d   1      -2.111  -0.281  -0.975  0.00  0.00     0.130 A 
ATOM      2  C2  DEN d   1      -2.342  -0.547   0.442  0.00  0.00    -0.031 A 
ATOM      3  C3  DEN d   1      -1.029  -0.594   1.118  0.00  0.00     0.027 A 
ATOM      4  C4  DEN d   1       1.325  -0.276   0.113  0.00  0.00     0.027 A 
ATOM      5  C5  DEN d   1       2.027  -0.040  -1.048  0.00  0.00    -0.003 A 
ATOM      6  C6  DEN d   1       1.407   0.097  -2.261  0.00  0.00     0.001 A 
ATOM      7  C7  DEN d   1       0.040   0.045  -2.335  0.00  0.00     0.017 A 
ATOM      8  C8  DEN d   1      -0.674  -0.200  -1.170  0.00  0.00    -0.094 A 
ATOM      9  C9  DEN d   1      -0.030  -0.324   0.049  0.00  0.00    -0.072 A 
ENDROOT
TORSDOF 0
ENDMDL
