MODEL 1
REMARK minimizedAffinity -4.35446501
REMARK minimizedRMSD -1
REMARK  0 active torsions:
REMARK  status: ('A' for Active; 'I' for Inactive)
ROOT
ATOM      1  C1  DEN d   1       0.700  -0.042   0.247  0.00  0.00     0.130 A 
ATOM      2  C2  DEN d   1       1.254   0.087  -1.098  0.00  0.00    -0.031 A 
ATOM      3  C3  DEN d   1       0.181  -0.217  -2.066  0.00  0.00     0.027 A 
ATOM      4  C4  DEN d   1      -2.274  -0.865  -1.615  0.00  0.00     0.027 A 
ATOM      5  C5  DEN d   1      -3.208  -1.113  -0.633  0.00  0.00    -0.003 A 
ATOM      6  C6  DEN d   1      -2.898  -1.055   0.700  0.00  0.00     0.001 A 
ATOM      7  C7  DEN d   1      -1.634  -0.697   1.088  0.00  0.00     0.017 A 
ATOM      8  C8  DEN d   1      -0.686  -0.453   0.104  0.00  0.00    -0.094 A 
ATOM      9  C9  DEN d   1      -1.021  -0.505  -1.238  0.00  0.00    -0.072 A 
ENDROOT
TORSDOF 0
ENDMDL
