MODEL 1
REMARK minimizedAffinity -3.59773397
REMARK minimizedRMSD -1
REMARK  0 active torsions:
REMARK  status: ('A' for Active; 'I' for Inactive)
ROOT
ATOM      1  C1  DEN d   1      -0.130   0.336  -0.509  0.00  0.00     0.130 A 
ATOM      2  C2  DEN d   1       1.027   0.302   0.381  0.00  0.00    -0.031 A 
ATOM      3  C3  DEN d   1       0.750  -0.676   1.452  0.00  0.00     0.027 A 
ATOM      4  C4  DEN d   1      -1.345  -2.135   1.816  0.00  0.00     0.027 A 
ATOM      5  C5  DEN d   1      -2.595  -2.446   1.328  0.00  0.00    -0.003 A 
ATOM      6  C6  DEN d   1      -3.121  -1.831   0.223  0.00  0.00     0.001 A 
ATOM      7  C7  DEN d   1      -2.375  -0.906  -0.459  0.00  0.00     0.017 A 
ATOM      8  C8  DEN d   1      -1.117  -0.582   0.031  0.00  0.00    -0.094 A 
ATOM      9  C9  DEN d   1      -0.598  -1.223   1.143  0.00  0.00    -0.072 A 
ENDROOT
TORSDOF 0
ENDMDL
