MODEL 1
REMARK minimizedAffinity 0.119243704
REMARK minimizedRMSD -1
REMARK  0 active torsions:
REMARK  status: ('A' for Active; 'I' for Inactive)
ROOT
ATOM      1  C1  DEN d   1       1.597  -0.284   1.119  0.00  0.00     0.130 A 
ATOM      2  C2  DEN d   1       1.792   0.522  -0.083  0.00  0.00    -0.031 A 
ATOM      3  C3  DEN d   1       0.495   0.622  -0.781  0.00  0.00     0.027 A 
ATOM      4  C4  DEN d   1      -1.786  -0.383  -0.119  0.00  0.00     0.027 A 
ATOM      5  C5  DEN d   1      -2.445  -1.154   0.814  0.00  0.00    -0.003 A 
ATOM      6  C6  DEN d   1      -1.801  -1.712   1.886  0.00  0.00     0.001 A 
ATOM      7  C7  DEN d   1      -0.466  -1.471   2.077  0.00  0.00     0.017 A 
ATOM      8  C8  DEN d   1       0.206  -0.701   1.138  0.00  0.00    -0.094 A 
ATOM      9  C9  DEN d   1      -0.465  -0.135   0.067  0.00  0.00    -0.072 A 
ENDROOT
TORSDOF 0
ENDMDL
