MODEL 1
REMARK minimizedAffinity -1.79364455
REMARK minimizedRMSD -1
REMARK  0 active torsions:
REMARK  status: ('A' for Active; 'I' for Inactive)
ROOT
ATOM      1  C   UNL d   1      -0.702   3.292  -4.168  0.00  0.00     0.077 C 
ATOM      2  C1  UNL d   1      -1.252   2.535  -2.996  0.00  0.00    -0.074 A 
ATOM      3  C2  UNL d   1      -2.627   2.325  -2.856  0.00  0.00    -0.005 A 
ATOM      4  C3  UNL d   1      -3.123   1.611  -1.765  0.00  0.00     0.006 A 
ATOM      5  C4  UNL d   1      -2.249   1.100  -0.805  0.00  0.00    -0.005 A 
ATOM      6  C5  UNL d   1      -0.870   1.299  -0.928  0.00  0.00    -0.074 A 
ATOM      7  C6  UNL d   1       0.083   0.748   0.090  0.00  0.00     0.077 C 
ATOM      8  C7  UNL d   1      -0.380   2.012  -2.031  0.00  0.00    -0.001 A 
ENDROOT
TORSDOF 0
ENDMDL
