MODEL 1
REMARK minimizedAffinity -4.45720816
REMARK minimizedRMSD -1
REMARK  0 active torsions:
REMARK  status: ('A' for Active; 'I' for Inactive)
ROOT
ATOM      1  C   UNL d   1      -0.649   1.514  -0.734  0.00  0.00     0.077 C 
ATOM      2  C1  UNL d   1       0.132   0.415  -0.077  0.00  0.00    -0.074 A 
ATOM      3  C2  UNL d   1       1.334  -0.042  -0.628  0.00  0.00    -0.005 A 
ATOM      4  C3  UNL d   1       2.054  -1.059  -0.001  0.00  0.00     0.006 A 
ATOM      5  C4  UNL d   1       1.580  -1.628   1.182  0.00  0.00    -0.005 A 
ATOM      6  C5  UNL d   1       0.381  -1.184   1.748  0.00  0.00    -0.074 A 
ATOM      7  C6  UNL d   1      -0.137  -1.778   3.024  0.00  0.00     0.077 C 
ATOM      8  C7  UNL d   1      -0.333  -0.157   1.115  0.00  0.00    -0.001 A 
ENDROOT
TORSDOF 0
ENDMDL
