MODEL 1
REMARK minimizedAffinity -4.76248646
REMARK minimizedRMSD -1
REMARK  0 active torsions:
REMARK  status: ('A' for Active; 'I' for Inactive)
ROOT
ATOM      1  C   UNL d   1       0.392  -2.230   3.120  0.00  0.00     0.077 C 
ATOM      2  C1  UNL d   1       0.374  -1.185   2.045  0.00  0.00    -0.074 A 
ATOM      3  C2  UNL d   1      -0.689  -0.281   1.939  0.00  0.00    -0.005 A 
ATOM      4  C3  UNL d   1      -0.688   0.692   0.940  0.00  0.00     0.006 A 
ATOM      5  C4  UNL d   1       0.373   0.771   0.037  0.00  0.00    -0.005 A 
ATOM      6  C5  UNL d   1       1.445  -0.123   0.128  0.00  0.00    -0.074 A 
ATOM      7  C6  UNL d   1       2.598  -0.046  -0.828  0.00  0.00     0.077 C 
ATOM      8  C7  UNL d   1       1.440  -1.094   1.139  0.00  0.00    -0.001 A 
ENDROOT
TORSDOF 0
ENDMDL
