MODEL 1
REMARK minimizedAffinity -3.74680328
REMARK minimizedRMSD -1
REMARK  0 active torsions:
REMARK  status: ('A' for Active; 'I' for Inactive)
ROOT
ATOM      1  C   UNL d   1      -0.761   1.083  -0.717  0.00  0.00     0.077 C 
ATOM      2  C1  UNL d   1      -0.054   0.135   0.205  0.00  0.00    -0.074 A 
ATOM      3  C2  UNL d   1       1.225  -0.343  -0.098  0.00  0.00    -0.005 A 
ATOM      4  C3  UNL d   1       1.873  -1.217   0.775  0.00  0.00     0.006 A 
ATOM      5  C4  UNL d   1       1.251  -1.620   1.957  0.00  0.00    -0.005 A 
ATOM      6  C5  UNL d   1      -0.027  -1.151   2.277  0.00  0.00    -0.074 A 
ATOM      7  C6  UNL d   1      -0.705  -1.567   3.548  0.00  0.00     0.077 C 
ATOM      8  C7  UNL d   1      -0.669  -0.268   1.399  0.00  0.00    -0.001 A 
ENDROOT
TORSDOF 0
ENDMDL
