MODEL 1
REMARK minimizedAffinity -2.48862243
REMARK minimizedRMSD -1
REMARK  0 active torsions:
REMARK  status: ('A' for Active; 'I' for Inactive)
ROOT
ATOM      1  C   UNL d   1      -0.905  -1.222   2.619  0.00  0.00     0.077 C 
ATOM      2  C1  UNL d   1      -0.190  -0.551   1.485  0.00  0.00    -0.074 A 
ATOM      3  C2  UNL d   1       1.094  -0.956   1.105  0.00  0.00    -0.005 A 
ATOM      4  C3  UNL d   1       1.743  -0.329   0.042  0.00  0.00     0.006 A 
ATOM      5  C4  UNL d   1       1.117   0.707  -0.651  0.00  0.00    -0.005 A 
ATOM      6  C5  UNL d   1      -0.167   1.125  -0.286  0.00  0.00    -0.074 A 
ATOM      7  C6  UNL d   1      -0.858   2.231  -1.027  0.00  0.00     0.077 C 
ATOM      8  C7  UNL d   1      -0.816   0.486   0.779  0.00  0.00    -0.001 A 
ENDROOT
TORSDOF 0
ENDMDL
