MODEL 1
REMARK minimizedAffinity -3.52708077
REMARK minimizedRMSD -1
REMARK  0 active torsions:
REMARK  status: ('A' for Active; 'I' for Inactive)
ROOT
ATOM      1  C   UNL d   1      -0.607   4.159  -3.796  0.00  0.00     0.077 C 
ATOM      2  C1  UNL d   1      -1.184   2.962  -3.099  0.00  0.00    -0.074 A 
ATOM      3  C2  UNL d   1      -2.111   2.134  -3.741  0.00  0.00    -0.005 A 
ATOM      4  C3  UNL d   1      -2.631   1.019  -3.084  0.00  0.00     0.006 A 
ATOM      5  C4  UNL d   1      -2.230   0.721  -1.780  0.00  0.00    -0.005 A 
ATOM      6  C5  UNL d   1      -1.304   1.537  -1.123  0.00  0.00    -0.074 A 
ATOM      7  C6  UNL d   1      -0.855   1.226   0.273  0.00  0.00     0.077 C 
ATOM      8  C7  UNL d   1      -0.780   2.652  -1.793  0.00  0.00    -0.001 A 
ENDROOT
TORSDOF 0
ENDMDL
