MODEL 1
REMARK minimizedAffinity -4.5410738
REMARK minimizedRMSD -1
REMARK  0 active torsions:
REMARK  status: ('A' for Active; 'I' for Inactive)
ROOT
ATOM      1  C   UNL d   1       0.201  -1.717   3.412  0.00  0.00     0.077 C 
ATOM      2  C1  UNL d   1       0.554  -1.133   2.077  0.00  0.00    -0.074 A 
ATOM      3  C2  UNL d   1       1.797  -1.384   1.488  0.00  0.00    -0.005 A 
ATOM      4  C3  UNL d   1       2.107  -0.842   0.241  0.00  0.00     0.006 A 
ATOM      5  C4  UNL d   1       1.179  -0.044  -0.429  0.00  0.00    -0.005 A 
ATOM      6  C5  UNL d   1      -0.070   0.217   0.144  0.00  0.00    -0.074 A 
ATOM      7  C6  UNL d   1      -1.083   1.064  -0.567  0.00  0.00     0.077 C 
ATOM      8  C7  UNL d   1      -0.377  -0.337   1.394  0.00  0.00    -0.001 A 
ENDROOT
TORSDOF 0
ENDMDL
