MODEL 1
REMARK minimizedAffinity -4.07821131
REMARK minimizedRMSD -1
REMARK  0 active torsions:
REMARK  status: ('A' for Active; 'I' for Inactive)
ROOT
ATOM      1  C   UNL d   1      -0.402  -1.500   3.461  0.00  0.00     0.077 C 
ATOM      2  C1  UNL d   1       0.184  -1.185   2.117  0.00  0.00    -0.074 A 
ATOM      3  C2  UNL d   1       1.400  -1.745   1.713  0.00  0.00    -0.005 A 
ATOM      4  C3  UNL d   1       1.927  -1.450   0.456  0.00  0.00     0.006 A 
ATOM      5  C4  UNL d   1       1.245  -0.594  -0.409  0.00  0.00    -0.005 A 
ATOM      6  C5  UNL d   1       0.028  -0.025  -0.023  0.00  0.00    -0.074 A 
ATOM      7  C6  UNL d   1      -0.723   0.890  -0.944  0.00  0.00     0.077 C 
ATOM      8  C7  UNL d   1      -0.500  -0.331   1.239  0.00  0.00    -0.001 A 
ENDROOT
TORSDOF 0
ENDMDL
