MODEL 1
REMARK minimizedAffinity -0.925754428
REMARK minimizedRMSD -1
REMARK  0 active torsions:
REMARK  status: ('A' for Active; 'I' for Inactive)
ROOT
ATOM      1  C   UNL d   1      -2.300   1.645  -2.998  0.00  0.00     0.077 C 
ATOM      2  C1  UNL d   1      -1.449   1.347  -1.800  0.00  0.00    -0.074 A 
ATOM      3  C2  UNL d   1      -1.650   2.019  -0.590  0.00  0.00    -0.005 A 
ATOM      4  C3  UNL d   1      -0.857   1.725   0.518  0.00  0.00     0.006 A 
ATOM      5  C4  UNL d   1       0.145   0.757   0.429  0.00  0.00    -0.005 A 
ATOM      6  C5  UNL d   1       0.360   0.074  -0.772  0.00  0.00    -0.074 A 
ATOM      7  C6  UNL d   1       1.426  -0.976  -0.883  0.00  0.00     0.077 C 
ATOM      8  C7  UNL d   1      -0.446   0.370  -1.880  0.00  0.00    -0.001 A 
ENDROOT
TORSDOF 0
ENDMDL
