MODEL 1
REMARK minimizedAffinity -3.05279803
REMARK minimizedRMSD -1
REMARK  0 active torsions:
REMARK  status: ('A' for Active; 'I' for Inactive)
ROOT
ATOM      1  C   UNL d   1      -2.359   1.383  -3.231  0.00  0.00     0.077 C 
ATOM      2  C1  UNL d   1      -1.783   1.462  -1.848  0.00  0.00    -0.074 A 
ATOM      3  C2  UNL d   1      -2.308   2.347  -0.900  0.00  0.00    -0.005 A 
ATOM      4  C3  UNL d   1      -1.769   2.402   0.385  0.00  0.00     0.006 A 
ATOM      5  C4  UNL d   1      -0.701   1.574   0.735  0.00  0.00    -0.005 A 
ATOM      6  C5  UNL d   1      -0.164   0.682  -0.199  0.00  0.00    -0.074 A 
ATOM      7  C6  UNL d   1       0.976  -0.222   0.164  0.00  0.00     0.077 C 
ATOM      8  C7  UNL d   1      -0.716   0.628  -1.486  0.00  0.00    -0.001 A 
ENDROOT
TORSDOF 0
ENDMDL
