MODEL 1
REMARK minimizedAffinity -4.335289
REMARK minimizedRMSD -1
REMARK  0 active torsions:
REMARK  status: ('A' for Active; 'I' for Inactive)
ROOT
ATOM      1  C   UNL d   1       3.559  -0.149  -1.861  0.00  0.00     0.077 C 
ATOM      2  C1  UNL d   1       2.404  -0.439  -0.949  0.00  0.00    -0.074 A 
ATOM      3  C2  UNL d   1       2.475  -1.464  -0.001  0.00  0.00    -0.005 A 
ATOM      4  C3  UNL d   1       1.396  -1.715   0.847  0.00  0.00     0.006 A 
ATOM      5  C4  UNL d   1       0.237  -0.945   0.755  0.00  0.00    -0.005 A 
ATOM      6  C5  UNL d   1       0.147   0.086  -0.186  0.00  0.00    -0.074 A 
ATOM      7  C6  UNL d   1      -1.089   0.930  -0.292  0.00  0.00     0.077 C 
ATOM      8  C7  UNL d   1       1.238   0.336  -1.030  0.00  0.00    -0.001 A 
ENDROOT
TORSDOF 0
ENDMDL
