MODEL 1
REMARK minimizedAffinity -1.97926581
REMARK minimizedRMSD -1
REMARK  0 active torsions:
REMARK  status: ('A' for Active; 'I' for Inactive)
ROOT
ATOM      1  C   UNL d   1       0.743  -1.160  -0.860  0.00  0.00     0.077 C 
ATOM      2  C1  UNL d   1      -0.088   0.087  -0.917  0.00  0.00    -0.074 A 
ATOM      3  C2  UNL d   1       0.091   1.113   0.017  0.00  0.00    -0.005 A 
ATOM      4  C3  UNL d   1      -0.683   2.271  -0.054  0.00  0.00     0.006 A 
ATOM      5  C4  UNL d   1      -1.641   2.416  -1.058  0.00  0.00    -0.005 A 
ATOM      6  C5  UNL d   1      -1.832   1.402  -2.002  0.00  0.00    -0.074 A 
ATOM      7  C6  UNL d   1      -2.851   1.545  -3.094  0.00  0.00     0.077 C 
ATOM      8  C7  UNL d   1      -1.046   0.243  -1.928  0.00  0.00    -0.001 A 
ENDROOT
TORSDOF 0
ENDMDL
