MODEL 1
REMARK minimizedAffinity -3.5925498
REMARK minimizedRMSD -1
REMARK  0 active torsions:
REMARK  status: ('A' for Active; 'I' for Inactive)
ROOT
ATOM      1  C   UNL d   1      -0.875   1.399  -0.704  0.00  0.00     0.077 C 
ATOM      2  C1  UNL d   1      -0.037   0.341  -0.048  0.00  0.00    -0.074 A 
ATOM      3  C2  UNL d   1       1.163  -0.085  -0.625  0.00  0.00    -0.005 A 
ATOM      4  C3  UNL d   1       1.936  -1.063   0.001  0.00  0.00     0.006 A 
ATOM      5  C4  UNL d   1       1.517  -1.623   1.209  0.00  0.00    -0.005 A 
ATOM      6  C5  UNL d   1       0.320  -1.208   1.801  0.00  0.00    -0.074 A 
ATOM      7  C6  UNL d   1      -0.139  -1.793   3.104  0.00  0.00     0.077 C 
ATOM      8  C7  UNL d   1      -0.447  -0.220   1.169  0.00  0.00    -0.001 A 
ENDROOT
TORSDOF 0
ENDMDL
