MODEL 1
REMARK minimizedAffinity -3.59119821
REMARK minimizedRMSD -1
REMARK  0 active torsions:
REMARK  status: ('A' for Active; 'I' for Inactive)
ROOT
ATOM      1  C   UNL d   1      -1.193   2.520   0.768  0.00  0.00     0.077 C 
ATOM      2  C1  UNL d   1      -0.734   1.283   0.056  0.00  0.00    -0.074 A 
ATOM      3  C2  UNL d   1      -1.397   0.824  -1.088  0.00  0.00    -0.005 A 
ATOM      4  C3  UNL d   1      -0.952  -0.323  -1.745  0.00  0.00     0.006 A 
ATOM      5  C4  UNL d   1       0.156  -1.022  -1.267  0.00  0.00    -0.005 A 
ATOM      6  C5  UNL d   1       0.832  -0.578  -0.125  0.00  0.00    -0.074 A 
ATOM      7  C6  UNL d   1       2.031  -1.312   0.396  0.00  0.00     0.077 C 
ATOM      8  C7  UNL d   1       0.383   0.579   0.526  0.00  0.00    -0.001 A 
ENDROOT
TORSDOF 0
ENDMDL
