MODEL 1
REMARK minimizedAffinity -4.76918507
REMARK minimizedRMSD -1
REMARK  0 active torsions:
REMARK  status: ('A' for Active; 'I' for Inactive)
ROOT
ATOM      1  C   UNL d   1      -0.744   1.350  -0.424  0.00  0.00     0.077 C 
ATOM      2  C1  UNL d   1       0.091   0.305   0.255  0.00  0.00    -0.074 A 
ATOM      3  C2  UNL d   1       1.325  -0.084  -0.274  0.00  0.00    -0.005 A 
ATOM      4  C3  UNL d   1       2.095  -1.050   0.374  0.00  0.00     0.006 A 
ATOM      5  C4  UNL d   1       1.639  -1.635   1.556  0.00  0.00    -0.005 A 
ATOM      6  C5  UNL d   1       0.407  -1.258   2.101  0.00  0.00    -0.074 A 
ATOM      7  C6  UNL d   1      -0.093  -1.870   3.375  0.00  0.00     0.077 C 
ATOM      8  C7  UNL d   1      -0.357  -0.282   1.447  0.00  0.00    -0.001 A 
ENDROOT
TORSDOF 0
ENDMDL
