MODEL 1
REMARK minimizedAffinity -1.51649654
REMARK minimizedRMSD -1
REMARK  0 active torsions:
REMARK  status: ('A' for Active; 'I' for Inactive)
ROOT
ATOM      1  C   UNL d   1      -0.630   4.099  -4.353  0.00  0.00     0.077 C 
ATOM      2  C1  UNL d   1      -1.335   3.120  -3.462  0.00  0.00    -0.074 A 
ATOM      3  C2  UNL d   1      -2.490   2.459  -3.893  0.00  0.00    -0.005 A 
ATOM      4  C3  UNL d   1      -3.130   1.544  -3.057  0.00  0.00     0.006 A 
ATOM      5  C4  UNL d   1      -2.622   1.281  -1.784  0.00  0.00    -0.005 A 
ATOM      6  C5  UNL d   1      -1.467   1.931  -1.337  0.00  0.00    -0.074 A 
ATOM      7  C6  UNL d   1      -0.903   1.652   0.024  0.00  0.00     0.077 C 
ATOM      8  C7  UNL d   1      -0.826   2.844  -2.185  0.00  0.00    -0.001 A 
ENDROOT
TORSDOF 0
ENDMDL
