MODEL 1
REMARK minimizedAffinity -4.04947996
REMARK minimizedRMSD -1
REMARK  0 active torsions:
REMARK  status: ('A' for Active; 'I' for Inactive)
ROOT
ATOM      1  C   UNL d   1      -1.139   1.857   0.219  0.00  0.00     0.077 C 
ATOM      2  C1  UNL d   1      -1.538   1.944  -1.224  0.00  0.00    -0.074 A 
ATOM      3  C2  UNL d   1      -2.595   1.176  -1.724  0.00  0.00    -0.005 A 
ATOM      4  C3  UNL d   1      -2.961   1.274  -3.067  0.00  0.00     0.006 A 
ATOM      5  C4  UNL d   1      -2.276   2.140  -3.920  0.00  0.00    -0.005 A 
ATOM      6  C5  UNL d   1      -1.218   2.916  -3.438  0.00  0.00    -0.074 A 
ATOM      7  C6  UNL d   1      -0.477   3.858  -4.339  0.00  0.00     0.077 C 
ATOM      8  C7  UNL d   1      -0.860   2.817  -2.086  0.00  0.00    -0.001 A 
ENDROOT
TORSDOF 0
ENDMDL
