MODEL 1
REMARK minimizedAffinity -2.65034556
REMARK minimizedRMSD -1
REMARK  0 active torsions:
REMARK  status: ('A' for Active; 'I' for Inactive)
ROOT
ATOM      1  N1  IND d   1      -0.508   1.200  -0.168  0.00  0.00    -0.196 N 
ATOM      2  C2  IND d   1      -1.479   0.260  -0.374  0.00  0.00     0.054 A 
ATOM      3  C3  IND d   1      -0.989  -0.980  -0.151  0.00  0.00    -0.031 A 
ATOM      4  C4  IND d   1       1.349  -1.693   0.657  0.00  0.00     0.051 A 
ATOM      5  C5  IND d   1       2.588  -1.193   0.945  0.00  0.00    -0.031 A 
ATOM      6  C6  IND d   1       2.863   0.158   0.878  0.00  0.00     0.015 A 
ATOM      7  C7  IND d   1       1.902   1.064   0.529  0.00  0.00    -0.016 A 
ATOM      8  C8  IND d   1       0.645   0.559   0.230  0.00  0.00    -0.047 A 
ATOM      9  C9  IND d   1       0.371  -0.814   0.255  0.00  0.00    -0.096 A 
ATOM     10  HN1 IND d   1      -0.601   2.049  -0.270  0.00  0.00     0.298 HD
ENDROOT
TORSDOF 0
ENDMDL
