MODEL 1
REMARK minimizedAffinity -3.960186
REMARK minimizedRMSD -1
REMARK  0 active torsions:
REMARK  status: ('A' for Active; 'I' for Inactive)
ROOT
ATOM      1  N1  IND d   1       0.604   0.371  -1.217  0.00  0.00    -0.196 N 
ATOM      2  C2  IND d   1       0.657   0.893   0.045  0.00  0.00     0.054 A 
ATOM      3  C3  IND d   1      -0.589   1.162   0.495  0.00  0.00    -0.031 A 
ATOM      4  C4  IND d   1      -2.863   0.730  -0.630  0.00  0.00     0.051 A 
ATOM      5  C5  IND d   1      -3.421   0.302  -1.802  0.00  0.00    -0.031 A 
ATOM      6  C6  IND d   1      -2.651  -0.137  -2.859  0.00  0.00     0.015 A 
ATOM      7  C7  IND d   1      -1.287  -0.174  -2.779  0.00  0.00    -0.016 A 
ATOM      8  C8  IND d   1      -0.717   0.266  -1.593  0.00  0.00    -0.047 A 
ATOM      9  C9  IND d   1      -1.492   0.752  -0.533  0.00  0.00    -0.096 A 
ATOM     10  HN1 IND d   1       1.282   0.145  -1.696  0.00  0.00     0.298 HD
ENDROOT
TORSDOF 0
ENDMDL
