MODEL 1
REMARK minimizedAffinity -1.18457568
REMARK minimizedRMSD -1
REMARK  0 active torsions:
REMARK  status: ('A' for Active; 'I' for Inactive)
ROOT
ATOM      1  N1  IND d   1      -0.066  -0.891  -1.647  0.00  0.00    -0.196 N 
ATOM      2  C2  IND d   1      -1.230  -0.223  -1.388  0.00  0.00     0.054 A 
ATOM      3  C3  IND d   1      -1.113   0.506  -0.256  0.00  0.00    -0.031 A 
ATOM      4  C4  IND d   1       0.931   0.831   1.275  0.00  0.00     0.051 A 
ATOM      5  C5  IND d   1       2.212   0.397   1.468  0.00  0.00    -0.031 A 
ATOM      6  C6  IND d   1       2.813  -0.505   0.614  0.00  0.00     0.015 A 
ATOM      7  C7  IND d   1       2.155  -0.999  -0.477  0.00  0.00    -0.016 A 
ATOM      8  C8  IND d   1       0.852  -0.566  -0.672  0.00  0.00    -0.047 A 
ATOM      9  C9  IND d   1       0.222   0.316   0.216  0.00  0.00    -0.096 A 
ATOM     10  HN1 IND d   1       0.071  -1.423  -2.308  0.00  0.00     0.298 HD
ENDROOT
TORSDOF 0
ENDMDL
