MODEL 1
REMARK minimizedAffinity 4.08609867
REMARK minimizedRMSD -1
REMARK  0 active torsions:
REMARK  status: ('A' for Active; 'I' for Inactive)
ROOT
ATOM      1  N1  IND d   1      -1.508  -1.335  -2.611  0.00  0.00    -0.196 N 
ATOM      2  C2  IND d   1      -2.245  -0.328  -3.169  0.00  0.00     0.054 A 
ATOM      3  C3  IND d   1      -2.214   0.770  -2.380  0.00  0.00    -0.031 A 
ATOM      4  C4  IND d   1      -0.934   1.170  -0.182  0.00  0.00     0.051 A 
ATOM      5  C5  IND d   1      -0.153   0.532   0.741  0.00  0.00    -0.031 A 
ATOM      6  C6  IND d   1       0.226  -0.786   0.589  0.00  0.00     0.015 A 
ATOM      7  C7  IND d   1      -0.154  -1.516  -0.501  0.00  0.00    -0.016 A 
ATOM      8  C8  IND d   1      -0.953  -0.874  -1.437  0.00  0.00    -0.047 A 
ATOM      9  C9  IND d   1      -1.376   0.451  -1.268  0.00  0.00    -0.096 A 
ATOM     10  HN1 IND d   1      -1.407  -2.123  -2.938  0.00  0.00     0.298 HD
ENDROOT
TORSDOF 0
ENDMDL
