MODEL 1
REMARK minimizedAffinity -4.06501579
REMARK minimizedRMSD -1
REMARK  0 active torsions:
REMARK  status: ('A' for Active; 'I' for Inactive)
ROOT
ATOM      1  N1  IND d   1      -0.333   0.816  -0.129  0.00  0.00    -0.196 N 
ATOM      2  C2  IND d   1       0.131   2.015  -0.593  0.00  0.00     0.054 A 
ATOM      3  C3  IND d   1       1.468   2.105  -0.411  0.00  0.00    -0.031 A 
ATOM      4  C4  IND d   1       3.110   0.361   0.534  0.00  0.00     0.051 A 
ATOM      5  C5  IND d   1       3.151  -0.872   1.122  0.00  0.00    -0.031 A 
ATOM      6  C6  IND d   1       2.010  -1.622   1.324  0.00  0.00     0.015 A 
ATOM      7  C7  IND d   1       0.782  -1.169   0.934  0.00  0.00    -0.016 A 
ATOM      8  C8  IND d   1       0.735   0.086   0.344  0.00  0.00    -0.047 A 
ATOM      9  C9  IND d   1       1.884   0.869   0.174  0.00  0.00    -0.096 A 
ATOM     10  HN1 IND d   1      -1.154   0.561  -0.132  0.00  0.00     0.298 HD
ENDROOT
TORSDOF 0
ENDMDL
