MODEL 1
REMARK minimizedAffinity 2.55390573
REMARK minimizedRMSD -1
REMARK  0 active torsions:
REMARK  status: ('A' for Active; 'I' for Inactive)
ROOT
ATOM      1  N1  IND d   1      -0.917   2.084   0.387  0.00  0.00    -0.196 N 
ATOM      2  C2  IND d   1      -0.749   3.438   0.309  0.00  0.00     0.054 A 
ATOM      3  C3  IND d   1       0.469   3.789   0.780  0.00  0.00    -0.031 A 
ATOM      4  C4  IND d   1       2.385   2.296   1.631  0.00  0.00     0.051 A 
ATOM      5  C5  IND d   1       2.690   0.997   1.924  0.00  0.00    -0.031 A 
ATOM      6  C6  IND d   1       1.790  -0.028   1.712  0.00  0.00     0.015 A 
ATOM      7  C7  IND d   1       0.551   0.208   1.187  0.00  0.00    -0.016 A 
ATOM      8  C8  IND d   1       0.236   1.528   0.895  0.00  0.00    -0.047 A 
ATOM      9  C9  IND d   1       1.129   2.577   1.148  0.00  0.00    -0.096 A 
ATOM     10  HN1 IND d   1      -1.624   1.652   0.156  0.00  0.00     0.298 HD
ENDROOT
TORSDOF 0
ENDMDL
