MODEL 1
REMARK minimizedAffinity 0.294045538
REMARK minimizedRMSD -1
REMARK  0 active torsions:
REMARK  status: ('A' for Active; 'I' for Inactive)
ROOT
ATOM      1  N1  IND d   1       1.590   1.312   0.734  0.00  0.00    -0.196 N 
ATOM      2  C2  IND d   1       0.426   1.226   0.021  0.00  0.00     0.054 A 
ATOM      3  C3  IND d   1      -0.144   0.012   0.195  0.00  0.00    -0.031 A 
ATOM      4  C4  IND d   1       0.608  -1.949   1.684  0.00  0.00     0.051 A 
ATOM      5  C5  IND d   1       1.629  -2.355   2.496  0.00  0.00    -0.031 A 
ATOM      6  C6  IND d   1       2.710  -1.542   2.770  0.00  0.00     0.015 A 
ATOM      7  C7  IND d   1       2.805  -0.283   2.248  0.00  0.00    -0.016 A 
ATOM      8  C8  IND d   1       1.773   0.130   1.418  0.00  0.00    -0.047 A 
ATOM      9  C9  IND d   1       0.694  -0.706   1.102  0.00  0.00    -0.096 A 
ATOM     10  HN1 IND d   1       2.118   1.990   0.751  0.00  0.00     0.298 HD
ENDROOT
TORSDOF 0
ENDMDL
