MODEL 1
REMARK minimizedAffinity -2.53094864
REMARK minimizedRMSD -1
REMARK  0 active torsions:
REMARK  status: ('A' for Active; 'I' for Inactive)
ROOT
ATOM      1  N1  IND d   1      -1.142  -1.249  -0.760  0.00  0.00    -0.196 N 
ATOM      2  C2  IND d   1      -0.633  -0.194  -0.055  0.00  0.00     0.054 A 
ATOM      3  C3  IND d   1      -1.135   0.971  -0.524  0.00  0.00    -0.031 A 
ATOM      4  C4  IND d   1      -2.881   1.374  -2.373  0.00  0.00     0.051 A 
ATOM      5  C5  IND d   1      -3.609   0.721  -3.327  0.00  0.00    -0.031 A 
ATOM      6  C6  IND d   1      -3.553  -0.650  -3.476  0.00  0.00     0.015 A 
ATOM      7  C7  IND d   1      -2.772  -1.424  -2.665  0.00  0.00    -0.016 A 
ATOM      8  C8  IND d   1      -2.026  -0.763  -1.699  0.00  0.00    -0.047 A 
ATOM      9  C9  IND d   1      -2.046   0.632  -1.571  0.00  0.00    -0.096 A 
ATOM     10  HN1 IND d   1      -0.944  -2.076  -0.637  0.00  0.00     0.298 HD
ENDROOT
TORSDOF 0
ENDMDL
