MODEL 1
REMARK minimizedAffinity 8.38530731
REMARK minimizedRMSD -1
REMARK  0 active torsions:
REMARK  status: ('A' for Active; 'I' for Inactive)
ROOT
ATOM      1  C4' PXY d   1       4.772  -1.378   0.638  0.00  0.00     0.077 C 
ATOM      2  C1' PXY d   1      -0.779  -1.475  -0.973  0.00  0.00     0.077 C 
ATOM      3  C1  PXY d   1       0.673  -1.454  -0.539  0.00  0.00    -0.082 A 
ATOM      4  C2  PXY d   1       1.525  -0.643  -1.144  0.00  0.00     0.003 A 
ATOM      5  C3  PXY d   1       2.849  -0.634  -0.786  0.00  0.00     0.003 A 
ATOM      6  C4  PXY d   1       3.294  -1.426   0.239  0.00  0.00    -0.082 A 
ATOM      7  C5  PXY d   1       2.429  -2.248   0.869  0.00  0.00     0.003 A 
ATOM      8  C6  PXY d   1       1.098  -2.272   0.462  0.00  0.00     0.003 A 
ENDROOT
TORSDOF 0
ENDMDL
