MODEL 1
REMARK minimizedAffinity 11.1807747
REMARK minimizedRMSD -1
REMARK  0 active torsions:
REMARK  status: ('A' for Active; 'I' for Inactive)
ROOT
ATOM      1  C4' PXY d   1      -5.246  -0.245  -5.997  0.00  0.00     0.077 C 
ATOM      2  C1' PXY d   1      -4.732   4.917  -3.447  0.00  0.00     0.077 C 
ATOM      3  C1  PXY d   1      -4.880   3.566  -4.118  0.00  0.00    -0.082 A 
ATOM      4  C2  PXY d   1      -4.048   2.586  -3.805  0.00  0.00     0.003 A 
ATOM      5  C3  PXY d   1      -4.146   1.367  -4.426  0.00  0.00     0.003 A 
ATOM      6  C4  PXY d   1      -5.140   1.133  -5.338  0.00  0.00    -0.082 A 
ATOM      7  C5  PXY d   1      -6.000   2.124  -5.655  0.00  0.00     0.003 A 
ATOM      8  C6  PXY d   1      -5.857   3.367  -5.044  0.00  0.00     0.003 A 
ENDROOT
TORSDOF 0
ENDMDL
