MODEL 1
REMARK minimizedAffinity 6.59255552
REMARK minimizedRMSD -1
REMARK  0 active torsions:
REMARK  status: ('A' for Active; 'I' for Inactive)
ROOT
ATOM      1  C4' PXY d   1      -3.955   0.830   1.342  0.00  0.00     0.077 C 
ATOM      2  C1' PXY d   1       1.084  -1.498   2.952  0.00  0.00     0.077 C 
ATOM      3  C1  PXY d   1      -0.241  -0.886   2.542  0.00  0.00    -0.082 A 
ATOM      4  C2  PXY d   1      -0.739  -1.148   1.345  0.00  0.00     0.003 A 
ATOM      5  C3  PXY d   1      -1.921  -0.577   0.946  0.00  0.00     0.003 A 
ATOM      6  C4  PXY d   1      -2.625   0.227   1.801  0.00  0.00    -0.082 A 
ATOM      7  C5  PXY d   1      -2.128   0.490   3.029  0.00  0.00     0.003 A 
ATOM      8  C6  PXY d   1      -0.907  -0.066   3.399  0.00  0.00     0.003 A 
ENDROOT
TORSDOF 0
ENDMDL
