MODEL 1
REMARK minimizedAffinity 5.19617701
REMARK minimizedRMSD -1
REMARK  0 active torsions:
REMARK  status: ('A' for Active; 'I' for Inactive)
ROOT
ATOM      1  C4' PXY d   1       1.233  -1.881   1.784  0.00  0.00     0.077 C 
ATOM      2  C1' PXY d   1      -3.587   0.953   3.249  0.00  0.00     0.077 C 
ATOM      3  C1  PXY d   1      -2.316   0.219   2.871  0.00  0.00    -0.082 A 
ATOM      4  C2  PXY d   1      -2.322  -0.612   1.841  0.00  0.00     0.003 A 
ATOM      5  C3  PXY d   1      -1.190  -1.308   1.505  0.00  0.00     0.003 A 
ATOM      6  C4  PXY d   1      -0.024  -1.111   2.197  0.00  0.00    -0.082 A 
ATOM      7  C5  PXY d   1      -0.007  -0.257   3.242  0.00  0.00     0.003 A 
ATOM      8  C6  PXY d   1      -1.178   0.409   3.592  0.00  0.00     0.003 A 
ENDROOT
TORSDOF 0
ENDMDL
