MODEL 1
REMARK minimizedAffinity 7.05273151
REMARK minimizedRMSD -1
REMARK  0 active torsions:
REMARK  status: ('A' for Active; 'I' for Inactive)
ROOT
ATOM      1  C4' PXY d   1      -3.480   1.198   3.170  0.00  0.00     0.077 C 
ATOM      2  C1' PXY d   1       1.313  -1.834   2.052  0.00  0.00     0.077 C 
ATOM      3  C1  PXY d   1       0.059  -1.039   2.358  0.00  0.00    -0.082 A 
ATOM      4  C2  PXY d   1      -0.935  -1.024   1.484  0.00  0.00     0.003 A 
ATOM      5  C3  PXY d   1      -2.064  -0.285   1.731  0.00  0.00     0.003 A 
ATOM      6  C4  PXY d   1      -2.199   0.402   2.907  0.00  0.00    -0.082 A 
ATOM      7  C5  PXY d   1      -1.193   0.383   3.808  0.00  0.00     0.003 A 
ATOM      8  C6  PXY d   1      -0.039  -0.340   3.520  0.00  0.00     0.003 A 
ENDROOT
TORSDOF 0
ENDMDL
