MODEL 1
REMARK minimizedAffinity 3.44320321
REMARK minimizedRMSD -1
REMARK  0 active torsions:
REMARK  status: ('A' for Active; 'I' for Inactive)
ROOT
ATOM      1  C4' PXY d   1      -5.717   3.360  -5.459  0.00  0.00     0.077 C 
ATOM      2  C1' PXY d   1      -4.013  -2.096  -4.592  0.00  0.00     0.077 C 
ATOM      3  C1  PXY d   1      -4.448  -0.662  -4.822  0.00  0.00    -0.082 A 
ATOM      4  C2  PXY d   1      -5.549  -0.211  -4.244  0.00  0.00     0.003 A 
ATOM      5  C3  PXY d   1      -5.974   1.073  -4.466  0.00  0.00     0.003 A 
ATOM      6  C4  PXY d   1      -5.235   1.922  -5.247  0.00  0.00    -0.082 A 
ATOM      7  C5  PXY d   1      -4.105   1.473  -5.833  0.00  0.00     0.003 A 
ATOM      8  C6  PXY d   1      -3.713   0.153  -5.627  0.00  0.00     0.003 A 
ENDROOT
TORSDOF 0
ENDMDL
