MODEL 1
REMARK minimizedAffinity 1.63283849
REMARK minimizedRMSD -1
REMARK  0 active torsions:
REMARK  status: ('A' for Active; 'I' for Inactive)
ROOT
ATOM      1  C4' PXY d   1      -4.012   0.940  -5.780  0.00  0.00     0.077 C 
ATOM      2  C1' PXY d   1      -4.008  -3.058  -1.606  0.00  0.00     0.077 C 
ATOM      3  C1  PXY d   1      -4.020  -2.015  -2.705  0.00  0.00    -0.082 A 
ATOM      4  C2  PXY d   1      -2.890  -1.423  -3.059  0.00  0.00     0.003 A 
ATOM      5  C3  PXY d   1      -2.888  -0.455  -4.029  0.00  0.00     0.003 A 
ATOM      6  C4  PXY d   1      -4.046  -0.125  -4.682  0.00  0.00    -0.082 A 
ATOM      7  C5  PXY d   1      -5.201  -0.732  -4.334  0.00  0.00     0.003 A 
ATOM      8  C6  PXY d   1      -5.188  -1.683  -3.318  0.00  0.00     0.003 A 
ENDROOT
TORSDOF 0
ENDMDL
