MODEL 1
REMARK minimizedAffinity 8.22093296
REMARK minimizedRMSD -1
REMARK  0 active torsions:
REMARK  status: ('A' for Active; 'I' for Inactive)
ROOT
ATOM      1  C4' PXY d   1      -6.000   2.738  -5.250  0.00  0.00     0.077 C 
ATOM      2  C1' PXY d   1      -2.682  -1.987  -5.541  0.00  0.00     0.077 C 
ATOM      3  C1  PXY d   1      -3.563  -0.755  -5.464  0.00  0.00    -0.082 A 
ATOM      4  C2  PXY d   1      -3.102   0.407  -5.898  0.00  0.00     0.003 A 
ATOM      5  C3  PXY d   1      -3.873   1.537  -5.807  0.00  0.00     0.003 A 
ATOM      6  C4  PXY d   1      -5.149   1.467  -5.316  0.00  0.00    -0.082 A 
ATOM      7  C5  PXY d   1      -5.631   0.283  -4.881  0.00  0.00     0.003 A 
ATOM      8  C6  PXY d   1      -4.817  -0.844  -4.944  0.00  0.00     0.003 A 
ENDROOT
TORSDOF 0
ENDMDL
