MODEL 1
REMARK minimizedAffinity 9.79710388
REMARK minimizedRMSD -1
REMARK  0 active torsions:
REMARK  status: ('A' for Active; 'I' for Inactive)
ROOT
ATOM      1  C4' PXY d   1       1.057  -1.768   2.255  0.00  0.00     0.077 C 
ATOM      2  C1' PXY d   1      -4.091   0.860   2.285  0.00  0.00     0.077 C 
ATOM      3  C1  PXY d   1      -2.736   0.181   2.282  0.00  0.00    -0.082 A 
ATOM      4  C2  PXY d   1      -2.503  -0.813   1.440  0.00  0.00     0.003 A 
ATOM      5  C3  PXY d   1      -1.294  -1.458   1.446  0.00  0.00     0.003 A 
ATOM      6  C4  PXY d   1      -0.293  -1.048   2.286  0.00  0.00    -0.082 A 
ATOM      7  C5  PXY d   1      -0.519  -0.027   3.141  0.00  0.00     0.003 A 
ATOM      8  C6  PXY d   1      -1.767   0.588   3.147  0.00  0.00     0.003 A 
ENDROOT
TORSDOF 0
ENDMDL
