MODEL 1
REMARK minimizedAffinity 1.18661022
REMARK minimizedRMSD -1
REMARK  0 active torsions:
REMARK  status: ('A' for Active; 'I' for Inactive)
ROOT
ATOM      1  C4' PXY d   1       0.706  -1.742   2.175  0.00  0.00     0.077 C 
ATOM      2  C1' PXY d   1       2.252  -0.376  -3.225  0.00  0.00     0.077 C 
ATOM      3  C1  PXY d   1       1.834  -0.733  -1.812  0.00  0.00    -0.082 A 
ATOM      4  C2  PXY d   1       2.682  -0.549  -0.813  0.00  0.00     0.003 A 
ATOM      5  C3  PXY d   1       2.332  -0.897   0.466  0.00  0.00     0.003 A 
ATOM      6  C4  PXY d   1       1.082  -1.387   0.733  0.00  0.00    -0.082 A 
ATOM      7  C5  PXY d   1       0.207  -1.567  -0.279  0.00  0.00     0.003 A 
ATOM      8  C6  PXY d   1       0.597  -1.247  -1.576  0.00  0.00     0.003 A 
ENDROOT
TORSDOF 0
ENDMDL
