MODEL 1
REMARK minimizedAffinity 12.4362612
REMARK minimizedRMSD -1
REMARK  0 active torsions:
REMARK  status: ('A' for Active; 'I' for Inactive)
ROOT
ATOM      1  C4' PXY d   1       1.340  -1.779   0.761  0.00  0.00     0.077 C 
ATOM      2  C1' PXY d   1       3.218   2.444  -2.711  0.00  0.00     0.077 C 
ATOM      3  C1  PXY d   1       2.734   1.341  -1.791  0.00  0.00    -0.082 A 
ATOM      4  C2  PXY d   1       2.163   0.264  -2.306  0.00  0.00     0.003 A 
ATOM      5  C3  PXY d   1       1.691  -0.729  -1.487  0.00  0.00     0.003 A 
ATOM      6  C4  PXY d   1       1.852  -0.644  -0.130  0.00  0.00    -0.082 A 
ATOM      7  C5  PXY d   1       2.443   0.447   0.402  0.00  0.00     0.003 A 
ATOM      8  C6  PXY d   1       2.879   1.463  -0.444  0.00  0.00     0.003 A 
ENDROOT
TORSDOF 0
ENDMDL
