MODEL 1
REMARK minimizedAffinity 6.94624043
REMARK minimizedRMSD -1
REMARK  0 active torsions:
REMARK  status: ('A' for Active; 'I' for Inactive)
ROOT
ATOM      1  C4' PXY d   1      -4.245   3.134   5.584  0.00  0.00     0.077 C 
ATOM      2  C1' PXY d   1      -3.889  -0.865   1.425  0.00  0.00     0.077 C 
ATOM      3  C1  PXY d   1      -3.995   0.185   2.513  0.00  0.00    -0.082 A 
ATOM      4  C2  PXY d   1      -2.916   0.857   2.881  0.00  0.00     0.003 A 
ATOM      5  C3  PXY d   1      -2.988   1.788   3.886  0.00  0.00     0.003 A 
ATOM      6  C4  PXY d   1      -4.187   2.071   4.483  0.00  0.00    -0.082 A 
ATOM      7  C5  PXY d   1      -5.294   1.398   4.106  0.00  0.00     0.003 A 
ATOM      8  C6  PXY d   1      -5.192   0.427   3.113  0.00  0.00     0.003 A 
ENDROOT
TORSDOF 0
ENDMDL
