MODEL 1
REMARK minimizedAffinity 0.629781485
REMARK minimizedRMSD -1
REMARK  0 active torsions:
REMARK  status: ('A' for Active; 'I' for Inactive)
ROOT
ATOM      1  C4' PXY d   1       1.922  -2.835   0.929  0.00  0.00     0.077 C 
ATOM      2  C1' PXY d   1       1.971   2.200  -1.911  0.00  0.00     0.077 C 
ATOM      3  C1  PXY d   1       1.946   0.878  -1.170  0.00  0.00    -0.082 A 
ATOM      4  C2  PXY d   1       2.810   0.659  -0.192  0.00  0.00     0.003 A 
ATOM      5  C3  PXY d   1       2.822  -0.543   0.467  0.00  0.00     0.003 A 
ATOM      6  C4  PXY d   1       1.905  -1.511   0.159  0.00  0.00    -0.082 A 
ATOM      7  C5  PXY d   1       1.012  -1.292  -0.829  0.00  0.00     0.003 A 
ATOM      8  C6  PXY d   1       1.043  -0.080  -1.515  0.00  0.00     0.003 A 
ENDROOT
TORSDOF 0
ENDMDL
