MODEL 1
REMARK minimizedAffinity 2.54606271
REMARK minimizedRMSD -1
REMARK  0 active torsions:
REMARK  status: ('A' for Active; 'I' for Inactive)
ROOT
ATOM      1  C4' PXY d   1       3.055   2.244  -1.894  0.00  0.00     0.077 C 
ATOM      2  C1' PXY d   1      -2.613   2.349  -3.028  0.00  0.00     0.077 C 
ATOM      3  C1  PXY d   1      -1.128   2.312  -2.723  0.00  0.00    -0.082 A 
ATOM      4  C2  PXY d   1      -0.403   3.409  -2.864  0.00  0.00     0.003 A 
ATOM      5  C3  PXY d   1       0.947   3.385  -2.623  0.00  0.00     0.003 A 
ATOM      6  C4  PXY d   1       1.551   2.238  -2.182  0.00  0.00    -0.082 A 
ATOM      7  C5  PXY d   1       0.816   1.117  -2.025  0.00  0.00     0.003 A 
ATOM      8  C6  PXY d   1      -0.545   1.152  -2.314  0.00  0.00     0.003 A 
ENDROOT
TORSDOF 0
ENDMDL
