MODEL 1
REMARK minimizedAffinity -1.46271598
REMARK minimizedRMSD -1
REMARK  3 active torsions:
REMARK  status: ('A' for Active; 'I' for Inactive)
REMARK    1  A    between atoms: C3'_2  and  C2'_3 
REMARK    2  A    between atoms: C2'_3  and  C1'_4 
REMARK    3  A    between atoms: C1'_4  and  C1_5 
ROOT
ATOM      1  C1  N4B d   1      -0.900   1.538  -1.293  0.00  0.00    -0.075 A 
ATOM      2  C2  N4B d   1       0.073   2.187  -2.085  0.00  0.00     0.002 A 
ATOM      3  C3  N4B d   1      -0.202   2.497  -3.394  0.00  0.00     0.002 A 
ATOM      4  C4  N4B d   1      -1.431   2.153  -3.936  0.00  0.00    -0.004 A 
ATOM      5  C5  N4B d   1      -2.375   1.550  -3.158  0.00  0.00     0.002 A 
ATOM      6  C6  N4B d   1      -2.114   1.235  -1.840  0.00  0.00     0.002 A 
ENDROOT
BRANCH   1   7
ATOM      7  C1' N4B d   1      -0.614   1.101   0.118  0.00  0.00     0.057 C 
BRANCH   7   8
ATOM      8  C2' N4B d   1       0.103  -0.245   0.090  0.00  0.00     0.009 C 
BRANCH   8   9
ATOM      9  C3' N4B d   1       1.565  -0.118   0.484  0.00  0.00     0.004 C 
ATOM     10  C4' N4B d   1       2.275  -1.438   0.516  0.00  0.00     0.003 C 
ENDBRANCH   8   9
ENDBRANCH   7   8
ENDBRANCH   1   7
TORSDOF 3
ENDMDL
