MODEL 1
REMARK minimizedAffinity -3.82682705
REMARK minimizedRMSD -1
REMARK  3 active torsions:
REMARK  status: ('A' for Active; 'I' for Inactive)
REMARK    1  A    between atoms: C3'_2  and  C2'_3 
REMARK    2  A    between atoms: C2'_3  and  C1'_4 
REMARK    3  A    between atoms: C1'_4  and  C1_5 
ROOT
ATOM      1  C1  N4B d   1      -1.093   1.476  -1.055  0.00  0.00    -0.075 A 
ATOM      2  C2  N4B d   1      -0.633   2.357  -2.058  0.00  0.00     0.002 A 
ATOM      3  C3  N4B d   1      -1.402   2.591  -3.172  0.00  0.00     0.002 A 
ATOM      4  C4  N4B d   1      -2.620   1.943  -3.313  0.00  0.00    -0.004 A 
ATOM      5  C5  N4B d   1      -3.069   1.113  -2.327  0.00  0.00     0.002 A 
ATOM      6  C6  N4B d   1      -2.309   0.872  -1.201  0.00  0.00     0.002 A 
ENDROOT
BRANCH   1   7
ATOM      7  C1' N4B d   1      -0.250   1.123   0.139  0.00  0.00     0.057 C 
BRANCH   7   8
ATOM      8  C2' N4B d   1       0.425  -0.224  -0.105  0.00  0.00     0.009 C 
BRANCH   8   9
ATOM      9  C3' N4B d   1       1.910  -0.180   0.209  0.00  0.00     0.004 C 
ATOM     10  C4' N4B d   1       2.374  -1.373   0.990  0.00  0.00     0.003 C 
ENDBRANCH   8   9
ENDBRANCH   7   8
ENDBRANCH   1   7
TORSDOF 3
ENDMDL
