MODEL 1
REMARK minimizedAffinity -4.48965406
REMARK minimizedRMSD -1
REMARK  3 active torsions:
REMARK  status: ('A' for Active; 'I' for Inactive)
REMARK    1  A    between atoms: C3'_2  and  C2'_3 
REMARK    2  A    between atoms: C2'_3  and  C1'_4 
REMARK    3  A    between atoms: C1'_4  and  C1_5 
ROOT
ATOM      1  C1  N4B d   1      -0.157   0.416   0.225  0.00  0.00    -0.075 A 
ATOM      2  C2  N4B d   1       0.956   0.783  -0.562  0.00  0.00     0.002 A 
ATOM      3  C3  N4B d   1       2.128   0.073  -0.468  0.00  0.00     0.002 A 
ATOM      4  C4  N4B d   1       2.216  -0.991   0.417  0.00  0.00    -0.004 A 
ATOM      5  C5  N4B d   1       1.129  -1.355   1.155  0.00  0.00     0.002 A 
ATOM      6  C6  N4B d   1      -0.057  -0.653   1.068  0.00  0.00     0.002 A 
ENDROOT
BRANCH   1   7
ATOM      7  C1' N4B d   1      -1.432   1.214   0.220  0.00  0.00     0.057 C 
BRANCH   7   8
ATOM      8  C2' N4B d   1      -1.501   2.037  -1.063  0.00  0.00     0.009 C 
BRANCH   8   9
ATOM      9  C3' N4B d   1      -2.543   1.498  -2.028  0.00  0.00     0.004 C 
ATOM     10  C4' N4B d   1      -1.958   1.099  -3.350  0.00  0.00     0.003 C 
ENDBRANCH   8   9
ENDBRANCH   7   8
ENDBRANCH   1   7
TORSDOF 3
ENDMDL
