MODEL 1
REMARK minimizedAffinity -1.55335581
REMARK minimizedRMSD -1
REMARK  0 active torsions:
REMARK  status: ('A' for Active; 'I' for Inactive)
ROOT
ATOM      1  C   UNL d   1       6.000  -5.153  -4.811  0.00  0.00     0.172 C 
ATOM      2  N   UNL d   1       4.578  -5.389  -4.909  0.00  0.00    -0.070 N 
ATOM      3  C1  UNL d   1       3.793  -5.950  -3.938  0.00  0.00    -0.004 A 
ATOM      4  C2  UNL d   1       2.502  -6.000  -4.415  0.00  0.00    -0.047 A 
ATOM      5  C3  UNL d   1       2.511  -5.450  -5.719  0.00  0.00    -0.047 A 
ATOM      6  C4  UNL d   1       3.809  -5.080  -6.000  0.00  0.00    -0.004 A 
ENDROOT
TORSDOF 0
ENDMDL
