MODEL 1
REMARK minimizedAffinity 4.22410631
REMARK minimizedRMSD -1
REMARK  0 active torsions:
REMARK  status: ('A' for Active; 'I' for Inactive)
ROOT
ATOM      1  C   UNL d   1       1.172  -5.805  -4.279  0.00  0.00     0.172 C 
ATOM      2  N   UNL d   1       2.554  -5.797  -4.698  0.00  0.00    -0.070 N 
ATOM      3  C1  UNL d   1       3.639  -5.726  -3.867  0.00  0.00    -0.004 A 
ATOM      4  C2  UNL d   1       4.773  -5.745  -4.650  0.00  0.00    -0.047 A 
ATOM      5  C3  UNL d   1       4.354  -5.829  -5.999  0.00  0.00    -0.047 A 
ATOM      6  C4  UNL d   1       2.975  -5.860  -6.000  0.00  0.00    -0.004 A 
ENDROOT
TORSDOF 0
ENDMDL
