MODEL 1
REMARK minimizedAffinity 5.20660353
REMARK minimizedRMSD -1
REMARK  0 active torsions:
REMARK  status: ('A' for Active; 'I' for Inactive)
ROOT
ATOM      1  C   UNL d   1       2.459  -5.866  -5.262  0.00  0.00     0.172 C 
ATOM      2  N   UNL d   1       3.818  -5.383  -5.326  0.00  0.00    -0.070 N 
ATOM      3  C1  UNL d   1       4.856  -6.000  -5.971  0.00  0.00    -0.004 A 
ATOM      4  C2  UNL d   1       5.982  -5.225  -5.797  0.00  0.00    -0.047 A 
ATOM      5  C3  UNL d   1       5.608  -4.103  -5.020  0.00  0.00    -0.047 A 
ATOM      6  C4  UNL d   1       4.264  -4.226  -4.741  0.00  0.00    -0.004 A 
ENDROOT
TORSDOF 0
ENDMDL
