MODEL 1
REMARK minimizedAffinity 2.47565222
REMARK minimizedRMSD -1
REMARK  0 active torsions:
REMARK  status: ('A' for Active; 'I' for Inactive)
ROOT
ATOM      1  C   UNL d   1       2.666  -5.894  -4.751  0.00  0.00     0.172 C 
ATOM      2  N   UNL d   1       3.985  -5.402  -5.074  0.00  0.00    -0.070 N 
ATOM      3  C1  UNL d   1       4.565  -4.274  -4.556  0.00  0.00    -0.004 A 
ATOM      4  C2  UNL d   1       5.819  -4.151  -5.114  0.00  0.00    -0.047 A 
ATOM      5  C3  UNL d   1       5.999  -5.242  -5.997  0.00  0.00    -0.047 A 
ATOM      6  C4  UNL d   1       4.848  -6.000  -5.953  0.00  0.00    -0.004 A 
ENDROOT
TORSDOF 0
ENDMDL
