MODEL 1
REMARK minimizedAffinity 4.43931627
REMARK minimizedRMSD -1
REMARK  0 active torsions:
REMARK  status: ('A' for Active; 'I' for Inactive)
ROOT
ATOM      1  C   UNL d   1       2.685   1.469   1.427  0.00  0.00     0.172 C 
ATOM      2  N   UNL d   1       1.262   1.394   1.192  0.00  0.00    -0.070 N 
ATOM      3  C1  UNL d   1       0.497   2.366   0.607  0.00  0.00    -0.004 A 
ATOM      4  C2  UNL d   1      -0.804   1.913   0.566  0.00  0.00    -0.047 A 
ATOM      5  C3  UNL d   1      -0.821   0.623   1.148  0.00  0.00    -0.047 A 
ATOM      6  C4  UNL d   1       0.472   0.326   1.527  0.00  0.00    -0.004 A 
ENDROOT
TORSDOF 0
ENDMDL
