MODEL 1
REMARK minimizedAffinity 4.45216703
REMARK minimizedRMSD -1
REMARK  0 active torsions:
REMARK  status: ('A' for Active; 'I' for Inactive)
ROOT
ATOM      1  C   UNL d   1      -0.609   3.176   0.348  0.00  0.00     0.172 C 
ATOM      2  N   UNL d   1       0.525   2.690   1.099  0.00  0.00    -0.070 N 
ATOM      3  C1  UNL d   1       1.767   2.427   0.587  0.00  0.00    -0.004 A 
ATOM      4  C2  UNL d   1       2.564   1.984   1.620  0.00  0.00    -0.047 A 
ATOM      5  C3  UNL d   1       1.773   1.978   2.793  0.00  0.00    -0.047 A 
ATOM      6  C4  UNL d   1       0.515   2.420   2.442  0.00  0.00    -0.004 A 
ENDROOT
TORSDOF 0
ENDMDL
