MODEL 1
REMARK minimizedAffinity 0.110638931
REMARK minimizedRMSD -1
REMARK  0 active torsions:
REMARK  status: ('A' for Active; 'I' for Inactive)
ROOT
ATOM      1  C   UNL d   1       5.155  -5.333  -5.286  0.00  0.00     0.172 C 
ATOM      2  N   UNL d   1       3.737  -5.497  -5.071  0.00  0.00    -0.070 N 
ATOM      3  C1  UNL d   1       3.061  -5.181  -3.923  0.00  0.00    -0.004 A 
ATOM      4  C2  UNL d   1       1.731  -5.483  -4.119  0.00  0.00    -0.047 A 
ATOM      5  C3  UNL d   1       1.603  -5.999  -5.430  0.00  0.00    -0.047 A 
ATOM      6  C4  UNL d   1       2.860  -5.997  -5.997  0.00  0.00    -0.004 A 
ENDROOT
TORSDOF 0
ENDMDL
