MODEL 1
REMARK minimizedAffinity 2.17357087
REMARK minimizedRMSD -1
REMARK  0 active torsions:
REMARK  status: ('A' for Active; 'I' for Inactive)
ROOT
ATOM      1  C   UNL d   1       2.106   2.052   1.207  0.00  0.00     0.172 C 
ATOM      2  N   UNL d   1       0.679   2.268   1.231  0.00  0.00    -0.070 N 
ATOM      3  C1  UNL d   1      -0.168   1.898   2.242  0.00  0.00    -0.004 A 
ATOM      4  C2  UNL d   1      -1.443   2.281   1.886  0.00  0.00    -0.047 A 
ATOM      5  C3  UNL d   1      -1.360   2.901   0.617  0.00  0.00    -0.047 A 
ATOM      6  C4  UNL d   1      -0.035   2.880   0.235  0.00  0.00    -0.004 A 
ENDROOT
TORSDOF 0
ENDMDL
