MODEL 1
REMARK minimizedAffinity 2.58804965
REMARK minimizedRMSD -1
REMARK  0 active torsions:
REMARK  status: ('A' for Active; 'I' for Inactive)
ROOT
ATOM      1  C   UNL d   1      -0.666   2.393   1.871  0.00  0.00     0.172 C 
ATOM      2  N   UNL d   1       0.723   2.042   1.688  0.00  0.00    -0.070 N 
ATOM      3  C1  UNL d   1       1.615   1.767   2.690  0.00  0.00    -0.004 A 
ATOM      4  C2  UNL d   1       2.830   1.478   2.106  0.00  0.00    -0.047 A 
ATOM      5  C3  UNL d   1       2.661   1.584   0.705  0.00  0.00    -0.047 A 
ATOM      6  C4  UNL d   1       1.348   1.934   0.474  0.00  0.00    -0.004 A 
ENDROOT
TORSDOF 0
ENDMDL
