MODEL 1
REMARK minimizedAffinity 0.811996579
REMARK minimizedRMSD -1
REMARK  0 active torsions:
REMARK  status: ('A' for Active; 'I' for Inactive)
ROOT
ATOM      1  C   UNL d   1       1.902   2.536   0.982  0.00  0.00     0.172 C 
ATOM      2  N   UNL d   1       3.304   2.840   0.817  0.00  0.00    -0.070 N 
ATOM      3  C1  UNL d   1       3.918   4.007   1.187  0.00  0.00    -0.004 A 
ATOM      4  C2  UNL d   1       5.253   3.903   0.862  0.00  0.00    -0.047 A 
ATOM      5  C3  UNL d   1       5.449   2.631   0.275  0.00  0.00    -0.047 A 
ATOM      6  C4  UNL d   1       4.226   1.993   0.259  0.00  0.00    -0.004 A 
ENDROOT
TORSDOF 0
ENDMDL
