MODEL 1
REMARK minimizedAffinity 9.53759003
REMARK minimizedRMSD -1
REMARK  0 active torsions:
REMARK  status: ('A' for Active; 'I' for Inactive)
ROOT
ATOM      1  C   UNL d   1      -2.262  -6.000   0.371  0.00  0.00     0.172 C 
ATOM      2  N   UNL d   1      -1.462  -5.184  -0.512  0.00  0.00    -0.070 N 
ATOM      3  C1  UNL d   1      -1.902  -4.085  -1.201  0.00  0.00    -0.004 A 
ATOM      4  C2  UNL d   1      -0.841  -3.589  -1.927  0.00  0.00    -0.047 A 
ATOM      5  C3  UNL d   1       0.275  -4.419  -1.666  0.00  0.00    -0.047 A 
ATOM      6  C4  UNL d   1      -0.137  -5.398  -0.787  0.00  0.00    -0.004 A 
ENDROOT
TORSDOF 0
ENDMDL
