MODEL 1
REMARK minimizedAffinity 4.05194426
REMARK minimizedRMSD -1
REMARK  0 active torsions:
REMARK  status: ('A' for Active; 'I' for Inactive)
ROOT
ATOM      1  C   UNL d   1       4.472   2.526   4.198  0.00  0.00     0.172 C 
ATOM      2  N   UNL d   1       4.895   3.824   4.669  0.00  0.00    -0.070 N 
ATOM      3  C1  UNL d   1       4.842   4.990   3.952  0.00  0.00    -0.004 A 
ATOM      4  C2  UNL d   1       5.334   5.999   4.750  0.00  0.00    -0.047 A 
ATOM      5  C3  UNL d   1       5.697   5.420   5.990  0.00  0.00    -0.047 A 
ATOM      6  C4  UNL d   1       5.415   4.073   5.912  0.00  0.00    -0.004 A 
ENDROOT
TORSDOF 0
ENDMDL
