MODEL 1
REMARK minimizedAffinity 0.595719755
REMARK minimizedRMSD -1
REMARK  0 active torsions:
REMARK  status: ('A' for Active; 'I' for Inactive)
ROOT
ATOM      1  C   UNL d   1       4.522   2.489   4.302  0.00  0.00     0.172 C 
ATOM      2  N   UNL d   1       4.924   3.808   4.733  0.00  0.00    -0.070 N 
ATOM      3  C1  UNL d   1       5.324   4.147   5.998  0.00  0.00    -0.004 A 
ATOM      4  C2  UNL d   1       5.622   5.493   6.000  0.00  0.00    -0.047 A 
ATOM      5  C3  UNL d   1       5.392   5.979   4.691  0.00  0.00    -0.047 A 
ATOM      6  C4  UNL d   1       4.960   4.915   3.928  0.00  0.00    -0.004 A 
ENDROOT
TORSDOF 0
ENDMDL
