MODEL 1
REMARK minimizedAffinity -3.50767183
REMARK minimizedRMSD -1
REMARK  0 active torsions:
REMARK  status: ('A' for Active; 'I' for Inactive)
ROOT
ATOM      1  C   UNL d   1       3.410   3.393  -4.503  0.00  0.00     0.172 C 
ATOM      2  N   UNL d   1       2.122   2.819  -4.815  0.00  0.00    -0.070 N 
ATOM      3  C1  UNL d   1       1.381   3.083  -5.936  0.00  0.00    -0.004 A 
ATOM      4  C2  UNL d   1       0.222   2.340  -5.860  0.00  0.00    -0.047 A 
ATOM      5  C3  UNL d   1       0.269   1.605  -4.652  0.00  0.00    -0.047 A 
ATOM      6  C4  UNL d   1       1.455   1.921  -4.025  0.00  0.00    -0.004 A 
ENDROOT
TORSDOF 0
ENDMDL
