MODEL 1
REMARK minimizedAffinity -0.585214496
REMARK minimizedRMSD -1
REMARK  0 active torsions:
REMARK  status: ('A' for Active; 'I' for Inactive)
ROOT
ATOM      1  C   UNL d   1       2.417  -5.092  -5.332  0.00  0.00     0.172 C 
ATOM      2  N   UNL d   1       3.859  -5.099  -5.256  0.00  0.00    -0.070 N 
ATOM      3  C1  UNL d   1       4.688  -5.994  -5.878  0.00  0.00    -0.004 A 
ATOM      4  C2  UNL d   1       5.986  -5.661  -5.557  0.00  0.00    -0.047 A 
ATOM      5  C3  UNL d   1       5.936  -4.528  -4.711  0.00  0.00    -0.047 A 
ATOM      6  C4  UNL d   1       4.607  -4.201  -4.541  0.00  0.00    -0.004 A 
ENDROOT
TORSDOF 0
ENDMDL
