MODEL 1
REMARK minimizedAffinity -0.806304812
REMARK minimizedRMSD -1
REMARK  0 active torsions:
REMARK  status: ('A' for Active; 'I' for Inactive)
ROOT
ATOM      1  C   UNL d   1       4.512   6.000   3.242  0.00  0.00     0.172 C 
ATOM      2  N   UNL d   1       4.306   5.774   1.831  0.00  0.00    -0.070 N 
ATOM      3  C1  UNL d   1       3.140   6.000   1.148  0.00  0.00    -0.004 A 
ATOM      4  C2  UNL d   1       3.352   5.662  -0.171  0.00  0.00    -0.047 A 
ATOM      5  C3  UNL d   1       4.691   5.217  -0.285  0.00  0.00    -0.047 A 
ATOM      6  C4  UNL d   1       5.258   5.297   0.969  0.00  0.00    -0.004 A 
ENDROOT
TORSDOF 0
ENDMDL
