MODEL 1
REMARK minimizedAffinity 0.0285209194
REMARK minimizedRMSD -1
REMARK  0 active torsions:
REMARK  status: ('A' for Active; 'I' for Inactive)
ROOT
ATOM      1  C   UNL d   1       4.103   5.999   2.376  0.00  0.00     0.172 C 
ATOM      2  N   UNL d   1       4.607   5.992   3.730  0.00  0.00    -0.070 N 
ATOM      3  C1  UNL d   1       5.928   5.980   4.090  0.00  0.00    -0.004 A 
ATOM      4  C2  UNL d   1       5.990   5.976   5.467  0.00  0.00    -0.047 A 
ATOM      5  C3  UNL d   1       4.660   5.984   5.951  0.00  0.00    -0.047 A 
ATOM      6  C4  UNL d   1       3.824   5.994   4.854  0.00  0.00    -0.004 A 
ENDROOT
TORSDOF 0
ENDMDL
