MODEL 1
REMARK minimizedAffinity 6.02165651
REMARK minimizedRMSD -1
REMARK  0 active torsions:
REMARK  status: ('A' for Active; 'I' for Inactive)
ROOT
ATOM      1  C   UNL d   1       5.452   5.998  -0.026  0.00  0.00     0.172 C 
ATOM      2  N   UNL d   1       4.787   5.998   1.256  0.00  0.00    -0.070 N 
ATOM      3  C1  UNL d   1       5.407   5.999   2.477  0.00  0.00    -0.004 A 
ATOM      4  C2  UNL d   1       4.429   6.000   3.447  0.00  0.00    -0.047 A 
ATOM      5  C3  UNL d   1       3.177   5.999   2.786  0.00  0.00    -0.047 A 
ATOM      6  C4  UNL d   1       3.429   5.998   1.431  0.00  0.00    -0.004 A 
ENDROOT
TORSDOF 0
ENDMDL
