MODEL 1
REMARK minimizedAffinity 5.37692165
REMARK minimizedRMSD -1
REMARK  0 active torsions:
REMARK  status: ('A' for Active; 'I' for Inactive)
ROOT
ATOM      1  C   UNL d   1       2.095   1.516   1.294  0.00  0.00     0.172 C 
ATOM      2  N   UNL d   1       0.725   1.967   1.378  0.00  0.00    -0.070 N 
ATOM      3  C1  UNL d   1      -0.093   1.835   2.468  0.00  0.00    -0.004 A 
ATOM      4  C2  UNL d   1      -1.313   2.390   2.149  0.00  0.00    -0.047 A 
ATOM      5  C3  UNL d   1      -1.226   2.871   0.821  0.00  0.00    -0.047 A 
ATOM      6  C4  UNL d   1       0.047   2.596   0.368  0.00  0.00    -0.004 A 
ENDROOT
TORSDOF 0
ENDMDL
