MODEL 1
REMARK minimizedAffinity 1.45251322
REMARK minimizedRMSD -1
REMARK  0 active torsions:
REMARK  status: ('A' for Active; 'I' for Inactive)
ROOT
ATOM      1  C1  BNZ d   1      -1.121  -2.712   0.797  0.00  0.00     0.000 A 
ATOM      2  C2  BNZ d   1       0.043  -3.260   0.329  0.00  0.00     0.000 A 
ATOM      3  C3  BNZ d   1       0.074  -4.544  -0.140  0.00  0.00     0.000 A 
ATOM      4  C4  BNZ d   1      -1.049  -5.290  -0.104  0.00  0.00     0.000 A 
ATOM      5  C5  BNZ d   1      -2.229  -4.754   0.373  0.00  0.00     0.000 A 
ATOM      6  C6  BNZ d   1      -2.265  -3.449   0.808  0.00  0.00     0.000 A 
ENDROOT
TORSDOF 0
ENDMDL
