MODEL 1
REMARK minimizedAffinity 0.528215408
REMARK minimizedRMSD -1
REMARK  0 active torsions:
REMARK  status: ('A' for Active; 'I' for Inactive)
ROOT
ATOM      1  C1  BNZ d   1       1.001  -1.803   4.897  0.00  0.00     0.000 A 
ATOM      2  C2  BNZ d   1       1.479  -2.143   3.660  0.00  0.00     0.000 A 
ATOM      3  C3  BNZ d   1       2.360  -3.178   3.510  0.00  0.00     0.000 A 
ATOM      4  C4  BNZ d   1       2.792  -3.844   4.600  0.00  0.00     0.000 A 
ATOM      5  C5  BNZ d   1       2.327  -3.507   5.855  0.00  0.00     0.000 A 
ATOM      6  C6  BNZ d   1       1.410  -2.491   5.998  0.00  0.00     0.000 A 
ENDROOT
TORSDOF 0
ENDMDL
