MODEL 1
REMARK minimizedAffinity 5.84117031
REMARK minimizedRMSD -1
REMARK  0 active torsions:
REMARK  status: ('A' for Active; 'I' for Inactive)
ROOT
ATOM      1  C1  BNZ d   1       1.226  -1.107   2.184  0.00  0.00     0.000 A 
ATOM      2  C2  BNZ d   1       1.967  -0.635   1.133  0.00  0.00     0.000 A 
ATOM      3  C3  BNZ d   1       2.928  -1.412   0.549  0.00  0.00     0.000 A 
ATOM      4  C4  BNZ d   1       3.174  -2.643   1.041  0.00  0.00     0.000 A 
ATOM      5  C5  BNZ d   1       2.442  -3.130   2.106  0.00  0.00     0.000 A 
ATOM      6  C6  BNZ d   1       1.449  -2.360   2.666  0.00  0.00     0.000 A 
ENDROOT
TORSDOF 0
ENDMDL
