MODEL 1
REMARK minimizedAffinity 6.03043556
REMARK minimizedRMSD -1
REMARK  0 active torsions:
REMARK  status: ('A' for Active; 'I' for Inactive)
ROOT
ATOM      1  C1  BNZ d   1       5.197  -2.802   0.559  0.00  0.00     0.000 A 
ATOM      2  C2  BNZ d   1       3.920  -2.621   0.099  0.00  0.00     0.000 A 
ATOM      3  C3  BNZ d   1       3.430  -3.384  -0.924  0.00  0.00     0.000 A 
ATOM      4  C4  BNZ d   1       4.230  -4.297  -1.512  0.00  0.00     0.000 A 
ATOM      5  C5  BNZ d   1       5.523  -4.485  -1.066  0.00  0.00     0.000 A 
ATOM      6  C6  BNZ d   1       6.000  -3.742  -0.010  0.00  0.00     0.000 A 
ENDROOT
TORSDOF 0
ENDMDL
