MODEL 1
REMARK minimizedAffinity 5.7466321
REMARK minimizedRMSD -1
REMARK  0 active torsions:
REMARK  status: ('A' for Active; 'I' for Inactive)
ROOT
ATOM      1  C1  BNZ d   1       1.284  -2.100   4.959  0.00  0.00     0.000 A 
ATOM      2  C2  BNZ d   1       1.086  -1.393   3.802  0.00  0.00     0.000 A 
ATOM      3  C3  BNZ d   1       1.448  -1.916   2.592  0.00  0.00     0.000 A 
ATOM      4  C4  BNZ d   1       2.043  -3.126   2.544  0.00  0.00     0.000 A 
ATOM      5  C5  BNZ d   1       2.257  -3.846   3.702  0.00  0.00     0.000 A 
ATOM      6  C6  BNZ d   1       1.856  -3.333   4.914  0.00  0.00     0.000 A 
ENDROOT
TORSDOF 0
ENDMDL
