MODEL 1
REMARK minimizedAffinity 7.5677824
REMARK minimizedRMSD -1
REMARK  0 active torsions:
REMARK  status: ('A' for Active; 'I' for Inactive)
ROOT
ATOM      1  C1  BNZ d   1       1.134  -2.260   3.615  0.00  0.00     0.000 A 
ATOM      2  C2  BNZ d   1       0.768  -1.721   4.819  0.00  0.00     0.000 A 
ATOM      3  C3  BNZ d   1       1.177  -2.289   5.994  0.00  0.00     0.000 A 
ATOM      4  C4  BNZ d   1       1.917  -3.416   5.963  0.00  0.00     0.000 A 
ATOM      5  C5  BNZ d   1       2.287  -3.977   4.756  0.00  0.00     0.000 A 
ATOM      6  C6  BNZ d   1       1.906  -3.380   3.576  0.00  0.00     0.000 A 
ENDROOT
TORSDOF 0
ENDMDL
