MODEL 1
REMARK minimizedAffinity -4.46433735
REMARK minimizedRMSD -1
REMARK  2 active torsions:
REMARK  status: ('A' for Active; 'I' for Inactive)
REMARK    1  A    between atoms: C1_2  and  C2_3 
REMARK    2  A    between atoms: C2_3  and  C3_4 
ROOT
ATOM      1  C3  UNL d   1       1.650  -0.013  -0.797  0.00  0.00    -0.075 A 
ATOM      2  C4  UNL d   1       2.356  -0.853  -1.671  0.00  0.00     0.002 A 
ATOM      3  C5  UNL d   1       1.940  -2.168  -1.881  0.00  0.00     0.002 A 
ATOM      4  C6  UNL d   1       0.822  -2.663  -1.213  0.00  0.00    -0.004 A 
ATOM      5  C7  UNL d   1       0.123  -1.843  -0.330  0.00  0.00     0.002 A 
ATOM      6  C8  UNL d   1       0.534  -0.526  -0.122  0.00  0.00     0.002 A 
ENDROOT
BRANCH   1   7
ATOM      7  C2  UNL d   1       2.077   1.420  -0.589  0.00  0.00     0.056 C 
BRANCH   7   8
ATOM      8  C1  UNL d   1       1.365   2.422  -1.502  0.00  0.00     0.007 C 
ATOM      9  C   UNL d   1      -0.152   2.291  -1.470  0.00  0.00     0.009 C 
ENDBRANCH   7   8
ENDBRANCH   1   7
TORSDOF 2
ENDMDL
