MODEL 1
REMARK minimizedAffinity -5.43101645
REMARK minimizedRMSD -1
REMARK  2 active torsions:
REMARK  status: ('A' for Active; 'I' for Inactive)
REMARK    1  A    between atoms: C1_2  and  C2_3 
REMARK    2  A    between atoms: C2_3  and  C3_4 
ROOT
ATOM      1  C3  UNL d   1      -0.040   0.037   0.090  0.00  0.00    -0.075 A 
ATOM      2  C4  UNL d   1       0.404  -1.291   0.007  0.00  0.00     0.002 A 
ATOM      3  C5  UNL d   1       1.639  -1.590  -0.569  0.00  0.00     0.002 A 
ATOM      4  C6  UNL d   1       2.439  -0.570  -1.079  0.00  0.00    -0.004 A 
ATOM      5  C7  UNL d   1       2.000   0.751  -1.017  0.00  0.00     0.002 A 
ATOM      6  C8  UNL d   1       0.767   1.054  -0.437  0.00  0.00     0.002 A 
ENDROOT
BRANCH   1   7
ATOM      7  C2  UNL d   1      -1.362   0.370   0.739  0.00  0.00     0.056 C 
BRANCH   7   8
ATOM      8  C1  UNL d   1      -1.240   1.251   1.987  0.00  0.00     0.007 C 
ATOM      9  C   UNL d   1      -2.360   1.026   2.993  0.00  0.00     0.009 C 
ENDBRANCH   7   8
ENDBRANCH   1   7
TORSDOF 2
ENDMDL
