MODEL 1
REMARK minimizedAffinity -3.2745626
REMARK minimizedRMSD -1
REMARK  2 active torsions:
REMARK  status: ('A' for Active; 'I' for Inactive)
REMARK    1  A    between atoms: C1_2  and  C2_3 
REMARK    2  A    between atoms: C2_3  and  C3_4 
ROOT
ATOM      1  C3  UNL d   1       1.209  -0.863  -0.907  0.00  0.00    -0.075 A 
ATOM      2  C4  UNL d   1       0.113  -1.439  -0.249  0.00  0.00     0.002 A 
ATOM      3  C5  UNL d   1      -0.776  -0.644   0.476  0.00  0.00     0.002 A 
ATOM      4  C6  UNL d   1      -0.575   0.732   0.559  0.00  0.00    -0.004 A 
ATOM      5  C7  UNL d   1       0.519   1.313  -0.077  0.00  0.00     0.002 A 
ATOM      6  C8  UNL d   1       1.408   0.521  -0.806  0.00  0.00     0.002 A 
ENDROOT
BRANCH   1   7
ATOM      7  C2  UNL d   1       2.158  -1.713  -1.717  0.00  0.00     0.056 C 
BRANCH   7   8
ATOM      8  C1  UNL d   1       1.551  -3.032  -2.208  0.00  0.00     0.007 C 
ATOM      9  C   UNL d   1       1.188  -3.012  -3.687  0.00  0.00     0.009 C 
ENDBRANCH   7   8
ENDBRANCH   1   7
TORSDOF 2
ENDMDL
