MODEL 1
REMARK minimizedAffinity -3.73925805
REMARK minimizedRMSD -1
REMARK  2 active torsions:
REMARK  status: ('A' for Active; 'I' for Inactive)
REMARK    1  A    between atoms: C1_2  and  C2_3 
REMARK    2  A    between atoms: C2_3  and  C3_4 
ROOT
ATOM      1  C3  UNL d   1      -0.867   0.559   0.973  0.00  0.00    -0.075 A 
ATOM      2  C4  UNL d   1       0.310  -0.198   1.072  0.00  0.00     0.002 A 
ATOM      3  C5  UNL d   1       1.268  -0.153   0.058  0.00  0.00     0.002 A 
ATOM      4  C6  UNL d   1       1.058   0.639  -1.068  0.00  0.00    -0.004 A 
ATOM      5  C7  UNL d   1      -0.115   1.382  -1.184  0.00  0.00     0.002 A 
ATOM      6  C8  UNL d   1      -1.073   1.343  -0.170  0.00  0.00     0.002 A 
ENDROOT
BRANCH   1   7
ATOM      7  C2  UNL d   1      -1.894   0.537   2.080  0.00  0.00     0.056 C 
BRANCH   7   8
ATOM      8  C1  UNL d   1      -1.702   1.636   3.131  0.00  0.00     0.007 C 
ATOM      9  C   UNL d   1      -1.502   1.091   4.539  0.00  0.00     0.009 C 
ENDBRANCH   7   8
ENDBRANCH   1   7
TORSDOF 2
ENDMDL
