MODEL 1
REMARK minimizedAffinity -2.49922323
REMARK minimizedRMSD -1
REMARK  2 active torsions:
REMARK  status: ('A' for Active; 'I' for Inactive)
REMARK    1  A    between atoms: C1_2  and  C2_3 
REMARK    2  A    between atoms: C2_3  and  C3_4 
ROOT
ATOM      1  C3  UNL d   1       0.189   0.073   0.053  0.00  0.00    -0.075 A 
ATOM      2  C4  UNL d   1      -0.215  -1.231  -0.270  0.00  0.00     0.002 A 
ATOM      3  C5  UNL d   1       0.630  -2.078  -0.987  0.00  0.00     0.002 A 
ATOM      4  C6  UNL d   1       1.884  -1.631  -1.397  0.00  0.00    -0.004 A 
ATOM      5  C7  UNL d   1       2.290  -0.333  -1.096  0.00  0.00     0.002 A 
ATOM      6  C8  UNL d   1       1.447   0.516  -0.376  0.00  0.00     0.002 A 
ENDROOT
BRANCH   1   7
ATOM      7  C2  UNL d   1      -0.710   0.985   0.853  0.00  0.00     0.056 C 
BRANCH   7   8
ATOM      8  C1  UNL d   1      -1.326   0.324   2.090  0.00  0.00     0.007 C 
ATOM      9  C   UNL d   1      -1.542   1.294   3.244  0.00  0.00     0.009 C 
ENDBRANCH   7   8
ENDBRANCH   1   7
TORSDOF 2
ENDMDL
