MODEL 1
REMARK minimizedAffinity -5.54568815
REMARK minimizedRMSD -1
REMARK  2 active torsions:
REMARK  status: ('A' for Active; 'I' for Inactive)
REMARK    1  A    between atoms: C1_2  and  C2_3 
REMARK    2  A    between atoms: C2_3  and  C3_4 
ROOT
ATOM      1  C3  UNL d   1      -0.030   0.071  -0.066  0.00  0.00    -0.075 A 
ATOM      2  C4  UNL d   1       0.021  -1.331  -0.063  0.00  0.00     0.002 A 
ATOM      3  C5  UNL d   1       1.138  -2.000  -0.564  0.00  0.00     0.002 A 
ATOM      4  C6  UNL d   1       2.211  -1.279  -1.082  0.00  0.00    -0.004 A 
ATOM      5  C7  UNL d   1       2.164   0.114  -1.105  0.00  0.00     0.002 A 
ATOM      6  C8  UNL d   1       1.050   0.786  -0.600  0.00  0.00     0.002 A 
ENDROOT
BRANCH   1   7
ATOM      7  C2  UNL d   1      -1.224   0.801   0.502  0.00  0.00     0.056 C 
BRANCH   7   8
ATOM      8  C1  UNL d   1      -1.693   0.269   1.860  0.00  0.00     0.007 C 
ATOM      9  C   UNL d   1      -1.450   1.244   3.004  0.00  0.00     0.009 C 
ENDBRANCH   7   8
ENDBRANCH   1   7
TORSDOF 2
ENDMDL
