MODEL 1
REMARK minimizedAffinity -4.76202965
REMARK minimizedRMSD -1
REMARK  2 active torsions:
REMARK  status: ('A' for Active; 'I' for Inactive)
REMARK    1  A    between atoms: C1_2  and  C2_3 
REMARK    2  A    between atoms: C2_3  and  C3_4 
ROOT
ATOM      1  C3  UNL d   1       1.176  -0.251  -0.426  0.00  0.00    -0.075 A 
ATOM      2  C4  UNL d   1       0.392  -1.070   0.399  0.00  0.00     0.002 A 
ATOM      3  C5  UNL d   1       0.354  -2.450   0.197  0.00  0.00     0.002 A 
ATOM      4  C6  UNL d   1       1.089  -3.026  -0.837  0.00  0.00    -0.004 A 
ATOM      5  C7  UNL d   1       1.858  -2.220  -1.673  0.00  0.00     0.002 A 
ATOM      6  C8  UNL d   1       1.902  -0.840  -1.470  0.00  0.00     0.002 A 
ENDROOT
BRANCH   1   7
ATOM      7  C2  UNL d   1       1.245   1.240  -0.194  0.00  0.00     0.056 C 
BRANCH   7   8
ATOM      8  C1  UNL d   1       0.847   2.079  -1.412  0.00  0.00     0.007 C 
ATOM      9  C   UNL d   1      -0.632   1.972  -1.759  0.00  0.00     0.009 C 
ENDBRANCH   7   8
ENDBRANCH   1   7
TORSDOF 2
ENDMDL
