MODEL 1
REMARK minimizedAffinity -5.25144243
REMARK minimizedRMSD -1
REMARK  2 active torsions:
REMARK  status: ('A' for Active; 'I' for Inactive)
REMARK    1  A    between atoms: C1_2  and  C2_3 
REMARK    2  A    between atoms: C2_3  and  C3_4 
ROOT
ATOM      1  C3  UNL d   1      -0.221  -0.271  -0.447  0.00  0.00    -0.075 A 
ATOM      2  C4  UNL d   1      -0.015  -1.657  -0.380  0.00  0.00     0.002 A 
ATOM      3  C5  UNL d   1       1.223  -2.206  -0.714  0.00  0.00     0.002 A 
ATOM      4  C6  UNL d   1       2.266  -1.381  -1.128  0.00  0.00    -0.004 A 
ATOM      5  C7  UNL d   1       2.068  -0.004  -1.214  0.00  0.00     0.002 A 
ATOM      6  C8  UNL d   1       0.832   0.549  -0.876  0.00  0.00     0.002 A 
ENDROOT
BRANCH   1   7
ATOM      7  C2  UNL d   1      -1.549   0.332  -0.058  0.00  0.00     0.056 C 
BRANCH   7   8
ATOM      8  C1  UNL d   1      -2.190  -0.312   1.175  0.00  0.00     0.007 C 
ATOM      9  C   UNL d   1      -1.958   0.479   2.455  0.00  0.00     0.009 C 
ENDBRANCH   7   8
ENDBRANCH   1   7
TORSDOF 2
ENDMDL
