MODEL 1
REMARK minimizedAffinity -5.74910736
REMARK minimizedRMSD -1
REMARK  2 active torsions:
REMARK  status: ('A' for Active; 'I' for Inactive)
REMARK    1  A    between atoms: C1_2  and  C2_3 
REMARK    2  A    between atoms: C2_3  and  C3_4 
ROOT
ATOM      1  C3  UNL d   1       0.157   0.245   0.125  0.00  0.00    -0.075 A 
ATOM      2  C4  UNL d   1       0.363  -1.125  -0.098  0.00  0.00     0.002 A 
ATOM      3  C5  UNL d   1       1.500  -1.569  -0.775  0.00  0.00     0.002 A 
ATOM      4  C6  UNL d   1       2.437  -0.652  -1.245  0.00  0.00    -0.004 A 
ATOM      5  C7  UNL d   1       2.234   0.712  -1.044  0.00  0.00     0.002 A 
ATOM      6  C8  UNL d   1       1.100   1.159  -0.364  0.00  0.00     0.002 A 
ENDROOT
BRANCH   1   7
ATOM      7  C2  UNL d   1      -1.056   0.730   0.882  0.00  0.00     0.056 C 
BRANCH   7   8
ATOM      8  C1  UNL d   1      -0.724   1.594   2.103  0.00  0.00     0.007 C 
ATOM      9  C   UNL d   1      -1.520   1.210   3.344  0.00  0.00     0.009 C 
ENDBRANCH   7   8
ENDBRANCH   1   7
TORSDOF 2
ENDMDL
