MODEL 1
REMARK minimizedAffinity -5.20481491
REMARK minimizedRMSD -1
REMARK  2 active torsions:
REMARK  status: ('A' for Active; 'I' for Inactive)
REMARK    1  A    between atoms: C1_2  and  C2_3 
REMARK    2  A    between atoms: C2_3  and  C3_4 
ROOT
ATOM      1  C3  UNL d   1      -0.734  -1.717  -0.802  0.00  0.00    -0.075 A 
ATOM      2  C4  UNL d   1      -0.947  -0.368  -0.480  0.00  0.00     0.002 A 
ATOM      3  C5  UNL d   1       0.120   0.531  -0.456  0.00  0.00     0.002 A 
ATOM      4  C6  UNL d   1       1.411   0.093  -0.743  0.00  0.00    -0.004 A 
ATOM      5  C7  UNL d   1       1.636  -1.248  -1.048  0.00  0.00     0.002 A 
ATOM      6  C8  UNL d   1       0.570  -2.149  -1.077  0.00  0.00     0.002 A 
ENDROOT
BRANCH   1   7
ATOM      7  C2  UNL d   1      -1.888  -2.689  -0.859  0.00  0.00     0.056 C 
BRANCH   7   8
ATOM      8  C1  UNL d   1      -1.527  -4.113  -0.423  0.00  0.00     0.007 C 
ATOM      9  C   UNL d   1      -2.706  -5.075  -0.475  0.00  0.00     0.009 C 
ENDBRANCH   7   8
ENDBRANCH   1   7
TORSDOF 2
ENDMDL
