MODEL 1
REMARK minimizedAffinity 3.15564299
REMARK minimizedRMSD -1
REMARK  0 active torsions:
REMARK  status: ('A' for Active; 'I' for Inactive)
ROOT
ATOM      1  C   UNL d   1      -2.409  -1.543   4.271  0.00  0.00     0.077 C 
ATOM      2  C1  UNL d   1      -1.593  -0.436   3.674  0.00  0.00    -0.074 A 
ATOM      3  C2  UNL d   1      -2.035   0.890   3.723  0.00  0.00    -0.005 A 
ATOM      4  C3  UNL d   1      -1.261   1.911   3.172  0.00  0.00     0.006 A 
ATOM      5  C4  UNL d   1      -0.037   1.617   2.568  0.00  0.00    -0.005 A 
ATOM      6  C5  UNL d   1       0.422   0.297   2.511  0.00  0.00    -0.074 A 
ATOM      7  C6  UNL d   1       1.739  -0.035   1.875  0.00  0.00     0.077 C 
ATOM      8  C7  UNL d   1      -0.359  -0.722   3.073  0.00  0.00    -0.001 A 
ENDROOT
TORSDOF 0
ENDMDL
