MODEL 1
REMARK minimizedAffinity 3.7194016
REMARK minimizedRMSD -1
REMARK  0 active torsions:
REMARK  status: ('A' for Active; 'I' for Inactive)
ROOT
ATOM      1  C   UNL d   1      -2.366   0.025   2.959  0.00  0.00     0.077 C 
ATOM      2  C1  UNL d   1      -0.965   0.534   2.796  0.00  0.00    -0.074 A 
ATOM      3  C2  UNL d   1      -0.547   1.707   3.432  0.00  0.00    -0.005 A 
ATOM      4  C3  UNL d   1       0.762   2.163   3.278  0.00  0.00     0.006 A 
ATOM      5  C4  UNL d   1       1.666   1.452   2.488  0.00  0.00    -0.005 A 
ATOM      6  C5  UNL d   1       1.267   0.276   1.845  0.00  0.00    -0.074 A 
ATOM      7  C6  UNL d   1       2.228  -0.507   1.000  0.00  0.00     0.077 C 
ATOM      8  C7  UNL d   1      -0.049  -0.180   2.010  0.00  0.00    -0.001 A 
ENDROOT
TORSDOF 0
ENDMDL
