MODEL 1
REMARK minimizedAffinity 6.87476444
REMARK minimizedRMSD -1
REMARK  0 active torsions:
REMARK  status: ('A' for Active; 'I' for Inactive)
ROOT
ATOM      1  C   UNL d   1       1.706  -0.330   3.199  0.00  0.00     0.077 C 
ATOM      2  C1  UNL d   1       2.109   0.020   1.797  0.00  0.00    -0.074 A 
ATOM      3  C2  UNL d   1       2.823  -0.887   1.007  0.00  0.00    -0.005 A 
ATOM      4  C3  UNL d   1       3.183  -0.550  -0.298  0.00  0.00     0.006 A 
ATOM      5  C4  UNL d   1       2.833   0.693  -0.825  0.00  0.00    -0.005 A 
ATOM      6  C5  UNL d   1       2.118   1.612  -0.050  0.00  0.00    -0.074 A 
ATOM      7  C6  UNL d   1       1.725   2.949  -0.605  0.00  0.00     0.077 C 
ATOM      8  C7  UNL d   1       1.754   1.264   1.258  0.00  0.00    -0.001 A 
ENDROOT
TORSDOF 0
ENDMDL
