MODEL 1
REMARK minimizedAffinity 3.55997968
REMARK minimizedRMSD -1
REMARK  0 active torsions:
REMARK  status: ('A' for Active; 'I' for Inactive)
ROOT
ATOM      1  C   UNL d   1       1.116  -1.868  -6.000  0.00  0.00     0.077 C 
ATOM      2  C1  UNL d   1       0.320  -2.434  -4.861  0.00  0.00    -0.074 A 
ATOM      3  C2  UNL d   1      -0.431  -1.602  -4.026  0.00  0.00    -0.005 A 
ATOM      4  C3  UNL d   1      -1.174  -2.144  -2.977  0.00  0.00     0.006 A 
ATOM      5  C4  UNL d   1      -1.172  -3.521  -2.753  0.00  0.00    -0.005 A 
ATOM      6  C5  UNL d   1      -0.427  -4.369  -3.579  0.00  0.00    -0.074 A 
ATOM      7  C6  UNL d   1      -0.423  -5.852  -3.358  0.00  0.00     0.077 C 
ATOM      8  C7  UNL d   1       0.311  -3.818  -4.635  0.00  0.00    -0.001 A 
ENDROOT
TORSDOF 0
ENDMDL
