MODEL 1
REMARK minimizedAffinity 6.71679306
REMARK minimizedRMSD -1
REMARK  0 active torsions:
REMARK  status: ('A' for Active; 'I' for Inactive)
ROOT
ATOM      1  C   UNL d   1       2.916  -0.427   2.423  0.00  0.00     0.077 C 
ATOM      2  C1  UNL d   1       2.513   0.228   1.135  0.00  0.00    -0.074 A 
ATOM      3  C2  UNL d   1       2.251  -0.535  -0.008  0.00  0.00    -0.005 A 
ATOM      4  C3  UNL d   1       1.868   0.087  -1.196  0.00  0.00     0.006 A 
ATOM      5  C4  UNL d   1       1.744   1.476  -1.254  0.00  0.00    -0.005 A 
ATOM      6  C5  UNL d   1       2.001   2.255  -0.121  0.00  0.00    -0.074 A 
ATOM      7  C6  UNL d   1       1.863   3.748  -0.163  0.00  0.00     0.077 C 
ATOM      8  C7  UNL d   1       2.379   1.622   1.071  0.00  0.00    -0.001 A 
ENDROOT
TORSDOF 0
ENDMDL
