MODEL 1
REMARK minimizedAffinity 8.23808002
REMARK minimizedRMSD -1
REMARK  0 active torsions:
REMARK  status: ('A' for Active; 'I' for Inactive)
ROOT
ATOM      1  C   UNL d   1       3.940  -0.305   3.063  0.00  0.00     0.077 C 
ATOM      2  C1  UNL d   1       2.671  -0.173   2.275  0.00  0.00    -0.074 A 
ATOM      3  C2  UNL d   1       2.648  -0.433   0.901  0.00  0.00    -0.005 A 
ATOM      4  C3  UNL d   1       1.458  -0.316   0.183  0.00  0.00     0.006 A 
ATOM      5  C4  UNL d   1       0.281   0.062   0.830  0.00  0.00    -0.005 A 
ATOM      6  C5  UNL d   1       0.285   0.326   2.203  0.00  0.00    -0.074 A 
ATOM      7  C6  UNL d   1      -0.973   0.723   2.916  0.00  0.00     0.077 C 
ATOM      8  C7  UNL d   1       1.483   0.199   2.919  0.00  0.00    -0.001 A 
ENDROOT
TORSDOF 0
ENDMDL
