MODEL 1
REMARK minimizedAffinity 12.2871304
REMARK minimizedRMSD -1
REMARK  0 active torsions:
REMARK  status: ('A' for Active; 'I' for Inactive)
ROOT
ATOM      1  C   UNL d   1       1.505   2.730   6.000  0.00  0.00     0.077 C 
ATOM      2  C1  UNL d   1       2.688   2.065   5.361  0.00  0.00    -0.074 A 
ATOM      3  C2  UNL d   1       3.983   2.282   5.846  0.00  0.00    -0.005 A 
ATOM      4  C3  UNL d   1       5.072   1.649   5.248  0.00  0.00     0.006 A 
ATOM      5  C4  UNL d   1       4.879   0.795   4.161  0.00  0.00    -0.005 A 
ATOM      6  C5  UNL d   1       3.593   0.565   3.664  0.00  0.00    -0.074 A 
ATOM      7  C6  UNL d   1       3.367  -0.357   2.503  0.00  0.00     0.077 C 
ATOM      8  C7  UNL d   1       2.502   1.200   4.275  0.00  0.00    -0.001 A 
ENDROOT
TORSDOF 0
ENDMDL
