MODEL 1
REMARK minimizedAffinity -4.97041655
REMARK minimizedRMSD -1
REMARK  0 active torsions:
REMARK  status: ('A' for Active; 'I' for Inactive)
ROOT
ATOM      1  C1  BNZ d   1       0.985  -0.010  -1.831  0.00  0.00     0.000 A 
ATOM      2  C2  BNZ d   1       0.994  -0.244  -0.481  0.00  0.00     0.000 A 
ATOM      3  C3  BNZ d   1       1.172   0.780   0.406  0.00  0.00     0.000 A 
ATOM      4  C4  BNZ d   1       1.381   2.029  -0.057  0.00  0.00     0.000 A 
ATOM      5  C5  BNZ d   1       1.385   2.280  -1.415  0.00  0.00     0.000 A 
ATOM      6  C6  BNZ d   1       1.166   1.253  -2.304  0.00  0.00     0.000 A 
ENDROOT
TORSDOF 0
ENDMDL
