MODEL 1
REMARK minimizedAffinity -3.07821631
REMARK minimizedRMSD -1
REMARK  0 active torsions:
REMARK  status: ('A' for Active; 'I' for Inactive)
ROOT
ATOM      1  C1  BNZ d   1       1.726  -0.056   0.157  0.00  0.00     0.000 A 
ATOM      2  C2  BNZ d   1       1.198   1.049   0.771  0.00  0.00     0.000 A 
ATOM      3  C3  BNZ d   1       1.043   2.222   0.087  0.00  0.00     0.000 A 
ATOM      4  C4  BNZ d   1       1.451   2.301  -1.196  0.00  0.00     0.000 A 
ATOM      5  C5  BNZ d   1       1.994   1.199  -1.826  0.00  0.00     0.000 A 
ATOM      6  C6  BNZ d   1       2.113   0.008  -1.146  0.00  0.00     0.000 A 
ENDROOT
TORSDOF 0
ENDMDL
