MODEL 1
REMARK minimizedAffinity -5.27838039
REMARK minimizedRMSD -1
REMARK  0 active torsions:
REMARK  status: ('A' for Active; 'I' for Inactive)
ROOT
ATOM      1  C1  BNZ d   1       1.644   0.720  -1.964  0.00  0.00     0.000 A 
ATOM      2  C2  BNZ d   1       1.335  -0.012  -0.848  0.00  0.00     0.000 A 
ATOM      3  C3  BNZ d   1       0.802   0.588   0.258  0.00  0.00     0.000 A 
ATOM      4  C4  BNZ d   1       0.616   1.924   0.262  0.00  0.00     0.000 A 
ATOM      5  C5  BNZ d   1       0.931   2.678  -0.851  0.00  0.00     0.000 A 
ATOM      6  C6  BNZ d   1       1.431   2.064  -1.977  0.00  0.00     0.000 A 
ENDROOT
TORSDOF 0
ENDMDL
