MODEL 1
REMARK minimizedAffinity -3.35968399
REMARK minimizedRMSD -1
REMARK  0 active torsions:
REMARK  status: ('A' for Active; 'I' for Inactive)
ROOT
ATOM      1  C1  BNZ d   1       1.379   2.855   0.184  0.00  0.00     0.000 A 
ATOM      2  C2  BNZ d   1       1.766   2.938  -1.127  0.00  0.00     0.000 A 
ATOM      3  C3  BNZ d   1       1.696   1.847  -1.948  0.00  0.00     0.000 A 
ATOM      4  C4  BNZ d   1       1.279   0.666  -1.448  0.00  0.00     0.000 A 
ATOM      5  C5  BNZ d   1       0.894   0.564  -0.126  0.00  0.00     0.000 A 
ATOM      6  C6  BNZ d   1       0.929   1.673   0.687  0.00  0.00     0.000 A 
ENDROOT
TORSDOF 0
ENDMDL
