MODEL 1
REMARK minimizedAffinity -1.25340283
REMARK minimizedRMSD -1
REMARK  0 active torsions:
REMARK  status: ('A' for Active; 'I' for Inactive)
ROOT
ATOM      1  C1  BNZ d   1       0.993  -0.310  -1.708  0.00  0.00     0.000 A 
ATOM      2  C2  BNZ d   1       1.091  -0.395  -0.344  0.00  0.00     0.000 A 
ATOM      3  C3  BNZ d   1       1.388   0.707   0.407  0.00  0.00     0.000 A 
ATOM      4  C4  BNZ d   1       1.627   1.883  -0.208  0.00  0.00     0.000 A 
ATOM      5  C5  BNZ d   1       1.541   1.984  -1.583  0.00  0.00     0.000 A 
ATOM      6  C6  BNZ d   1       1.203   0.881  -2.332  0.00  0.00     0.000 A 
ENDROOT
TORSDOF 0
ENDMDL
