MODEL 1
REMARK minimizedAffinity -2.11223102
REMARK minimizedRMSD -1
REMARK  0 active torsions:
REMARK  status: ('A' for Active; 'I' for Inactive)
ROOT
ATOM      1  C1  BNZ d   1       1.536   2.775  -0.557  0.00  0.00     0.000 A 
ATOM      2  C2  BNZ d   1       1.281   1.701   0.252  0.00  0.00     0.000 A 
ATOM      3  C3  BNZ d   1       0.991   0.476  -0.281  0.00  0.00     0.000 A 
ATOM      4  C4  BNZ d   1       0.918   0.336  -1.620  0.00  0.00     0.000 A 
ATOM      5  C5  BNZ d   1       1.163   1.413  -2.450  0.00  0.00     0.000 A 
ATOM      6  C6  BNZ d   1       1.492   2.635  -1.910  0.00  0.00     0.000 A 
ENDROOT
TORSDOF 0
ENDMDL
