MODEL 1
REMARK minimizedAffinity -4.11232185
REMARK minimizedRMSD -1
REMARK  0 active torsions:
REMARK  status: ('A' for Active; 'I' for Inactive)
ROOT
ATOM      1  C1  BNZ d   1       1.243   0.113  -0.771  0.00  0.00     0.000 A 
ATOM      2  C2  BNZ d   1       1.499   0.925  -1.844  0.00  0.00     0.000 A 
ATOM      3  C3  BNZ d   1       1.579   2.281  -1.691  0.00  0.00     0.000 A 
ATOM      4  C4  BNZ d   1       1.364   2.825  -0.477  0.00  0.00     0.000 A 
ATOM      5  C5  BNZ d   1       1.095   2.021   0.613  0.00  0.00     0.000 A 
ATOM      6  C6  BNZ d   1       1.054   0.653   0.463  0.00  0.00     0.000 A 
ENDROOT
TORSDOF 0
ENDMDL
