MODEL 1
REMARK minimizedAffinity 0.863581777
REMARK minimizedRMSD -1
REMARK  0 active torsions:
REMARK  status: ('A' for Active; 'I' for Inactive)
ROOT
ATOM      1  C1  BNZ d   1      -3.119  -3.711   3.755  0.00  0.00     0.000 A 
ATOM      2  C2  BNZ d   1      -2.871  -2.657   4.593  0.00  0.00     0.000 A 
ATOM      3  C3  BNZ d   1      -1.595  -2.217   4.807  0.00  0.00     0.000 A 
ATOM      4  C4  BNZ d   1      -0.565  -2.858   4.217  0.00  0.00     0.000 A 
ATOM      5  C5  BNZ d   1      -0.798  -3.928   3.377  0.00  0.00     0.000 A 
ATOM      6  C6  BNZ d   1      -2.087  -4.343   3.132  0.00  0.00     0.000 A 
ENDROOT
TORSDOF 0
ENDMDL
