MODEL 1
REMARK minimizedAffinity -2.06661081
REMARK minimizedRMSD -1
REMARK  0 active torsions:
REMARK  status: ('A' for Active; 'I' for Inactive)
ROOT
ATOM      1  C1  BNZ d   1       0.837   2.542  -1.466  0.00  0.00     0.000 A 
ATOM      2  C2  BNZ d   1       1.004   1.420  -2.233  0.00  0.00     0.000 A 
ATOM      3  C3  BNZ d   1       1.661   0.327  -1.740  0.00  0.00     0.000 A 
ATOM      4  C4  BNZ d   1       2.185   0.372  -0.498  0.00  0.00     0.000 A 
ATOM      5  C5  BNZ d   1       2.033   1.499   0.284  0.00  0.00     0.000 A 
ATOM      6  C6  BNZ d   1       1.337   2.583  -0.201  0.00  0.00     0.000 A 
ENDROOT
TORSDOF 0
ENDMDL
