MODEL 1
REMARK minimizedAffinity -2.40351462
REMARK minimizedRMSD -1
REMARK  0 active torsions:
REMARK  status: ('A' for Active; 'I' for Inactive)
ROOT
ATOM      1  C1  BNZ d   1       1.513  -1.065  -0.043  0.00  0.00     0.000 A 
ATOM      2  C2  BNZ d   1       1.711  -0.024   0.824  0.00  0.00     0.000 A 
ATOM      3  C3  BNZ d   1       1.409   1.258   0.459  0.00  0.00     0.000 A 
ATOM      4  C4  BNZ d   1       0.949   1.502  -0.785  0.00  0.00     0.000 A 
ATOM      5  C5  BNZ d   1       0.753   0.464  -1.674  0.00  0.00     0.000 A 
ATOM      6  C6  BNZ d   1       1.021  -0.829  -1.290  0.00  0.00     0.000 A 
ENDROOT
TORSDOF 0
ENDMDL
