MODEL 1
REMARK minimizedAffinity -3.69344282
REMARK minimizedRMSD -1
REMARK  0 active torsions:
REMARK  status: ('A' for Active; 'I' for Inactive)
ROOT
ATOM      1  C1  BNZ d   1       1.376   0.478  -1.624  0.00  0.00     0.000 A 
ATOM      2  C2  BNZ d   1       1.187  -0.029  -0.365  0.00  0.00     0.000 A 
ATOM      3  C3  BNZ d   1       0.818   0.785   0.669  0.00  0.00     0.000 A 
ATOM      4  C4  BNZ d   1       0.677   2.109   0.453  0.00  0.00     0.000 A 
ATOM      5  C5  BNZ d   1       0.872   2.636  -0.808  0.00  0.00     0.000 A 
ATOM      6  C6  BNZ d   1       1.206   1.808  -1.855  0.00  0.00     0.000 A 
ENDROOT
TORSDOF 0
ENDMDL
