MODEL 1
REMARK minimizedAffinity -0.393485904
REMARK minimizedRMSD -1
REMARK  0 active torsions:
REMARK  status: ('A' for Active; 'I' for Inactive)
ROOT
ATOM      1  C1  BNZ d   1      -1.514  -4.426  -3.484  0.00  0.00     0.000 A 
ATOM      2  C2  BNZ d   1      -0.873  -5.208  -2.561  0.00  0.00     0.000 A 
ATOM      3  C3  BNZ d   1      -0.990  -4.950  -1.224  0.00  0.00     0.000 A 
ATOM      4  C4  BNZ d   1      -1.714  -3.888  -0.814  0.00  0.00     0.000 A 
ATOM      5  C5  BNZ d   1      -2.357  -3.085  -1.734  0.00  0.00     0.000 A 
ATOM      6  C6  BNZ d   1      -2.269  -3.370  -3.077  0.00  0.00     0.000 A 
ENDROOT
TORSDOF 0
ENDMDL
