MODEL 1
REMARK minimizedAffinity -0.308201671
REMARK minimizedRMSD -1
REMARK  0 active torsions:
REMARK  status: ('A' for Active; 'I' for Inactive)
ROOT
ATOM      1  C1  BNZ d   1      -3.392   1.959   3.697  0.00  0.00     0.000 A 
ATOM      2  C2  BNZ d   1      -4.047   1.698   2.523  0.00  0.00     0.000 A 
ATOM      3  C3  BNZ d   1      -3.864   2.494   1.427  0.00  0.00     0.000 A 
ATOM      4  C4  BNZ d   1      -3.059   3.572   1.518  0.00  0.00     0.000 A 
ATOM      5  C5  BNZ d   1      -2.399   3.854   2.697  0.00  0.00     0.000 A 
ATOM      6  C6  BNZ d   1      -2.555   3.028   3.786  0.00  0.00     0.000 A 
ENDROOT
TORSDOF 0
ENDMDL
