MODEL 1
REMARK minimizedAffinity -1.02086926
REMARK minimizedRMSD -1
REMARK  0 active torsions:
REMARK  status: ('A' for Active; 'I' for Inactive)
ROOT
ATOM      1  C1  BNZ d   1       1.609   2.937  -2.302  0.00  0.00     0.000 A 
ATOM      2  C2  BNZ d   1       1.587   4.298  -2.151  0.00  0.00     0.000 A 
ATOM      3  C3  BNZ d   1       1.398   4.863  -0.921  0.00  0.00     0.000 A 
ATOM      4  C4  BNZ d   1       1.191   4.069   0.149  0.00  0.00     0.000 A 
ATOM      5  C5  BNZ d   1       1.201   2.695   0.012  0.00  0.00     0.000 A 
ATOM      6  C6  BNZ d   1       1.431   2.129  -1.221  0.00  0.00     0.000 A 
ENDROOT
TORSDOF 0
ENDMDL
