MODEL 1
REMARK minimizedAffinity -1.10415554
REMARK minimizedRMSD -1
REMARK  0 active torsions:
REMARK  status: ('A' for Active; 'I' for Inactive)
ROOT
ATOM      1  C1  BNZ d   1       0.751   0.214  -1.553  0.00  0.00     0.000 A 
ATOM      2  C2  BNZ d   1       0.646  -1.080  -1.988  0.00  0.00     0.000 A 
ATOM      3  C3  BNZ d   1       1.088  -2.117  -1.215  0.00  0.00     0.000 A 
ATOM      4  C4  BNZ d   1       1.670  -1.856  -0.027  0.00  0.00     0.000 A 
ATOM      5  C5  BNZ d   1       1.792  -0.556   0.422  0.00  0.00     0.000 A 
ATOM      6  C6  BNZ d   1       1.310   0.482  -0.341  0.00  0.00     0.000 A 
ENDROOT
TORSDOF 0
ENDMDL
