MODEL 1
REMARK minimizedAffinity -2.09545946
REMARK minimizedRMSD -1
REMARK  0 active torsions:
REMARK  status: ('A' for Active; 'I' for Inactive)
ROOT
ATOM      1  C1  BNZ d   1       1.266   1.778  -1.485  0.00  0.00     0.000 A 
ATOM      2  C2  BNZ d   1       1.555   2.963  -2.107  0.00  0.00     0.000 A 
ATOM      3  C3  BNZ d   1       1.723   4.110  -1.383  0.00  0.00     0.000 A 
ATOM      4  C4  BNZ d   1       1.563   4.079  -0.044  0.00  0.00     0.000 A 
ATOM      5  C5  BNZ d   1       1.262   2.893   0.596  0.00  0.00     0.000 A 
ATOM      6  C6  BNZ d   1       1.132   1.733  -0.132  0.00  0.00     0.000 A 
ENDROOT
TORSDOF 0
ENDMDL
