MODEL 1
REMARK minimizedAffinity -5.09161615
REMARK minimizedRMSD -1
REMARK  0 active torsions:
REMARK  status: ('A' for Active; 'I' for Inactive)
ROOT
ATOM      1  C1  BNZ d   1       0.742   2.107   0.594  0.00  0.00     0.000 A 
ATOM      2  C2  BNZ d   1       1.123   3.419   0.690  0.00  0.00     0.000 A 
ATOM      3  C3  BNZ d   1       1.543   4.108  -0.412  0.00  0.00     0.000 A 
ATOM      4  C4  BNZ d   1       1.621   3.474  -1.600  0.00  0.00     0.000 A 
ATOM      5  C5  BNZ d   1       1.249   2.149  -1.712  0.00  0.00     0.000 A 
ATOM      6  C6  BNZ d   1       0.789   1.470  -0.607  0.00  0.00     0.000 A 
ENDROOT
TORSDOF 0
ENDMDL
