MODEL 1
REMARK minimizedAffinity 7.47823048
REMARK minimizedRMSD -1
REMARK  1 active torsions:
REMARK  status: ('A' for Active; 'I' for Inactive)
REMARK    1  A    between atoms: C1_2  and  C2_3 
ROOT
ATOM      1  C2  UNL d   1       1.573   1.649   0.321  0.00  0.00    -0.077 A 
ATOM      2  C3  UNL d   1       0.261   2.012   0.657  0.00  0.00     0.002 A 
ATOM      3  C4  UNL d   1       0.022   2.925   1.686  0.00  0.00     0.002 A 
ATOM      4  C5  UNL d   1       1.090   3.485   2.384  0.00  0.00    -0.004 A 
ATOM      5  C6  UNL d   1       2.398   3.129   2.059  0.00  0.00     0.002 A 
ATOM      6  C7  UNL d   1       2.639   2.216   1.032  0.00  0.00     0.002 A 
ENDROOT
BRANCH   1   7
ATOM      7  C1  UNL d   1       1.835   0.703  -0.821  0.00  0.00     0.055 C 
ATOM      8  C   UNL d   1       2.544   1.404  -1.970  0.00  0.00     0.019 C 
ENDBRANCH   1   7
TORSDOF 1
ENDMDL
