MODEL 1
REMARK minimizedAffinity -0.232098579
REMARK minimizedRMSD -1
REMARK  1 active torsions:
REMARK  status: ('A' for Active; 'I' for Inactive)
REMARK    1  A    between atoms: C1_2  and  C2_3 
ROOT
ATOM      1  C2  UNL d   1      -0.017   0.522   0.782  0.00  0.00    -0.077 A 
ATOM      2  C3  UNL d   1      -0.443   1.854   0.682  0.00  0.00     0.002 A 
ATOM      3  C4  UNL d   1      -1.790   2.179   0.848  0.00  0.00     0.002 A 
ATOM      4  C5  UNL d   1      -2.722   1.179   1.119  0.00  0.00    -0.004 A 
ATOM      5  C6  UNL d   1      -2.308  -0.149   1.218  0.00  0.00     0.002 A 
ATOM      6  C7  UNL d   1      -0.962  -0.476   1.051  0.00  0.00     0.002 A 
ENDROOT
BRANCH   1   7
ATOM      7  C1  UNL d   1       1.443   0.176   0.652  0.00  0.00     0.055 C 
ATOM      8  C   UNL d   1       1.833  -0.043  -0.803  0.00  0.00     0.019 C 
ENDBRANCH   1   7
TORSDOF 1
ENDMDL
