MODEL 1
REMARK minimizedAffinity 1.33837903
REMARK minimizedRMSD -1
REMARK  1 active torsions:
REMARK  status: ('A' for Active; 'I' for Inactive)
REMARK    1  A    between atoms: C1_2  and  C2_3 
ROOT
ATOM      1  C2  UNL d   1      -1.085   1.572   0.668  0.00  0.00    -0.077 A 
ATOM      2  C3  UNL d   1       0.180   0.970   0.601  0.00  0.00     0.002 A 
ATOM      3  C4  UNL d   1       1.292   1.601   1.162  0.00  0.00     0.002 A 
ATOM      4  C5  UNL d   1       1.150   2.832   1.797  0.00  0.00    -0.004 A 
ATOM      5  C6  UNL d   1      -0.103   3.440   1.867  0.00  0.00     0.002 A 
ATOM      6  C7  UNL d   1      -1.215   2.812   1.306  0.00  0.00     0.002 A 
ENDROOT
BRANCH   1   7
ATOM      7  C1  UNL d   1      -2.294   0.871   0.106  0.00  0.00     0.055 C 
ATOM      8  C   UNL d   1      -2.582  -0.422   0.856  0.00  0.00     0.019 C 
ENDBRANCH   1   7
TORSDOF 1
ENDMDL
