MODEL 1
REMARK minimizedAffinity 3.52035809
REMARK minimizedRMSD -1
REMARK  1 active torsions:
REMARK  status: ('A' for Active; 'I' for Inactive)
REMARK    1  A    between atoms: C1_2  and  C2_3 
ROOT
ATOM      1  C2  UNL d   1       0.671  -0.167   0.256  0.00  0.00    -0.077 A 
ATOM      2  C3  UNL d   1       0.057   1.092   0.306  0.00  0.00     0.002 A 
ATOM      3  C4  UNL d   1      -1.262   1.217   0.745  0.00  0.00     0.002 A 
ATOM      4  C5  UNL d   1      -1.976   0.088   1.141  0.00  0.00    -0.004 A 
ATOM      5  C6  UNL d   1      -1.375  -1.169   1.092  0.00  0.00     0.002 A 
ATOM      6  C7  UNL d   1      -0.057  -1.296   0.652  0.00  0.00     0.002 A 
ENDROOT
BRANCH   1   7
ATOM      7  C1  UNL d   1       2.110  -0.299  -0.171  0.00  0.00     0.055 C 
ATOM      8  C   UNL d   1       2.268  -1.335  -1.274  0.00  0.00     0.019 C 
ENDBRANCH   1   7
TORSDOF 1
ENDMDL
