MODEL 1
REMARK minimizedAffinity -1.49398959
REMARK minimizedRMSD -1
REMARK  1 active torsions:
REMARK  status: ('A' for Active; 'I' for Inactive)
REMARK    1  A    between atoms: C1_2  and  C2_3 
ROOT
ATOM      1  C2  UNL d   1       1.321   1.766   1.351  0.00  0.00    -0.077 A 
ATOM      2  C3  UNL d   1       0.940   0.526   0.819  0.00  0.00     0.002 A 
ATOM      3  C4  UNL d   1      -0.388   0.290   0.458  0.00  0.00     0.002 A 
ATOM      4  C5  UNL d   1      -1.344   1.290   0.620  0.00  0.00    -0.004 A 
ATOM      5  C6  UNL d   1      -0.976   2.526   1.151  0.00  0.00     0.002 A 
ATOM      6  C7  UNL d   1       0.351   2.763   1.514  0.00  0.00     0.002 A 
ENDROOT
BRANCH   1   7
ATOM      7  C1  UNL d   1       2.762   2.039   1.696  0.00  0.00     0.055 C 
ATOM      8  C   UNL d   1       2.884   2.767   3.026  0.00  0.00     0.019 C 
ENDBRANCH   1   7
TORSDOF 1
ENDMDL
