MODEL 1
REMARK minimizedAffinity 4.86121225
REMARK minimizedRMSD -1
REMARK  1 active torsions:
REMARK  status: ('A' for Active; 'I' for Inactive)
REMARK    1  A    between atoms: C1_2  and  C2_3 
ROOT
ATOM      1  C2  UNL d   1       0.478   0.644   0.548  0.00  0.00    -0.077 A 
ATOM      2  C3  UNL d   1      -0.375  -0.469   0.550  0.00  0.00     0.002 A 
ATOM      3  C4  UNL d   1      -1.753  -0.303   0.701  0.00  0.00     0.002 A 
ATOM      4  C5  UNL d   1      -2.290   0.975   0.845  0.00  0.00    -0.004 A 
ATOM      5  C6  UNL d   1      -1.450   2.088   0.846  0.00  0.00     0.002 A 
ATOM      6  C7  UNL d   1      -0.073   1.923   0.697  0.00  0.00     0.002 A 
ENDROOT
BRANCH   1   7
ATOM      7  C1  UNL d   1       1.959   0.470   0.336  0.00  0.00     0.055 C 
ATOM      8  C   UNL d   1       2.297   0.348  -1.143  0.00  0.00     0.019 C 
ENDBRANCH   1   7
TORSDOF 1
ENDMDL
