MODEL 1
REMARK minimizedAffinity 1.87592459
REMARK minimizedRMSD -1
REMARK  1 active torsions:
REMARK  status: ('A' for Active; 'I' for Inactive)
REMARK    1  A    between atoms: C1_2  and  C2_3 
ROOT
ATOM      1  C2  UNL d   1       3.853   2.049   0.431  0.00  0.00    -0.077 A 
ATOM      2  C3  UNL d   1       2.602   2.255   1.029  0.00  0.00     0.002 A 
ATOM      3  C4  UNL d   1       2.500   2.973   2.222  0.00  0.00     0.002 A 
ATOM      4  C5  UNL d   1       3.643   3.492   2.825  0.00  0.00    -0.004 A 
ATOM      5  C6  UNL d   1       4.893   3.290   2.240  0.00  0.00     0.002 A 
ATOM      6  C7  UNL d   1       4.997   2.572   1.047  0.00  0.00     0.002 A 
ENDROOT
BRANCH   1   7
ATOM      7  C1  UNL d   1       3.961   1.318  -0.882  0.00  0.00     0.055 C 
ATOM      8  C   UNL d   1       2.723   0.474  -1.148  0.00  0.00     0.019 C 
ENDBRANCH   1   7
TORSDOF 1
ENDMDL
