MODEL 1
REMARK minimizedAffinity 4.86989546
REMARK minimizedRMSD -1
REMARK  1 active torsions:
REMARK  status: ('A' for Active; 'I' for Inactive)
REMARK    1  A    between atoms: C1_2  and  C2_3 
ROOT
ATOM      1  C2  UNL d   1      -0.965   1.847   0.752  0.00  0.00    -0.077 A 
ATOM      2  C3  UNL d   1      -2.268   1.335   0.822  0.00  0.00     0.002 A 
ATOM      3  C4  UNL d   1      -2.511  -0.015   0.560  0.00  0.00     0.002 A 
ATOM      4  C5  UNL d   1      -1.456  -0.863   0.230  0.00  0.00    -0.004 A 
ATOM      5  C6  UNL d   1      -0.156  -0.362   0.156  0.00  0.00     0.002 A 
ATOM      6  C7  UNL d   1       0.088   0.987   0.417  0.00  0.00     0.002 A 
ENDROOT
BRANCH   1   7
ATOM      7  C1  UNL d   1      -0.694   3.292   1.083  0.00  0.00     0.055 C 
ATOM      8  C   UNL d   1       0.536   3.436   1.967  0.00  0.00     0.019 C 
ENDBRANCH   1   7
TORSDOF 1
ENDMDL
