MODEL 1
REMARK minimizedAffinity 7.14019728
REMARK minimizedRMSD -1
REMARK  0 active torsions:
REMARK  status: ('A' for Active; 'I' for Inactive)
ROOT
ATOM      1  C   UNL d   1       3.345   0.391  -2.712  0.00  0.00     0.078 C 
ATOM      2  C1  UNL d   1       2.910   0.291  -1.281  0.00  0.00    -0.077 A 
ATOM      3  C2  UNL d   1       1.598  -0.069  -0.950  0.00  0.00    -0.001 A 
ATOM      4  C3  UNL d   1       1.204  -0.149   0.387  0.00  0.00     0.003 A 
ATOM      5  C4  UNL d   1       2.115   0.130   1.403  0.00  0.00    -0.005 A 
ATOM      6  C5  UNL d   1       3.422   0.492   1.083  0.00  0.00     0.003 A 
ATOM      7  C6  UNL d   1       3.818   0.572  -0.253  0.00  0.00    -0.001 A 
ENDROOT
TORSDOF 0
ENDMDL
