MODEL 1
REMARK minimizedAffinity 1.59761047
REMARK minimizedRMSD -1
REMARK  0 active torsions:
REMARK  status: ('A' for Active; 'I' for Inactive)
ROOT
ATOM      1  C   UNL d   1       5.261   1.887  -2.555  0.00  0.00     0.078 C 
ATOM      2  C1  UNL d   1       4.132   1.277  -1.780  0.00  0.00    -0.077 A 
ATOM      3  C2  UNL d   1       3.001   0.770  -2.432  0.00  0.00    -0.001 A 
ATOM      4  C3  UNL d   1       1.953   0.214  -1.696  0.00  0.00     0.003 A 
ATOM      5  C4  UNL d   1       2.025   0.161  -0.306  0.00  0.00    -0.005 A 
ATOM      6  C5  UNL d   1       3.145   0.666   0.352  0.00  0.00     0.003 A 
ATOM      7  C6  UNL d   1       4.194   1.223  -0.382  0.00  0.00    -0.001 A 
ENDROOT
TORSDOF 0
ENDMDL
