MODEL 1
REMARK minimizedAffinity 0.823755622
REMARK minimizedRMSD -1
REMARK  0 active torsions:
REMARK  status: ('A' for Active; 'I' for Inactive)
ROOT
ATOM      1  C   UNL d   1       1.675   0.721   1.597  0.00  0.00     0.078 C 
ATOM      2  C1  UNL d   1       0.700   1.130   0.533  0.00  0.00    -0.077 A 
ATOM      3  C2  UNL d   1       0.387   0.271  -0.527  0.00  0.00    -0.001 A 
ATOM      4  C3  UNL d   1      -0.515   0.669  -1.515  0.00  0.00     0.003 A 
ATOM      5  C4  UNL d   1      -1.110   1.927  -1.454  0.00  0.00    -0.005 A 
ATOM      6  C5  UNL d   1      -0.802   2.790  -0.404  0.00  0.00     0.003 A 
ATOM      7  C6  UNL d   1       0.099   2.394   0.585  0.00  0.00    -0.001 A 
ENDROOT
TORSDOF 0
ENDMDL
