MODEL 1
REMARK minimizedAffinity 4.96253061
REMARK minimizedRMSD -1
REMARK  0 active torsions:
REMARK  status: ('A' for Active; 'I' for Inactive)
ROOT
ATOM      1  C   UNL d   1       2.662   1.300   1.108  0.00  0.00     0.078 C 
ATOM      2  C1  UNL d   1       1.507   1.353   0.153  0.00  0.00    -0.077 A 
ATOM      3  C2  UNL d   1       1.201   0.262  -0.670  0.00  0.00    -0.001 A 
ATOM      4  C3  UNL d   1       0.129   0.330  -1.561  0.00  0.00     0.003 A 
ATOM      5  C4  UNL d   1      -0.644   1.487  -1.639  0.00  0.00    -0.005 A 
ATOM      6  C5  UNL d   1      -0.345   2.578  -0.826  0.00  0.00     0.003 A 
ATOM      7  C6  UNL d   1       0.726   2.513   0.066  0.00  0.00    -0.001 A 
ENDROOT
TORSDOF 0
ENDMDL
