MODEL 1
REMARK minimizedAffinity 1.90365493
REMARK minimizedRMSD -1
REMARK  0 active torsions:
REMARK  status: ('A' for Active; 'I' for Inactive)
ROOT
ATOM      1  C   UNL d   1      -0.150  -0.288  -1.060  0.00  0.00     0.078 C 
ATOM      2  C1  UNL d   1       1.237   0.074  -0.619  0.00  0.00    -0.077 A 
ATOM      3  C2  UNL d   1       2.277   0.205  -1.547  0.00  0.00    -0.001 A 
ATOM      4  C3  UNL d   1       3.566   0.532  -1.121  0.00  0.00     0.003 A 
ATOM      5  C4  UNL d   1       3.826   0.729   0.234  0.00  0.00    -0.005 A 
ATOM      6  C5  UNL d   1       2.797   0.599   1.165  0.00  0.00     0.003 A 
ATOM      7  C6  UNL d   1       1.508   0.272   0.740  0.00  0.00    -0.001 A 
ENDROOT
TORSDOF 0
ENDMDL
