MODEL 1
REMARK minimizedAffinity 7.52780199
REMARK minimizedRMSD -1
REMARK  0 active torsions:
REMARK  status: ('A' for Active; 'I' for Inactive)
ROOT
ATOM      1  C   UNL d   1       0.094   5.020   1.548  0.00  0.00     0.078 C 
ATOM      2  C1  UNL d   1      -0.947   4.295   0.748  0.00  0.00    -0.077 A 
ATOM      3  C2  UNL d   1      -2.206   4.864   0.520  0.00  0.00    -0.001 A 
ATOM      4  C3  UNL d   1      -3.169   4.174  -0.218  0.00  0.00     0.003 A 
ATOM      5  C4  UNL d   1      -2.883   2.911  -0.733  0.00  0.00    -0.005 A 
ATOM      6  C5  UNL d   1      -1.633   2.336  -0.510  0.00  0.00     0.003 A 
ATOM      7  C6  UNL d   1      -0.669   3.025   0.228  0.00  0.00    -0.001 A 
ENDROOT
TORSDOF 0
ENDMDL
