MODEL 1
REMARK minimizedAffinity 8.87936306
REMARK minimizedRMSD -1
REMARK  0 active torsions:
REMARK  status: ('A' for Active; 'I' for Inactive)
ROOT
ATOM      1  C   UNL d   1       5.070   2.312  -2.506  0.00  0.00     0.078 C 
ATOM      2  C1  UNL d   1       4.181   1.467  -1.643  0.00  0.00    -0.077 A 
ATOM      3  C2  UNL d   1       3.043   0.845  -2.171  0.00  0.00    -0.001 A 
ATOM      4  C3  UNL d   1       2.219   0.070  -1.353  0.00  0.00     0.003 A 
ATOM      5  C4  UNL d   1       2.524  -0.090  -0.003  0.00  0.00    -0.005 A 
ATOM      6  C5  UNL d   1       3.653   0.526   0.532  0.00  0.00     0.003 A 
ATOM      7  C6  UNL d   1       4.478   1.302  -0.284  0.00  0.00    -0.001 A 
ENDROOT
TORSDOF 0
ENDMDL
