MODEL 1
REMARK minimizedAffinity 3.06472111
REMARK minimizedRMSD -1
REMARK  0 active torsions:
REMARK  status: ('A' for Active; 'I' for Inactive)
ROOT
ATOM      1  C   UNL d   1       2.532  -0.778   2.583  0.00  0.00     0.078 C 
ATOM      2  C1  UNL d   1       2.619  -0.322   1.158  0.00  0.00    -0.077 A 
ATOM      3  C2  UNL d   1       3.321   0.840   0.814  0.00  0.00    -0.001 A 
ATOM      4  C3  UNL d   1       3.386   1.258  -0.516  0.00  0.00     0.003 A 
ATOM      5  C4  UNL d   1       2.750   0.521  -1.513  0.00  0.00    -0.005 A 
ATOM      6  C5  UNL d   1       2.047  -0.636  -1.180  0.00  0.00     0.003 A 
ATOM      7  C6  UNL d   1       1.981  -1.055   0.149  0.00  0.00    -0.001 A 
ENDROOT
TORSDOF 0
ENDMDL
