MODEL 1
REMARK minimizedAffinity -2.8520472
REMARK minimizedRMSD -1
REMARK  0 active torsions:
REMARK  status: ('A' for Active; 'I' for Inactive)
ROOT
ATOM      1  C2' OXE d   1      -0.346  -1.428  -3.548  0.00  0.00     0.078 C 
ATOM      2  C1' OXE d   1       1.358   0.641  -4.383  0.00  0.00     0.078 C 
ATOM      3  C1  OXE d   1       1.533   0.107  -2.983  0.00  0.00    -0.078 A 
ATOM      4  C2  OXE d   1       0.664  -0.874  -2.567  0.00  0.00    -0.078 A 
ATOM      5  C3  OXE d   1       0.816  -1.440  -1.305  0.00  0.00     0.003 A 
ATOM      6  C4  OXE d   1       1.747  -0.914  -0.400  0.00  0.00    -0.002 A 
ATOM      7  C5  OXE d   1       2.615   0.111  -0.790  0.00  0.00    -0.002 A 
ATOM      8  C6  OXE d   1       2.549   0.603  -2.089  0.00  0.00     0.003 A 
ENDROOT
TORSDOF 0
ENDMDL
