MODEL 1
REMARK minimizedAffinity 7.90548134
REMARK minimizedRMSD -1
REMARK  0 active torsions:
REMARK  status: ('A' for Active; 'I' for Inactive)
ROOT
ATOM      1  C2' OXE d   1       1.424  -0.466   0.974  0.00  0.00     0.078 C 
ATOM      2  C1' OXE d   1       0.395  -0.929   3.545  0.00  0.00     0.078 C 
ATOM      3  C1  OXE d   1      -0.561  -0.452   2.480  0.00  0.00    -0.078 A 
ATOM      4  C2  OXE d   1      -0.040  -0.183   1.237  0.00  0.00    -0.078 A 
ATOM      5  C3  OXE d   1      -0.887   0.207   0.204  0.00  0.00     0.003 A 
ATOM      6  C4  OXE d   1      -2.238   0.476   0.458  0.00  0.00    -0.002 A 
ATOM      7  C5  OXE d   1      -2.780   0.247   1.727  0.00  0.00    -0.002 A 
ATOM      8  C6  OXE d   1      -1.967  -0.256   2.736  0.00  0.00     0.003 A 
ENDROOT
TORSDOF 0
ENDMDL
