MODEL 1
REMARK minimizedAffinity 7.66432047
REMARK minimizedRMSD -1
REMARK  0 active torsions:
REMARK  status: ('A' for Active; 'I' for Inactive)
ROOT
ATOM      1  C2' OXE d   1      -3.588  -1.097   3.215  0.00  0.00     0.078 C 
ATOM      2  C1' OXE d   1      -2.659   0.279   0.952  0.00  0.00     0.078 C 
ATOM      3  C1  OXE d   1      -1.634  -0.240   1.930  0.00  0.00    -0.078 A 
ATOM      4  C2  OXE d   1      -2.100  -0.871   3.058  0.00  0.00    -0.078 A 
ATOM      5  C3  OXE d   1      -1.197  -1.417   3.965  0.00  0.00     0.003 A 
ATOM      6  C4  OXE d   1       0.178  -1.195   3.817  0.00  0.00    -0.002 A 
ATOM      7  C5  OXE d   1       0.672  -0.520   2.696  0.00  0.00    -0.002 A 
ATOM      8  C6  OXE d   1      -0.217  -0.075   1.723  0.00  0.00     0.003 A 
ENDROOT
TORSDOF 0
ENDMDL
