MODEL 1
REMARK minimizedAffinity -0.79508549
REMARK minimizedRMSD -1
REMARK  0 active torsions:
REMARK  status: ('A' for Active; 'I' for Inactive)
ROOT
ATOM      1  C2' OXE d   1       1.388  -1.004  -0.055  0.00  0.00     0.078 C 
ATOM      2  C1' OXE d   1       3.065   0.829  -1.362  0.00  0.00     0.078 C 
ATOM      3  C1  OXE d   1       1.924   0.235  -2.149  0.00  0.00    -0.078 A 
ATOM      4  C2  OXE d   1       1.136  -0.696  -1.516  0.00  0.00    -0.078 A 
ATOM      5  C3  OXE d   1       0.037  -1.234  -2.179  0.00  0.00     0.003 A 
ATOM      6  C4  OXE d   1      -0.183  -0.952  -3.532  0.00  0.00    -0.002 A 
ATOM      7  C5  OXE d   1       0.632  -0.036  -4.208  0.00  0.00    -0.002 A 
ATOM      8  C6  OXE d   1       1.661   0.597  -3.520  0.00  0.00     0.003 A 
ENDROOT
TORSDOF 0
ENDMDL
