MODEL 1
REMARK minimizedAffinity 7.63367462
REMARK minimizedRMSD -1
REMARK  0 active torsions:
REMARK  status: ('A' for Active; 'I' for Inactive)
ROOT
ATOM      1  C2' OXE d   1      -3.304   0.408   0.948  0.00  0.00     0.078 C 
ATOM      2  C1' OXE d   1      -3.687  -1.089   3.292  0.00  0.00     0.078 C 
ATOM      3  C1  OXE d   1      -2.273  -0.725   2.912  0.00  0.00    -0.078 A 
ATOM      4  C2  OXE d   1      -2.092  -0.032   1.740  0.00  0.00    -0.078 A 
ATOM      5  C3  OXE d   1      -0.813   0.376   1.371  0.00  0.00     0.003 A 
ATOM      6  C4  OXE d   1       0.304  -0.043   2.103  0.00  0.00    -0.002 A 
ATOM      7  C5  OXE d   1       0.144  -0.783   3.280  0.00  0.00    -0.002 A 
ATOM      8  C6  OXE d   1      -1.137  -1.095   3.720  0.00  0.00     0.003 A 
ENDROOT
TORSDOF 0
ENDMDL
