MODEL 1
REMARK minimizedAffinity 7.61324215
REMARK minimizedRMSD -1
REMARK  0 active torsions:
REMARK  status: ('A' for Active; 'I' for Inactive)
ROOT
ATOM      1  C2' OXE d   1       1.241   0.178   0.597  0.00  0.00     0.078 C 
ATOM      2  C1' OXE d   1      -1.507   0.577   0.191  0.00  0.00     0.078 C 
ATOM      3  C1  OXE d   1      -1.067   0.015   1.519  0.00  0.00    -0.078 A 
ATOM      4  C2  OXE d   1       0.276  -0.221   1.692  0.00  0.00    -0.078 A 
ATOM      5  C3  OXE d   1       0.742  -0.687   2.918  0.00  0.00     0.003 A 
ATOM      6  C4  OXE d   1      -0.158  -1.063   3.922  0.00  0.00    -0.002 A 
ATOM      7  C5  OXE d   1      -1.533  -0.868   3.752  0.00  0.00    -0.002 A 
ATOM      8  C6  OXE d   1      -1.999  -0.292   2.575  0.00  0.00     0.003 A 
ENDROOT
TORSDOF 0
ENDMDL
