MODEL 1
REMARK minimizedAffinity 1.09049273
REMARK minimizedRMSD -1
REMARK  0 active torsions:
REMARK  status: ('A' for Active; 'I' for Inactive)
ROOT
ATOM      1  C2' OXE d   1      -3.233  -0.263  -0.478  0.00  0.00     0.078 C 
ATOM      2  C1' OXE d   1      -2.456   0.755   2.020  0.00  0.00     0.078 C 
ATOM      3  C1  OXE d   1      -1.370   0.296   1.079  0.00  0.00    -0.078 A 
ATOM      4  C2  OXE d   1      -1.762  -0.244  -0.123  0.00  0.00    -0.078 A 
ATOM      5  C3  OXE d   1      -0.799  -0.633  -1.050  0.00  0.00     0.003 A 
ATOM      6  C4  OXE d   1       0.559  -0.622  -0.709  0.00  0.00    -0.002 A 
ATOM      7  C5  OXE d   1       0.977  -0.113   0.525  0.00  0.00    -0.002 A 
ATOM      8  C6  OXE d   1       0.030   0.388   1.412  0.00  0.00     0.003 A 
ENDROOT
TORSDOF 0
ENDMDL
