MODEL 1
REMARK minimizedAffinity 0.153854772
REMARK minimizedRMSD -1
REMARK  0 active torsions:
REMARK  status: ('A' for Active; 'I' for Inactive)
ROOT
ATOM      1  C2' OXE d   1       0.998  -0.717   0.617  0.00  0.00     0.078 C 
ATOM      2  C1' OXE d   1      -1.469   0.549   0.175  0.00  0.00     0.078 C 
ATOM      3  C1  OXE d   1      -1.222  -0.055   1.535  0.00  0.00    -0.078 A 
ATOM      4  C2  OXE d   1      -0.031  -0.713   1.728  0.00  0.00    -0.078 A 
ATOM      5  C3  OXE d   1       0.271  -1.240   2.980  0.00  0.00     0.003 A 
ATOM      6  C4  OXE d   1      -0.690  -1.241   3.999  0.00  0.00    -0.002 A 
ATOM      7  C5  OXE d   1      -1.925  -0.611   3.811  0.00  0.00    -0.002 A 
ATOM      8  C6  OXE d   1      -2.189   0.023   2.602  0.00  0.00     0.003 A 
ENDROOT
TORSDOF 0
ENDMDL
