MODEL 1
REMARK minimizedAffinity -0.591065526
REMARK minimizedRMSD -1
REMARK  0 active torsions:
REMARK  status: ('A' for Active; 'I' for Inactive)
ROOT
ATOM      1  C2' OXE d   1      -3.336  -0.896  -0.078  0.00  0.00     0.078 C 
ATOM      2  C1' OXE d   1      -2.603  -0.407   2.587  0.00  0.00     0.078 C 
ATOM      3  C1  OXE d   1      -1.509  -0.425   1.549  0.00  0.00    -0.078 A 
ATOM      4  C2  OXE d   1      -1.871  -0.711   0.255  0.00  0.00    -0.078 A 
ATOM      5  C3  OXE d   1      -0.909  -0.686  -0.751  0.00  0.00     0.003 A 
ATOM      6  C4  OXE d   1       0.445  -0.524  -0.433  0.00  0.00    -0.002 A 
ATOM      7  C5  OXE d   1       0.840  -0.271   0.885  0.00  0.00    -0.002 A 
ATOM      8  C6  OXE d   1      -0.128  -0.176   1.879  0.00  0.00     0.003 A 
ENDROOT
TORSDOF 0
ENDMDL
