MODEL 1
REMARK minimizedAffinity 1.20568299
REMARK minimizedRMSD -1
REMARK  0 active torsions:
REMARK  status: ('A' for Active; 'I' for Inactive)
ROOT
ATOM      1  C2' OXE d   1      -0.745  -0.371   3.755  0.00  0.00     0.078 C 
ATOM      2  C1' OXE d   1      -3.352  -0.667   2.756  0.00  0.00     0.078 C 
ATOM      3  C1  OXE d   1      -2.250  -0.374   1.769  0.00  0.00    -0.078 A 
ATOM      4  C2  OXE d   1      -0.985  -0.184   2.272  0.00  0.00    -0.078 A 
ATOM      5  C3  OXE d   1       0.078   0.034   1.400  0.00  0.00     0.003 A 
ATOM      6  C4  OXE d   1      -0.154   0.215   0.031  0.00  0.00    -0.002 A 
ATOM      7  C5  OXE d   1      -1.441   0.065  -0.497  0.00  0.00    -0.002 A 
ATOM      8  C6  OXE d   1      -2.491  -0.271   0.351  0.00  0.00     0.003 A 
ENDROOT
TORSDOF 0
ENDMDL
