MODEL 1
REMARK minimizedAffinity 5.25306749
REMARK minimizedRMSD -1
REMARK  0 active torsions:
REMARK  status: ('A' for Active; 'I' for Inactive)
ROOT
ATOM      1  C2' OXE d   1       0.496  -0.348   0.329  0.00  0.00     0.078 C 
ATOM      2  C1' OXE d   1      -1.959   1.001   0.139  0.00  0.00     0.078 C 
ATOM      3  C1  OXE d   1      -1.625   0.329   1.448  0.00  0.00    -0.078 A 
ATOM      4  C2  OXE d   1      -0.443  -0.368   1.517  0.00  0.00    -0.078 A 
ATOM      5  C3  OXE d   1      -0.060  -0.959   2.718  0.00  0.00     0.003 A 
ATOM      6  C4  OXE d   1      -0.938  -0.981   3.808  0.00  0.00    -0.002 A 
ATOM      7  C5  OXE d   1      -2.165  -0.311   3.746  0.00  0.00    -0.002 A 
ATOM      8  C6  OXE d   1      -2.504   0.383   2.590  0.00  0.00     0.003 A 
ENDROOT
TORSDOF 0
ENDMDL
