MODEL 1
REMARK minimizedAffinity -1.29180002
REMARK minimizedRMSD -1
REMARK  0 active torsions:
REMARK  status: ('A' for Active; 'I' for Inactive)
ROOT
ATOM      1  C2' OXE d   1       5.624   4.680   4.887  0.00  0.00     0.078 C 
ATOM      2  C1' OXE d   1       4.489   2.277   3.982  0.00  0.00     0.078 C 
ATOM      3  C1  OXE d   1       3.974   3.566   3.390  0.00  0.00    -0.078 A 
ATOM      4  C2  OXE d   1       4.502   4.739   3.873  0.00  0.00    -0.078 A 
ATOM      5  C3  OXE d   1       4.101   5.953   3.323  0.00  0.00     0.003 A 
ATOM      6  C4  OXE d   1       3.056   5.999   2.393  0.00  0.00    -0.002 A 
ATOM      7  C5  OXE d   1       2.476   4.818   1.917  0.00  0.00    -0.002 A 
ATOM      8  C6  OXE d   1       2.952   3.594   2.373  0.00  0.00     0.003 A 
ENDROOT
TORSDOF 0
ENDMDL
