MODEL 1
REMARK minimizedAffinity 0.0616228878
REMARK minimizedRMSD -1
REMARK  0 active torsions:
REMARK  status: ('A' for Active; 'I' for Inactive)
ROOT
ATOM      1  O1  BZF d   1       1.292  -0.919  -1.358  0.00  0.00    -0.204 OA
ATOM      2  C2  BZF d   1       1.042   0.220  -2.097  0.00  0.00     0.174 A 
ATOM      3  C3  BZF d   1       0.203  -0.047  -3.119  0.00  0.00    -0.012 A 
ATOM      4  C3A BZF d   1      -0.162  -1.421  -2.956  0.00  0.00    -0.107 A 
ATOM      5  C4  BZF d   1      -0.984  -2.262  -3.650  0.00  0.00     0.055 A 
ATOM      6  C5  BZF d   1      -1.065  -3.565  -3.273  0.00  0.00    -0.016 A 
ATOM      7  C6  BZF d   1      -0.337  -4.061  -2.212  0.00  0.00     0.022 A 
ATOM      8  C7  BZF d   1       0.488  -3.264  -1.490  0.00  0.00     0.029 A 
ATOM      9  C7A BZF d   1       0.547  -1.939  -1.848  0.00  0.00     0.058 A 
ENDROOT
TORSDOF 0
ENDMDL
