MODEL 1
REMARK minimizedAffinity 9.63238335
REMARK minimizedRMSD -1
REMARK  0 active torsions:
REMARK  status: ('A' for Active; 'I' for Inactive)
ROOT
ATOM      1  O1  BZF d   1       2.184   2.914   0.807  0.00  0.00    -0.204 OA
ATOM      2  C2  BZF d   1       1.173   2.003   1.043  0.00  0.00     0.174 A 
ATOM      3  C3  BZF d   1      -0.003   2.459   0.567  0.00  0.00    -0.012 A 
ATOM      4  C3A BZF d   1       0.309   3.694  -0.085  0.00  0.00    -0.107 A 
ATOM      5  C4  BZF d   1      -0.439   4.612  -0.765  0.00  0.00     0.055 A 
ATOM      6  C5  BZF d   1       0.157   5.747  -1.215  0.00  0.00    -0.016 A 
ATOM      7  C6  BZF d   1       1.495   6.000  -0.997  0.00  0.00     0.022 A 
ATOM      8  C7  BZF d   1       2.279   5.117  -0.332  0.00  0.00     0.029 A 
ATOM      9  C7A BZF d   1       1.687   3.953   0.095  0.00  0.00     0.058 A 
ENDROOT
TORSDOF 0
ENDMDL
