MODEL 1
REMARK minimizedAffinity 10.119875
REMARK minimizedRMSD -1
REMARK  0 active torsions:
REMARK  status: ('A' for Active; 'I' for Inactive)
ROOT
ATOM      1  O1  BZF d   1       2.621   5.067  -0.917  0.00  0.00    -0.204 OA
ATOM      2  C2  BZF d   1       2.168   5.998  -1.833  0.00  0.00     0.174 A 
ATOM      3  C3  BZF d   1       0.821   5.998  -1.888  0.00  0.00    -0.012 A 
ATOM      4  C3A BZF d   1       0.402   5.071  -0.882  0.00  0.00    -0.107 A 
ATOM      5  C4  BZF d   1      -0.821   4.650  -0.444  0.00  0.00     0.055 A 
ATOM      6  C5  BZF d   1      -0.883   3.680   0.506  0.00  0.00    -0.016 A 
ATOM      7  C6  BZF d   1       0.254   3.107   1.035  0.00  0.00     0.022 A 
ATOM      8  C7  BZF d   1       1.490   3.496   0.636  0.00  0.00     0.029 A 
ATOM      9  C7A BZF d   1       1.557   4.499  -0.300  0.00  0.00     0.058 A 
ENDROOT
TORSDOF 0
ENDMDL
