MODEL 1
REMARK minimizedAffinity 14.2547903
REMARK minimizedRMSD -1
REMARK  0 active torsions:
REMARK  status: ('A' for Active; 'I' for Inactive)
ROOT
ATOM      1  O1  BZF d   1       2.477  -2.635   0.816  0.00  0.00    -0.204 OA
ATOM      2  C2  BZF d   1       2.097  -1.373   0.401  0.00  0.00     0.174 A 
ATOM      3  C3  BZF d   1       3.046  -0.821  -0.382  0.00  0.00    -0.012 A 
ATOM      4  C3A BZF d   1       4.044  -1.836  -0.536  0.00  0.00    -0.107 A 
ATOM      5  C4  BZF d   1       5.226  -1.894  -1.216  0.00  0.00     0.055 A 
ATOM      6  C5  BZF d   1       6.000  -3.005  -1.101  0.00  0.00    -0.016 A 
ATOM      7  C6  BZF d   1       5.625  -4.073  -0.312  0.00  0.00     0.022 A 
ATOM      8  C7  BZF d   1       4.458  -4.063   0.377  0.00  0.00     0.029 A 
ATOM      9  C7A BZF d   1       3.659  -2.955   0.237  0.00  0.00     0.058 A 
ENDROOT
TORSDOF 0
ENDMDL
