MODEL 1
REMARK minimizedAffinity 5.45365191
REMARK minimizedRMSD -1
REMARK  0 active torsions:
REMARK  status: ('A' for Active; 'I' for Inactive)
ROOT
ATOM      1  O1  BZF d   1       3.330  -5.999  -1.262  0.00  0.00    -0.204 OA
ATOM      2  C2  BZF d   1       3.735  -5.999   0.059  0.00  0.00     0.174 A 
ATOM      3  C3  BZF d   1       4.824  -5.222   0.226  0.00  0.00    -0.012 A 
ATOM      4  C3A BZF d   1       5.064  -4.630  -1.054  0.00  0.00    -0.107 A 
ATOM      5  C4  BZF d   1       5.997  -3.750  -1.522  0.00  0.00     0.055 A 
ATOM      6  C5  BZF d   1       6.000  -3.429  -2.842  0.00  0.00    -0.016 A 
ATOM      7  C6  BZF d   1       5.088  -3.973  -3.723  0.00  0.00     0.022 A 
ATOM      8  C7  BZF d   1       4.140  -4.847  -3.305  0.00  0.00     0.029 A 
ATOM      9  C7A BZF d   1       4.114  -5.148  -1.965  0.00  0.00     0.058 A 
ENDROOT
TORSDOF 0
ENDMDL
