MODEL 1
REMARK minimizedAffinity 4.31203127
REMARK minimizedRMSD -1
REMARK  0 active torsions:
REMARK  status: ('A' for Active; 'I' for Inactive)
ROOT
ATOM      1  O1  BZF d   1       1.594   0.403   0.182  0.00  0.00    -0.204 OA
ATOM      2  C2  BZF d   1       2.130  -0.598  -0.605  0.00  0.00     0.174 A 
ATOM      3  C3  BZF d   1       1.550  -0.612  -1.822  0.00  0.00    -0.012 A 
ATOM      4  C3A BZF d   1       0.657   0.506  -1.826  0.00  0.00    -0.107 A 
ATOM      5  C4  BZF d   1      -0.191   1.027  -2.761  0.00  0.00     0.055 A 
ATOM      6  C5  BZF d   1      -0.978   2.083  -2.424  0.00  0.00    -0.016 A 
ATOM      7  C6  BZF d   1      -0.946   2.639  -1.162  0.00  0.00     0.022 A 
ATOM      8  C7  BZF d   1      -0.117   2.159  -0.202  0.00  0.00     0.029 A 
ATOM      9  C7A BZF d   1       0.703   1.114  -0.550  0.00  0.00     0.058 A 
ENDROOT
TORSDOF 0
ENDMDL
