MODEL 1
REMARK minimizedAffinity 13.4246788
REMARK minimizedRMSD -1
REMARK  0 active torsions:
REMARK  status: ('A' for Active; 'I' for Inactive)
ROOT
ATOM      1  O1  BZF d   1      -0.135  -0.445  -2.466  0.00  0.00    -0.204 OA
ATOM      2  C2  BZF d   1       0.441   0.782  -2.196  0.00  0.00     0.174 A 
ATOM      3  C3  BZF d   1      -0.503   1.739  -2.089  0.00  0.00    -0.012 A 
ATOM      4  C3A BZF d   1      -1.752   1.053  -2.214  0.00  0.00    -0.107 A 
ATOM      5  C4  BZF d   1      -3.055   1.460  -2.176  0.00  0.00     0.055 A 
ATOM      6  C5  BZF d   1      -4.038   0.550  -2.405  0.00  0.00    -0.016 A 
ATOM      7  C6  BZF d   1      -3.754  -0.772  -2.680  0.00  0.00     0.022 A 
ATOM      8  C7  BZF d   1      -2.477  -1.224  -2.723  0.00  0.00     0.029 A 
ATOM      9  C7A BZF d   1      -1.483  -0.314  -2.459  0.00  0.00     0.058 A 
ENDROOT
TORSDOF 0
ENDMDL
