MODEL 1
REMARK minimizedAffinity 7.6400404
REMARK minimizedRMSD -1
REMARK  0 active torsions:
REMARK  status: ('A' for Active; 'I' for Inactive)
ROOT
ATOM      1  O1  BZF d   1       1.256   0.619  -2.636  0.00  0.00    -0.204 OA
ATOM      2  C2  BZF d   1       0.470   0.221  -3.700  0.00  0.00     0.174 A 
ATOM      3  C3  BZF d   1      -0.800   0.647  -3.542  0.00  0.00    -0.012 A 
ATOM      4  C3A BZF d   1      -0.787   1.434  -2.348  0.00  0.00    -0.107 A 
ATOM      5  C4  BZF d   1      -1.745   2.139  -1.677  0.00  0.00     0.055 A 
ATOM      6  C5  BZF d   1      -1.423   2.738  -0.501  0.00  0.00    -0.016 A 
ATOM      7  C6  BZF d   1      -0.155   2.649   0.036  0.00  0.00     0.022 A 
ATOM      8  C7  BZF d   1       0.830   1.965  -0.595  0.00  0.00     0.029 A 
ATOM      9  C7A BZF d   1       0.516   1.386  -1.800  0.00  0.00     0.058 A 
ENDROOT
TORSDOF 0
ENDMDL
