MODEL 1
REMARK minimizedAffinity 11.0716677
REMARK minimizedRMSD -1
REMARK  0 active torsions:
REMARK  status: ('A' for Active; 'I' for Inactive)
ROOT
ATOM      1  O1  BZF d   1       2.467   4.584   0.399  0.00  0.00    -0.204 OA
ATOM      2  C2  BZF d   1       2.360   5.309  -0.772  0.00  0.00     0.174 A 
ATOM      3  C3  BZF d   1       1.319   4.874  -1.511  0.00  0.00    -0.012 A 
ATOM      4  C3A BZF d   1       0.684   3.871  -0.712  0.00  0.00    -0.107 A 
ATOM      5  C4  BZF d   1      -0.415   3.081  -0.897  0.00  0.00     0.055 A 
ATOM      6  C5  BZF d   1      -0.726   2.152   0.045  0.00  0.00    -0.016 A 
ATOM      7  C6  BZF d   1       0.042   1.982   1.179  0.00  0.00     0.022 A 
ATOM      8  C7  BZF d   1       1.138   2.746   1.408  0.00  0.00     0.029 A 
ATOM      9  C7A BZF d   1       1.436   3.708   0.474  0.00  0.00     0.058 A 
ENDROOT
TORSDOF 0
ENDMDL
