MODEL 1
REMARK minimizedAffinity 2.52106619
REMARK minimizedRMSD -1
REMARK  2 active torsions:
REMARK  status: ('A' for Active; 'I' for Inactive)
REMARK    1  A    between atoms: C2'_3  and  C1'_4 
REMARK    2  A    between atoms: C1'_4  and  C1_5 
ROOT
ATOM      1  C1  I4B d   1      -5.465   1.266  -0.726  0.00  0.00    -0.075 A 
ATOM      2  C2  I4B d   1      -4.816   2.362  -0.216  0.00  0.00     0.003 A 
ATOM      3  C3  I4B d   1      -4.693   2.530   1.185  0.00  0.00     0.002 A 
ATOM      4  C4  I4B d   1      -5.274   1.610   2.033  0.00  0.00    -0.004 A 
ATOM      5  C5  I4B d   1      -5.913   0.488   1.514  0.00  0.00     0.002 A 
ATOM      6  C6  I4B d   1      -5.998   0.308   0.126  0.00  0.00     0.003 A 
ENDROOT
BRANCH   1   7
ATOM      7  C1' I4B d   1      -5.605   1.137  -2.209  0.00  0.00     0.060 C 
BRANCH   7   8
ATOM      8  C2' I4B d   1      -4.630   2.100  -2.856  0.00  0.00    -0.013 C 
ATOM      9  C4' I4B d   1      -3.247   1.509  -2.926  0.00  0.00     0.013 C 
ATOM     10  C3' I4B d   1      -5.147   2.433  -4.224  0.00  0.00     0.013 C 
ENDBRANCH   7   8
ENDBRANCH   1   7
TORSDOF 2
ENDMDL
