MODEL 1
REMARK minimizedAffinity 5.7905755
REMARK minimizedRMSD -1
REMARK  2 active torsions:
REMARK  status: ('A' for Active; 'I' for Inactive)
REMARK    1  A    between atoms: C2'_3  and  C1'_4 
REMARK    2  A    between atoms: C1'_4  and  C1_5 
ROOT
ATOM      1  C1  I4B d   1      -4.020   2.808  -0.287  0.00  0.00    -0.075 A 
ATOM      2  C2  I4B d   1      -4.801   3.813   0.229  0.00  0.00     0.003 A 
ATOM      3  C3  I4B d   1      -5.440   3.647   1.481  0.00  0.00     0.002 A 
ATOM      4  C4  I4B d   1      -5.313   2.450   2.156  0.00  0.00    -0.004 A 
ATOM      5  C5  I4B d   1      -4.503   1.441   1.642  0.00  0.00     0.002 A 
ATOM      6  C6  I4B d   1      -3.843   1.625   0.419  0.00  0.00     0.003 A 
ENDROOT
BRANCH   1   7
ATOM      7  C1' I4B d   1      -3.387   3.004  -1.628  0.00  0.00     0.060 C 
BRANCH   7   8
ATOM      8  C2' I4B d   1      -4.368   2.530  -2.681  0.00  0.00    -0.013 C 
ATOM      9  C4' I4B d   1      -3.720   1.558  -3.632  0.00  0.00     0.013 C 
ATOM     10  C3' I4B d   1      -5.535   1.904  -1.979  0.00  0.00     0.013 C 
ENDBRANCH   7   8
ENDBRANCH   1   7
TORSDOF 2
ENDMDL
