MODEL 1
REMARK minimizedAffinity 7.10923481
REMARK minimizedRMSD -1
REMARK  2 active torsions:
REMARK  status: ('A' for Active; 'I' for Inactive)
REMARK    1  A    between atoms: C2'_3  and  C1'_4 
REMARK    2  A    between atoms: C1'_4  and  C1_5 
ROOT
ATOM      1  C1  I4B d   1       1.290  -2.628   0.153  0.00  0.00    -0.075 A 
ATOM      2  C2  I4B d   1       1.502  -1.975  -1.036  0.00  0.00     0.003 A 
ATOM      3  C3  I4B d   1       2.003  -2.681  -2.157  0.00  0.00     0.002 A 
ATOM      4  C4  I4B d   1       2.325  -4.017  -2.031  0.00  0.00    -0.004 A 
ATOM      5  C5  I4B d   1       2.088  -4.682  -0.831  0.00  0.00     0.002 A 
ATOM      6  C6  I4B d   1       1.556  -3.987   0.264  0.00  0.00     0.003 A 
ENDROOT
BRANCH   1   7
ATOM      7  C1' I4B d   1       0.791  -1.845   1.326  0.00  0.00     0.060 C 
BRANCH   7   8
ATOM      8  C2' I4B d   1       1.993  -1.382   2.124  0.00  0.00    -0.013 C 
ATOM      9  C4' I4B d   1       2.152   0.114   2.051  0.00  0.00     0.013 C 
ATOM     10  C3' I4B d   1       1.812  -1.840   3.541  0.00  0.00     0.013 C 
ENDBRANCH   7   8
ENDBRANCH   1   7
TORSDOF 2
ENDMDL
