MODEL 1
REMARK minimizedAffinity 1.74877715
REMARK minimizedRMSD -1
REMARK  2 active torsions:
REMARK  status: ('A' for Active; 'I' for Inactive)
REMARK    1  A    between atoms: C2'_3  and  C1'_4 
REMARK    2  A    between atoms: C1'_4  and  C1_5 
ROOT
ATOM      1  C1  I4B d   1      -5.623   2.377  -0.769  0.00  0.00    -0.075 A 
ATOM      2  C2  I4B d   1      -5.996   1.069  -0.587  0.00  0.00     0.003 A 
ATOM      3  C3  I4B d   1      -5.647   0.387   0.604  0.00  0.00     0.002 A 
ATOM      4  C4  I4B d   1      -4.884   1.031   1.557  0.00  0.00    -0.004 A 
ATOM      5  C5  I4B d   1      -4.526   2.364   1.381  0.00  0.00     0.002 A 
ATOM      6  C6  I4B d   1      -4.908   3.046   0.216  0.00  0.00     0.003 A 
ENDROOT
BRANCH   1   7
ATOM      7  C1' I4B d   1      -5.981   3.057  -2.052  0.00  0.00     0.060 C 
BRANCH   7   8
ATOM      8  C2' I4B d   1      -5.501   2.183  -3.193  0.00  0.00    -0.013 C 
ATOM      9  C4' I4B d   1      -5.996   2.697  -4.519  0.00  0.00     0.013 C 
ATOM     10  C3' I4B d   1      -4.003   2.147  -3.151  0.00  0.00     0.013 C 
ENDBRANCH   7   8
ENDBRANCH   1   7
TORSDOF 2
ENDMDL
