MODEL 1
REMARK minimizedAffinity 8.91743183
REMARK minimizedRMSD -1
REMARK  2 active torsions:
REMARK  status: ('A' for Active; 'I' for Inactive)
REMARK    1  A    between atoms: C2'_3  and  C1'_4 
REMARK    2  A    between atoms: C1'_4  and  C1_5 
ROOT
ATOM      1  C1  I4B d   1       1.666  -3.196   2.906  0.00  0.00    -0.075 A 
ATOM      2  C2  I4B d   1       1.956  -1.906   3.274  0.00  0.00     0.003 A 
ATOM      3  C3  I4B d   1       1.694  -0.835   2.386  0.00  0.00     0.002 A 
ATOM      4  C4  I4B d   1       1.191  -1.102   1.129  0.00  0.00    -0.004 A 
ATOM      5  C5  I4B d   1       0.875  -2.408   0.766  0.00  0.00     0.002 A 
ATOM      6  C6  I4B d   1       1.103  -3.461   1.664  0.00  0.00     0.003 A 
ENDROOT
BRANCH   1   7
ATOM      7  C1' I4B d   1       1.987  -4.306   3.855  0.00  0.00     0.060 C 
BRANCH   7   8
ATOM      8  C2' I4B d   1       2.969  -3.775   4.879  0.00  0.00    -0.013 C 
ATOM      9  C4' I4B d   1       3.176  -4.761   5.999  0.00  0.00     0.013 C 
ATOM     10  C3' I4B d   1       4.259  -3.479   4.174  0.00  0.00     0.013 C 
ENDBRANCH   7   8
ENDBRANCH   1   7
TORSDOF 2
ENDMDL
