MODEL 1
REMARK minimizedAffinity 2.11267734
REMARK minimizedRMSD -1
REMARK  2 active torsions:
REMARK  status: ('A' for Active; 'I' for Inactive)
REMARK    1  A    between atoms: C2'_3  and  C1'_4 
REMARK    2  A    between atoms: C1'_4  and  C1_5 
ROOT
ATOM      1  C1  I4B d   1       2.038  -0.771   3.207  0.00  0.00    -0.075 A 
ATOM      2  C2  I4B d   1       2.569  -0.655   1.946  0.00  0.00     0.003 A 
ATOM      3  C3  I4B d   1       2.900   0.621   1.427  0.00  0.00     0.002 A 
ATOM      4  C4  I4B d   1       2.639   1.749   2.178  0.00  0.00    -0.004 A 
ATOM      5  C5  I4B d   1       2.122   1.627   3.464  0.00  0.00     0.002 A 
ATOM      6  C6  I4B d   1       1.831   0.359   3.987  0.00  0.00     0.003 A 
ENDROOT
BRANCH   1   7
ATOM      7  C1' I4B d   1       1.669  -2.130   3.711  0.00  0.00     0.060 C 
BRANCH   7   8
ATOM      8  C2' I4B d   1       2.915  -2.992   3.683  0.00  0.00    -0.013 C 
ATOM      9  C4' I4B d   1       3.961  -2.470   4.632  0.00  0.00     0.013 C 
ATOM     10  C3' I4B d   1       2.516  -4.394   4.035  0.00  0.00     0.013 C 
ENDBRANCH   7   8
ENDBRANCH   1   7
TORSDOF 2
ENDMDL
