MODEL 1
REMARK minimizedAffinity 0.946980119
REMARK minimizedRMSD -1
REMARK  2 active torsions:
REMARK  status: ('A' for Active; 'I' for Inactive)
REMARK    1  A    between atoms: C2'_3  and  C1'_4 
REMARK    2  A    between atoms: C1'_4  and  C1_5 
ROOT
ATOM      1  C1  I4B d   1      -5.033   2.982  -0.955  0.00  0.00    -0.075 A 
ATOM      2  C2  I4B d   1      -3.751   3.460  -1.060  0.00  0.00     0.003 A 
ATOM      3  C3  I4B d   1      -2.953   3.123  -2.180  0.00  0.00     0.002 A 
ATOM      4  C4  I4B d   1      -3.457   2.269  -3.140  0.00  0.00    -0.004 A 
ATOM      5  C5  I4B d   1      -4.765   1.804  -3.044  0.00  0.00     0.002 A 
ATOM      6  C6  I4B d   1      -5.563   2.172  -1.951  0.00  0.00     0.003 A 
ENDROOT
BRANCH   1   7
ATOM      7  C1' I4B d   1      -5.836   3.332   0.257  0.00  0.00     0.060 C 
BRANCH   7   8
ATOM      8  C2' I4B d   1      -5.449   2.374   1.366  0.00  0.00    -0.013 C 
ATOM      9  C4' I4B d   1      -5.915   0.974   1.064  0.00  0.00     0.013 C 
ATOM     10  C3' I4B d   1      -3.959   2.426   1.523  0.00  0.00     0.013 C 
ENDBRANCH   7   8
ENDBRANCH   1   7
TORSDOF 2
ENDMDL
