MODEL 1
REMARK minimizedAffinity -1.7057128
REMARK minimizedRMSD -1
REMARK  0 active torsions:
REMARK  status: ('A' for Active; 'I' for Inactive)
ROOT
ATOM      1  C   UNL d   1      -0.894   0.765  -0.651  0.00  0.00     0.172 C 
ATOM      2  N   UNL d   1       0.216  -0.107  -0.344  0.00  0.00    -0.070 N 
ATOM      3  C1  UNL d   1       0.539  -0.581   0.899  0.00  0.00    -0.004 A 
ATOM      4  C2  UNL d   1       1.657  -1.376   0.770  0.00  0.00    -0.047 A 
ATOM      5  C3  UNL d   1       2.021  -1.378  -0.597  0.00  0.00    -0.047 A 
ATOM      6  C4  UNL d   1       1.112  -0.584  -1.265  0.00  0.00    -0.004 A 
ENDROOT
TORSDOF 0
ENDMDL
