MODEL 1
REMARK minimizedAffinity -3.38764524
REMARK minimizedRMSD -1
REMARK  0 active torsions:
REMARK  status: ('A' for Active; 'I' for Inactive)
ROOT
ATOM      1  C   UNL d   1      -0.766   0.765  -0.257  0.00  0.00     0.172 C 
ATOM      2  N   UNL d   1       0.066  -0.173   0.460  0.00  0.00    -0.070 N 
ATOM      3  C1  UNL d   1      -0.242  -0.762   1.657  0.00  0.00    -0.004 A 
ATOM      4  C2  UNL d   1       0.805  -1.587   2.003  0.00  0.00    -0.047 A 
ATOM      5  C3  UNL d   1       1.778  -1.490   0.980  0.00  0.00    -0.047 A 
ATOM      6  C4  UNL d   1       1.295  -0.608   0.037  0.00  0.00    -0.004 A 
ENDROOT
TORSDOF 0
ENDMDL
