MODEL 1
REMARK minimizedAffinity -0.802075267
REMARK minimizedRMSD -1
REMARK  0 active torsions:
REMARK  status: ('A' for Active; 'I' for Inactive)
ROOT
ATOM      1  C   UNL d   1      -1.251   1.466  -1.343  0.00  0.00     0.172 C 
ATOM      2  N   UNL d   1      -0.195   0.630  -0.822  0.00  0.00    -0.070 N 
ATOM      3  C1  UNL d   1       0.763  -0.005  -1.568  0.00  0.00    -0.004 A 
ATOM      4  C2  UNL d   1       1.581  -0.698  -0.702  0.00  0.00    -0.047 A 
ATOM      5  C3  UNL d   1       1.098  -0.473   0.609  0.00  0.00    -0.047 A 
ATOM      6  C4  UNL d   1      -0.002   0.353   0.506  0.00  0.00    -0.004 A 
ENDROOT
TORSDOF 0
ENDMDL
