MODEL 1
REMARK minimizedAffinity -2.40392303
REMARK minimizedRMSD -1
REMARK  0 active torsions:
REMARK  status: ('A' for Active; 'I' for Inactive)
ROOT
ATOM      1  C   UNL d   1       1.024  -0.277  -0.115  0.00  0.00     0.172 C 
ATOM      2  N   UNL d   1      -0.125   0.595  -0.180  0.00  0.00    -0.070 N 
ATOM      3  C1  UNL d   1      -0.763   1.156   0.894  0.00  0.00    -0.004 A 
ATOM      4  C2  UNL d   1      -1.806   1.918   0.413  0.00  0.00    -0.047 A 
ATOM      5  C3  UNL d   1      -1.794   1.811  -0.998  0.00  0.00    -0.047 A 
ATOM      6  C4  UNL d   1      -0.744   0.985  -1.338  0.00  0.00    -0.004 A 
ENDROOT
TORSDOF 0
ENDMDL
