MODEL 1
REMARK minimizedAffinity -2.08158445
REMARK minimizedRMSD -1
REMARK  0 active torsions:
REMARK  status: ('A' for Active; 'I' for Inactive)
ROOT
ATOM      1  C   UNL d   1      -1.890   2.203  -2.642  0.00  0.00     0.172 C 
ATOM      2  N   UNL d   1      -1.395   1.569  -1.443  0.00  0.00    -0.070 N 
ATOM      3  C1  UNL d   1      -0.389   0.642  -1.388  0.00  0.00    -0.004 A 
ATOM      4  C2  UNL d   1      -0.216   0.285  -0.068  0.00  0.00    -0.047 A 
ATOM      5  C3  UNL d   1      -1.151   1.023   0.696  0.00  0.00    -0.047 A 
ATOM      6  C4  UNL d   1      -1.868   1.810  -0.180  0.00  0.00    -0.004 A 
ENDROOT
TORSDOF 0
ENDMDL
