MODEL 1
REMARK minimizedAffinity -2.7579205
REMARK minimizedRMSD -1
REMARK  0 active torsions:
REMARK  status: ('A' for Active; 'I' for Inactive)
ROOT
ATOM      1  C   UNL d   1      -1.034   0.885  -0.936  0.00  0.00     0.172 C 
ATOM      2  N   UNL d   1       0.095   0.171  -0.386  0.00  0.00    -0.070 N 
ATOM      3  C1  UNL d   1       1.360   0.152  -0.910  0.00  0.00    -0.004 A 
ATOM      4  C2  UNL d   1       2.142  -0.639  -0.097  0.00  0.00    -0.047 A 
ATOM      5  C3  UNL d   1       1.318  -1.113   0.951  0.00  0.00    -0.047 A 
ATOM      6  C4  UNL d   1       0.056  -0.597   0.748  0.00  0.00    -0.004 A 
ENDROOT
TORSDOF 0
ENDMDL
