MODEL 1
REMARK minimizedAffinity -2.84360933
REMARK minimizedRMSD -1
REMARK  0 active torsions:
REMARK  status: ('A' for Active; 'I' for Inactive)
ROOT
ATOM      1  C   UNL d   1      -1.740   0.386  -2.946  0.00  0.00     0.172 C 
ATOM      2  N   UNL d   1      -0.880   0.369  -1.786  0.00  0.00    -0.070 N 
ATOM      3  C1  UNL d   1       0.030  -0.607  -1.481  0.00  0.00    -0.004 A 
ATOM      4  C2  UNL d   1       0.647  -0.255  -0.300  0.00  0.00    -0.047 A 
ATOM      5  C3  UNL d   1       0.087   0.975   0.120  0.00  0.00    -0.047 A 
ATOM      6  C4  UNL d   1      -0.856   1.339  -0.818  0.00  0.00    -0.004 A 
ENDROOT
TORSDOF 0
ENDMDL
