MODEL 1
REMARK minimizedAffinity -2.52331591
REMARK minimizedRMSD -1
REMARK  0 active torsions:
REMARK  status: ('A' for Active; 'I' for Inactive)
ROOT
ATOM      1  C   UNL d   1       1.911  -1.222   0.771  0.00  0.00     0.172 C 
ATOM      2  N   UNL d   1       0.837  -0.522   0.106  0.00  0.00    -0.070 N 
ATOM      3  C1  UNL d   1      -0.186   0.145   0.727  0.00  0.00    -0.004 A 
ATOM      4  C2  UNL d   1      -0.998   0.676  -0.252  0.00  0.00    -0.047 A 
ATOM      5  C3  UNL d   1      -0.445   0.315  -1.503  0.00  0.00    -0.047 A 
ATOM      6  C4  UNL d   1       0.690  -0.426  -1.252  0.00  0.00    -0.004 A 
ENDROOT
TORSDOF 0
ENDMDL
