MODEL 1
REMARK minimizedAffinity -2.51231885
REMARK minimizedRMSD -1
REMARK  0 active torsions:
REMARK  status: ('A' for Active; 'I' for Inactive)
ROOT
ATOM      1  C   UNL d   1      -0.763   2.156  -1.814  0.00  0.00     0.172 C 
ATOM      2  N   UNL d   1       0.025   1.128  -1.176  0.00  0.00    -0.070 N 
ATOM      3  C1  UNL d   1      -0.079   0.740   0.133  0.00  0.00    -0.004 A 
ATOM      4  C2  UNL d   1       0.841  -0.263   0.350  0.00  0.00    -0.047 A 
ATOM      5  C3  UNL d   1       1.522  -0.484  -0.871  0.00  0.00    -0.047 A 
ATOM      6  C4  UNL d   1       0.997   0.390  -1.798  0.00  0.00    -0.004 A 
ENDROOT
TORSDOF 0
ENDMDL
