MODEL 1
REMARK minimizedAffinity -1.60431921
REMARK minimizedRMSD -1
REMARK  0 active torsions:
REMARK  status: ('A' for Active; 'I' for Inactive)
ROOT
ATOM      1  C   UNL d   1       0.117   0.539   0.030  0.00  0.00     0.172 C 
ATOM      2  N   UNL d   1      -0.824   1.098  -0.913  0.00  0.00    -0.070 N 
ATOM      3  C1  UNL d   1      -1.286   0.478  -2.043  0.00  0.00    -0.004 A 
ATOM      4  C2  UNL d   1      -2.163   1.339  -2.667  0.00  0.00    -0.047 A 
ATOM      5  C3  UNL d   1      -2.229   2.517  -1.886  0.00  0.00    -0.047 A 
ATOM      6  C4  UNL d   1      -1.390   2.341  -0.806  0.00  0.00    -0.004 A 
ENDROOT
TORSDOF 0
ENDMDL
