MODEL 1
REMARK minimizedAffinity -2.24608326
REMARK minimizedRMSD -1
REMARK  0 active torsions:
REMARK  status: ('A' for Active; 'I' for Inactive)
ROOT
ATOM      1  C   UNL d   1       0.144  -1.635   3.292  0.00  0.00     0.172 C 
ATOM      2  N   UNL d   1       0.570  -1.132   2.007  0.00  0.00    -0.070 N 
ATOM      3  C1  UNL d   1       1.789  -1.359   1.426  0.00  0.00    -0.004 A 
ATOM      4  C2  UNL d   1       1.803  -0.712   0.209  0.00  0.00    -0.047 A 
ATOM      5  C3  UNL d   1       0.549  -0.074   0.054  0.00  0.00    -0.047 A 
ATOM      6  C4  UNL d   1      -0.194  -0.351   1.182  0.00  0.00    -0.004 A 
ENDROOT
TORSDOF 0
ENDMDL
