MODEL 1
REMARK minimizedAffinity -2.52569318
REMARK minimizedRMSD -1
REMARK  0 active torsions:
REMARK  status: ('A' for Active; 'I' for Inactive)
ROOT
ATOM      1  C   UNL d   1      -1.027   0.668  -0.762  0.00  0.00     0.172 C 
ATOM      2  N   UNL d   1       0.136  -0.142  -0.486  0.00  0.00    -0.070 N 
ATOM      3  C1  UNL d   1       0.944  -0.725  -1.425  0.00  0.00    -0.004 A 
ATOM      4  C2  UNL d   1       1.938  -1.410  -0.760  0.00  0.00    -0.047 A 
ATOM      5  C3  UNL d   1       1.719  -1.233   0.627  0.00  0.00    -0.047 A 
ATOM      6  C4  UNL d   1       0.597  -0.444   0.769  0.00  0.00    -0.004 A 
ENDROOT
TORSDOF 0
ENDMDL
