MODEL 1
REMARK minimizedAffinity -2.62164116
REMARK minimizedRMSD -1
REMARK  0 active torsions:
REMARK  status: ('A' for Active; 'I' for Inactive)
ROOT
ATOM      1  C   UNL d   1      -1.150   1.452   1.181  0.00  0.00     0.172 C 
ATOM      2  N   UNL d   1      -0.194   0.699   0.403  0.00  0.00    -0.070 N 
ATOM      3  C1  UNL d   1       1.145   0.593   0.668  0.00  0.00    -0.004 A 
ATOM      4  C2  UNL d   1       1.705  -0.210  -0.302  0.00  0.00    -0.047 A 
ATOM      5  C3  UNL d   1       0.667  -0.598  -1.182  0.00  0.00    -0.047 A 
ATOM      6  C4  UNL d   1      -0.498  -0.021  -0.722  0.00  0.00    -0.004 A 
ENDROOT
TORSDOF 0
ENDMDL
