MODEL 1
REMARK minimizedAffinity -1.81251967
REMARK minimizedRMSD -1
REMARK  0 active torsions:
REMARK  status: ('A' for Active; 'I' for Inactive)
ROOT
ATOM      1  C   UNL d   1      -1.217  -0.166   1.706  0.00  0.00     0.172 C 
ATOM      2  N   UNL d   1      -0.313  -0.111   0.581  0.00  0.00    -0.070 N 
ATOM      3  C1  UNL d   1       1.053  -0.054   0.657  0.00  0.00    -0.004 A 
ATOM      4  C2  UNL d   1       1.546  -0.014  -0.630  0.00  0.00    -0.047 A 
ATOM      5  C3  UNL d   1       0.437  -0.046  -1.509  0.00  0.00    -0.047 A 
ATOM      6  C4  UNL d   1      -0.701  -0.106  -0.733  0.00  0.00    -0.004 A 
ENDROOT
TORSDOF 0
ENDMDL
