MODEL 1
REMARK minimizedAffinity -1.37955987
REMARK minimizedRMSD -1
REMARK  0 active torsions:
REMARK  status: ('A' for Active; 'I' for Inactive)
ROOT
ATOM      1  C   UNL d   1      -2.253   1.504  -1.885  0.00  0.00     0.172 C 
ATOM      2  N   UNL d   1      -1.049   1.053  -1.228  0.00  0.00    -0.070 N 
ATOM      3  C1  UNL d   1      -0.466   1.642  -0.137  0.00  0.00    -0.004 A 
ATOM      4  C2  UNL d   1       0.659   0.915   0.184  0.00  0.00    -0.047 A 
ATOM      5  C3  UNL d   1       0.757  -0.147  -0.746  0.00  0.00    -0.047 A 
ATOM      6  C4  UNL d   1      -0.313  -0.037  -1.609  0.00  0.00    -0.004 A 
ENDROOT
TORSDOF 0
ENDMDL
