MODEL 1
REMARK minimizedAffinity -1.66978371
REMARK minimizedRMSD -1
REMARK  0 active torsions:
REMARK  status: ('A' for Active; 'I' for Inactive)
ROOT
ATOM      1  C   UNL d   1       2.145  -1.528   1.039  0.00  0.00     0.172 C 
ATOM      2  N   UNL d   1       1.089  -0.625   0.647  0.00  0.00    -0.070 N 
ATOM      3  C1  UNL d   1      -0.056  -0.379   1.357  0.00  0.00    -0.004 A 
ATOM      4  C2  UNL d   1      -0.803   0.538   0.650  0.00  0.00    -0.047 A 
ATOM      5  C3  UNL d   1      -0.082   0.854  -0.527  0.00  0.00    -0.047 A 
ATOM      6  C4  UNL d   1       1.085   0.120  -0.503  0.00  0.00    -0.004 A 
ENDROOT
TORSDOF 0
ENDMDL
