MODEL 1
REMARK minimizedAffinity 8.17306232
REMARK minimizedRMSD -1
REMARK  0 active torsions:
REMARK  status: ('A' for Active; 'I' for Inactive)
ROOT
ATOM      1  C   UNL d   1      -1.454   0.889   1.403  0.00  0.00     0.172 C 
ATOM      2  N   UNL d   1      -1.974   1.223   0.098  0.00  0.00    -0.070 N 
ATOM      3  C1  UNL d   1      -3.018   0.598  -0.529  0.00  0.00    -0.004 A 
ATOM      4  C2  UNL d   1      -3.204   1.209  -1.750  0.00  0.00    -0.047 A 
ATOM      5  C3  UNL d   1      -2.238   2.237  -1.861  0.00  0.00    -0.047 A 
ATOM      6  C4  UNL d   1      -1.490   2.223  -0.702  0.00  0.00    -0.004 A 
ENDROOT
TORSDOF 0
ENDMDL
