MODEL 1
REMARK minimizedAffinity -5.46772718
REMARK minimizedRMSD -1
REMARK  0 active torsions:
REMARK  status: ('A' for Active; 'I' for Inactive)
ROOT
ATOM      1  C   UNL d   1       3.567  -1.599  -0.640  0.00  0.00     0.077 C 
ATOM      2  C1  UNL d   1       2.605  -1.299   0.470  0.00  0.00    -0.074 A 
ATOM      3  C2  UNL d   1       2.861  -1.722   1.778  0.00  0.00    -0.005 A 
ATOM      4  C3  UNL d   1       1.961  -1.427   2.802  0.00  0.00     0.006 A 
ATOM      5  C4  UNL d   1       0.797  -0.708   2.529  0.00  0.00    -0.005 A 
ATOM      6  C5  UNL d   1       0.524  -0.276   1.227  0.00  0.00    -0.074 A 
ATOM      7  C6  UNL d   1      -0.718   0.507   0.918  0.00  0.00     0.077 C 
ATOM      8  C7  UNL d   1       1.437  -0.570   0.205  0.00  0.00    -0.001 A 
ENDROOT
TORSDOF 0
ENDMDL
