MODEL 1
REMARK minimizedAffinity -4.74812889
REMARK minimizedRMSD -1
REMARK  0 active torsions:
REMARK  status: ('A' for Active; 'I' for Inactive)
ROOT
ATOM      1  C   UNL d   1       2.027  -1.495  -1.268  0.00  0.00     0.077 C 
ATOM      2  C1  UNL d   1       1.092  -0.868  -0.277  0.00  0.00    -0.074 A 
ATOM      3  C2  UNL d   1      -0.240  -0.604  -0.612  0.00  0.00    -0.005 A 
ATOM      4  C3  UNL d   1      -1.100  -0.029   0.323  0.00  0.00     0.006 A 
ATOM      5  C4  UNL d   1      -0.638   0.286   1.602  0.00  0.00    -0.005 A 
ATOM      6  C5  UNL d   1       0.690   0.028   1.956  0.00  0.00    -0.074 A 
ATOM      7  C6  UNL d   1       1.199   0.351   3.329  0.00  0.00     0.077 C 
ATOM      8  C7  UNL d   1       1.546  -0.556   1.012  0.00  0.00    -0.001 A 
ENDROOT
TORSDOF 0
ENDMDL
