MODEL 1
REMARK minimizedAffinity -4.99497318
REMARK minimizedRMSD -1
REMARK  0 active torsions:
REMARK  status: ('A' for Active; 'I' for Inactive)
ROOT
ATOM      1  C   UNL d   1       1.841  -0.106   2.765  0.00  0.00     0.077 C 
ATOM      2  C1  UNL d   1       0.808  -0.227   1.685  0.00  0.00    -0.074 A 
ATOM      3  C2  UNL d   1      -0.304  -1.061   1.843  0.00  0.00    -0.005 A 
ATOM      4  C3  UNL d   1      -1.262  -1.156   0.834  0.00  0.00     0.006 A 
ATOM      5  C4  UNL d   1      -1.118  -0.420  -0.343  0.00  0.00    -0.005 A 
ATOM      6  C5  UNL d   1      -0.013   0.419  -0.519  0.00  0.00    -0.074 A 
ATOM      7  C6  UNL d   1       0.152   1.225  -1.774  0.00  0.00     0.077 C 
ATOM      8  C7  UNL d   1       0.942   0.515   0.503  0.00  0.00    -0.001 A 
ENDROOT
TORSDOF 0
ENDMDL
