MODEL 1
REMARK minimizedAffinity -3.13543725
REMARK minimizedRMSD -1
REMARK  0 active torsions:
REMARK  status: ('A' for Active; 'I' for Inactive)
ROOT
ATOM      1  C   UNL d   1       1.539  -1.416  -1.742  0.00  0.00     0.077 C 
ATOM      2  C1  UNL d   1       0.767  -0.855  -0.585  0.00  0.00    -0.074 A 
ATOM      3  C2  UNL d   1      -0.515  -0.325  -0.765  0.00  0.00    -0.005 A 
ATOM      4  C3  UNL d   1      -1.224   0.185   0.322  0.00  0.00     0.006 A 
ATOM      5  C4  UNL d   1      -0.660   0.170   1.599  0.00  0.00    -0.005 A 
ATOM      6  C5  UNL d   1       0.620  -0.357   1.798  0.00  0.00    -0.074 A 
ATOM      7  C6  UNL d   1       1.237  -0.390   3.165  0.00  0.00     0.077 C 
ATOM      8  C7  UNL d   1       1.324  -0.874   0.702  0.00  0.00    -0.001 A 
ENDROOT
TORSDOF 0
ENDMDL
