MODEL 1
REMARK minimizedAffinity -5.54685974
REMARK minimizedRMSD -1
REMARK  0 active torsions:
REMARK  status: ('A' for Active; 'I' for Inactive)
ROOT
ATOM      1  C   UNL d   1       2.949  -2.289   0.695  0.00  0.00     0.077 C 
ATOM      2  C1  UNL d   1       1.605  -1.672   0.941  0.00  0.00    -0.074 A 
ATOM      3  C2  UNL d   1       0.971  -1.800   2.182  0.00  0.00    -0.005 A 
ATOM      4  C3  UNL d   1      -0.275  -1.213   2.399  0.00  0.00     0.006 A 
ATOM      5  C4  UNL d   1      -0.900  -0.493   1.379  0.00  0.00    -0.005 A 
ATOM      6  C5  UNL d   1      -0.282  -0.354   0.133  0.00  0.00    -0.074 A 
ATOM      7  C6  UNL d   1      -0.935   0.424  -0.971  0.00  0.00     0.077 C 
ATOM      8  C7  UNL d   1       0.974  -0.941  -0.075  0.00  0.00    -0.001 A 
ENDROOT
TORSDOF 0
ENDMDL
