MODEL 1
REMARK minimizedAffinity -3.79160786
REMARK minimizedRMSD -1
REMARK  0 active torsions:
REMARK  status: ('A' for Active; 'I' for Inactive)
ROOT
ATOM      1  C   UNL d   1       2.738  -2.998   0.996  0.00  0.00     0.077 C 
ATOM      2  C1  UNL d   1       1.547  -2.095   1.121  0.00  0.00    -0.074 A 
ATOM      3  C2  UNL d   1       0.868  -1.965   2.337  0.00  0.00    -0.005 A 
ATOM      4  C3  UNL d   1      -0.232  -1.114   2.440  0.00  0.00     0.006 A 
ATOM      5  C4  UNL d   1      -0.665  -0.386   1.331  0.00  0.00    -0.005 A 
ATOM      6  C5  UNL d   1       0.002  -0.503   0.108  0.00  0.00    -0.074 A 
ATOM      7  C6  UNL d   1      -0.443   0.281  -1.092  0.00  0.00     0.077 C 
ATOM      8  C7  UNL d   1       1.111  -1.354   0.013  0.00  0.00    -0.001 A 
ENDROOT
TORSDOF 0
ENDMDL
