MODEL 1
REMARK minimizedAffinity -2.60414743
REMARK minimizedRMSD -1
REMARK  0 active torsions:
REMARK  status: ('A' for Active; 'I' for Inactive)
ROOT
ATOM      1  C   UNL d   1      -2.651  -1.080   1.148  0.00  0.00     0.077 C 
ATOM      2  C1  UNL d   1      -1.286  -0.767   0.610  0.00  0.00    -0.074 A 
ATOM      3  C2  UNL d   1      -1.033  -0.791  -0.765  0.00  0.00    -0.005 A 
ATOM      4  C3  UNL d   1       0.239  -0.488  -1.251  0.00  0.00     0.006 A 
ATOM      5  C4  UNL d   1       1.269  -0.159  -0.369  0.00  0.00    -0.005 A 
ATOM      6  C5  UNL d   1       1.034  -0.129   1.010  0.00  0.00    -0.074 A 
ATOM      7  C6  UNL d   1       2.127   0.232   1.971  0.00  0.00     0.077 C 
ATOM      8  C7  UNL d   1      -0.249  -0.428   1.490  0.00  0.00    -0.001 A 
ENDROOT
TORSDOF 0
ENDMDL
