MODEL 1
REMARK minimizedAffinity -3.66694951
REMARK minimizedRMSD -1
REMARK  0 active torsions:
REMARK  status: ('A' for Active; 'I' for Inactive)
ROOT
ATOM      1  C   UNL d   1       1.450  -0.380   2.603  0.00  0.00     0.077 C 
ATOM      2  C1  UNL d   1       0.479  -0.203   1.474  0.00  0.00    -0.074 A 
ATOM      3  C2  UNL d   1      -0.807  -0.750   1.539  0.00  0.00    -0.005 A 
ATOM      4  C3  UNL d   1      -1.702  -0.569   0.485  0.00  0.00     0.006 A 
ATOM      5  C4  UNL d   1      -1.322   0.159  -0.643  0.00  0.00    -0.005 A 
ATOM      6  C5  UNL d   1      -0.040   0.714  -0.726  0.00  0.00    -0.074 A 
ATOM      7  C6  UNL d   1       0.381   1.508  -1.926  0.00  0.00     0.077 C 
ATOM      8  C7  UNL d   1       0.851   0.534   0.341  0.00  0.00    -0.001 A 
ENDROOT
TORSDOF 0
ENDMDL
