MODEL 1
REMARK minimizedAffinity -3.43035316
REMARK minimizedRMSD -1
REMARK  1 active torsions:
REMARK  status: ('A' for Active; 'I' for Inactive)
REMARK    1  A    between atoms: C3_4  and  O_7 
ROOT
ATOM      1  C   UNL d   1      -0.833   0.335  -0.276  0.00  0.00    -0.033 A 
ATOM      2  C1  UNL d   1      -0.234  -0.901  -0.024  0.00  0.00     0.039 A 
ATOM      3  C2  UNL d   1       1.107  -0.964   0.359  0.00  0.00    -0.080 A 
ATOM      4  C3  UNL d   1       1.837   0.214   0.487  0.00  0.00     0.150 A 
ATOM      5  C4  UNL d   1       1.246   1.449   0.242  0.00  0.00    -0.007 A 
ATOM      6  C5  UNL d   1      -0.093   1.510  -0.141  0.00  0.00     0.039 A 
ENDROOT
BRANCH   4   7
ATOM      7  O   UNL d   1       3.150   0.202   0.854  0.00  0.00    -0.526 OA
ATOM      8  H5  UNL d   1       3.431  -0.722   0.962  0.00  0.00     0.418 HD
ENDBRANCH   4   7
TORSDOF 1
ENDMDL
