MODEL 1
REMARK minimizedAffinity -4.74824667
REMARK minimizedRMSD -1
REMARK  1 active torsions:
REMARK  status: ('A' for Active; 'I' for Inactive)
REMARK    1  A    between atoms: C3_4  and  O_7 
ROOT
ATOM      1  C   UNL d   1      -0.149   0.370  -0.143  0.00  0.00    -0.033 A 
ATOM      2  C1  UNL d   1       0.763   1.369   0.204  0.00  0.00     0.039 A 
ATOM      3  C2  UNL d   1       2.065   1.029   0.577  0.00  0.00    -0.080 A 
ATOM      4  C3  UNL d   1       2.442  -0.310   0.599  0.00  0.00     0.150 A 
ATOM      5  C4  UNL d   1       1.540  -1.311   0.251  0.00  0.00    -0.007 A 
ATOM      6  C5  UNL d   1       0.240  -0.970  -0.121  0.00  0.00     0.039 A 
ENDROOT
BRANCH   4   7
ATOM      7  O   UNL d   1       3.700  -0.691   0.961  0.00  0.00    -0.526 OA
ATOM      8  H5  UNL d   1       4.204   0.104   1.203  0.00  0.00     0.418 HD
ENDBRANCH   4   7
TORSDOF 1
ENDMDL
