MODEL 1
REMARK minimizedAffinity -3.78081942
REMARK minimizedRMSD -1
REMARK  1 active torsions:
REMARK  status: ('A' for Active; 'I' for Inactive)
REMARK    1  A    between atoms: C3_4  and  O_7 
ROOT
ATOM      1  C   UNL d   1      -0.627   0.714  -0.494  0.00  0.00    -0.033 A 
ATOM      2  C1  UNL d   1      -0.508  -0.601  -0.039  0.00  0.00     0.039 A 
ATOM      3  C2  UNL d   1       0.740  -1.103   0.332  0.00  0.00    -0.080 A 
ATOM      4  C3  UNL d   1       1.861  -0.282   0.245  0.00  0.00     0.150 A 
ATOM      5  C4  UNL d   1       1.750   1.030  -0.204  0.00  0.00    -0.007 A 
ATOM      6  C5  UNL d   1       0.502   1.530  -0.575  0.00  0.00     0.039 A 
ENDROOT
BRANCH   4   7
ATOM      7  O   UNL d   1       3.101  -0.729   0.591  0.00  0.00    -0.526 OA
ATOM      8  H5  UNL d   1       3.029  -1.662   0.855  0.00  0.00     0.418 HD
ENDBRANCH   4   7
TORSDOF 1
ENDMDL
