MODEL 1
REMARK minimizedAffinity -3.4156487
REMARK minimizedRMSD -1
REMARK  1 active torsions:
REMARK  status: ('A' for Active; 'I' for Inactive)
REMARK    1  A    between atoms: C3_4  and  O_7 
ROOT
ATOM      1  C   UNL d   1      -0.373  -0.673  -0.065  0.00  0.00    -0.033 A 
ATOM      2  C1  UNL d   1       0.094   0.612  -0.347  0.00  0.00     0.039 A 
ATOM      3  C2  UNL d   1       1.377   0.993   0.050  0.00  0.00    -0.080 A 
ATOM      4  C3  UNL d   1       2.182   0.081   0.727  0.00  0.00     0.150 A 
ATOM      5  C4  UNL d   1       1.725  -1.203   1.007  0.00  0.00    -0.007 A 
ATOM      6  C5  UNL d   1       0.443  -1.581   0.611  0.00  0.00     0.039 A 
ENDROOT
BRANCH   4   7
ATOM      7  O   UNL d   1       3.440   0.408   1.138  0.00  0.00    -0.526 OA
ATOM      8  H5  UNL d   1       3.610   1.335   0.901  0.00  0.00     0.418 HD
ENDBRANCH   4   7
TORSDOF 1
ENDMDL
