MODEL 1
REMARK minimizedAffinity -4.81597614
REMARK minimizedRMSD -1
REMARK  1 active torsions:
REMARK  status: ('A' for Active; 'I' for Inactive)
REMARK    1  A    between atoms: C3_4  and  O_7 
ROOT
ATOM      1  C   UNL d   1       2.809  -1.248   1.969  0.00  0.00    -0.033 A 
ATOM      2  C1  UNL d   1       1.728  -2.114   2.146  0.00  0.00     0.039 A 
ATOM      3  C2  UNL d   1       0.568  -1.950   1.387  0.00  0.00    -0.080 A 
ATOM      4  C3  UNL d   1       0.502  -0.918   0.455  0.00  0.00     0.150 A 
ATOM      5  C4  UNL d   1       1.576  -0.055   0.269  0.00  0.00    -0.007 A 
ATOM      6  C5  UNL d   1       2.734  -0.219   1.029  0.00  0.00     0.039 A 
ENDROOT
BRANCH   4   7
ATOM      7  O   UNL d   1      -0.611  -0.716  -0.306  0.00  0.00    -0.526 OA
ATOM      8  H5  UNL d   1      -1.283  -1.370  -0.049  0.00  0.00     0.418 HD
ENDBRANCH   4   7
TORSDOF 1
ENDMDL
