MODEL 1
REMARK minimizedAffinity 4.99673271
REMARK minimizedRMSD -1
REMARK  2 active torsions:
REMARK  status: ('A' for Active; 'I' for Inactive)
REMARK    1  A    between atoms: C2'_3  and  C1'_4 
REMARK    2  A    between atoms: C1'_4  and  C1_5 
ROOT
ATOM      1  C1  I4B d   1       4.730   3.993   3.761  0.00  0.00    -0.075 A 
ATOM      2  C2  I4B d   1       5.237   3.157   4.725  0.00  0.00     0.003 A 
ATOM      3  C3  I4B d   1       5.860   3.694   5.877  0.00  0.00     0.002 A 
ATOM      4  C4  I4B d   1       5.999   5.062   6.000  0.00  0.00    -0.004 A 
ATOM      5  C5  I4B d   1       5.465   5.908   5.033  0.00  0.00     0.002 A 
ATOM      6  C6  I4B d   1       4.815   5.371   3.912  0.00  0.00     0.003 A 
ENDROOT
BRANCH   1   7
ATOM      7  C1' I4B d   1       4.108   3.391   2.541  0.00  0.00     0.060 C 
BRANCH   7   8
ATOM      8  C2' I4B d   1       3.876   4.504   1.538  0.00  0.00    -0.013 C 
ATOM      9  C4' I4B d   1       5.138   5.288   1.293  0.00  0.00     0.013 C 
ATOM     10  C3' I4B d   1       3.368   3.885   0.270  0.00  0.00     0.013 C 
ENDBRANCH   7   8
ENDBRANCH   1   7
TORSDOF 2
ENDMDL
