MODEL 1
REMARK minimizedAffinity 9.53789806
REMARK minimizedRMSD -1
REMARK  2 active torsions:
REMARK  status: ('A' for Active; 'I' for Inactive)
REMARK    1  A    between atoms: C2'_3  and  C1'_4 
REMARK    2  A    between atoms: C1'_4  and  C1_5 
ROOT
ATOM      1  C1  I4B d   1      -4.481   3.709   3.448  0.00  0.00    -0.075 A 
ATOM      2  C2  I4B d   1      -5.171   3.846   4.627  0.00  0.00     0.003 A 
ATOM      3  C3  I4B d   1      -5.965   4.996   4.859  0.00  0.00     0.002 A 
ATOM      4  C4  I4B d   1      -5.999   6.000   3.913  0.00  0.00    -0.004 A 
ATOM      5  C5  I4B d   1      -5.317   5.849   2.709  0.00  0.00     0.002 A 
ATOM      6  C6  I4B d   1      -4.563   4.691   2.469  0.00  0.00     0.003 A 
ENDROOT
BRANCH   1   7
ATOM      7  C1' I4B d   1      -3.626   2.498   3.250  0.00  0.00     0.060 C 
BRANCH   7   8
ATOM      8  C2' I4B d   1      -3.014   2.134   4.587  0.00  0.00    -0.013 C 
ATOM      9  C4' I4B d   1      -4.044   1.544   5.515  0.00  0.00     0.013 C 
ATOM     10  C3' I4B d   1      -1.894   1.169   4.337  0.00  0.00     0.013 C 
ENDBRANCH   7   8
ENDBRANCH   1   7
TORSDOF 2
ENDMDL
