MODEL 1
REMARK minimizedAffinity 13.7353888
REMARK minimizedRMSD -1
REMARK  2 active torsions:
REMARK  status: ('A' for Active; 'I' for Inactive)
REMARK    1  A    between atoms: C2'_3  and  C1'_4 
REMARK    2  A    between atoms: C1'_4  and  C1_5 
ROOT
ATOM      1  C1  I4B d   1      -5.020   3.321   2.760  0.00  0.00    -0.075 A 
ATOM      2  C2  I4B d   1      -5.616   3.744   3.922  0.00  0.00     0.003 A 
ATOM      3  C3  I4B d   1      -5.999   5.099   4.073  0.00  0.00     0.002 A 
ATOM      4  C4  I4B d   1      -5.725   6.000   3.064  0.00  0.00    -0.004 A 
ATOM      5  C5  I4B d   1      -5.142   5.564   1.878  0.00  0.00     0.002 A 
ATOM      6  C6  I4B d   1      -4.798   4.213   1.719  0.00  0.00     0.003 A 
ENDROOT
BRANCH   1   7
ATOM      7  C1' I4B d   1      -4.598   1.890   2.647  0.00  0.00     0.060 C 
BRANCH   7   8
ATOM      8  C2' I4B d   1      -3.556   1.625   3.714  0.00  0.00    -0.013 C 
ATOM      9  C4' I4B d   1      -2.245   2.284   3.371  0.00  0.00     0.013 C 
ATOM     10  C3' I4B d   1      -4.091   2.131   5.020  0.00  0.00     0.013 C 
ENDBRANCH   7   8
ENDBRANCH   1   7
TORSDOF 2
ENDMDL
