MODEL 1
REMARK minimizedAffinity 7.7704978
REMARK minimizedRMSD -1
REMARK  2 active torsions:
REMARK  status: ('A' for Active; 'I' for Inactive)
REMARK    1  A    between atoms: C2'_3  and  C1'_4 
REMARK    2  A    between atoms: C1'_4  and  C1_5 
ROOT
ATOM      1  C1  I4B d   1       5.240   4.515   3.302  0.00  0.00    -0.075 A 
ATOM      2  C2  I4B d   1       5.999   5.588   3.699  0.00  0.00     0.003 A 
ATOM      3  C3  I4B d   1       6.000   5.999   5.053  0.00  0.00     0.002 A 
ATOM      4  C4  I4B d   1       5.193   5.345   5.962  0.00  0.00    -0.004 A 
ATOM      5  C5  I4B d   1       4.442   4.244   5.564  0.00  0.00     0.002 A 
ATOM      6  C6  I4B d   1       4.475   3.818   4.228  0.00  0.00     0.003 A 
ENDROOT
BRANCH   1   7
ATOM      7  C1' I4B d   1       5.238   4.128   1.857  0.00  0.00     0.060 C 
BRANCH   7   8
ATOM      8  C2' I4B d   1       4.249   5.021   1.137  0.00  0.00    -0.013 C 
ATOM      9  C4' I4B d   1       4.944   5.917   0.146  0.00  0.00     0.013 C 
ATOM     10  C3' I4B d   1       3.241   4.142   0.457  0.00  0.00     0.013 C 
ENDBRANCH   7   8
ENDBRANCH   1   7
TORSDOF 2
ENDMDL
