MODEL 1
REMARK minimizedAffinity -0.436877847
REMARK minimizedRMSD -1
REMARK  2 active torsions:
REMARK  status: ('A' for Active; 'I' for Inactive)
REMARK    1  A    between atoms: C2'_3  and  C1'_4 
REMARK    2  A    between atoms: C1'_4  and  C1_5 
ROOT
ATOM      1  C1  I4B d   1      -3.591   4.511  -5.284  0.00  0.00    -0.075 A 
ATOM      2  C2  I4B d   1      -3.552   5.238  -4.120  0.00  0.00     0.003 A 
ATOM      3  C3  I4B d   1      -4.751   5.550  -3.434  0.00  0.00     0.002 A 
ATOM      4  C4  I4B d   1      -5.962   5.162  -3.970  0.00  0.00    -0.004 A 
ATOM      5  C5  I4B d   1      -5.998   4.405  -5.137  0.00  0.00     0.002 A 
ATOM      6  C6  I4B d   1      -4.805   4.067  -5.792  0.00  0.00     0.003 A 
ENDROOT
BRANCH   1   7
ATOM      7  C1' I4B d   1      -2.309   4.227  -6.000  0.00  0.00     0.060 C 
BRANCH   7   8
ATOM      8  C2' I4B d   1      -1.387   3.505  -5.039  0.00  0.00    -0.013 C 
ATOM      9  C4' I4B d   1      -2.040   2.266  -4.484  0.00  0.00     0.013 C 
ATOM     10  C3' I4B d   1      -0.124   3.169  -5.773  0.00  0.00     0.013 C 
ENDBRANCH   7   8
ENDBRANCH   1   7
TORSDOF 2
ENDMDL
