MODEL 1
REMARK minimizedAffinity 2.93998241
REMARK minimizedRMSD -1
REMARK  2 active torsions:
REMARK  status: ('A' for Active; 'I' for Inactive)
REMARK    1  A    between atoms: C2'_3  and  C1'_4 
REMARK    2  A    between atoms: C1'_4  and  C1_5 
ROOT
ATOM      1  C1  I4B d   1      -3.455   3.744   3.833  0.00  0.00    -0.075 A 
ATOM      2  C2  I4B d   1      -4.336   3.024   3.066  0.00  0.00     0.003 A 
ATOM      3  C3  I4B d   1      -4.025   2.720   1.718  0.00  0.00     0.002 A 
ATOM      4  C4  I4B d   1      -2.853   3.196   1.167  0.00  0.00    -0.004 A 
ATOM      5  C5  I4B d   1      -1.950   3.907   1.953  0.00  0.00     0.002 A 
ATOM      6  C6  I4B d   1      -2.246   4.172   3.298  0.00  0.00     0.003 A 
ENDROOT
BRANCH   1   7
ATOM      7  C1' I4B d   1      -3.830   4.076   5.242  0.00  0.00     0.060 C 
BRANCH   7   8
ATOM      8  C2' I4B d   1      -5.332   4.261   5.294  0.00  0.00    -0.013 C 
ATOM      9  C4' I4B d   1      -6.000   3.110   6.000  0.00  0.00     0.013 C 
ATOM     10  C3' I4B d   1      -5.615   5.560   5.989  0.00  0.00     0.013 C 
ENDBRANCH   7   8
ENDBRANCH   1   7
TORSDOF 2
ENDMDL
