MODEL 1
REMARK minimizedAffinity 0.493521303
REMARK minimizedRMSD -1
REMARK  2 active torsions:
REMARK  status: ('A' for Active; 'I' for Inactive)
REMARK    1  A    between atoms: C2'_3  and  C1'_4 
REMARK    2  A    between atoms: C1'_4  and  C1_5 
ROOT
ATOM      1  C1  I4B d   1      -3.738   4.661  -4.176  0.00  0.00    -0.075 A 
ATOM      2  C2  I4B d   1      -3.779   5.051  -5.491  0.00  0.00     0.003 A 
ATOM      3  C3  I4B d   1      -4.914   5.728  -5.999  0.00  0.00     0.002 A 
ATOM      4  C4  I4B d   1      -5.999   5.947  -5.175  0.00  0.00    -0.004 A 
ATOM      5  C5  I4B d   1      -5.947   5.571  -3.836  0.00  0.00     0.002 A 
ATOM      6  C6  I4B d   1      -4.805   4.935  -3.330  0.00  0.00     0.003 A 
ENDROOT
BRANCH   1   7
ATOM      7  C1' I4B d   1      -2.537   3.919  -3.681  0.00  0.00     0.060 C 
BRANCH   7   8
ATOM      8  C2' I4B d   1      -2.102   2.957  -4.768  0.00  0.00    -0.013 C 
ATOM      9  C4' I4B d   1      -1.648   3.695  -6.000  0.00  0.00     0.013 C 
ATOM     10  C3' I4B d   1      -1.003   2.100  -4.215  0.00  0.00     0.013 C 
ENDBRANCH   7   8
ENDBRANCH   1   7
TORSDOF 2
ENDMDL
