MODEL 1
REMARK minimizedAffinity 10.6821537
REMARK minimizedRMSD -1
REMARK  2 active torsions:
REMARK  status: ('A' for Active; 'I' for Inactive)
REMARK    1  A    between atoms: C2'_3  and  C1'_4 
REMARK    2  A    between atoms: C1'_4  and  C1_5 
ROOT
ATOM      1  C1  I4B d   1      -2.430   0.027   1.036  0.00  0.00    -0.075 A 
ATOM      2  C2  I4B d   1      -1.783  -0.211  -0.151  0.00  0.00     0.003 A 
ATOM      3  C3  I4B d   1      -1.130  -1.448  -0.372  0.00  0.00     0.002 A 
ATOM      4  C4  I4B d   1      -1.107  -2.393   0.633  0.00  0.00    -0.004 A 
ATOM      5  C5  I4B d   1      -1.784  -2.160   1.827  0.00  0.00     0.002 A 
ATOM      6  C6  I4B d   1      -2.460  -0.947   2.025  0.00  0.00     0.003 A 
ENDROOT
BRANCH   1   7
ATOM      7  C1' I4B d   1      -3.081   1.357   1.248  0.00  0.00     0.060 C 
BRANCH   7   8
ATOM      8  C2' I4B d   1      -2.006   2.341   1.663  0.00  0.00    -0.013 C 
ATOM      9  C4' I4B d   1      -1.724   3.334   0.566  0.00  0.00     0.013 C 
ATOM     10  C3' I4B d   1      -2.467   3.030   2.912  0.00  0.00     0.013 C 
ENDBRANCH   7   8
ENDBRANCH   1   7
TORSDOF 2
ENDMDL
