MODEL 1
REMARK minimizedAffinity 15.29354
REMARK minimizedRMSD -1
REMARK  2 active torsions:
REMARK  status: ('A' for Active; 'I' for Inactive)
REMARK    1  A    between atoms: C2'_3  and  C1'_4 
REMARK    2  A    between atoms: C1'_4  and  C1_5 
ROOT
ATOM      1  C1  I4B d   1      -0.996  -2.999   1.493  0.00  0.00    -0.075 A 
ATOM      2  C2  I4B d   1      -0.743  -1.812   2.134  0.00  0.00     0.003 A 
ATOM      3  C3  I4B d   1      -0.839  -0.587   1.430  0.00  0.00     0.002 A 
ATOM      4  C4  I4B d   1      -1.138  -0.599   0.084  0.00  0.00    -0.004 A 
ATOM      5  C5  I4B d   1      -1.416  -1.801  -0.560  0.00  0.00     0.002 A 
ATOM      6  C6  I4B d   1      -1.357  -3.008   0.152  0.00  0.00     0.003 A 
ENDROOT
BRANCH   1   7
ATOM      7  C1' I4B d   1      -0.853  -4.276   2.258  0.00  0.00     0.060 C 
BRANCH   7   8
ATOM      8  C2' I4B d   1      -2.236  -4.716   2.694  0.00  0.00    -0.013 C 
ATOM      9  C4' I4B d   1      -2.638  -6.000   2.016  0.00  0.00     0.013 C 
ATOM     10  C3' I4B d   1      -2.224  -4.872   4.185  0.00  0.00     0.013 C 
ENDBRANCH   7   8
ENDBRANCH   1   7
TORSDOF 2
ENDMDL
