MODEL 1
REMARK minimizedAffinity 11.5629492
REMARK minimizedRMSD -1
REMARK  2 active torsions:
REMARK  status: ('A' for Active; 'I' for Inactive)
REMARK    1  A    between atoms: C2'_3  and  C1'_4 
REMARK    2  A    between atoms: C1'_4  and  C1_5 
ROOT
ATOM      1  C1  I4B d   1      -0.811  -1.159  -0.554  0.00  0.00    -0.075 A 
ATOM      2  C2  I4B d   1      -0.148  -2.256  -0.064  0.00  0.00     0.003 A 
ATOM      3  C3  I4B d   1      -0.210  -2.569   1.315  0.00  0.00     0.002 A 
ATOM      4  C4  I4B d   1      -0.900  -1.735   2.171  0.00  0.00    -0.004 A 
ATOM      5  C5  I4B d   1      -1.590  -0.636   1.669  0.00  0.00     0.002 A 
ATOM      6  C6  I4B d   1      -1.556  -0.352   0.296  0.00  0.00     0.003 A 
ENDROOT
BRANCH   1   7
ATOM      7  C1' I4B d   1      -0.698  -0.840  -2.011  0.00  0.00     0.060 C 
BRANCH   7   8
ATOM      8  C2' I4B d   1       0.088   0.449  -2.147  0.00  0.00    -0.013 C 
ATOM      9  C4' I4B d   1       1.382   0.223  -2.883  0.00  0.00     0.013 C 
ATOM     10  C3' I4B d   1      -0.776   1.445  -2.862  0.00  0.00     0.013 C 
ENDBRANCH   7   8
ENDBRANCH   1   7
TORSDOF 2
ENDMDL
