MODEL 1
REMARK minimizedAffinity 6.16141462
REMARK minimizedRMSD -1
REMARK  2 active torsions:
REMARK  status: ('A' for Active; 'I' for Inactive)
REMARK    1  A    between atoms: C2'_3  and  C1'_4 
REMARK    2  A    between atoms: C1'_4  and  C1_5 
ROOT
ATOM      1  C1  I4B d   1      -3.988   3.443   5.906  0.00  0.00    -0.075 A 
ATOM      2  C2  I4B d   1      -5.352   3.598   5.918  0.00  0.00     0.003 A 
ATOM      3  C3  I4B d   1      -5.923   4.893   5.879  0.00  0.00     0.002 A 
ATOM      4  C4  I4B d   1      -5.099   5.999   5.880  0.00  0.00    -0.004 A 
ATOM      5  C5  I4B d   1      -3.716   5.841   5.845  0.00  0.00     0.002 A 
ATOM      6  C6  I4B d   1      -3.157   4.555   5.846  0.00  0.00     0.003 A 
ENDROOT
BRANCH   1   7
ATOM      7  C1' I4B d   1      -3.418   2.062   5.981  0.00  0.00     0.060 C 
BRANCH   7   8
ATOM      8  C2' I4B d   1      -1.942   2.148   5.651  0.00  0.00    -0.013 C 
ATOM      9  C4' I4B d   1      -1.319   0.778   5.578  0.00  0.00     0.013 C 
ATOM     10  C3' I4B d   1      -1.801   2.877   4.348  0.00  0.00     0.013 C 
ENDBRANCH   7   8
ENDBRANCH   1   7
TORSDOF 2
ENDMDL
