MODEL 1
REMARK minimizedAffinity 12.4794683
REMARK minimizedRMSD -1
REMARK  2 active torsions:
REMARK  status: ('A' for Active; 'I' for Inactive)
REMARK    1  A    between atoms: C2'_3  and  C1'_4 
REMARK    2  A    between atoms: C1'_4  and  C1_5 
ROOT
ATOM      1  C1  I4B d   1      -1.084  -2.669   1.303  0.00  0.00    -0.075 A 
ATOM      2  C2  I4B d   1      -0.792  -2.684  -0.038  0.00  0.00     0.003 A 
ATOM      3  C3  I4B d   1      -0.998  -1.525  -0.825  0.00  0.00     0.002 A 
ATOM      4  C4  I4B d   1      -1.541  -0.397  -0.245  0.00  0.00    -0.004 A 
ATOM      5  C5  I4B d   1      -1.815  -0.376   1.120  0.00  0.00     0.002 A 
ATOM      6  C6  I4B d   1      -1.574  -1.515   1.901  0.00  0.00     0.003 A 
ENDROOT
BRANCH   1   7
ATOM      7  C1' I4B d   1      -0.886  -3.921   2.097  0.00  0.00     0.060 C 
BRANCH   7   8
ATOM      8  C2' I4B d   1      -2.251  -4.511   2.387  0.00  0.00    -0.013 C 
ATOM      9  C4' I4B d   1      -2.261  -6.000   2.159  0.00  0.00     0.013 C 
ATOM     10  C3' I4B d   1      -2.608  -4.178   3.805  0.00  0.00     0.013 C 
ENDBRANCH   7   8
ENDBRANCH   1   7
TORSDOF 2
ENDMDL
