MODEL 1
REMARK minimizedAffinity 22.7684002
REMARK minimizedRMSD -1
REMARK  2 active torsions:
REMARK  status: ('A' for Active; 'I' for Inactive)
REMARK    1  A    between atoms: C2'_3  and  C1'_4 
REMARK    2  A    between atoms: C1'_4  and  C1_5 
ROOT
ATOM      1  C1  I4B d   1      -2.485   1.602   1.429  0.00  0.00    -0.075 A 
ATOM      2  C2  I4B d   1      -2.419   1.867   2.774  0.00  0.00     0.003 A 
ATOM      3  C3  I4B d   1      -1.810   3.059   3.236  0.00  0.00     0.002 A 
ATOM      4  C4  I4B d   1      -1.239   3.927   2.328  0.00  0.00    -0.004 A 
ATOM      5  C5  I4B d   1      -1.327   3.667   0.964  0.00  0.00     0.002 A 
ATOM      6  C6  I4B d   1      -1.965   2.503   0.510  0.00  0.00     0.003 A 
ENDROOT
BRANCH   1   7
ATOM      7  C1' I4B d   1      -3.106   0.318   0.978  0.00  0.00     0.060 C 
BRANCH   7   8
ATOM      8  C2' I4B d   1      -2.114  -0.798   1.239  0.00  0.00    -0.013 C 
ATOM      9  C4' I4B d   1      -2.736  -1.900   2.054  0.00  0.00     0.013 C 
ATOM     10  C3' I4B d   1      -1.634  -1.309  -0.087  0.00  0.00     0.013 C 
ENDBRANCH   7   8
ENDBRANCH   1   7
TORSDOF 2
ENDMDL
