MODEL 1
REMARK minimizedAffinity 1.80977178
REMARK minimizedRMSD -1
REMARK  2 active torsions:
REMARK  status: ('A' for Active; 'I' for Inactive)
REMARK    1  A    between atoms: C2'_3  and  C1'_4 
REMARK    2  A    between atoms: C1'_4  and  C1_5 
ROOT
ATOM      1  C1  I4B d   1       0.046  -0.434   1.777  0.00  0.00    -0.075 A 
ATOM      2  C2  I4B d   1      -0.057  -1.571   1.014  0.00  0.00     0.003 A 
ATOM      3  C3  I4B d   1      -0.250  -1.475  -0.386  0.00  0.00     0.002 A 
ATOM      4  C4  I4B d   1      -0.383  -0.232  -0.970  0.00  0.00    -0.004 A 
ATOM      5  C5  I4B d   1      -0.256   0.920  -0.198  0.00  0.00     0.002 A 
ATOM      6  C6  I4B d   1      -0.028   0.819   1.182  0.00  0.00     0.003 A 
ENDROOT
BRANCH   1   7
ATOM      7  C1' I4B d   1       0.216  -0.572   3.256  0.00  0.00     0.060 C 
BRANCH   7   8
ATOM      8  C2' I4B d   1       1.701  -0.614   3.554  0.00  0.00    -0.013 C 
ATOM      9  C4' I4B d   1       2.169   0.675   4.175  0.00  0.00     0.013 C 
ATOM     10  C3' I4B d   1       1.959  -1.779   4.463  0.00  0.00     0.013 C 
ENDBRANCH   7   8
ENDBRANCH   1   7
TORSDOF 2
ENDMDL
