MODEL 1
REMARK minimizedAffinity -3.69782948
REMARK minimizedRMSD -1
REMARK  2 active torsions:
REMARK  status: ('A' for Active; 'I' for Inactive)
REMARK    1  A    between atoms: C2'_3  and  C1'_4 
REMARK    2  A    between atoms: C1'_4  and  C1_5 
ROOT
ATOM      1  C1  I4B d   1       0.089  -0.336   0.266  0.00  0.00    -0.075 A 
ATOM      2  C2  I4B d   1      -0.619   0.196  -0.783  0.00  0.00     0.003 A 
ATOM      3  C3  I4B d   1      -1.991  -0.110  -0.946  0.00  0.00     0.002 A 
ATOM      4  C4  I4B d   1      -2.600  -0.988  -0.072  0.00  0.00    -0.004 A 
ATOM      5  C5  I4B d   1      -1.887  -1.509   1.004  0.00  0.00     0.002 A 
ATOM      6  C6  I4B d   1      -0.537  -1.171   1.182  0.00  0.00     0.003 A 
ENDROOT
BRANCH   1   7
ATOM      7  C1' I4B d   1       1.545  -0.017   0.389  0.00  0.00     0.060 C 
BRANCH   7   8
ATOM      8  C2' I4B d   1       1.672   1.445   0.766  0.00  0.00    -0.013 C 
ATOM      9  C4' I4B d   1       1.747   1.617   2.261  0.00  0.00     0.013 C 
ATOM     10  C3' I4B d   1       2.898   1.991   0.096  0.00  0.00     0.013 C 
ENDBRANCH   7   8
ENDBRANCH   1   7
TORSDOF 2
ENDMDL
