MODEL 1
REMARK minimizedAffinity -2.94506621
REMARK minimizedRMSD -1
REMARK  2 active torsions:
REMARK  status: ('A' for Active; 'I' for Inactive)
REMARK    1  A    between atoms: C2'_3  and  C1'_4 
REMARK    2  A    between atoms: C1'_4  and  C1_5 
ROOT
ATOM      1  C1  I4B d   1       0.257  -0.061   0.029  0.00  0.00    -0.075 A 
ATOM      2  C2  I4B d   1      -0.131   0.333  -1.227  0.00  0.00     0.003 A 
ATOM      3  C3  I4B d   1      -1.456   0.102  -1.670  0.00  0.00     0.002 A 
ATOM      4  C4  I4B d   1      -2.339  -0.568  -0.849  0.00  0.00    -0.004 A 
ATOM      5  C5  I4B d   1      -1.951  -0.947   0.433  0.00  0.00     0.002 A 
ATOM      6  C6  I4B d   1      -0.649  -0.681   0.880  0.00  0.00     0.003 A 
ENDROOT
BRANCH   1   7
ATOM      7  C1' I4B d   1       1.673   0.170   0.452  0.00  0.00     0.060 C 
BRANCH   7   8
ATOM      8  C2' I4B d   1       2.012   1.621   0.177  0.00  0.00    -0.013 C 
ATOM      9  C4' I4B d   1       2.096   2.412   1.456  0.00  0.00     0.013 C 
ATOM     10  C3' I4B d   1       3.311   1.659  -0.571  0.00  0.00     0.013 C 
ENDBRANCH   7   8
ENDBRANCH   1   7
TORSDOF 2
ENDMDL
