MODEL 1
REMARK minimizedAffinity -3.6604197
REMARK minimizedRMSD -1
REMARK  2 active torsions:
REMARK  status: ('A' for Active; 'I' for Inactive)
REMARK    1  A    between atoms: C2'_3  and  C1'_4 
REMARK    2  A    between atoms: C1'_4  and  C1_5 
ROOT
ATOM      1  C1  I4B d   1       0.674   0.667   0.185  0.00  0.00    -0.075 A 
ATOM      2  C2  I4B d   1      -0.223   1.531  -0.391  0.00  0.00     0.003 A 
ATOM      3  C3  I4B d   1      -1.587   1.167  -0.511  0.00  0.00     0.002 A 
ATOM      4  C4  I4B d   1      -1.996  -0.082  -0.091  0.00  0.00    -0.004 A 
ATOM      5  C5  I4B d   1      -1.089  -0.947   0.514  0.00  0.00     0.002 A 
ATOM      6  C6  I4B d   1       0.252  -0.566   0.664  0.00  0.00     0.003 A 
ENDROOT
BRANCH   1   7
ATOM      7  C1' I4B d   1       2.112   1.070   0.266  0.00  0.00     0.060 C 
BRANCH   7   8
ATOM      8  C2' I4B d   1       2.165   2.563   0.516  0.00  0.00    -0.013 C 
ATOM      9  C4' I4B d   1       2.660   2.866   1.906  0.00  0.00     0.013 C 
ATOM     10  C3' I4B d   1       3.058   3.175  -0.522  0.00  0.00     0.013 C 
ENDBRANCH   7   8
ENDBRANCH   1   7
TORSDOF 2
ENDMDL
