MODEL 1
REMARK minimizedAffinity -5.09620047
REMARK minimizedRMSD -1
REMARK  2 active torsions:
REMARK  status: ('A' for Active; 'I' for Inactive)
REMARK    1  A    between atoms: C2'_3  and  C1'_4 
REMARK    2  A    between atoms: C1'_4  and  C1_5 
ROOT
ATOM      1  C1  I4B d   1       0.002   0.032  -0.006  0.00  0.00    -0.075 A 
ATOM      2  C2  I4B d   1      -0.883  -0.548   0.869  0.00  0.00     0.003 A 
ATOM      3  C3  I4B d   1      -2.249  -0.676   0.520  0.00  0.00     0.002 A 
ATOM      4  C4  I4B d   1      -2.694  -0.169  -0.684  0.00  0.00    -0.004 A 
ATOM      5  C5  I4B d   1      -1.792   0.398  -1.579  0.00  0.00     0.002 A 
ATOM      6  C6  I4B d   1      -0.433   0.489  -1.243  0.00  0.00     0.003 A 
ENDROOT
BRANCH   1   7
ATOM      7  C1' I4B d   1       1.431   0.182   0.408  0.00  0.00     0.060 C 
BRANCH   7   8
ATOM      8  C2' I4B d   1       1.782   1.655   0.351  0.00  0.00    -0.013 C 
ATOM      9  C4' I4B d   1       1.849   2.253   1.732  0.00  0.00     0.013 C 
ATOM     10  C3' I4B d   1       3.094   1.791  -0.362  0.00  0.00     0.013 C 
ENDBRANCH   7   8
ENDBRANCH   1   7
TORSDOF 2
ENDMDL
