MODEL 1
REMARK minimizedAffinity -3.89752316
REMARK minimizedRMSD -1
REMARK  2 active torsions:
REMARK  status: ('A' for Active; 'I' for Inactive)
REMARK    1  A    between atoms: C2'_3  and  C1'_4 
REMARK    2  A    between atoms: C1'_4  and  C1_5 
ROOT
ATOM      1  C1  I4B d   1      -0.688   0.132  -0.085  0.00  0.00    -0.075 A 
ATOM      2  C2  I4B d   1      -1.028  -0.567   1.046  0.00  0.00     0.003 A 
ATOM      3  C3  I4B d   1      -2.070  -1.525   1.006  0.00  0.00     0.002 A 
ATOM      4  C4  I4B d   1      -2.774  -1.715  -0.166  0.00  0.00    -0.004 A 
ATOM      5  C5  I4B d   1      -2.412  -1.022  -1.318  0.00  0.00     0.002 A 
ATOM      6  C6  I4B d   1      -1.355  -0.101  -1.281  0.00  0.00     0.003 A 
ENDROOT
BRANCH   1   7
ATOM      7  C1' I4B d   1       0.395   1.160   0.001  0.00  0.00     0.060 C 
BRANCH   7   8
ATOM      8  C2' I4B d   1       1.540   0.566   0.797  0.00  0.00    -0.013 C 
ATOM      9  C4' I4B d   1       2.402  -0.318  -0.066  0.00  0.00     0.013 C 
ATOM     10  C3' I4B d   1       2.335   1.697   1.378  0.00  0.00     0.013 C 
ENDBRANCH   7   8
ENDBRANCH   1   7
TORSDOF 2
ENDMDL
