MODEL 1
REMARK minimizedAffinity -4.3849678
REMARK minimizedRMSD -1
REMARK  2 active torsions:
REMARK  status: ('A' for Active; 'I' for Inactive)
REMARK    1  A    between atoms: C2'_3  and  C1'_4 
REMARK    2  A    between atoms: C1'_4  and  C1_5 
ROOT
ATOM      1  C1  I4B d   1      -0.087  -0.120  -0.295  0.00  0.00    -0.075 A 
ATOM      2  C2  I4B d   1      -0.743  -1.192  -0.846  0.00  0.00     0.003 A 
ATOM      3  C3  I4B d   1      -2.157  -1.264  -0.797  0.00  0.00     0.002 A 
ATOM      4  C4  I4B d   1      -2.865  -0.273  -0.148  0.00  0.00    -0.004 A 
ATOM      5  C5  I4B d   1      -2.199   0.824   0.389  0.00  0.00     0.002 A 
ATOM      6  C6  I4B d   1      -0.802   0.908   0.305  0.00  0.00     0.003 A 
ENDROOT
BRANCH   1   7
ATOM      7  C1' I4B d   1       1.409  -0.092  -0.335  0.00  0.00     0.060 C 
BRANCH   7   8
ATOM      8  C2' I4B d   1       1.883   0.953   0.653  0.00  0.00    -0.013 C 
ATOM      9  C4' I4B d   1       2.147   0.344   2.005  0.00  0.00     0.013 C 
ATOM     10  C3' I4B d   1       3.121   1.590   0.095  0.00  0.00     0.013 C 
ENDBRANCH   7   8
ENDBRANCH   1   7
TORSDOF 2
ENDMDL
