MODEL 1
REMARK minimizedAffinity -4.27173758
REMARK minimizedRMSD -1
REMARK  2 active torsions:
REMARK  status: ('A' for Active; 'I' for Inactive)
REMARK    1  A    between atoms: C2'_3  and  C1'_4 
REMARK    2  A    between atoms: C1'_4  and  C1_5 
ROOT
ATOM      1  C1  I4B d   1       0.770  -0.204   0.575  0.00  0.00    -0.075 A 
ATOM      2  C2  I4B d   1      -0.026  -0.762   1.545  0.00  0.00     0.003 A 
ATOM      3  C3  I4B d   1      -1.419  -0.900   1.332  0.00  0.00     0.002 A 
ATOM      4  C4  I4B d   1      -1.978  -0.423   0.163  0.00  0.00    -0.004 A 
ATOM      5  C5  I4B d   1      -1.167   0.122  -0.828  0.00  0.00     0.002 A 
ATOM      6  C6  I4B d   1       0.217   0.220  -0.626  0.00  0.00     0.003 A 
ENDROOT
BRANCH   1   7
ATOM      7  C1' I4B d   1       2.232  -0.045   0.847  0.00  0.00     0.060 C 
BRANCH   7   8
ATOM      8  C2' I4B d   1       2.537   1.438   0.904  0.00  0.00    -0.013 C 
ATOM      9  C4' I4B d   1       2.909   1.865   2.300  0.00  0.00     0.013 C 
ATOM     10  C3' I4B d   1       3.648   1.721  -0.063  0.00  0.00     0.013 C 
ENDBRANCH   7   8
ENDBRANCH   1   7
TORSDOF 2
ENDMDL
