MODEL 1
REMARK minimizedAffinity -4.90179634
REMARK minimizedRMSD -1
REMARK  2 active torsions:
REMARK  status: ('A' for Active; 'I' for Inactive)
REMARK    1  A    between atoms: C2'_3  and  C1'_4 
REMARK    2  A    between atoms: C1'_4  and  C1_5 
ROOT
ATOM      1  C1  I4B d   1       0.149  -0.055  -0.149  0.00  0.00    -0.075 A 
ATOM      2  C2  I4B d   1       0.100  -0.008  -1.520  0.00  0.00     0.003 A 
ATOM      3  C3  I4B d   1      -1.104  -0.311  -2.201  0.00  0.00     0.002 A 
ATOM      4  C4  I4B d   1      -2.213  -0.701  -1.479  0.00  0.00    -0.004 A 
ATOM      5  C5  I4B d   1      -2.169  -0.725  -0.088  0.00  0.00     0.002 A 
ATOM      6  C6  I4B d   1      -0.984  -0.388   0.582  0.00  0.00     0.003 A 
ENDROOT
BRANCH   1   7
ATOM      7  C1' I4B d   1       1.446   0.239   0.536  0.00  0.00     0.060 C 
BRANCH   7   8
ATOM      8  C2' I4B d   1       1.611   1.743   0.599  0.00  0.00    -0.013 C 
ATOM      9  C4' I4B d   1       1.765   2.216   2.021  0.00  0.00     0.013 C 
ATOM     10  C3' I4B d   1       2.807   2.113  -0.227  0.00  0.00     0.013 C 
ENDBRANCH   7   8
ENDBRANCH   1   7
TORSDOF 2
ENDMDL
