MODEL 1
REMARK minimizedAffinity -4.35953951
REMARK minimizedRMSD -1
REMARK  2 active torsions:
REMARK  status: ('A' for Active; 'I' for Inactive)
REMARK    1  A    between atoms: C2'_3  and  C1'_4 
REMARK    2  A    between atoms: C1'_4  and  C1_5 
ROOT
ATOM      1  C1  I4B d   1       0.479  -0.143   0.252  0.00  0.00    -0.075 A 
ATOM      2  C2  I4B d   1       0.100  -0.041  -1.063  0.00  0.00     0.003 A 
ATOM      3  C3  I4B d   1      -1.240  -0.296  -1.441  0.00  0.00     0.002 A 
ATOM      4  C4  I4B d   1      -2.151  -0.696  -0.485  0.00  0.00    -0.004 A 
ATOM      5  C5  I4B d   1      -1.771  -0.776   0.852  0.00  0.00     0.002 A 
ATOM      6  C6  I4B d   1      -0.451  -0.486   1.225  0.00  0.00     0.003 A 
ENDROOT
BRANCH   1   7
ATOM      7  C1' I4B d   1       1.911   0.101   0.611  0.00  0.00     0.060 C 
BRANCH   7   8
ATOM      8  C2' I4B d   1       2.154   1.596   0.567  0.00  0.00    -0.013 C 
ATOM      9  C4' I4B d   1       2.511   2.130   1.930  0.00  0.00     0.013 C 
ATOM     10  C3' I4B d   1       3.251   1.858  -0.421  0.00  0.00     0.013 C 
ENDBRANCH   7   8
ENDBRANCH   1   7
TORSDOF 2
ENDMDL
