MODEL 1
REMARK minimizedAffinity -4.88114405
REMARK minimizedRMSD -1
REMARK  2 active torsions:
REMARK  status: ('A' for Active; 'I' for Inactive)
REMARK    1  A    between atoms: C2'_3  and  C1'_4 
REMARK    2  A    between atoms: C1'_4  and  C1_5 
ROOT
ATOM      1  C1  I4B d   1       0.486   0.445   0.170  0.00  0.00    -0.075 A 
ATOM      2  C2  I4B d   1      -0.154  -0.122   1.244  0.00  0.00     0.003 A 
ATOM      3  C3  I4B d   1      -1.493  -0.568   1.121  0.00  0.00     0.002 A 
ATOM      4  C4  I4B d   1      -2.165  -0.382  -0.070  0.00  0.00    -0.004 A 
ATOM      5  C5  I4B d   1      -1.507   0.173  -1.163  0.00  0.00     0.002 A 
ATOM      6  C6  I4B d   1      -0.169   0.578  -1.047  0.00  0.00     0.003 A 
ENDROOT
BRANCH   1   7
ATOM      7  C1' I4B d   1       1.888   0.935   0.344  0.00  0.00     0.060 C 
BRANCH   7   8
ATOM      8  C2' I4B d   1       1.848   2.158   1.239  0.00  0.00    -0.013 C 
ATOM      9  C4' I4B d   1       2.994   2.156   2.216  0.00  0.00     0.013 C 
ATOM     10  C3' I4B d   1       1.887   3.374   0.362  0.00  0.00     0.013 C 
ENDBRANCH   7   8
ENDBRANCH   1   7
TORSDOF 2
ENDMDL
