MODEL 1
REMARK minimizedAffinity 7.33035612
REMARK minimizedRMSD -1
REMARK  0 active torsions:
REMARK  status: ('A' for Active; 'I' for Inactive)
ROOT
ATOM      1  C   UNL d   1      -3.230   0.450   1.513  0.00  0.00     0.023 A 
ATOM      2  C1  UNL d   1      -2.884   0.396   0.163  0.00  0.00     0.003 A 
ATOM      3  C2  UNL d   1      -1.540   0.342  -0.214  0.00  0.00     0.048 A 
ATOM      4  C3  UNL d   1      -0.547   0.343   0.765  0.00  0.00     0.023 A 
ATOM      5  C4  UNL d   1      -0.888   0.396   2.118  0.00  0.00     0.048 A 
ATOM      6  C5  UNL d   1      -2.233   0.450   2.489  0.00  0.00     0.003 A 
ATOM      7  I   UNL d   1       1.453   0.263   0.207  0.00  0.00    -0.146 I 
ENDROOT
TORSDOF 0
ENDMDL
