MODEL 1
REMARK minimizedAffinity 5.29543877
REMARK minimizedRMSD -1
REMARK  0 active torsions:
REMARK  status: ('A' for Active; 'I' for Inactive)
ROOT
ATOM      1  C   UNL d   1      -1.516   0.610   0.829  0.00  0.00     0.023 A 
ATOM      2  C1  UNL d   1      -0.162   0.393   0.573  0.00  0.00     0.003 A 
ATOM      3  C2  UNL d   1       0.663  -0.133   1.569  0.00  0.00     0.048 A 
ATOM      4  C3  UNL d   1       0.128  -0.440   2.819  0.00  0.00     0.023 A 
ATOM      5  C4  UNL d   1      -1.226  -0.225   3.080  0.00  0.00     0.048 A 
ATOM      6  C5  UNL d   1      -2.047   0.302   2.082  0.00  0.00     0.003 A 
ATOM      7  I   UNL d   1       1.354  -1.223   4.304  0.00  0.00    -0.146 I 
ENDROOT
TORSDOF 0
ENDMDL
