MODEL 1
REMARK minimizedAffinity 9.97540855
REMARK minimizedRMSD -1
REMARK  0 active torsions:
REMARK  status: ('A' for Active; 'I' for Inactive)
ROOT
ATOM      1  C   UNL d   1      -3.025  -0.262   0.213  0.00  0.00     0.023 A 
ATOM      2  C1  UNL d   1      -2.162  -0.810  -0.735  0.00  0.00     0.003 A 
ATOM      3  C2  UNL d   1      -0.780  -0.670  -0.588  0.00  0.00     0.048 A 
ATOM      4  C3  UNL d   1      -0.269   0.019   0.512  0.00  0.00     0.023 A 
ATOM      5  C4  UNL d   1      -1.129   0.568   1.464  0.00  0.00     0.048 A 
ATOM      6  C5  UNL d   1      -2.510   0.427   1.311  0.00  0.00     0.003 A 
ATOM      7  I   UNL d   1       1.787   0.229   0.734  0.00  0.00    -0.146 I 
ENDROOT
TORSDOF 0
ENDMDL
