MODEL 1
REMARK minimizedAffinity -6.72256994
REMARK minimizedRMSD -1
REMARK  0 active torsions:
REMARK  status: ('A' for Active; 'I' for Inactive)
ROOT
ATOM      1  O1  BZF d   1       0.902  -0.526  -0.530  0.00  0.00    -0.204 OA
ATOM      2  C2  BZF d   1      -0.320  -0.809   0.049  0.00  0.00     0.174 A 
ATOM      3  C3  BZF d   1      -0.629   0.110   0.987  0.00  0.00    -0.012 A 
ATOM      4  C3A BZF d   1       0.425   1.076   0.929  0.00  0.00    -0.107 A 
ATOM      5  C4  BZF d   1       0.675   2.235   1.606  0.00  0.00     0.055 A 
ATOM      6  C5  BZF d   1       1.831   2.907   1.363  0.00  0.00    -0.016 A 
ATOM      7  C6  BZF d   1       2.761   2.446   0.454  0.00  0.00     0.022 A 
ATOM      8  C7  BZF d   1       2.555   1.304  -0.246  0.00  0.00     0.029 A 
ATOM      9  C7A BZF d   1       1.373   0.640  -0.026  0.00  0.00     0.058 A 
ENDROOT
TORSDOF 0
ENDMDL
