MODEL 1
REMARK minimizedAffinity -5.33756685
REMARK minimizedRMSD -1
REMARK  0 active torsions:
REMARK  status: ('A' for Active; 'I' for Inactive)
ROOT
ATOM      1  O1  BZF d   1       0.207  -0.478  -0.551  0.00  0.00    -0.204 OA
ATOM      2  C2  BZF d   1      -1.040  -0.126  -0.071  0.00  0.00     0.174 A 
ATOM      3  C3  BZF d   1      -0.963   0.984   0.691  0.00  0.00    -0.012 A 
ATOM      4  C3A BZF d   1       0.404   1.402   0.610  0.00  0.00    -0.107 A 
ATOM      5  C4  BZF d   1       1.098   2.451   1.141  0.00  0.00     0.055 A 
ATOM      6  C5  BZF d   1       2.438   2.531   0.930  0.00  0.00    -0.016 A 
ATOM      7  C6  BZF d   1       3.116   1.578   0.199  0.00  0.00     0.022 A 
ATOM      8  C7  BZF d   1       2.470   0.522  -0.352  0.00  0.00     0.029 A 
ATOM      9  C7A BZF d   1       1.110   0.456  -0.168  0.00  0.00     0.058 A 
ENDROOT
TORSDOF 0
ENDMDL
