MODEL 1
REMARK minimizedAffinity -6.77538633
REMARK minimizedRMSD -1
REMARK  0 active torsions:
REMARK  status: ('A' for Active; 'I' for Inactive)
ROOT
ATOM      1  O1  BZF d   1       1.158  -0.497  -0.373  0.00  0.00    -0.204 OA
ATOM      2  C2  BZF d   1      -0.094  -0.690   0.179  0.00  0.00     0.174 A 
ATOM      3  C3  BZF d   1      -0.395   0.300   1.043  0.00  0.00    -0.012 A 
ATOM      4  C3A BZF d   1       0.701   1.216   0.962  0.00  0.00    -0.107 A 
ATOM      5  C4  BZF d   1       0.978   2.406   1.572  0.00  0.00     0.055 A 
ATOM      6  C5  BZF d   1       2.170   3.012   1.329  0.00  0.00    -0.016 A 
ATOM      7  C6  BZF d   1       3.109   2.454   0.486  0.00  0.00     0.022 A 
ATOM      8  C7  BZF d   1       2.878   1.278  -0.146  0.00  0.00     0.029 A 
ATOM      9  C7A BZF d   1       1.661   0.679   0.073  0.00  0.00     0.058 A 
ENDROOT
TORSDOF 0
ENDMDL
