MODEL 1
REMARK minimizedAffinity -4.19357252
REMARK minimizedRMSD -1
REMARK  0 active torsions:
REMARK  status: ('A' for Active; 'I' for Inactive)
ROOT
ATOM      1  O1  BZF d   1       0.905  -0.540  -0.495  0.00  0.00    -0.204 OA
ATOM      2  C2  BZF d   1      -0.455  -0.335  -0.362  0.00  0.00     0.174 A 
ATOM      3  C3  BZF d   1      -0.703   0.761   0.384  0.00  0.00    -0.012 A 
ATOM      4  C3A BZF d   1       0.582   1.324   0.663  0.00  0.00    -0.107 A 
ATOM      5  C4  BZF d   1       0.993   2.431   1.350  0.00  0.00     0.055 A 
ATOM      6  C5  BZF d   1       2.324   2.659   1.499  0.00  0.00    -0.016 A 
ATOM      7  C6  BZF d   1       3.271   1.801   0.980  0.00  0.00     0.022 A 
ATOM      8  C7  BZF d   1       2.912   0.693   0.286  0.00  0.00     0.029 A 
ATOM      9  C7A BZF d   1       1.568   0.477   0.106  0.00  0.00     0.058 A 
ENDROOT
TORSDOF 0
ENDMDL
