MODEL 1
REMARK minimizedAffinity -1.88616872
REMARK minimizedRMSD -1
REMARK  0 active torsions:
REMARK  status: ('A' for Active; 'I' for Inactive)
ROOT
ATOM      1  O1  BZF d   1       0.317   0.281  -1.872  0.00  0.00    -0.204 OA
ATOM      2  C2  BZF d   1      -0.617  -0.737  -1.924  0.00  0.00     0.174 A 
ATOM      3  C3  BZF d   1      -1.117  -0.990  -0.698  0.00  0.00    -0.012 A 
ATOM      4  C3A BZF d   1      -0.522  -0.012   0.161  0.00  0.00    -0.107 A 
ATOM      5  C4  BZF d   1      -0.637   0.260   1.494  0.00  0.00     0.055 A 
ATOM      6  C5  BZF d   1       0.136   1.237   2.037  0.00  0.00    -0.016 A 
ATOM      7  C6  BZF d   1       1.037   1.956   1.279  0.00  0.00     0.022 A 
ATOM      8  C7  BZF d   1       1.182   1.725  -0.048  0.00  0.00     0.029 A 
ATOM      9  C7A BZF d   1       0.379   0.761  -0.607  0.00  0.00     0.058 A 
ENDROOT
TORSDOF 0
ENDMDL
