MODEL 1
REMARK minimizedAffinity -6.1909976
REMARK minimizedRMSD -1
REMARK  0 active torsions:
REMARK  status: ('A' for Active; 'I' for Inactive)
ROOT
ATOM      1  O1  BZF d   1       0.730  -0.708  -0.347  0.00  0.00    -0.204 OA
ATOM      2  C2  BZF d   1      -0.539  -0.814   0.190  0.00  0.00     0.174 A 
ATOM      3  C3  BZF d   1      -0.742   0.133   1.127  0.00  0.00    -0.012 A 
ATOM      4  C3A BZF d   1       0.442   0.936   1.115  0.00  0.00    -0.107 A 
ATOM      5  C4  BZF d   1       0.835   2.042   1.814  0.00  0.00     0.055 A 
ATOM      6  C5  BZF d   1       2.083   2.540   1.615  0.00  0.00    -0.016 A 
ATOM      7  C6  BZF d   1       2.966   1.955   0.731  0.00  0.00     0.022 A 
ATOM      8  C7  BZF d   1       2.621   0.859   0.012  0.00  0.00     0.029 A 
ATOM      9  C7A BZF d   1       1.348   0.374   0.186  0.00  0.00     0.058 A 
ENDROOT
TORSDOF 0
ENDMDL
