MODEL 1
REMARK minimizedAffinity -0.441498935
REMARK minimizedRMSD -1
REMARK  0 active torsions:
REMARK  status: ('A' for Active; 'I' for Inactive)
ROOT
ATOM      1  O1  BZF d   1       0.736   1.812   2.437  0.00  0.00    -0.204 OA
ATOM      2  C2  BZF d   1       1.669   2.736   2.007  0.00  0.00     0.174 A 
ATOM      3  C3  BZF d   1       1.986   2.528   0.713  0.00  0.00    -0.012 A 
ATOM      4  C3A BZF d   1       1.134   1.462   0.283  0.00  0.00    -0.107 A 
ATOM      5  C4  BZF d   1       0.967   0.816  -0.909  0.00  0.00     0.055 A 
ATOM      6  C5  BZF d   1       0.103  -0.231  -0.977  0.00  0.00    -0.016 A 
ATOM      7  C6  BZF d   1      -0.605  -0.661   0.126  0.00  0.00     0.022 A 
ATOM      8  C7  BZF d   1      -0.477  -0.048   1.328  0.00  0.00     0.029 A 
ATOM      9  C7A BZF d   1       0.371   1.031   1.392  0.00  0.00     0.058 A 
ENDROOT
TORSDOF 0
ENDMDL
