MODEL 1
REMARK minimizedAffinity -6.52065468
REMARK minimizedRMSD -1
REMARK  0 active torsions:
REMARK  status: ('A' for Active; 'I' for Inactive)
ROOT
ATOM      1  O1  BZF d   1       0.608  -0.384  -0.453  0.00  0.00    -0.204 OA
ATOM      2  C2  BZF d   1      -0.674  -0.549   0.036  0.00  0.00     0.174 A 
ATOM      3  C3  BZF d   1      -0.937   0.354   1.002  0.00  0.00    -0.012 A 
ATOM      4  C3A BZF d   1       0.222   1.191   1.061  0.00  0.00    -0.107 A 
ATOM      5  C4  BZF d   1       0.556   2.280   1.815  0.00  0.00     0.055 A 
ATOM      6  C5  BZF d   1       1.795   2.822   1.678  0.00  0.00    -0.016 A 
ATOM      7  C6  BZF d   1       2.724   2.299   0.803  0.00  0.00     0.022 A 
ATOM      8  C7  BZF d   1       2.436   1.223   0.031  0.00  0.00     0.029 A 
ATOM      9  C7A BZF d   1       1.174   0.693   0.142  0.00  0.00     0.058 A 
ENDROOT
TORSDOF 0
ENDMDL
