MODEL 1
REMARK minimizedAffinity -4.85955095
REMARK minimizedRMSD -1
REMARK  0 active torsions:
REMARK  status: ('A' for Active; 'I' for Inactive)
ROOT
ATOM      1  O1  BZF d   1       3.356   1.400   0.183  0.00  0.00    -0.204 OA
ATOM      2  C2  BZF d   1       3.301   0.375  -0.742  0.00  0.00     0.174 A 
ATOM      3  C3  BZF d   1       2.047  -0.110  -0.845  0.00  0.00    -0.012 A 
ATOM      4  C3A BZF d   1       1.251   0.721   0.006  0.00  0.00    -0.107 A 
ATOM      5  C4  BZF d   1      -0.079   0.748   0.314  0.00  0.00     0.055 A 
ATOM      6  C5  BZF d   1      -0.525   1.640   1.237  0.00  0.00    -0.016 A 
ATOM      7  C6  BZF d   1       0.330   2.514   1.874  0.00  0.00     0.022 A 
ATOM      8  C7  BZF d   1       1.657   2.528   1.599  0.00  0.00     0.029 A 
ATOM      9  C7A BZF d   1       2.106   1.650   0.642  0.00  0.00     0.058 A 
ENDROOT
TORSDOF 0
ENDMDL
