MODEL 1
REMARK minimizedAffinity -0.468078464
REMARK minimizedRMSD -1
REMARK  0 active torsions:
REMARK  status: ('A' for Active; 'I' for Inactive)
ROOT
ATOM      1  O1  BZF d   1       2.621   0.363  -1.035  0.00  0.00    -0.204 OA
ATOM      2  C2  BZF d   1       2.764   1.665  -0.597  0.00  0.00     0.174 A 
ATOM      3  C3  BZF d   1       1.645   2.084   0.030  0.00  0.00    -0.012 A 
ATOM      4  C3A BZF d   1       0.782   0.943   0.061  0.00  0.00    -0.107 A 
ATOM      5  C4  BZF d   1      -0.468   0.726   0.566  0.00  0.00     0.055 A 
ATOM      6  C5  BZF d   1      -1.061  -0.481   0.366  0.00  0.00    -0.016 A 
ATOM      7  C6  BZF d   1      -0.435  -1.489  -0.338  0.00  0.00     0.022 A 
ATOM      8  C7  BZF d   1       0.807  -1.322  -0.854  0.00  0.00     0.029 A 
ATOM      9  C7A BZF d   1       1.422  -0.115  -0.625  0.00  0.00     0.058 A 
ENDROOT
TORSDOF 0
ENDMDL
