MODEL 1
REMARK minimizedAffinity -5.41756725
REMARK minimizedRMSD -1
REMARK  0 active torsions:
REMARK  status: ('A' for Active; 'I' for Inactive)
ROOT
ATOM      1  O1  BZF d   1       0.459  -0.693  -0.560  0.00  0.00    -0.204 OA
ATOM      2  C2  BZF d   1      -0.857  -0.720  -0.142  0.00  0.00     0.174 A 
ATOM      3  C3  BZF d   1      -1.100   0.273   0.738  0.00  0.00    -0.012 A 
ATOM      4  C3A BZF d   1       0.119   1.020   0.809  0.00  0.00    -0.107 A 
ATOM      5  C4  BZF d   1       0.499   2.134   1.501  0.00  0.00     0.055 A 
ATOM      6  C5  BZF d   1       1.784   2.566   1.404  0.00  0.00    -0.016 A 
ATOM      7  C6  BZF d   1       2.715   1.906   0.629  0.00  0.00     0.022 A 
ATOM      8  C7  BZF d   1       2.383   0.799  -0.080  0.00  0.00     0.029 A 
ATOM      9  C7A BZF d   1       1.078   0.379  -0.010  0.00  0.00     0.058 A 
ENDROOT
TORSDOF 0
ENDMDL
