MODEL 1
REMARK minimizedAffinity -5.25006294
REMARK minimizedRMSD -1
REMARK  0 active torsions:
REMARK  status: ('A' for Active; 'I' for Inactive)
ROOT
ATOM      1  O1  BZF d   1       0.813  -0.724  -0.595  0.00  0.00    -0.204 OA
ATOM      2  C2  BZF d   1      -0.420  -1.215  -0.209  0.00  0.00     0.174 A 
ATOM      3  C3  BZF d   1      -0.984  -0.415   0.718  0.00  0.00    -0.012 A 
ATOM      4  C3A BZF d   1      -0.088   0.691   0.857  0.00  0.00    -0.107 A 
ATOM      5  C4  BZF d   1      -0.107   1.825   1.618  0.00  0.00     0.055 A 
ATOM      6  C5  BZF d   1       0.958   2.668   1.574  0.00  0.00    -0.016 A 
ATOM      7  C6  BZF d   1       2.059   2.406   0.786  0.00  0.00     0.022 A 
ATOM      8  C7  BZF d   1       2.122   1.297   0.009  0.00  0.00     0.029 A 
ATOM      9  C7A BZF d   1       1.033   0.460   0.027  0.00  0.00     0.058 A 
ENDROOT
TORSDOF 0
ENDMDL
