MODEL 1
REMARK minimizedAffinity -4.47021151
REMARK minimizedRMSD -1
REMARK  0 active torsions:
REMARK  status: ('A' for Active; 'I' for Inactive)
ROOT
ATOM      1  O1  BZF d   1       1.655  -0.493  -0.515  0.00  0.00    -0.204 OA
ATOM      2  C2  BZF d   1       0.500  -1.224  -0.718  0.00  0.00     0.174 A 
ATOM      3  C3  BZF d   1      -0.527  -0.700  -0.019  0.00  0.00    -0.012 A 
ATOM      4  C3A BZF d   1      -0.002   0.483   0.591  0.00  0.00    -0.107 A 
ATOM      5  C4  BZF d   1      -0.543   1.443   1.397  0.00  0.00     0.055 A 
ATOM      6  C5  BZF d   1       0.258   2.428   1.881  0.00  0.00    -0.016 A 
ATOM      7  C6  BZF d   1       1.604   2.481   1.584  0.00  0.00     0.022 A 
ATOM      8  C7  BZF d   1       2.185   1.554   0.784  0.00  0.00     0.029 A 
ATOM      9  C7A BZF d   1       1.371   0.576   0.267  0.00  0.00     0.058 A 
ENDROOT
TORSDOF 0
ENDMDL
