MODEL 1
REMARK minimizedAffinity -5.84494925
REMARK minimizedRMSD -1
REMARK  0 active torsions:
REMARK  status: ('A' for Active; 'I' for Inactive)
ROOT
ATOM      1  O1  BZF d   1       2.394   0.181   0.016  0.00  0.00    -0.204 OA
ATOM      2  C2  BZF d   1       3.556   0.926  -0.044  0.00  0.00     0.174 A 
ATOM      3  C3  BZF d   1       3.328   2.200   0.335  0.00  0.00    -0.012 A 
ATOM      4  C3A BZF d   1       1.956   2.233   0.738  0.00  0.00    -0.107 A 
ATOM      5  C4  BZF d   1       1.145   3.216   1.229  0.00  0.00     0.055 A 
ATOM      6  C5  BZF d   1      -0.166   2.939   1.454  0.00  0.00    -0.016 A 
ATOM      7  C6  BZF d   1      -0.701   1.694   1.195  0.00  0.00     0.022 A 
ATOM      8  C7  BZF d   1       0.066   0.685   0.713  0.00  0.00     0.029 A 
ATOM      9  C7A BZF d   1       1.398   0.952   0.515  0.00  0.00     0.058 A 
ENDROOT
TORSDOF 0
ENDMDL
