MODEL 1
REMARK minimizedAffinity -2.32004595
REMARK minimizedRMSD -1
REMARK  0 active torsions:
REMARK  status: ('A' for Active; 'I' for Inactive)
ROOT
ATOM      1  O1  BZF d   1       0.061  -0.296   0.000  0.00  0.00    -0.204 OA
ATOM      2  C2  BZF d   1      -1.172  -0.171   0.611  0.00  0.00     0.174 A 
ATOM      3  C3  BZF d   1      -1.182   0.879   1.458  0.00  0.00    -0.012 A 
ATOM      4  C3A BZF d   1       0.097   1.501   1.301  0.00  0.00    -0.107 A 
ATOM      5  C4  BZF d   1       0.682   2.600   1.862  0.00  0.00     0.055 A 
ATOM      6  C5  BZF d   1       1.971   2.895   1.549  0.00  0.00    -0.016 A 
ATOM      7  C6  BZF d   1       2.705   2.111   0.684  0.00  0.00     0.022 A 
ATOM      8  C7  BZF d   1       2.167   1.013   0.098  0.00  0.00     0.029 A 
ATOM      9  C7A BZF d   1       0.854   0.731   0.387  0.00  0.00     0.058 A 
ENDROOT
TORSDOF 0
ENDMDL
