MODEL 1
REMARK minimizedAffinity -2.90670705
REMARK minimizedRMSD -1
REMARK  0 active torsions:
REMARK  status: ('A' for Active; 'I' for Inactive)
ROOT
ATOM      1  O1  BZF d   1       0.892  -1.449  -0.889  0.00  0.00    -0.204 OA
ATOM      2  C2  BZF d   1      -0.456  -1.233  -0.682  0.00  0.00     0.174 A 
ATOM      3  C3  BZF d   1      -0.667  -0.017  -0.137  0.00  0.00    -0.012 A 
ATOM      4  C3A BZF d   1       0.623   0.599  -0.080  0.00  0.00    -0.107 A 
ATOM      5  C4  BZF d   1       1.062   1.819   0.348  0.00  0.00     0.055 A 
ATOM      6  C5  BZF d   1       2.396   2.082   0.337  0.00  0.00    -0.016 A 
ATOM      7  C6  BZF d   1       3.316   1.148  -0.091  0.00  0.00     0.022 A 
ATOM      8  C7  BZF d   1       2.928  -0.074  -0.530  0.00  0.00     0.029 A 
ATOM      9  C7A BZF d   1       1.578  -0.331  -0.551  0.00  0.00     0.058 A 
ENDROOT
TORSDOF 0
ENDMDL
