MODEL 1
REMARK minimizedAffinity 8.82342911
REMARK minimizedRMSD -1
REMARK  0 active torsions:
REMARK  status: ('A' for Active; 'I' for Inactive)
ROOT
ATOM      1  C   UNL d   1       1.548  -1.872   2.354  0.00  0.00    -0.002 A 
ATOM      2  C1  UNL d   1       2.635  -1.386   3.067  0.00  0.00     0.010 A 
ATOM      3  C2  UNL d   1       3.285  -0.218   2.662  0.00  0.00     0.041 A 
ATOM      4  C3  UNL d   1       2.818   0.460   1.519  0.00  0.00    -0.075 A 
ATOM      5  S   UNL d   1       3.457   1.909   0.837  0.00  0.00     0.015 SA
ATOM      6  C4  UNL d   1       2.301   1.918  -0.415  0.00  0.00     0.022 A 
ATOM      7  C5  UNL d   1       1.441   0.849  -0.331  0.00  0.00     0.026 A 
ATOM      8  C6  UNL d   1       1.725  -0.009   0.785  0.00  0.00    -0.082 A 
ATOM      9  C7  UNL d   1       1.087  -1.196   1.221  0.00  0.00     0.045 A 
ENDROOT
TORSDOF 0
ENDMDL
