MODEL 1
REMARK minimizedAffinity 6.61751699
REMARK minimizedRMSD -1
REMARK  0 active torsions:
REMARK  status: ('A' for Active; 'I' for Inactive)
ROOT
ATOM      1  C   UNL d   1      -1.816  -0.773   0.278  0.00  0.00    -0.002 A 
ATOM      2  C1  UNL d   1      -2.853   0.149   0.307  0.00  0.00     0.010 A 
ATOM      3  C2  UNL d   1      -2.793   1.259   1.151  0.00  0.00     0.041 A 
ATOM      4  C3  UNL d   1      -1.661   1.430   1.973  0.00  0.00    -0.075 A 
ATOM      5  S   UNL d   1      -1.369   2.714   3.086  0.00  0.00     0.015 SA
ATOM      6  C4  UNL d   1       0.140   2.069   3.548  0.00  0.00     0.022 A 
ATOM      7  C5  UNL d   1       0.429   0.903   2.880  0.00  0.00     0.026 A 
ATOM      8  C6  UNL d   1      -0.604   0.516   1.961  0.00  0.00    -0.082 A 
ATOM      9  C7  UNL d   1      -0.695  -0.600   1.094  0.00  0.00     0.045 A 
ENDROOT
TORSDOF 0
ENDMDL
