MODEL 1
REMARK minimizedAffinity 6.04627037
REMARK minimizedRMSD -1
REMARK  0 active torsions:
REMARK  status: ('A' for Active; 'I' for Inactive)
ROOT
ATOM      1  C   UNL d   1      -4.561  -0.264   5.998  0.00  0.00    -0.002 A 
ATOM      2  C1  UNL d   1      -5.309   0.904   6.000  0.00  0.00     0.010 A 
ATOM      3  C2  UNL d   1      -5.227   1.802   4.934  0.00  0.00     0.041 A 
ATOM      4  C3  UNL d   1      -4.372   1.503   3.855  0.00  0.00    -0.075 A 
ATOM      5  S   UNL d   1      -4.110   2.454   2.441  0.00  0.00     0.015 SA
ATOM      6  C4  UNL d   1      -3.000   1.331   1.801  0.00  0.00     0.022 A 
ATOM      7  C5  UNL d   1      -2.821   0.251   2.632  0.00  0.00     0.026 A 
ATOM      8  C6  UNL d   1      -3.609   0.332   3.830  0.00  0.00    -0.082 A 
ATOM      9  C7  UNL d   1      -3.714  -0.558   4.926  0.00  0.00     0.045 A 
ENDROOT
TORSDOF 0
ENDMDL
