MODEL 1
REMARK minimizedAffinity 10.7024841
REMARK minimizedRMSD -1
REMARK  0 active torsions:
REMARK  status: ('A' for Active; 'I' for Inactive)
ROOT
ATOM      1  C   UNL d   1      -3.274   0.226   0.773  0.00  0.00    -0.002 A 
ATOM      2  C1  UNL d   1      -3.287   1.317   1.631  0.00  0.00     0.010 A 
ATOM      3  C2  UNL d   1      -2.110   1.756   2.240  0.00  0.00     0.041 A 
ATOM      4  C3  UNL d   1      -0.907   1.074   1.968  0.00  0.00    -0.075 A 
ATOM      5  S   UNL d   1       0.657   1.433   2.599  0.00  0.00     0.015 SA
ATOM      6  C4  UNL d   1       1.379   0.148   1.744  0.00  0.00     0.022 A 
ATOM      7  C5  UNL d   1       0.464  -0.549   0.991  0.00  0.00     0.026 A 
ATOM      8  C6  UNL d   1      -0.868  -0.026   1.107  0.00  0.00    -0.082 A 
ATOM      9  C7  UNL d   1      -2.079  -0.447   0.506  0.00  0.00     0.045 A 
ENDROOT
TORSDOF 0
ENDMDL
