MODEL 1
REMARK minimizedAffinity 15.5627384
REMARK minimizedRMSD -1
REMARK  0 active torsions:
REMARK  status: ('A' for Active; 'I' for Inactive)
ROOT
ATOM      1  C   UNL d   1      -2.700  -1.584  -0.790  0.00  0.00    -0.002 A 
ATOM      2  C1  UNL d   1      -1.416  -1.685  -0.272  0.00  0.00     0.010 A 
ATOM      3  C2  UNL d   1      -0.999  -0.846   0.763  0.00  0.00     0.041 A 
ATOM      4  C3  UNL d   1      -1.904   0.104   1.276  0.00  0.00    -0.075 A 
ATOM      5  S   UNL d   1      -1.615   1.236   2.544  0.00  0.00     0.015 SA
ATOM      6  C4  UNL d   1      -3.189   1.880   2.429  0.00  0.00     0.022 A 
ATOM      7  C5  UNL d   1      -3.930   1.258   1.452  0.00  0.00     0.026 A 
ATOM      8  C6  UNL d   1      -3.202   0.224   0.772  0.00  0.00    -0.082 A 
ATOM      9  C7  UNL d   1      -3.594  -0.640  -0.278  0.00  0.00     0.045 A 
ENDROOT
TORSDOF 0
ENDMDL
