MODEL 1
REMARK minimizedAffinity 8.26051807
REMARK minimizedRMSD -1
REMARK  0 active torsions:
REMARK  status: ('A' for Active; 'I' for Inactive)
ROOT
ATOM      1  C   UNL d   1      -2.788  -1.571  -0.471  0.00  0.00    -0.002 A 
ATOM      2  C1  UNL d   1      -1.428  -1.490  -0.207  0.00  0.00     0.010 A 
ATOM      3  C2  UNL d   1      -0.925  -0.493   0.631  0.00  0.00     0.041 A 
ATOM      4  C3  UNL d   1      -1.821   0.429   1.208  0.00  0.00    -0.075 A 
ATOM      5  S   UNL d   1      -1.433   1.733   2.266  0.00  0.00     0.015 SA
ATOM      6  C4  UNL d   1      -3.063   2.213   2.394  0.00  0.00     0.022 A 
ATOM      7  C5  UNL d   1      -3.897   1.409   1.654  0.00  0.00     0.026 A 
ATOM      8  C6  UNL d   1      -3.195   0.367   0.958  0.00  0.00    -0.082 A 
ATOM      9  C7  UNL d   1      -3.674  -0.655   0.103  0.00  0.00     0.045 A 
ENDROOT
TORSDOF 0
ENDMDL
