MODEL 1
REMARK minimizedAffinity 11.7354984
REMARK minimizedRMSD -1
REMARK  0 active torsions:
REMARK  status: ('A' for Active; 'I' for Inactive)
ROOT
ATOM      1  C   UNL d   1      -1.572  -0.387   0.311  0.00  0.00    -0.002 A 
ATOM      2  C1  UNL d   1      -0.208  -0.532   0.525  0.00  0.00     0.010 A 
ATOM      3  C2  UNL d   1       0.456   0.279   1.447  0.00  0.00     0.041 A 
ATOM      4  C3  UNL d   1      -0.280   1.247   2.158  0.00  0.00    -0.075 A 
ATOM      5  S   UNL d   1       0.321   2.352   3.336  0.00  0.00     0.015 SA
ATOM      6  C4  UNL d   1      -1.217   3.042   3.584  0.00  0.00     0.022 A 
ATOM      7  C5  UNL d   1      -2.178   2.456   2.795  0.00  0.00     0.026 A 
ATOM      8  C6  UNL d   1      -1.654   1.411   1.960  0.00  0.00    -0.082 A 
ATOM      9  C7  UNL d   1      -2.299   0.574   1.018  0.00  0.00     0.045 A 
ENDROOT
TORSDOF 0
ENDMDL
