MODEL 1
REMARK minimizedAffinity 9.1519804
REMARK minimizedRMSD -1
REMARK  0 active torsions:
REMARK  status: ('A' for Active; 'I' for Inactive)
ROOT
ATOM      1  C   UNL d   1      -3.196   0.832   0.707  0.00  0.00    -0.002 A 
ATOM      2  C1  UNL d   1      -3.235   1.556   1.890  0.00  0.00     0.010 A 
ATOM      3  C2  UNL d   1      -2.065   1.802   2.611  0.00  0.00     0.041 A 
ATOM      4  C3  UNL d   1      -0.842   1.306   2.117  0.00  0.00    -0.075 A 
ATOM      5  S   UNL d   1       0.717   1.485   2.830  0.00  0.00     0.015 SA
ATOM      6  C4  UNL d   1       1.472   0.606   1.580  0.00  0.00     0.022 A 
ATOM      7  C5  UNL d   1       0.571   0.178   0.634  0.00  0.00     0.026 A 
ATOM      8  C6  UNL d   1      -0.777   0.575   0.927  0.00  0.00    -0.082 A 
ATOM      9  C7  UNL d   1      -1.981   0.341   0.220  0.00  0.00     0.045 A 
ENDROOT
TORSDOF 0
ENDMDL
