MODEL 1
REMARK minimizedAffinity 6.02099943
REMARK minimizedRMSD -1
REMARK  0 active torsions:
REMARK  status: ('A' for Active; 'I' for Inactive)
ROOT
ATOM      1  C   UNL d   1      -3.486   0.620   1.713  0.00  0.00    -0.002 A 
ATOM      2  C1  UNL d   1      -2.764  -0.040   0.729  0.00  0.00     0.010 A 
ATOM      3  C2  UNL d   1      -1.377   0.104   0.650  0.00  0.00     0.041 A 
ATOM      4  C3  UNL d   1      -0.722   0.928   1.586  0.00  0.00    -0.075 A 
ATOM      5  S   UNL d   1       0.968   1.252   1.683  0.00  0.00     0.015 SA
ATOM      6  C4  UNL d   1       0.771   2.274   3.033  0.00  0.00     0.022 A 
ATOM      7  C5  UNL d   1      -0.546   2.376   3.413  0.00  0.00     0.026 A 
ATOM      8  C6  UNL d   1      -1.428   1.602   2.586  0.00  0.00    -0.082 A 
ATOM      9  C7  UNL d   1      -2.833   1.437   2.640  0.00  0.00     0.045 A 
ENDROOT
TORSDOF 0
ENDMDL
