MODEL 1
REMARK minimizedAffinity 8.88526726
REMARK minimizedRMSD -1
REMARK  0 active torsions:
REMARK  status: ('A' for Active; 'I' for Inactive)
ROOT
ATOM      1  C   UNL d   1      -1.409  -0.112   0.390  0.00  0.00    -0.002 A 
ATOM      2  C1  UNL d   1      -0.030  -0.253   0.344  0.00  0.00     0.010 A 
ATOM      3  C2  UNL d   1       0.787   0.463   1.222  0.00  0.00     0.041 A 
ATOM      4  C3  UNL d   1       0.187   1.330   2.157  0.00  0.00    -0.075 A 
ATOM      5  S   UNL d   1       0.987   2.307   3.331  0.00  0.00     0.015 SA
ATOM      6  C4  UNL d   1      -0.484   2.933   3.922  0.00  0.00     0.022 A 
ATOM      7  C5  UNL d   1      -1.569   2.420   3.251  0.00  0.00     0.026 A 
ATOM      8  C6  UNL d   1      -1.200   1.488   2.223  0.00  0.00    -0.082 A 
ATOM      9  C7  UNL d   1      -2.000   0.749   1.319  0.00  0.00     0.045 A 
ENDROOT
TORSDOF 0
ENDMDL
