MODEL 1
REMARK minimizedAffinity 16.8633842
REMARK minimizedRMSD -1
REMARK  0 active torsions:
REMARK  status: ('A' for Active; 'I' for Inactive)
ROOT
ATOM      1  C   UNL d   1      -2.828   0.589   1.044  0.00  0.00    -0.002 A 
ATOM      2  C1  UNL d   1      -2.753   1.885   1.532  0.00  0.00     0.010 A 
ATOM      3  C2  UNL d   1      -1.562   2.372   2.076  0.00  0.00     0.041 A 
ATOM      4  C3  UNL d   1      -0.437   1.526   2.118  0.00  0.00    -0.075 A 
ATOM      5  S   UNL d   1       1.127   1.906   2.738  0.00  0.00     0.015 SA
ATOM      6  C4  UNL d   1       1.732   0.357   2.367  0.00  0.00     0.022 A 
ATOM      7  C5  UNL d   1       0.779  -0.444   1.785  0.00  0.00     0.026 A 
ATOM      8  C6  UNL d   1      -0.487   0.216   1.632  0.00  0.00    -0.082 A 
ATOM      9  C7  UNL d   1      -1.709  -0.248   1.088  0.00  0.00     0.045 A 
ENDROOT
TORSDOF 0
ENDMDL
