MODEL 1
REMARK minimizedAffinity 10.6587505
REMARK minimizedRMSD -1
REMARK  1 active torsions:
REMARK  status: ('A' for Active; 'I' for Inactive)
REMARK    1  A    between atoms: C1_2  and  C2_3 
ROOT
ATOM      1  C2  UNL d   1       2.298   3.378   1.008  0.00  0.00    -0.081 A 
ATOM      2  C3  UNL d   1       2.795   4.638   0.653  0.00  0.00     0.006 A 
ATOM      3  C4  UNL d   1       3.817   4.756  -0.292  0.00  0.00     0.002 A 
ATOM      4  C5  UNL d   1       4.353   3.617  -0.903  0.00  0.00    -0.080 A 
ATOM      5  C6  UNL d   1       5.429   3.731  -1.942  0.00  0.00     0.076 C 
ATOM      6  C7  UNL d   1       3.868   2.357  -0.536  0.00  0.00     0.002 A 
ATOM      7  C8  UNL d   1       2.847   2.239   0.410  0.00  0.00     0.006 A 
ENDROOT
BRANCH   1   8
ATOM      8  C1  UNL d   1       1.152   3.252   1.979  0.00  0.00     0.054 C 
ATOM      9  C   UNL d   1       0.413   4.574   2.138  0.00  0.00     0.018 C 
ENDBRANCH   1   8
TORSDOF 1
ENDMDL
