MODEL 1
REMARK minimizedAffinity 3.44113159
REMARK minimizedRMSD -1
REMARK  1 active torsions:
REMARK  status: ('A' for Active; 'I' for Inactive)
REMARK    1  A    between atoms: C1_2  and  C2_3 
ROOT
ATOM      1  C2  UNL d   1      -2.005  -0.081   0.716  0.00  0.00    -0.081 A 
ATOM      2  C3  UNL d   1      -1.422  -1.276   0.277  0.00  0.00     0.006 A 
ATOM      3  C4  UNL d   1      -0.446  -1.262  -0.722  0.00  0.00     0.002 A 
ATOM      4  C5  UNL d   1      -0.030  -0.054  -1.292  0.00  0.00    -0.080 A 
ATOM      5  C6  UNL d   1       1.039  -0.022  -2.344  0.00  0.00     0.076 C 
ATOM      6  C7  UNL d   1      -0.625   1.139  -0.865  0.00  0.00     0.002 A 
ATOM      7  C8  UNL d   1      -1.602   1.125   0.133  0.00  0.00     0.006 A 
ENDROOT
BRANCH   1   8
ATOM      8  C1  UNL d   1      -3.011  -0.086   1.839  0.00  0.00     0.054 C 
ATOM      9  C   UNL d   1      -3.883   1.161   1.807  0.00  0.00     0.018 C 
ENDBRANCH   1   8
TORSDOF 1
ENDMDL
