MODEL 1
REMARK minimizedAffinity -3.84462643
REMARK minimizedRMSD -1
REMARK  1 active torsions:
REMARK  status: ('A' for Active; 'I' for Inactive)
REMARK    1  A    between atoms: C1_2  and  C2_3 
ROOT
ATOM      1  C2  UNL d   1       0.311   1.181   0.343  0.00  0.00    -0.081 A 
ATOM      2  C3  UNL d   1      -0.299   0.568   1.445  0.00  0.00     0.006 A 
ATOM      3  C4  UNL d   1      -0.728  -0.759   1.368  0.00  0.00     0.002 A 
ATOM      4  C5  UNL d   1      -0.548  -1.497   0.194  0.00  0.00    -0.080 A 
ATOM      5  C6  UNL d   1      -0.976  -2.932   0.109  0.00  0.00     0.076 C 
ATOM      6  C7  UNL d   1       0.046  -0.879  -0.912  0.00  0.00     0.002 A 
ATOM      7  C8  UNL d   1       0.474   0.448  -0.837  0.00  0.00     0.006 A 
ENDROOT
BRANCH   1   8
ATOM      8  C1  UNL d   1       0.833   2.592   0.443  0.00  0.00     0.054 C 
ATOM      9  C   UNL d   1       2.354   2.618   0.462  0.00  0.00     0.018 C 
ENDBRANCH   1   8
TORSDOF 1
ENDMDL
