MODEL 1
REMARK minimizedAffinity -2.45453644
REMARK minimizedRMSD -1
REMARK  1 active torsions:
REMARK  status: ('A' for Active; 'I' for Inactive)
REMARK    1  A    between atoms: C1_2  and  C2_3 
ROOT
ATOM      1  C2  UNL d   1       0.086   1.727   0.693  0.00  0.00    -0.081 A 
ATOM      2  C3  UNL d   1      -1.013   1.287   1.441  0.00  0.00     0.006 A 
ATOM      3  C4  UNL d   1      -1.408  -0.053   1.398  0.00  0.00     0.002 A 
ATOM      4  C5  UNL d   1      -0.707  -0.975   0.614  0.00  0.00    -0.080 A 
ATOM      5  C6  UNL d   1      -1.102  -2.421   0.583  0.00  0.00     0.076 C 
ATOM      6  C7  UNL d   1       0.380  -0.532  -0.147  0.00  0.00     0.002 A 
ATOM      7  C8  UNL d   1       0.775   0.807  -0.105  0.00  0.00     0.006 A 
ENDROOT
BRANCH   1   8
ATOM      8  C1  UNL d   1       0.553   3.157   0.787  0.00  0.00     0.054 C 
ATOM      9  C   UNL d   1       2.044   3.233   1.086  0.00  0.00     0.018 C 
ENDBRANCH   1   8
TORSDOF 1
ENDMDL
