MODEL 1
REMARK minimizedAffinity -5.41082716
REMARK minimizedRMSD -1
REMARK  1 active torsions:
REMARK  status: ('A' for Active; 'I' for Inactive)
REMARK    1  A    between atoms: C1_2  and  C2_3 
ROOT
ATOM      1  C2  UNL d   1      -0.743  -1.233   0.626  0.00  0.00    -0.081 A 
ATOM      2  C3  UNL d   1      -0.182  -0.525  -0.445  0.00  0.00     0.006 A 
ATOM      3  C4  UNL d   1       0.313  -1.204  -1.561  0.00  0.00     0.002 A 
ATOM      4  C5  UNL d   1       0.248  -2.600  -1.629  0.00  0.00    -0.080 A 
ATOM      5  C6  UNL d   1       0.748  -3.339  -2.834  0.00  0.00     0.076 C 
ATOM      6  C7  UNL d   1      -0.295  -3.308  -0.552  0.00  0.00     0.002 A 
ATOM      7  C8  UNL d   1      -0.790  -2.630   0.565  0.00  0.00     0.006 A 
ENDROOT
BRANCH   1   8
ATOM      8  C1  UNL d   1      -1.336  -0.501   1.802  0.00  0.00     0.054 C 
ATOM      9  C   UNL d   1      -2.465   0.422   1.367  0.00  0.00     0.018 C 
ENDBRANCH   1   8
TORSDOF 1
ENDMDL
