MODEL 1
REMARK minimizedAffinity -3.46828318
REMARK minimizedRMSD -1
REMARK  1 active torsions:
REMARK  status: ('A' for Active; 'I' for Inactive)
REMARK    1  A    between atoms: C1_2  and  C2_3 
ROOT
ATOM      1  C2  UNL d   1       0.752   1.872   0.425  0.00  0.00    -0.081 A 
ATOM      2  C3  UNL d   1       0.104   1.495  -0.758  0.00  0.00     0.006 A 
ATOM      3  C4  UNL d   1      -0.674   0.336  -0.801  0.00  0.00     0.002 A 
ATOM      4  C5  UNL d   1      -0.825  -0.461   0.339  0.00  0.00    -0.080 A 
ATOM      5  C6  UNL d   1      -1.682  -1.691   0.315  0.00  0.00     0.076 C 
ATOM      6  C7  UNL d   1      -0.164  -0.094   1.516  0.00  0.00     0.002 A 
ATOM      7  C8  UNL d   1       0.615   1.064   1.560  0.00  0.00     0.006 A 
ENDROOT
BRANCH   1   8
ATOM      8  C1  UNL d   1       1.539   3.155   0.493  0.00  0.00     0.054 C 
ATOM      9  C   UNL d   1       2.079   3.400   1.895  0.00  0.00     0.018 C 
ENDBRANCH   1   8
TORSDOF 1
ENDMDL
