MODEL 1
REMARK minimizedAffinity -3.80393171
REMARK minimizedRMSD -1
REMARK  1 active torsions:
REMARK  status: ('A' for Active; 'I' for Inactive)
REMARK    1  A    between atoms: C1_2  and  C2_3 
ROOT
ATOM      1  C2  UNL d   1       0.446   1.757   0.412  0.00  0.00    -0.081 A 
ATOM      2  C3  UNL d   1      -0.457   1.311  -0.561  0.00  0.00     0.006 A 
ATOM      3  C4  UNL d   1      -1.112   0.087  -0.412  0.00  0.00     0.002 A 
ATOM      4  C5  UNL d   1      -0.881  -0.709   0.716  0.00  0.00    -0.080 A 
ATOM      5  C6  UNL d   1      -1.599  -2.012   0.903  0.00  0.00     0.076 C 
ATOM      6  C7  UNL d   1       0.035  -0.272   1.679  0.00  0.00     0.002 A 
ATOM      7  C8  UNL d   1       0.690   0.952   1.530  0.00  0.00     0.006 A 
ENDROOT
BRANCH   1   8
ATOM      8  C1  UNL d   1       1.105   3.107   0.285  0.00  0.00     0.054 C 
ATOM      9  C   UNL d   1       2.620   2.992   0.360  0.00  0.00     0.018 C 
ENDBRANCH   1   8
TORSDOF 1
ENDMDL
