MODEL 1
REMARK minimizedAffinity -2.88469934
REMARK minimizedRMSD -1
REMARK  1 active torsions:
REMARK  status: ('A' for Active; 'I' for Inactive)
REMARK    1  A    between atoms: C1_2  and  C2_3 
ROOT
ATOM      1  C2  UNL d   1      -0.627  -0.207  -0.210  0.00  0.00    -0.081 A 
ATOM      2  C3  UNL d   1      -0.227  -0.039  -1.541  0.00  0.00     0.006 A 
ATOM      3  C4  UNL d   1      -0.274  -1.111  -2.435  0.00  0.00     0.002 A 
ATOM      4  C5  UNL d   1      -0.727  -2.366  -2.016  0.00  0.00    -0.080 A 
ATOM      5  C6  UNL d   1      -0.811  -3.518  -2.973  0.00  0.00     0.076 C 
ATOM      6  C7  UNL d   1      -1.110  -2.539  -0.681  0.00  0.00     0.002 A 
ATOM      7  C8  UNL d   1      -1.063  -1.468   0.213  0.00  0.00     0.006 A 
ENDROOT
BRANCH   1   8
ATOM      8  C1  UNL d   1      -0.639   0.963   0.741  0.00  0.00     0.054 C 
ATOM      9  C   UNL d   1       0.179   2.126   0.197  0.00  0.00     0.018 C 
ENDBRANCH   1   8
TORSDOF 1
ENDMDL
