MODEL 1
REMARK minimizedAffinity -3.22295976
REMARK minimizedRMSD -1
REMARK  1 active torsions:
REMARK  status: ('A' for Active; 'I' for Inactive)
REMARK    1  A    between atoms: C1_2  and  C2_3 
ROOT
ATOM      1  C2  UNL d   1      -0.314   1.364   0.415  0.00  0.00    -0.081 A 
ATOM      2  C3  UNL d   1      -0.966   0.804   1.520  0.00  0.00     0.006 A 
ATOM      3  C4  UNL d   1      -1.181  -0.574   1.593  0.00  0.00     0.002 A 
ATOM      4  C5  UNL d   1      -0.740  -1.416   0.567  0.00  0.00    -0.080 A 
ATOM      5  C6  UNL d   1      -0.937  -2.901   0.647  0.00  0.00     0.076 C 
ATOM      6  C7  UNL d   1      -0.103  -0.856  -0.546  0.00  0.00     0.002 A 
ATOM      7  C8  UNL d   1       0.111   0.522  -0.620  0.00  0.00     0.006 A 
ENDROOT
BRANCH   1   8
ATOM      8  C1  UNL d   1      -0.023   2.842   0.363  0.00  0.00     0.054 C 
ATOM      9  C   UNL d   1       1.263   3.179   1.103  0.00  0.00     0.018 C 
ENDBRANCH   1   8
TORSDOF 1
ENDMDL
