MODEL 1
REMARK minimizedAffinity -4.51555681
REMARK minimizedRMSD -1
REMARK  1 active torsions:
REMARK  status: ('A' for Active; 'I' for Inactive)
REMARK    1  A    between atoms: C1_2  and  C2_3 
ROOT
ATOM      1  C2  UNL d   1       0.471   1.197   0.040  0.00  0.00    -0.081 A 
ATOM      2  C3  UNL d   1      -0.398   0.539  -0.839  0.00  0.00     0.006 A 
ATOM      3  C4  UNL d   1      -0.876  -0.738  -0.537  0.00  0.00     0.002 A 
ATOM      4  C5  UNL d   1      -0.500  -1.375   0.650  0.00  0.00    -0.080 A 
ATOM      5  C6  UNL d   1      -1.030  -2.734   1.000  0.00  0.00     0.076 C 
ATOM      6  C7  UNL d   1       0.382  -0.725   1.520  0.00  0.00     0.002 A 
ATOM      7  C8  UNL d   1       0.861   0.552   1.219  0.00  0.00     0.006 A 
ENDROOT
BRANCH   1   8
ATOM      8  C1  UNL d   1       0.938   2.601  -0.251  0.00  0.00     0.054 C 
ATOM      9  C   UNL d   1       1.708   3.183   0.925  0.00  0.00     0.018 C 
ENDBRANCH   1   8
TORSDOF 1
ENDMDL
