MODEL 1
REMARK minimizedAffinity 0.0556984395
REMARK minimizedRMSD -1
REMARK  0 active torsions:
REMARK  status: ('A' for Active; 'I' for Inactive)
ROOT
ATOM      1  N1  IND d   1       3.775   5.976   2.169  0.00  0.00    -0.196 N 
ATOM      2  C2  IND d   1       4.961   5.999   1.489  0.00  0.00     0.054 A 
ATOM      3  C3  IND d   1       6.000   5.999   2.354  0.00  0.00    -0.031 A 
ATOM      4  C4  IND d   1       5.987   5.861   4.925  0.00  0.00     0.051 A 
ATOM      5  C5  IND d   1       5.142   5.859   5.999  0.00  0.00    -0.031 A 
ATOM      6  C6  IND d   1       3.770   5.894   5.848  0.00  0.00     0.015 A 
ATOM      7  C7  IND d   1       3.190   5.920   4.612  0.00  0.00    -0.016 A 
ATOM      8  C8  IND d   1       4.045   5.930   3.519  0.00  0.00    -0.047 A 
ATOM      9  C9  IND d   1       5.438   5.938   3.666  0.00  0.00    -0.096 A 
ATOM     10  HN1 IND d   1       2.993   5.989   1.813  0.00  0.00     0.298 HD
ENDROOT
TORSDOF 0
ENDMDL
