MODEL 1
REMARK minimizedAffinity 5.97701406
REMARK minimizedRMSD -1
REMARK  0 active torsions:
REMARK  status: ('A' for Active; 'I' for Inactive)
ROOT
ATOM      1  N1  IND d   1      -2.221  -0.425   0.297  0.00  0.00    -0.196 N 
ATOM      2  C2  IND d   1      -3.131   0.482   0.762  0.00  0.00     0.054 A 
ATOM      3  C3  IND d   1      -2.691   1.045   1.910  0.00  0.00    -0.031 A 
ATOM      4  C4  IND d   1      -0.462   0.699   3.150  0.00  0.00     0.051 A 
ATOM      5  C5  IND d   1       0.676  -0.057   3.130  0.00  0.00    -0.031 A 
ATOM      6  C6  IND d   1       0.913  -0.992   2.143  0.00  0.00     0.015 A 
ATOM      7  C7  IND d   1       0.021  -1.198   1.129  0.00  0.00    -0.016 A 
ATOM      8  C8  IND d   1      -1.139  -0.437   1.150  0.00  0.00    -0.047 A 
ATOM      9  C9  IND d   1      -1.404   0.483   2.172  0.00  0.00    -0.096 A 
ATOM     10  HN1 IND d   1      -2.309  -0.908  -0.409  0.00  0.00     0.298 HD
ENDROOT
TORSDOF 0
ENDMDL
