MODEL 1
REMARK minimizedAffinity 0.77994138
REMARK minimizedRMSD -1
REMARK  0 active torsions:
REMARK  status: ('A' for Active; 'I' for Inactive)
ROOT
ATOM      1  N1  IND d   1       5.209   4.638   3.940  0.00  0.00    -0.196 N 
ATOM      2  C2  IND d   1       5.998   5.336   4.811  0.00  0.00     0.054 A 
ATOM      3  C3  IND d   1       5.236   5.999   5.709  0.00  0.00    -0.031 A 
ATOM      4  C4  IND d   1       2.678   5.999   6.000  0.00  0.00     0.051 A 
ATOM      5  C5  IND d   1       1.528   5.540   5.421  0.00  0.00    -0.031 A 
ATOM      6  C6  IND d   1       1.547   4.738   4.299  0.00  0.00     0.015 A 
ATOM      7  C7  IND d   1       2.722   4.354   3.717  0.00  0.00    -0.016 A 
ATOM      8  C8  IND d   1       3.891   4.825   4.297  0.00  0.00    -0.047 A 
ATOM      9  C9  IND d   1       3.877   5.674   5.411  0.00  0.00    -0.096 A 
ATOM     10  HN1 IND d   1       5.488   4.162   3.281  0.00  0.00     0.298 HD
ENDROOT
TORSDOF 0
ENDMDL
