MODEL 1
REMARK minimizedAffinity 17.9978619
REMARK minimizedRMSD -1
REMARK  0 active torsions:
REMARK  status: ('A' for Active; 'I' for Inactive)
ROOT
ATOM      1  N1  IND d   1      -4.522  -2.078  -3.362  0.00  0.00    -0.196 N 
ATOM      2  C2  IND d   1      -5.692  -1.376  -3.442  0.00  0.00     0.054 A 
ATOM      3  C3  IND d   1      -5.539  -0.143  -2.908  0.00  0.00    -0.031 A 
ATOM      4  C4  IND d   1      -3.428   0.969  -1.941  0.00  0.00     0.051 A 
ATOM      5  C5  IND d   1      -2.124   0.711  -1.622  0.00  0.00    -0.031 A 
ATOM      6  C6  IND d   1      -1.541  -0.514  -1.873  0.00  0.00     0.015 A 
ATOM      7  C7  IND d   1      -2.239  -1.527  -2.467  0.00  0.00    -0.016 A 
ATOM      8  C8  IND d   1      -3.565  -1.271  -2.787  0.00  0.00    -0.047 A 
ATOM      9  C9  IND d   1      -4.175  -0.044  -2.495  0.00  0.00    -0.096 A 
ATOM     10  HN1 IND d   1      -4.403  -2.887  -3.627  0.00  0.00     0.298 HD
ENDROOT
TORSDOF 0
ENDMDL
