MODEL 1
REMARK minimizedAffinity 11.1498117
REMARK minimizedRMSD -1
REMARK  0 active torsions:
REMARK  status: ('A' for Active; 'I' for Inactive)
ROOT
ATOM      1  N1  IND d   1       2.426  -5.257  -0.017  0.00  0.00    -0.196 N 
ATOM      2  C2  IND d   1       1.773  -4.171   0.497  0.00  0.00     0.054 A 
ATOM      3  C3  IND d   1       2.580  -3.086   0.480  0.00  0.00    -0.031 A 
ATOM      4  C4  IND d   1       4.972  -2.840  -0.439  0.00  0.00     0.051 A 
ATOM      5  C5  IND d   1       6.000  -3.565  -0.974  0.00  0.00    -0.031 A 
ATOM      6  C6  IND d   1       5.886  -4.917  -1.224  0.00  0.00     0.015 A 
ATOM      7  C7  IND d   1       4.731  -5.596  -0.959  0.00  0.00    -0.016 A 
ATOM      8  C8  IND d   1       3.687  -4.865  -0.410  0.00  0.00    -0.047 A 
ATOM      9  C9  IND d   1       3.811  -3.501  -0.114  0.00  0.00    -0.096 A 
ATOM     10  HN1 IND d   1       2.103  -6.051  -0.084  0.00  0.00     0.298 HD
ENDROOT
TORSDOF 0
ENDMDL
