MODEL 1
REMARK minimizedAffinity 8.79385757
REMARK minimizedRMSD -1
REMARK  0 active torsions:
REMARK  status: ('A' for Active; 'I' for Inactive)
ROOT
ATOM      1  N1  IND d   1       2.657   4.580   3.375  0.00  0.00    -0.196 N 
ATOM      2  C2  IND d   1       1.939   4.050   4.410  0.00  0.00     0.054 A 
ATOM      3  C3  IND d   1       2.640   4.137   5.563  0.00  0.00    -0.031 A 
ATOM      4  C4  IND d   1       4.942   5.204   6.000  0.00  0.00     0.051 A 
ATOM      5  C5  IND d   1       6.000   5.784   5.358  0.00  0.00    -0.031 A 
ATOM      6  C6  IND d   1       5.996   6.000   3.995  0.00  0.00     0.015 A 
ATOM      7  C7  IND d   1       4.925   5.652   3.221  0.00  0.00    -0.016 A 
ATOM      8  C8  IND d   1       3.852   5.056   3.869  0.00  0.00    -0.047 A 
ATOM      9  C9  IND d   1       3.868   4.795   5.245  0.00  0.00    -0.096 A 
ATOM     10  HN1 IND d   1       2.405   4.611   2.554  0.00  0.00     0.298 HD
ENDROOT
TORSDOF 0
ENDMDL
