MODEL 1
REMARK minimizedAffinity 11.3812284
REMARK minimizedRMSD -1
REMARK  0 active torsions:
REMARK  status: ('A' for Active; 'I' for Inactive)
ROOT
ATOM      1  N1  IND d   1      -3.929   2.640  -5.999  0.00  0.00    -0.196 N 
ATOM      2  C2  IND d   1      -5.124   2.705  -5.340  0.00  0.00     0.054 A 
ATOM      3  C3  IND d   1      -5.155   3.786  -4.528  0.00  0.00    -0.031 A 
ATOM      4  C4  IND d   1      -3.397   5.637  -4.202  0.00  0.00     0.051 A 
ATOM      5  C5  IND d   1      -2.126   5.992  -4.561  0.00  0.00    -0.031 A 
ATOM      6  C6  IND d   1      -1.378   5.233  -5.437  0.00  0.00     0.015 A 
ATOM      7  C7  IND d   1      -1.878   4.092  -5.999  0.00  0.00    -0.016 A 
ATOM      8  C8  IND d   1      -3.165   3.726  -5.631  0.00  0.00    -0.047 A 
ATOM      9  C9  IND d   1      -3.914   4.469  -4.710  0.00  0.00    -0.096 A 
ATOM     10  HN1 IND d   1      -3.693   2.024  -6.551  0.00  0.00     0.298 HD
ENDROOT
TORSDOF 0
ENDMDL
