MODEL 1
REMARK minimizedAffinity 11.9399261
REMARK minimizedRMSD -1
REMARK  0 active torsions:
REMARK  status: ('A' for Active; 'I' for Inactive)
ROOT
ATOM      1  N1  IND d   1       5.395   5.590   3.765  0.00  0.00    -0.196 N 
ATOM      2  C2  IND d   1       5.988   5.940   4.946  0.00  0.00     0.054 A 
ATOM      3  C3  IND d   1       5.189   5.618   5.987  0.00  0.00    -0.031 A 
ATOM      4  C4  IND d   1       2.912   4.418   5.991  0.00  0.00     0.051 A 
ATOM      5  C5  IND d   1       1.947   3.935   5.152  0.00  0.00    -0.031 A 
ATOM      6  C6  IND d   1       2.086   3.978   3.780  0.00  0.00     0.015 A 
ATOM      7  C7  IND d   1       3.206   4.497   3.194  0.00  0.00    -0.016 A 
ATOM      8  C8  IND d   1       4.184   4.994   4.042  0.00  0.00    -0.047 A 
ATOM      9  C9  IND d   1       4.030   4.993   5.435  0.00  0.00    -0.096 A 
ATOM     10  HN1 IND d   1       5.722   5.721   2.981  0.00  0.00     0.298 HD
ENDROOT
TORSDOF 0
ENDMDL
