MODEL 1
REMARK minimizedAffinity 5.18378639
REMARK minimizedRMSD -1
REMARK  0 active torsions:
REMARK  status: ('A' for Active; 'I' for Inactive)
ROOT
ATOM      1  N1  IND d   1       2.429   5.171   5.598  0.00  0.00    -0.196 N 
ATOM      2  C2  IND d   1       1.695   4.457   4.693  0.00  0.00     0.054 A 
ATOM      3  C3  IND d   1       2.443   4.168   3.605  0.00  0.00    -0.031 A 
ATOM      4  C4  IND d   1       4.922   4.681   3.140  0.00  0.00     0.051 A 
ATOM      5  C5  IND d   1       6.000   5.345   3.656  0.00  0.00    -0.031 A 
ATOM      6  C6  IND d   1       5.942   5.996   4.871  0.00  0.00     0.015 A 
ATOM      7  C7  IND d   1       4.802   5.997   5.625  0.00  0.00    -0.016 A 
ATOM      8  C8  IND d   1       3.704   5.330   5.101  0.00  0.00    -0.047 A 
ATOM      9  C9  IND d   1       3.744   4.704   3.849  0.00  0.00    -0.096 A 
ATOM     10  HN1 IND d   1       2.143   5.471   6.352  0.00  0.00     0.298 HD
ENDROOT
TORSDOF 0
ENDMDL
