MODEL 1
REMARK minimizedAffinity -4.82438946
REMARK minimizedRMSD -1
REMARK  0 active torsions:
REMARK  status: ('A' for Active; 'I' for Inactive)
ROOT
ATOM      1  C1  BNZ d   1      -1.985  -0.978   0.542  0.00  0.00     0.000 A 
ATOM      2  C2  BNZ d   1      -1.168   0.070   0.211  0.00  0.00     0.000 A 
ATOM      3  C3  BNZ d   1       0.181  -0.108   0.078  0.00  0.00     0.000 A 
ATOM      4  C4  BNZ d   1       0.716  -1.323   0.317  0.00  0.00     0.000 A 
ATOM      5  C5  BNZ d   1      -0.093  -2.387   0.661  0.00  0.00     0.000 A 
ATOM      6  C6  BNZ d   1      -1.455  -2.214   0.755  0.00  0.00     0.000 A 
ENDROOT
TORSDOF 0
ENDMDL
