MODEL 1
REMARK minimizedAffinity -3.65098166
REMARK minimizedRMSD -1
REMARK  0 active torsions:
REMARK  status: ('A' for Active; 'I' for Inactive)
ROOT
ATOM      1  C1  BNZ d   1       1.372  -0.541   0.170  0.00  0.00     0.000 A 
ATOM      2  C2  BNZ d   1       0.390  -1.449   0.462  0.00  0.00     0.000 A 
ATOM      3  C3  BNZ d   1      -0.923  -1.072   0.503  0.00  0.00     0.000 A 
ATOM      4  C4  BNZ d   1      -1.249   0.220   0.292  0.00  0.00     0.000 A 
ATOM      5  C5  BNZ d   1      -0.269   1.150   0.005  0.00  0.00     0.000 A 
ATOM      6  C6  BNZ d   1       1.048   0.758  -0.074  0.00  0.00     0.000 A 
ENDROOT
TORSDOF 0
ENDMDL
