MODEL 1
REMARK minimizedAffinity -5.26170921
REMARK minimizedRMSD -1
REMARK  0 active torsions:
REMARK  status: ('A' for Active; 'I' for Inactive)
ROOT
ATOM      1  C1  BNZ d   1      -2.283  -0.523   1.693  0.00  0.00     0.000 A 
ATOM      2  C2  BNZ d   1      -1.328   0.068   0.910  0.00  0.00     0.000 A 
ATOM      3  C3  BNZ d   1      -0.241  -0.639   0.478  0.00  0.00     0.000 A 
ATOM      4  C4  BNZ d   1      -0.091  -1.923   0.862  0.00  0.00     0.000 A 
ATOM      5  C5  BNZ d   1      -1.040  -2.531   1.658  0.00  0.00     0.000 A 
ATOM      6  C6  BNZ d   1      -2.153  -1.827   2.060  0.00  0.00     0.000 A 
ENDROOT
TORSDOF 0
ENDMDL
