MODEL 1
REMARK minimizedAffinity -3.28439808
REMARK minimizedRMSD -1
REMARK  0 active torsions:
REMARK  status: ('A' for Active; 'I' for Inactive)
ROOT
ATOM      1  C1  BNZ d   1      -0.767   0.557   0.149  0.00  0.00     0.000 A 
ATOM      2  C2  BNZ d   1      -1.601  -0.295   0.825  0.00  0.00     0.000 A 
ATOM      3  C3  BNZ d   1      -1.217  -1.577   1.101  0.00  0.00     0.000 A 
ATOM      4  C4  BNZ d   1      -0.019  -2.019   0.667  0.00  0.00     0.000 A 
ATOM      5  C5  BNZ d   1       0.829  -1.175  -0.024  0.00  0.00     0.000 A 
ATOM      6  C6  BNZ d   1       0.455   0.127  -0.266  0.00  0.00     0.000 A 
ENDROOT
TORSDOF 0
ENDMDL
