MODEL 1
REMARK minimizedAffinity -4.54116344
REMARK minimizedRMSD -1
REMARK  0 active torsions:
REMARK  status: ('A' for Active; 'I' for Inactive)
ROOT
ATOM      1  C1  BNZ d   1      -1.153   0.360  -0.035  0.00  0.00     0.000 A 
ATOM      2  C2  BNZ d   1      -1.976  -0.719   0.147  0.00  0.00     0.000 A 
ATOM      3  C3  BNZ d   1      -1.521  -1.850   0.766  0.00  0.00     0.000 A 
ATOM      4  C4  BNZ d   1      -0.234  -1.916   1.164  0.00  0.00     0.000 A 
ATOM      5  C5  BNZ d   1       0.611  -0.839   0.979  0.00  0.00     0.000 A 
ATOM      6  C6  BNZ d   1       0.138   0.312   0.391  0.00  0.00     0.000 A 
ENDROOT
TORSDOF 0
ENDMDL
