MODEL 1
REMARK minimizedAffinity -3.91165042
REMARK minimizedRMSD -1
REMARK  0 active torsions:
REMARK  status: ('A' for Active; 'I' for Inactive)
ROOT
ATOM      1  C1  BNZ d   1      -1.539   0.007   0.365  0.00  0.00     0.000 A 
ATOM      2  C2  BNZ d   1      -1.157  -1.280   0.634  0.00  0.00     0.000 A 
ATOM      3  C3  BNZ d   1       0.163  -1.636   0.617  0.00  0.00     0.000 A 
ATOM      4  C4  BNZ d   1       1.094  -0.716   0.293  0.00  0.00     0.000 A 
ATOM      5  C5  BNZ d   1       0.723   0.584   0.011  0.00  0.00     0.000 A 
ATOM      6  C6  BNZ d   1      -0.603   0.948   0.067  0.00  0.00     0.000 A 
ENDROOT
TORSDOF 0
ENDMDL
