MODEL 1
REMARK minimizedAffinity -4.92037344
REMARK minimizedRMSD -1
REMARK  0 active torsions:
REMARK  status: ('A' for Active; 'I' for Inactive)
ROOT
ATOM      1  C1  BNZ d   1      -2.270  -2.202   1.786  0.00  0.00     0.000 A 
ATOM      2  C2  BNZ d   1      -1.185  -2.556   1.028  0.00  0.00     0.000 A 
ATOM      3  C3  BNZ d   1      -0.458  -1.609   0.362  0.00  0.00     0.000 A 
ATOM      4  C4  BNZ d   1      -0.839  -0.317   0.422  0.00  0.00     0.000 A 
ATOM      5  C5  BNZ d   1      -1.936   0.055   1.174  0.00  0.00     0.000 A 
ATOM      6  C6  BNZ d   1      -2.642  -0.896   1.874  0.00  0.00     0.000 A 
ENDROOT
TORSDOF 0
ENDMDL
