MODEL 1
REMARK minimizedAffinity -3.86561108
REMARK minimizedRMSD -1
REMARK  0 active torsions:
REMARK  status: ('A' for Active; 'I' for Inactive)
ROOT
ATOM      1  C1  BNZ d   1       0.792   0.321   0.097  0.00  0.00     0.000 A 
ATOM      2  C2  BNZ d   1       1.161  -0.977   0.333  0.00  0.00     0.000 A 
ATOM      3  C3  BNZ d   1       0.225  -1.927   0.631  0.00  0.00     0.000 A 
ATOM      4  C4  BNZ d   1      -1.072  -1.572   0.732  0.00  0.00     0.000 A 
ATOM      5  C5  BNZ d   1      -1.458  -0.265   0.506  0.00  0.00     0.000 A 
ATOM      6  C6  BNZ d   1      -0.518   0.681   0.168  0.00  0.00     0.000 A 
ENDROOT
TORSDOF 0
ENDMDL
