MODEL 1
REMARK minimizedAffinity -2.67136693
REMARK minimizedRMSD -1
REMARK  0 active torsions:
REMARK  status: ('A' for Active; 'I' for Inactive)
ROOT
ATOM      1  C1  BNZ d   1       1.279  -0.552   0.414  0.00  0.00     0.000 A 
ATOM      2  C2  BNZ d   1       0.405  -1.583   0.637  0.00  0.00     0.000 A 
ATOM      3  C3  BNZ d   1      -0.945  -1.370   0.632  0.00  0.00     0.000 A 
ATOM      4  C4  BNZ d   1      -1.419  -0.121   0.444  0.00  0.00     0.000 A 
ATOM      5  C5  BNZ d   1      -0.550   0.930   0.227  0.00  0.00     0.000 A 
ATOM      6  C6  BNZ d   1       0.807   0.705   0.194  0.00  0.00     0.000 A 
ENDROOT
TORSDOF 0
ENDMDL
