MODEL 1
REMARK minimizedAffinity 0.0976685658
REMARK minimizedRMSD -1
REMARK  0 active torsions:
REMARK  status: ('A' for Active; 'I' for Inactive)
ROOT
ATOM      1  C1  BNZ d   1      -0.827   0.689  -0.644  0.00  0.00     0.000 A 
ATOM      2  C2  BNZ d   1      -0.809  -0.655  -0.382  0.00  0.00     0.000 A 
ATOM      3  C3  BNZ d   1       0.370  -1.308  -0.154  0.00  0.00     0.000 A 
ATOM      4  C4  BNZ d   1       1.531  -0.626  -0.228  0.00  0.00     0.000 A 
ATOM      5  C5  BNZ d   1       1.530   0.728  -0.501  0.00  0.00     0.000 A 
ATOM      6  C6  BNZ d   1       0.338   1.390  -0.691  0.00  0.00     0.000 A 
ENDROOT
TORSDOF 0
ENDMDL
