MODEL 1
REMARK minimizedAffinity -3.86865735
REMARK minimizedRMSD -1
REMARK  0 active torsions:
REMARK  status: ('A' for Active; 'I' for Inactive)
ROOT
ATOM      1  C1  BNZ d   1       1.310  -0.871   0.279  0.00  0.00     0.000 A 
ATOM      2  C2  BNZ d   1       0.359  -1.832   0.499  0.00  0.00     0.000 A 
ATOM      3  C3  BNZ d   1      -0.972  -1.536   0.397  0.00  0.00     0.000 A 
ATOM      4  C4  BNZ d   1      -1.350  -0.272   0.115  0.00  0.00     0.000 A 
ATOM      5  C5  BNZ d   1      -0.404   0.709  -0.101  0.00  0.00     0.000 A 
ATOM      6  C6  BNZ d   1       0.935   0.399  -0.035  0.00  0.00     0.000 A 
ENDROOT
TORSDOF 0
ENDMDL
