MODEL 1
REMARK minimizedAffinity -3.08862543
REMARK minimizedRMSD -1
REMARK  0 active torsions:
REMARK  status: ('A' for Active; 'I' for Inactive)
ROOT
ATOM      1  C1  BNZ d   1      -1.390  -0.415   0.217  0.00  0.00     0.000 A 
ATOM      2  C2  BNZ d   1      -1.530  -1.617   0.859  0.00  0.00     0.000 A 
ATOM      3  C3  BNZ d   1      -0.436  -2.376   1.170  0.00  0.00     0.000 A 
ATOM      4  C4  BNZ d   1       0.791  -1.952   0.804  0.00  0.00     0.000 A 
ATOM      5  C5  BNZ d   1       0.947  -0.747   0.148  0.00  0.00     0.000 A 
ATOM      6  C6  BNZ d   1      -0.152   0.032  -0.129  0.00  0.00     0.000 A 
ENDROOT
TORSDOF 0
ENDMDL
