MODEL 1
REMARK minimizedAffinity -2.38290906
REMARK minimizedRMSD -1
REMARK  0 active torsions:
REMARK  status: ('A' for Active; 'I' for Inactive)
ROOT
ATOM      1  C1  BNZ d   1       3.488   2.143  -0.941  0.00  0.00     0.000 A 
ATOM      2  C2  BNZ d   1       2.277   2.403  -0.358  0.00  0.00     0.000 A 
ATOM      3  C3  BNZ d   1       1.657   1.465   0.419  0.00  0.00     0.000 A 
ATOM      4  C4  BNZ d   1       2.229   0.253   0.578  0.00  0.00     0.000 A 
ATOM      5  C5  BNZ d   1       3.446  -0.028  -0.012  0.00  0.00     0.000 A 
ATOM      6  C6  BNZ d   1       4.085   0.933  -0.760  0.00  0.00     0.000 A 
ENDROOT
TORSDOF 0
ENDMDL
