MODEL 1
REMARK minimizedAffinity -2.67205
REMARK minimizedRMSD -1
REMARK  0 active torsions:
REMARK  status: ('A' for Active; 'I' for Inactive)
ROOT
ATOM      1  C1  BNZ d   1      -1.208   1.834   0.448  0.00  0.00     0.000 A 
ATOM      2  C2  BNZ d   1       0.139   1.864   0.202  0.00  0.00     0.000 A 
ATOM      3  C3  BNZ d   1       0.829   0.713  -0.058  0.00  0.00     0.000 A 
ATOM      4  C4  BNZ d   1       0.180  -0.469  -0.032  0.00  0.00     0.000 A 
ATOM      5  C5  BNZ d   1      -1.176  -0.517   0.223  0.00  0.00     0.000 A 
ATOM      6  C6  BNZ d   1      -1.874   0.647   0.446  0.00  0.00     0.000 A 
ENDROOT
TORSDOF 0
ENDMDL
