MODEL 1
REMARK minimizedAffinity -4.85784197
REMARK minimizedRMSD -1
REMARK  0 active torsions:
REMARK  status: ('A' for Active; 'I' for Inactive)
ROOT
ATOM      1  C1  BNZ d   1      -1.095  -2.131   1.129  0.00  0.00     0.000 A 
ATOM      2  C2  BNZ d   1      -2.263  -1.907   1.808  0.00  0.00     0.000 A 
ATOM      3  C3  BNZ d   1      -2.765  -0.642   1.940  0.00  0.00     0.000 A 
ATOM      4  C4  BNZ d   1      -2.079   0.400   1.427  0.00  0.00     0.000 A 
ATOM      5  C5  BNZ d   1      -0.896   0.191   0.747  0.00  0.00     0.000 A 
ATOM      6  C6  BNZ d   1      -0.413  -1.087   0.583  0.00  0.00     0.000 A 
ENDROOT
TORSDOF 0
ENDMDL
