MODEL 1
REMARK minimizedAffinity -5.06765795
REMARK minimizedRMSD -1
REMARK  0 active torsions:
REMARK  status: ('A' for Active; 'I' for Inactive)
ROOT
ATOM      1  C1  BNZ d   1      -2.197  -0.712   0.620  0.00  0.00     0.000 A 
ATOM      2  C2  BNZ d   1      -1.311   0.330   0.567  0.00  0.00     0.000 A 
ATOM      3  C3  BNZ d   1       0.036   0.107   0.623  0.00  0.00     0.000 A 
ATOM      4  C4  BNZ d   1       0.494  -1.152   0.773  0.00  0.00     0.000 A 
ATOM      5  C5  BNZ d   1      -0.387  -2.213   0.837  0.00  0.00     0.000 A 
ATOM      6  C6  BNZ d   1      -1.741  -1.989   0.741  0.00  0.00     0.000 A 
ENDROOT
TORSDOF 0
ENDMDL
