MODEL 1
REMARK minimizedAffinity -4.12873507
REMARK minimizedRMSD -1
REMARK  0 active torsions:
REMARK  status: ('A' for Active; 'I' for Inactive)
ROOT
ATOM      1  C1  BNZ d   1       2.083  -2.099  -0.729  0.00  0.00     0.000 A 
ATOM      2  C2  BNZ d   1       2.933  -1.589   0.215  0.00  0.00     0.000 A 
ATOM      3  C3  BNZ d   1       2.482  -0.714   1.164  0.00  0.00     0.000 A 
ATOM      4  C4  BNZ d   1       1.192  -0.320   1.143  0.00  0.00     0.000 A 
ATOM      5  C5  BNZ d   1       0.325  -0.819   0.192  0.00  0.00     0.000 A 
ATOM      6  C6  BNZ d   1       0.773  -1.729  -0.738  0.00  0.00     0.000 A 
ENDROOT
TORSDOF 0
ENDMDL
