MODEL 1
REMARK minimizedAffinity -3.5149951
REMARK minimizedRMSD -1
REMARK  0 active torsions:
REMARK  status: ('A' for Active; 'I' for Inactive)
ROOT
ATOM      1  C1  BNZ d   1       0.935   0.288   1.016  0.00  0.00     0.000 A 
ATOM      2  C2  BNZ d   1       2.052  -0.362   1.469  0.00  0.00     0.000 A 
ATOM      3  C3  BNZ d   1       2.462  -1.533   0.894  0.00  0.00     0.000 A 
ATOM      4  C4  BNZ d   1       1.733  -2.072  -0.104  0.00  0.00     0.000 A 
ATOM      5  C5  BNZ d   1       0.599  -1.434  -0.566  0.00  0.00     0.000 A 
ATOM      6  C6  BNZ d   1       0.211  -0.236  -0.011  0.00  0.00     0.000 A 
ENDROOT
TORSDOF 0
ENDMDL
