MODEL 1
REMARK minimizedAffinity -4.02219915
REMARK minimizedRMSD -1
REMARK  0 active torsions:
REMARK  status: ('A' for Active; 'I' for Inactive)
ROOT
ATOM      1  C1  BNZ d   1       2.402  -0.785   1.264  0.00  0.00     0.000 A 
ATOM      2  C2  BNZ d   1       1.203  -0.190   0.972  0.00  0.00     0.000 A 
ATOM      3  C3  BNZ d   1       0.449  -0.616  -0.085  0.00  0.00     0.000 A 
ATOM      4  C4  BNZ d   1       0.912  -1.609  -0.872  0.00  0.00     0.000 A 
ATOM      5  C5  BNZ d   1       2.122  -2.213  -0.596  0.00  0.00     0.000 A 
ATOM      6  C6  BNZ d   1       2.861  -1.807   0.491  0.00  0.00     0.000 A 
ENDROOT
TORSDOF 0
ENDMDL
