MODEL 1
REMARK minimizedAffinity -4.21622992
REMARK minimizedRMSD -1
REMARK  0 active torsions:
REMARK  status: ('A' for Active; 'I' for Inactive)
ROOT
ATOM      1  C1  BNZ d   1       0.700  -0.390   1.663  0.00  0.00     0.000 A 
ATOM      2  C2  BNZ d   1       1.850  -1.070   1.964  0.00  0.00     0.000 A 
ATOM      3  C3  BNZ d   1       2.485  -1.825   1.017  0.00  0.00     0.000 A 
ATOM      4  C4  BNZ d   1       1.948  -1.931  -0.215  0.00  0.00     0.000 A 
ATOM      5  C5  BNZ d   1       0.784  -1.259  -0.531  0.00  0.00     0.000 A 
ATOM      6  C6  BNZ d   1       0.169  -0.469   0.413  0.00  0.00     0.000 A 
ENDROOT
TORSDOF 0
ENDMDL
