MODEL 1
REMARK minimizedAffinity -4.73227596
REMARK minimizedRMSD -1
REMARK  0 active torsions:
REMARK  status: ('A' for Active; 'I' for Inactive)
ROOT
ATOM      1  C1  BNZ d   1      -0.327  -0.822  -0.629  0.00  0.00     0.000 A 
ATOM      2  C2  BNZ d   1       0.109  -2.119  -0.586  0.00  0.00     0.000 A 
ATOM      3  C3  BNZ d   1       1.346  -2.426  -0.092  0.00  0.00     0.000 A 
ATOM      4  C4  BNZ d   1       2.160  -1.433   0.320  0.00  0.00     0.000 A 
ATOM      5  C5  BNZ d   1       1.739  -0.119   0.274  0.00  0.00     0.000 A 
ATOM      6  C6  BNZ d   1       0.478   0.182  -0.187  0.00  0.00     0.000 A 
ENDROOT
TORSDOF 0
ENDMDL
