MODEL 1
REMARK minimizedAffinity -3.95837116
REMARK minimizedRMSD -1
REMARK  0 active torsions:
REMARK  status: ('A' for Active; 'I' for Inactive)
ROOT
ATOM      1  C1  BNZ d   1       1.300   1.455   0.416  0.00  0.00     0.000 A 
ATOM      2  C2  BNZ d   1       0.227   2.274   0.185  0.00  0.00     0.000 A 
ATOM      3  C3  BNZ d   1      -1.008   1.751  -0.080  0.00  0.00     0.000 A 
ATOM      4  C4  BNZ d   1      -1.160   0.413  -0.152  0.00  0.00     0.000 A 
ATOM      5  C5  BNZ d   1      -0.085  -0.426   0.069  0.00  0.00     0.000 A 
ATOM      6  C6  BNZ d   1       1.148   0.104   0.373  0.00  0.00     0.000 A 
ENDROOT
TORSDOF 0
ENDMDL
