MODEL 1
REMARK minimizedAffinity -0.18741399
REMARK minimizedRMSD -1
REMARK  1 active torsions:
REMARK  status: ('A' for Active; 'I' for Inactive)
REMARK    1  A    between atoms: N_2  and  C1_3 
ROOT
ATOM      1  C1  UNL d   1       0.818  -1.208   1.488  0.00  0.00     0.143 A 
ATOM      2  C2  UNL d   1       1.784  -1.220   0.477  0.00  0.00    -0.057 A 
ATOM      3  C3  UNL d   1       1.471  -0.827  -0.831  0.00  0.00     0.033 A 
ATOM      4  C4  UNL d   1       0.174  -0.442  -1.156  0.00  0.00    -0.042 A 
ATOM      5  C5  UNL d   1      -0.808  -0.447  -0.172  0.00  0.00     0.033 A 
ATOM      6  C6  UNL d   1      -0.488  -0.834   1.133  0.00  0.00    -0.057 A 
ENDROOT
BRANCH   1   7
ATOM      7  N   UNL d   1       1.042  -1.681   2.784  0.00  0.00    -0.732 N 
ATOM      8  C   UNL d   1       2.263  -1.351   3.487  0.00  0.00     0.284 C 
ATOM      9  H3  UNL d   1       0.206  -1.642   3.362  0.00  0.00     0.395 HD
ENDBRANCH   1   7
TORSDOF 1
ENDMDL
