MODEL 1
REMARK minimizedAffinity 1.97313404
REMARK minimizedRMSD -1
REMARK  1 active torsions:
REMARK  status: ('A' for Active; 'I' for Inactive)
REMARK    1  A    between atoms: N_2  and  C1_3 
ROOT
ATOM      1  C1  UNL d   1      -0.310  -1.931   2.489  0.00  0.00     0.143 A 
ATOM      2  C2  UNL d   1       0.611  -2.917   2.119  0.00  0.00    -0.057 A 
ATOM      3  C3  UNL d   1       1.537  -2.696   1.092  0.00  0.00     0.033 A 
ATOM      4  C4  UNL d   1       1.539  -1.492   0.396  0.00  0.00    -0.042 A 
ATOM      5  C5  UNL d   1       0.616  -0.507   0.731  0.00  0.00     0.033 A 
ATOM      6  C6  UNL d   1      -0.302  -0.731   1.762  0.00  0.00    -0.057 A 
ENDROOT
BRANCH   1   7
ATOM      7  N   UNL d   1      -1.320  -2.126   3.435  0.00  0.00    -0.732 N 
ATOM      8  C   UNL d   1      -2.063  -3.368   3.474  0.00  0.00     0.284 C 
ATOM      9  H3  UNL d   1      -1.070  -1.762   4.351  0.00  0.00     0.395 HD
ENDBRANCH   1   7
TORSDOF 1
ENDMDL
