MODEL 1
REMARK minimizedAffinity 5.63167763
REMARK minimizedRMSD -1
REMARK  1 active torsions:
REMARK  status: ('A' for Active; 'I' for Inactive)
REMARK    1  A    between atoms: N_2  and  C1_3 
ROOT
ATOM      1  C1  UNL d   1      -0.178  -1.778   2.418  0.00  0.00     0.143 A 
ATOM      2  C2  UNL d   1      -0.014  -1.187   1.161  0.00  0.00    -0.057 A 
ATOM      3  C3  UNL d   1      -0.723  -0.034   0.803  0.00  0.00     0.033 A 
ATOM      4  C4  UNL d   1      -1.632   0.534   1.689  0.00  0.00    -0.042 A 
ATOM      5  C5  UNL d   1      -1.829  -0.051   2.935  0.00  0.00     0.033 A 
ATOM      6  C6  UNL d   1      -1.114  -1.199   3.289  0.00  0.00    -0.057 A 
ENDROOT
BRANCH   1   7
ATOM      7  N   UNL d   1       0.424  -2.981   2.796  0.00  0.00    -0.732 N 
ATOM      8  C   UNL d   1       1.470  -3.569   1.987  0.00  0.00     0.284 C 
ATOM      9  H3  UNL d   1       0.596  -3.031   3.798  0.00  0.00     0.395 HD
ENDBRANCH   1   7
TORSDOF 1
ENDMDL
