MODEL 1
REMARK minimizedAffinity -0.967826486
REMARK minimizedRMSD -1
REMARK  1 active torsions:
REMARK  status: ('A' for Active; 'I' for Inactive)
REMARK    1  A    between atoms: N_2  and  C1_3 
ROOT
ATOM      1  C1  UNL d   1       4.524   4.916   2.923  0.00  0.00     0.143 A 
ATOM      2  C2  UNL d   1       3.783   5.999   3.406  0.00  0.00    -0.057 A 
ATOM      3  C3  UNL d   1       2.486   5.827   3.906  0.00  0.00     0.033 A 
ATOM      4  C4  UNL d   1       1.895   4.568   3.904  0.00  0.00    -0.042 A 
ATOM      5  C5  UNL d   1       2.603   3.481   3.405  0.00  0.00     0.033 A 
ATOM      6  C6  UNL d   1       3.900   3.658   2.914  0.00  0.00    -0.057 A 
ENDROOT
BRANCH   1   7
ATOM      7  N   UNL d   1       5.779   5.038   2.323  0.00  0.00    -0.732 N 
ATOM      8  C   UNL d   1       6.000   5.999   1.264  0.00  0.00     0.284 C 
ATOM      9  H3  UNL d   1       6.539   4.980   2.997  0.00  0.00     0.395 HD
ENDBRANCH   1   7
TORSDOF 1
ENDMDL
