MODEL 1
REMARK minimizedAffinity -2.28011775
REMARK minimizedRMSD -1
REMARK  1 active torsions:
REMARK  status: ('A' for Active; 'I' for Inactive)
REMARK    1  A    between atoms: N_2  and  C1_3 
ROOT
ATOM      1  C1  UNL d   1       0.120  -1.519   1.748  0.00  0.00     0.143 A 
ATOM      2  C2  UNL d   1       0.468  -1.207   0.429  0.00  0.00    -0.057 A 
ATOM      3  C3  UNL d   1      -0.423  -0.537  -0.418  0.00  0.00     0.033 A 
ATOM      4  C4  UNL d   1      -1.694  -0.192   0.032  0.00  0.00    -0.042 A 
ATOM      5  C5  UNL d   1      -2.070  -0.514   1.331  0.00  0.00     0.033 A 
ATOM      6  C6  UNL d   1      -1.173  -1.178   2.174  0.00  0.00    -0.057 A 
ENDROOT
BRANCH   1   7
ATOM      7  N   UNL d   1       0.925  -2.271   2.607  0.00  0.00    -0.732 N 
ATOM      8  C   UNL d   1       1.570  -3.481   2.144  0.00  0.00     0.284 C 
ATOM      9  H3  UNL d   1       1.512  -1.687   3.199  0.00  0.00     0.395 HD
ENDBRANCH   1   7
TORSDOF 1
ENDMDL
