MODEL 1
REMARK minimizedAffinity -3.49073958
REMARK minimizedRMSD -1
REMARK  1 active torsions:
REMARK  status: ('A' for Active; 'I' for Inactive)
REMARK    1  A    between atoms: N_2  and  C1_3 
ROOT
ATOM      1  C1  UNL d   1       0.715  -2.299   1.760  0.00  0.00     0.143 A 
ATOM      2  C2  UNL d   1      -0.012  -1.845   2.866  0.00  0.00    -0.057 A 
ATOM      3  C3  UNL d   1      -1.078  -0.950   2.716  0.00  0.00     0.033 A 
ATOM      4  C4  UNL d   1      -1.419  -0.470   1.456  0.00  0.00    -0.042 A 
ATOM      5  C5  UNL d   1      -0.695  -0.888   0.346  0.00  0.00     0.033 A 
ATOM      6  C6  UNL d   1       0.365  -1.787   0.501  0.00  0.00    -0.057 A 
ENDROOT
BRANCH   1   7
ATOM      7  N   UNL d   1       1.848  -3.111   1.854  0.00  0.00    -0.732 N 
ATOM      8  C   UNL d   1       1.847  -4.445   1.293  0.00  0.00     0.284 C 
ATOM      9  H3  UNL d   1       2.710  -2.595   1.697  0.00  0.00     0.395 HD
ENDBRANCH   1   7
TORSDOF 1
ENDMDL
