MODEL 1
REMARK minimizedAffinity 15.5919838
REMARK minimizedRMSD -1
REMARK  0 active torsions:
REMARK  status: ('A' for Active; 'I' for Inactive)
ROOT
ATOM      1  N1  IND d   1       0.282   2.750   1.394  0.00  0.00    -0.196 N 
ATOM      2  C2  IND d   1       1.025   3.176   0.329  0.00  0.00     0.054 A 
ATOM      3  C3  IND d   1       2.074   2.347   0.126  0.00  0.00    -0.031 A 
ATOM      4  C4  IND d   1       2.704   0.175   1.357  0.00  0.00     0.051 A 
ATOM      5  C5  IND d   1       2.347  -0.601   2.424  0.00  0.00    -0.031 A 
ATOM      6  C6  IND d   1       1.260  -0.295   3.217  0.00  0.00     0.015 A 
ATOM      7  C7  IND d   1       0.479   0.797   2.964  0.00  0.00    -0.016 A 
ATOM      8  C8  IND d   1       0.842   1.592   1.885  0.00  0.00    -0.047 A 
ATOM      9  C9  IND d   1       1.970   1.310   1.103  0.00  0.00    -0.096 A 
ATOM     10  HN1 IND d   1      -0.418   3.140   1.705  0.00  0.00     0.298 HD
ENDROOT
TORSDOF 0
ENDMDL
