MODEL 1
REMARK minimizedAffinity 23.2422924
REMARK minimizedRMSD -1
REMARK  0 active torsions:
REMARK  status: ('A' for Active; 'I' for Inactive)
ROOT
ATOM      1  N1  IND d   1       2.529   5.355   0.624  0.00  0.00    -0.196 N 
ATOM      2  C2  IND d   1       3.854   5.485   0.315  0.00  0.00     0.054 A 
ATOM      3  C3  IND d   1       4.399   4.274   0.063  0.00  0.00    -0.031 A 
ATOM      4  C4  IND d   1       3.279   1.957  -0.001  0.00  0.00     0.051 A 
ATOM      5  C5  IND d   1       2.092   1.327   0.248  0.00  0.00    -0.031 A 
ATOM      6  C6  IND d   1       0.966   2.022   0.641  0.00  0.00     0.015 A 
ATOM      7  C7  IND d   1       0.983   3.380   0.788  0.00  0.00    -0.016 A 
ATOM      8  C8  IND d   1       2.189   4.022   0.543  0.00  0.00    -0.047 A 
ATOM      9  C9  IND d   1       3.345   3.317   0.186  0.00  0.00    -0.096 A 
ATOM     10  HN1 IND d   1       1.997   5.997   0.834  0.00  0.00     0.298 HD
ENDROOT
TORSDOF 0
ENDMDL
