MODEL 1
REMARK minimizedAffinity 23.2875061
REMARK minimizedRMSD -1
REMARK  0 active torsions:
REMARK  status: ('A' for Active; 'I' for Inactive)
ROOT
ATOM      1  N1  IND d   1       1.866   0.877   3.140  0.00  0.00    -0.196 N 
ATOM      2  C2  IND d   1       0.936   1.586   2.432  0.00  0.00     0.054 A 
ATOM      3  C3  IND d   1       1.429   1.931   1.222  0.00  0.00    -0.031 A 
ATOM      4  C4  IND d   1       3.700   1.353   0.156  0.00  0.00     0.051 A 
ATOM      5  C5  IND d   1       4.898   0.756   0.431  0.00  0.00    -0.031 A 
ATOM      6  C6  IND d   1       5.151   0.155   1.647  0.00  0.00     0.015 A 
ATOM      7  C7  IND d   1       4.207   0.118   2.633  0.00  0.00    -0.016 A 
ATOM      8  C8  IND d   1       2.991   0.729   2.360  0.00  0.00    -0.047 A 
ATOM      9  C9  IND d   1       2.744   1.378   1.143  0.00  0.00    -0.096 A 
ATOM     10  HN1 IND d   1       1.765   0.576   3.939  0.00  0.00     0.298 HD
ENDROOT
TORSDOF 0
ENDMDL
