MODEL 1
REMARK minimizedAffinity 8.97094345
REMARK minimizedRMSD -1
REMARK  0 active torsions:
REMARK  status: ('A' for Active; 'I' for Inactive)
ROOT
ATOM      1  N1  IND d   1       2.372   0.301   2.492  0.00  0.00    -0.196 N 
ATOM      2  C2  IND d   1       3.652   0.312   2.972  0.00  0.00     0.054 A 
ATOM      3  C3  IND d   1       4.524   0.601   1.980  0.00  0.00    -0.031 A 
ATOM      4  C4  IND d   1       4.061   1.192  -0.483  0.00  0.00     0.051 A 
ATOM      5  C5  IND d   1       3.051   1.276  -1.399  0.00  0.00    -0.031 A 
ATOM      6  C6  IND d   1       1.735   1.037  -1.057  0.00  0.00     0.015 A 
ATOM      7  C7  IND d   1       1.379   0.715   0.222  0.00  0.00    -0.016 A 
ATOM      8  C8  IND d   1       2.403   0.622   1.153  0.00  0.00    -0.047 A 
ATOM      9  C9  IND d   1       3.745   0.822   0.803  0.00  0.00    -0.096 A 
ATOM     10  HN1 IND d   1       1.666   0.124   2.950  0.00  0.00     0.298 HD
ENDROOT
TORSDOF 0
ENDMDL
