MODEL 1
REMARK minimizedAffinity 6.07277966
REMARK minimizedRMSD -1
REMARK  0 active torsions:
REMARK  status: ('A' for Active; 'I' for Inactive)
ROOT
ATOM      1  N1  IND d   1      -3.405  -2.454  -3.000  0.00  0.00    -0.196 N 
ATOM      2  C2  IND d   1      -2.282  -2.692  -2.257  0.00  0.00     0.054 A 
ATOM      3  C3  IND d   1      -2.334  -3.927  -1.709  0.00  0.00    -0.031 A 
ATOM      4  C4  IND d   1      -4.117  -5.764  -1.982  0.00  0.00     0.051 A 
ATOM      5  C5  IND d   1      -5.344  -6.000  -2.535  0.00  0.00    -0.031 A 
ATOM      6  C6  IND d   1      -6.000  -5.048  -3.289  0.00  0.00     0.015 A 
ATOM      7  C7  IND d   1      -5.445  -3.823  -3.528  0.00  0.00    -0.016 A 
ATOM      8  C8  IND d   1      -4.202  -3.577  -2.963  0.00  0.00    -0.047 A 
ATOM      9  C9  IND d   1      -3.551  -4.524  -2.161  0.00  0.00    -0.096 A 
ATOM     10  HN1 IND d   1      -3.583  -1.726  -3.421  0.00  0.00     0.298 HD
ENDROOT
TORSDOF 0
ENDMDL
