MODEL 1
REMARK minimizedAffinity 10.5678148
REMARK minimizedRMSD -1
REMARK  0 active torsions:
REMARK  status: ('A' for Active; 'I' for Inactive)
ROOT
ATOM      1  N1  IND d   1       0.953   3.991   1.360  0.00  0.00    -0.196 N 
ATOM      2  C2  IND d   1       1.854   4.200   0.353  0.00  0.00     0.054 A 
ATOM      3  C3  IND d   1       2.597   3.090   0.149  0.00  0.00    -0.031 A 
ATOM      4  C4  IND d   1       2.438   0.784   1.282  0.00  0.00     0.051 A 
ATOM      5  C5  IND d   1       1.793   0.120   2.288  0.00  0.00    -0.031 A 
ATOM      6  C6  IND d   1       0.813   0.724   3.049  0.00  0.00     0.015 A 
ATOM      7  C7  IND d   1       0.432   2.017   2.825  0.00  0.00    -0.016 A 
ATOM      8  C8  IND d   1       1.090   2.696   1.809  0.00  0.00    -0.047 A 
ATOM      9  C9  IND d   1       2.115   2.102   1.061  0.00  0.00    -0.096 A 
ATOM     10  HN1 IND d   1       0.395   4.571   1.662  0.00  0.00     0.298 HD
ENDROOT
TORSDOF 0
ENDMDL
