MODEL 1
REMARK minimizedAffinity 19.6371841
REMARK minimizedRMSD -1
REMARK  0 active torsions:
REMARK  status: ('A' for Active; 'I' for Inactive)
ROOT
ATOM      1  N1  IND d   1       3.093   1.850  -5.697  0.00  0.00    -0.196 N 
ATOM      2  C2  IND d   1       3.163   0.519  -6.000  0.00  0.00     0.054 A 
ATOM      3  C3  IND d   1       3.918  -0.132  -5.087  0.00  0.00    -0.031 A 
ATOM      4  C4  IND d   1       5.054   0.770  -2.960  0.00  0.00     0.051 A 
ATOM      5  C5  IND d   1       5.303   1.930  -2.281  0.00  0.00    -0.031 A 
ATOM      6  C6  IND d   1       4.816   3.146  -2.714  0.00  0.00     0.015 A 
ATOM      7  C7  IND d   1       4.049   3.247  -3.840  0.00  0.00    -0.016 A 
ATOM      8  C8  IND d   1       3.800   2.073  -4.535  0.00  0.00    -0.047 A 
ATOM      9  C9  IND d   1       4.327   0.841  -4.125  0.00  0.00    -0.096 A 
ATOM     10  HN1 IND d   1       2.678   2.448  -6.155  0.00  0.00     0.298 HD
ENDROOT
TORSDOF 0
ENDMDL
