MODEL 1
REMARK minimizedAffinity 8.65814114
REMARK minimizedRMSD -1
REMARK  0 active torsions:
REMARK  status: ('A' for Active; 'I' for Inactive)
ROOT
ATOM      1  N1  IND d   1      -1.549  -4.814   2.355  0.00  0.00    -0.196 N 
ATOM      2  C2  IND d   1      -2.121  -5.998   1.980  0.00  0.00     0.054 A 
ATOM      3  C3  IND d   1      -2.764  -5.856   0.799  0.00  0.00    -0.031 A 
ATOM      4  C4  IND d   1      -2.921  -3.799  -0.741  0.00  0.00     0.051 A 
ATOM      5  C5  IND d   1      -2.590  -2.474  -0.806  0.00  0.00    -0.031 A 
ATOM      6  C6  IND d   1      -1.878  -1.850   0.198  0.00  0.00     0.015 A 
ATOM      7  C7  IND d   1      -1.459  -2.533   1.305  0.00  0.00    -0.016 A 
ATOM      8  C8  IND d   1      -1.800  -3.877   1.378  0.00  0.00    -0.047 A 
ATOM      9  C9  IND d   1      -2.558  -4.505   0.382  0.00  0.00    -0.096 A 
ATOM     10  HN1 IND d   1      -1.108  -4.678   3.080  0.00  0.00     0.298 HD
ENDROOT
TORSDOF 0
ENDMDL
