MODEL 1
REMARK minimizedAffinity 12.196352
REMARK minimizedRMSD -1
REMARK  0 active torsions:
REMARK  status: ('A' for Active; 'I' for Inactive)
ROOT
ATOM      1  N1  IND d   1      -5.248   3.485   4.909  0.00  0.00    -0.196 N 
ATOM      2  C2  IND d   1      -5.958   3.039   5.989  0.00  0.00     0.054 A 
ATOM      3  C3  IND d   1      -6.000   1.688   5.999  0.00  0.00    -0.031 A 
ATOM      4  C4  IND d   1      -4.887   0.006   4.400  0.00  0.00     0.051 A 
ATOM      5  C5  IND d   1      -4.165  -0.064   3.242  0.00  0.00    -0.031 A 
ATOM      6  C6  IND d   1      -3.757   1.069   2.568  0.00  0.00     0.015 A 
ATOM      7  C7  IND d   1      -4.047   2.319   3.035  0.00  0.00    -0.016 A 
ATOM      8  C8  IND d   1      -4.786   2.394   4.208  0.00  0.00    -0.047 A 
ATOM      9  C9  IND d   1      -5.239   1.247   4.873  0.00  0.00    -0.096 A 
ATOM     10  HN1 IND d   1      -5.113   4.309   4.703  0.00  0.00     0.298 HD
ENDROOT
TORSDOF 0
ENDMDL
