MODEL 1
REMARK minimizedAffinity 11.3928318
REMARK minimizedRMSD -1
REMARK  0 active torsions:
REMARK  status: ('A' for Active; 'I' for Inactive)
ROOT
ATOM      1  N1  IND d   1      -4.741   5.261   1.145  0.00  0.00    -0.196 N 
ATOM      2  C2  IND d   1      -6.000   5.623   0.755  0.00  0.00     0.054 A 
ATOM      3  C3  IND d   1      -5.999   5.999  -0.544  0.00  0.00    -0.031 A 
ATOM      4  C4  IND d   1      -4.068   5.998  -2.246  0.00  0.00     0.051 A 
ATOM      5  C5  IND d   1      -2.722   5.784  -2.348  0.00  0.00    -0.031 A 
ATOM      6  C6  IND d   1      -1.966   5.373  -1.270  0.00  0.00     0.015 A 
ATOM      7  C7  IND d   1      -2.531   5.149  -0.046  0.00  0.00    -0.016 A 
ATOM      8  C8  IND d   1      -3.897   5.373   0.063  0.00  0.00    -0.047 A 
ATOM      9  C9  IND d   1      -4.662   5.831  -1.018  0.00  0.00    -0.096 A 
ATOM     10  HN1 IND d   1      -4.514   5.005   1.934  0.00  0.00     0.298 HD
ENDROOT
TORSDOF 0
ENDMDL
