MODEL 1
REMARK minimizedAffinity 7.84076786
REMARK minimizedRMSD -1
REMARK  0 active torsions:
REMARK  status: ('A' for Active; 'I' for Inactive)
ROOT
ATOM      1  N1  IND d   1      -5.690   3.661   3.800  0.00  0.00    -0.196 N 
ATOM      2  C2  IND d   1      -5.926   4.322   4.973  0.00  0.00     0.054 A 
ATOM      3  C3  IND d   1      -6.000   3.446   6.000  0.00  0.00    -0.031 A 
ATOM      4  C4  IND d   1      -5.660   0.894   6.000  0.00  0.00     0.051 A 
ATOM      5  C5  IND d   1      -5.459  -0.166   5.161  0.00  0.00    -0.031 A 
ATOM      6  C6  IND d   1      -5.319  -0.001   3.798  0.00  0.00     0.015 A 
ATOM      7  C7  IND d   1      -5.364   1.237   3.222  0.00  0.00    -0.016 A 
ATOM      8  C8  IND d   1      -5.575   2.315   4.070  0.00  0.00    -0.047 A 
ATOM      9  C9  IND d   1      -5.760   2.149   5.449  0.00  0.00    -0.096 A 
ATOM     10  HN1 IND d   1      -5.624   4.025   3.024  0.00  0.00     0.298 HD
ENDROOT
TORSDOF 0
ENDMDL
