MODEL 1
REMARK minimizedAffinity 13.2255621
REMARK minimizedRMSD -1
REMARK  0 active torsions:
REMARK  status: ('A' for Active; 'I' for Inactive)
ROOT
ATOM      1  N1  IND d   1      -4.930  -3.750  -2.479  0.00  0.00    -0.196 N 
ATOM      2  C2  IND d   1      -4.125  -3.375  -1.440  0.00  0.00     0.054 A 
ATOM      3  C3  IND d   1      -2.934  -2.934  -1.903  0.00  0.00    -0.031 A 
ATOM      4  C4  IND d   1      -2.129  -2.644  -4.331  0.00  0.00     0.051 A 
ATOM      5  C5  IND d   1      -2.499  -2.885  -5.625  0.00  0.00    -0.031 A 
ATOM      6  C6  IND d   1      -3.724  -3.435  -5.942  0.00  0.00     0.015 A 
ATOM      7  C7  IND d   1      -4.633  -3.756  -4.974  0.00  0.00    -0.016 A 
ATOM      8  C8  IND d   1      -4.259  -3.519  -3.660  0.00  0.00    -0.047 A 
ATOM      9  C9  IND d   1      -3.000  -3.000  -3.329  0.00  0.00    -0.096 A 
ATOM     10  HN1 IND d   1      -5.723  -4.075  -2.408  0.00  0.00     0.298 HD
ENDROOT
TORSDOF 0
ENDMDL
