MODEL 1
REMARK minimizedAffinity 5.22012281
REMARK minimizedRMSD -1
REMARK  0 active torsions:
REMARK  status: ('A' for Active; 'I' for Inactive)
ROOT
ATOM      1  N1  IND d   1      -2.250   1.485   2.168  0.00  0.00    -0.196 N 
ATOM      2  C2  IND d   1      -2.438   2.758   1.707  0.00  0.00     0.054 A 
ATOM      3  C3  IND d   1      -1.298   3.233   1.157  0.00  0.00    -0.031 A 
ATOM      4  C4  IND d   1       0.966   2.055   0.815  0.00  0.00     0.051 A 
ATOM      5  C5  IND d   1       1.633   0.898   1.103  0.00  0.00    -0.031 A 
ATOM      6  C6  IND d   1       1.026  -0.145   1.773  0.00  0.00     0.015 A 
ATOM      7  C7  IND d   1      -0.279  -0.074   2.170  0.00  0.00    -0.016 A 
ATOM      8  C8  IND d   1      -0.957   1.103   1.885  0.00  0.00    -0.047 A 
ATOM      9  C9  IND d   1      -0.334   2.181   1.243  0.00  0.00    -0.096 A 
ATOM     10  HN1 IND d   1      -2.840   1.004   2.567  0.00  0.00     0.298 HD
ENDROOT
TORSDOF 0
ENDMDL
