MODEL 1
REMARK minimizedAffinity -2.79440498
REMARK minimizedRMSD -1
REMARK  3 active torsions:
REMARK  status: ('A' for Active; 'I' for Inactive)
REMARK    1  A    between atoms: C3'_2  and  C2'_3 
REMARK    2  A    between atoms: C2'_3  and  C1'_4 
REMARK    3  A    between atoms: C1'_4  and  C1_5 
ROOT
ATOM      1  C1  N4B d   1      -0.045   0.236   0.186  0.00  0.00    -0.075 A 
ATOM      2  C2  N4B d   1       0.936   1.007  -0.474  0.00  0.00     0.002 A 
ATOM      3  C3  N4B d   1       1.411   2.157   0.108  0.00  0.00     0.002 A 
ATOM      4  C4  N4B d   1       0.908   2.563   1.335  0.00  0.00    -0.004 A 
ATOM      5  C5  N4B d   1      -0.021   1.798   1.978  0.00  0.00     0.002 A 
ATOM      6  C6  N4B d   1      -0.504   0.638   1.407  0.00  0.00     0.002 A 
ENDROOT
BRANCH   1   7
ATOM      7  C1' N4B d   1      -0.657  -0.983  -0.449  0.00  0.00     0.057 C 
BRANCH   7   8
ATOM      8  C2' N4B d   1      -1.023  -0.663  -1.895  0.00  0.00     0.009 C 
BRANCH   8   9
ATOM      9  C3' N4B d   1      -2.392  -1.206  -2.268  0.00  0.00     0.004 C 
ATOM     10  C4' N4B d   1      -2.758  -0.927  -3.696  0.00  0.00     0.003 C 
ENDBRANCH   8   9
ENDBRANCH   7   8
ENDBRANCH   1   7
TORSDOF 3
ENDMDL
