MODEL 1
REMARK minimizedAffinity -3.45568442
REMARK minimizedRMSD -1
REMARK  3 active torsions:
REMARK  status: ('A' for Active; 'I' for Inactive)
REMARK    1  A    between atoms: C3'_2  and  C2'_3 
REMARK    2  A    between atoms: C2'_3  and  C1'_4 
REMARK    3  A    between atoms: C1'_4  and  C1_5 
ROOT
ATOM      1  C1  N4B d   1       0.056   0.166   0.497  0.00  0.00    -0.075 A 
ATOM      2  C2  N4B d   1       0.852   0.956  -0.361  0.00  0.00     0.002 A 
ATOM      3  C3  N4B d   1       1.281   2.195   0.048  0.00  0.00     0.002 A 
ATOM      4  C4  N4B d   1       0.914   2.670   1.298  0.00  0.00    -0.004 A 
ATOM      5  C5  N4B d   1       0.166   1.890   2.131  0.00  0.00     0.002 A 
ATOM      6  C6  N4B d   1      -0.269   0.642   1.735  0.00  0.00     0.002 A 
ENDROOT
BRANCH   1   7
ATOM      7  C1' N4B d   1      -0.509  -1.158   0.061  0.00  0.00     0.057 C 
BRANCH   7   8
ATOM      8  C2' N4B d   1      -1.049  -1.029  -1.360  0.00  0.00     0.009 C 
BRANCH   8   9
ATOM      9  C3' N4B d   1      -2.315  -1.843  -1.563  0.00  0.00     0.004 C 
ATOM     10  C4' N4B d   1      -2.972  -1.575  -2.885  0.00  0.00     0.003 C 
ENDBRANCH   8   9
ENDBRANCH   7   8
ENDBRANCH   1   7
TORSDOF 3
ENDMDL
