MODEL 1
REMARK minimizedAffinity -5.14569616
REMARK minimizedRMSD -1
REMARK  3 active torsions:
REMARK  status: ('A' for Active; 'I' for Inactive)
REMARK    1  A    between atoms: C3'_2  and  C2'_3 
REMARK    2  A    between atoms: C2'_3  and  C1'_4 
REMARK    3  A    between atoms: C1'_4  and  C1_5 
ROOT
ATOM      1  C1  N4B d   1       0.493   0.045  -0.035  0.00  0.00    -0.075 A 
ATOM      2  C2  N4B d   1      -0.204   0.394   1.142  0.00  0.00     0.002 A 
ATOM      3  C3  N4B d   1       0.110   1.554   1.807  0.00  0.00     0.002 A 
ATOM      4  C4  N4B d   1       1.126   2.366   1.327  0.00  0.00    -0.004 A 
ATOM      5  C5  N4B d   1       1.777   2.034   0.175  0.00  0.00     0.002 A 
ATOM      6  C6  N4B d   1       1.469   0.874  -0.506  0.00  0.00     0.002 A 
ENDROOT
BRANCH   1   7
ATOM      7  C1' N4B d   1       0.243  -1.255  -0.750  0.00  0.00     0.057 C 
BRANCH   7   8
ATOM      8  C2' N4B d   1      -1.255  -1.412  -0.996  0.00  0.00     0.009 C 
BRANCH   8   9
ATOM      9  C3' N4B d   1      -1.586  -1.457  -2.478  0.00  0.00     0.004 C 
ATOM     10  C4' N4B d   1      -3.009  -1.085  -2.767  0.00  0.00     0.003 C 
ENDBRANCH   8   9
ENDBRANCH   7   8
ENDBRANCH   1   7
TORSDOF 3
ENDMDL
