MODEL 1
REMARK minimizedAffinity -5.69667721
REMARK minimizedRMSD -1
REMARK  3 active torsions:
REMARK  status: ('A' for Active; 'I' for Inactive)
REMARK    1  A    between atoms: C3'_2  and  C2'_3 
REMARK    2  A    between atoms: C2'_3  and  C1'_4 
REMARK    3  A    between atoms: C1'_4  and  C1_5 
ROOT
ATOM      1  C1  N4B d   1      -0.041   0.327   0.030  0.00  0.00    -0.075 A 
ATOM      2  C2  N4B d   1       0.983   1.025  -0.647  0.00  0.00     0.002 A 
ATOM      3  C3  N4B d   1       1.423   2.234  -0.167  0.00  0.00     0.002 A 
ATOM      4  C4  N4B d   1       0.843   2.771   0.972  0.00  0.00    -0.004 A 
ATOM      5  C5  N4B d   1      -0.128   2.079   1.635  0.00  0.00     0.002 A 
ATOM      6  C6  N4B d   1      -0.577   0.860   1.166  0.00  0.00     0.002 A 
ENDROOT
BRANCH   1   7
ATOM      7  C1' N4B d   1      -0.614  -0.958  -0.505  0.00  0.00     0.057 C 
BRANCH   7   8
ATOM      8  C2' N4B d   1      -0.695  -0.874  -2.026  0.00  0.00     0.009 C 
BRANCH   8   9
ATOM      9  C3' N4B d   1      -1.817  -1.735  -2.583  0.00  0.00     0.004 C 
ATOM     10  C4' N4B d   1      -2.915  -0.926  -3.206  0.00  0.00     0.003 C 
ENDBRANCH   8   9
ENDBRANCH   7   8
ENDBRANCH   1   7
TORSDOF 3
ENDMDL
