MODEL 1
REMARK minimizedAffinity -0.264147043
REMARK minimizedRMSD -1
REMARK  3 active torsions:
REMARK  status: ('A' for Active; 'I' for Inactive)
REMARK    1  A    between atoms: C3'_2  and  C2'_3 
REMARK    2  A    between atoms: C2'_3  and  C1'_4 
REMARK    3  A    between atoms: C1'_4  and  C1_5 
ROOT
ATOM      1  C1  N4B d   1      -0.398  -0.248   0.198  0.00  0.00    -0.075 A 
ATOM      2  C2  N4B d   1       0.914   0.196  -0.076  0.00  0.00     0.002 A 
ATOM      3  C3  N4B d   1       1.453   1.233   0.647  0.00  0.00     0.002 A 
ATOM      4  C4  N4B d   1       0.695   1.849   1.631  0.00  0.00    -0.004 A 
ATOM      5  C5  N4B d   1      -0.562   1.398   1.907  0.00  0.00     0.002 A 
ATOM      6  C6  N4B d   1      -1.115   0.355   1.191  0.00  0.00     0.002 A 
ENDROOT
BRANCH   1   7
ATOM      7  C1' N4B d   1      -1.061  -1.320  -0.623  0.00  0.00     0.057 C 
BRANCH   7   8
ATOM      8  C2' N4B d   1      -1.398  -0.759  -2.001  0.00  0.00     0.009 C 
BRANCH   8   9
ATOM      9  C3' N4B d   1      -2.605  -1.446  -2.615  0.00  0.00     0.004 C 
ATOM     10  C4' N4B d   1      -3.377  -2.261  -1.621  0.00  0.00     0.003 C 
ENDBRANCH   8   9
ENDBRANCH   7   8
ENDBRANCH   1   7
TORSDOF 3
ENDMDL
