MODEL 1
REMARK minimizedAffinity -1.75073433
REMARK minimizedRMSD -1
REMARK  0 active torsions:
REMARK  status: ('A' for Active; 'I' for Inactive)
ROOT
ATOM      1  C1  DEN d   1      -2.469   1.883   1.739  0.00  0.00     0.130 A 
ATOM      2  C2  DEN d   1      -3.683   1.518   1.014  0.00  0.00    -0.031 A 
ATOM      3  C3  DEN d   1      -3.307   0.583  -0.065  0.00  0.00     0.027 A 
ATOM      4  C4  DEN d   1      -0.975  -0.336  -0.676  0.00  0.00     0.027 A 
ATOM      5  C5  DEN d   1       0.363  -0.304  -0.354  0.00  0.00    -0.003 A 
ATOM      6  C6  DEN d   1       0.853   0.479   0.658  0.00  0.00     0.001 A 
ATOM      7  C7  DEN d   1      -0.010   1.228   1.414  0.00  0.00     0.017 A 
ATOM      8  C8  DEN d   1      -1.360   1.207   1.091  0.00  0.00    -0.094 A 
ATOM      9  C9  DEN d   1      -1.837   0.399   0.072  0.00  0.00    -0.072 A 
ENDROOT
TORSDOF 0
ENDMDL
