MODEL 1
REMARK minimizedAffinity 0.143679634
REMARK minimizedRMSD -1
REMARK  0 active torsions:
REMARK  status: ('A' for Active; 'I' for Inactive)
ROOT
ATOM      1  C1  DEN d   1      -3.826   0.083   0.930  0.00  0.00     0.130 A 
ATOM      2  C2  DEN d   1      -4.095   0.967   2.060  0.00  0.00    -0.031 A 
ATOM      3  C3  DEN d   1      -2.852   1.702   2.372  0.00  0.00     0.027 A 
ATOM      4  C4  DEN d   1      -0.551   1.560   1.216  0.00  0.00     0.027 A 
ATOM      5  C5  DEN d   1       0.167   0.941   0.216  0.00  0.00    -0.003 A 
ATOM      6  C6  DEN d   1      -0.381  -0.023  -0.587  0.00  0.00     0.001 A 
ATOM      7  C7  DEN d   1      -1.699  -0.365  -0.434  0.00  0.00     0.017 A 
ATOM      8  C8  DEN d   1      -2.427   0.249   0.577  0.00  0.00    -0.094 A 
ATOM      9  C9  DEN d   1      -1.858   1.230   1.371  0.00  0.00    -0.072 A 
ENDROOT
TORSDOF 0
ENDMDL
