MODEL 1
REMARK minimizedAffinity 0.371110171
REMARK minimizedRMSD -1
REMARK  0 active torsions:
REMARK  status: ('A' for Active; 'I' for Inactive)
ROOT
ATOM      1  C1  DEN d   1      -3.381  -0.356   1.475  0.00  0.00     0.130 A 
ATOM      2  C2  DEN d   1      -3.986   0.960   1.288  0.00  0.00    -0.031 A 
ATOM      3  C3  DEN d   1      -3.122   1.734   0.374  0.00  0.00     0.027 A 
ATOM      4  C4  DEN d   1      -0.920   1.025  -0.767  0.00  0.00     0.027 A 
ATOM      5  C5  DEN d   1      -0.004   0.006  -0.903  0.00  0.00    -0.003 A 
ATOM      6  C6  DEN d   1      -0.130  -1.183  -0.234  0.00  0.00     0.001 A 
ATOM      7  C7  DEN d   1      -1.220  -1.400   0.566  0.00  0.00     0.017 A 
ATOM      8  C8  DEN d   1      -2.145  -0.374   0.713  0.00  0.00    -0.094 A 
ATOM      9  C9  DEN d   1      -2.006   0.816   0.020  0.00  0.00    -0.072 A 
ENDROOT
TORSDOF 0
ENDMDL
