MODEL 1
REMARK minimizedAffinity -3.16688657
REMARK minimizedRMSD -1
REMARK  0 active torsions:
REMARK  status: ('A' for Active; 'I' for Inactive)
ROOT
ATOM      1  C1  DEN d   1      -0.871   0.018   1.176  0.00  0.00     0.130 A 
ATOM      2  C2  DEN d   1      -1.421   0.677  -0.005  0.00  0.00    -0.031 A 
ATOM      3  C3  DEN d   1      -0.519   0.404  -1.142  0.00  0.00     0.027 A 
ATOM      4  C4  DEN d   1       1.662  -0.972  -1.188  0.00  0.00     0.027 A 
ATOM      5  C5  DEN d   1       2.538  -1.714  -0.426  0.00  0.00    -0.003 A 
ATOM      6  C6  DEN d   1       2.358  -1.900   0.919  0.00  0.00     0.001 A 
ATOM      7  C7  DEN d   1       1.253  -1.376   1.535  0.00  0.00     0.017 A 
ATOM      8  C8  DEN d   1       0.370  -0.620   0.775  0.00  0.00    -0.094 A 
ATOM      9  C9  DEN d   1       0.562  -0.454  -0.586  0.00  0.00    -0.072 A 
ENDROOT
TORSDOF 0
ENDMDL
