MODEL 1
REMARK minimizedAffinity 7.68135262
REMARK minimizedRMSD -1
REMARK  0 active torsions:
REMARK  status: ('A' for Active; 'I' for Inactive)
ROOT
ATOM      1  C1  DEN d   1       0.911  -0.007  -0.615  0.00  0.00     0.130 A 
ATOM      2  C2  DEN d   1       2.164  -0.363  -1.275  0.00  0.00    -0.031 A 
ATOM      3  C3  DEN d   1       2.408  -1.801  -1.048  0.00  0.00     0.027 A 
ATOM      4  C4  DEN d   1       0.972  -3.505   0.252  0.00  0.00     0.027 A 
ATOM      5  C5  DEN d   1      -0.175  -3.670   0.997  0.00  0.00    -0.003 A 
ATOM      6  C6  DEN d   1      -1.015  -2.627   1.283  0.00  0.00     0.001 A 
ATOM      7  C7  DEN d   1      -0.745  -1.380   0.783  0.00  0.00     0.017 A 
ATOM      8  C8  DEN d   1       0.413  -1.205   0.038  0.00  0.00    -0.094 A 
ATOM      9  C9  DEN d   1       1.244  -2.274  -0.251  0.00  0.00    -0.072 A 
ENDROOT
TORSDOF 0
ENDMDL
