MODEL 1
REMARK minimizedAffinity -1.90954971
REMARK minimizedRMSD -1
REMARK  0 active torsions:
REMARK  status: ('A' for Active; 'I' for Inactive)
ROOT
ATOM      1  C1  DEN d   1      -0.447  -1.682   1.002  0.00  0.00     0.130 A 
ATOM      2  C2  DEN d   1       0.203  -1.795  -0.301  0.00  0.00    -0.031 A 
ATOM      3  C3  DEN d   1      -0.273  -0.683  -1.147  0.00  0.00     0.027 A 
ATOM      4  C4  DEN d   1      -1.941   1.197  -0.567  0.00  0.00     0.027 A 
ATOM      5  C5  DEN d   1      -2.765   1.704   0.414  0.00  0.00    -0.003 A 
ATOM      6  C6  DEN d   1      -2.898   1.104   1.637  0.00  0.00     0.001 A 
ATOM      7  C7  DEN d   1      -2.163  -0.014   1.929  0.00  0.00     0.017 A 
ATOM      8  C8  DEN d   1      -1.336  -0.536   0.942  0.00  0.00    -0.094 A 
ATOM      9  C9  DEN d   1      -1.205   0.093  -0.284  0.00  0.00    -0.072 A 
ENDROOT
TORSDOF 0
ENDMDL
