MODEL 1
REMARK minimizedAffinity -5.70993423
REMARK minimizedRMSD -1
REMARK  0 active torsions:
REMARK  status: ('A' for Active; 'I' for Inactive)
ROOT
ATOM      1  C1  DEN d   1       0.707  -1.835  -0.686  0.00  0.00     0.130 A 
ATOM      2  C2  DEN d   1       1.988  -2.122  -0.047  0.00  0.00    -0.031 A 
ATOM      3  C3  DEN d   1       2.446  -0.892   0.631  0.00  0.00     0.027 A 
ATOM      4  C4  DEN d   1       1.300   1.415   0.756  0.00  0.00     0.027 A 
ATOM      5  C5  DEN d   1       0.202   2.146   0.359  0.00  0.00    -0.003 A 
ATOM      6  C6  DEN d   1      -0.779   1.616  -0.436  0.00  0.00     0.001 A 
ATOM      7  C7  DEN d   1      -0.705   0.303  -0.822  0.00  0.00     0.017 A 
ATOM      8  C8  DEN d   1       0.402  -0.438  -0.432  0.00  0.00    -0.094 A 
ATOM      9  C9  DEN d   1       1.378   0.112   0.382  0.00  0.00    -0.072 A 
ENDROOT
TORSDOF 0
ENDMDL
