MODEL 1
REMARK minimizedAffinity -4.4482975
REMARK minimizedRMSD -1
REMARK  2 active torsions:
REMARK  status: ('A' for Active; 'I' for Inactive)
REMARK    1  A    between atoms: C2'_3  and  C1'_4 
REMARK    2  A    between atoms: C1'_4  and  C1_5 
ROOT
ATOM      1  C1  I4B d   1       0.126  -0.205  -0.280  0.00  0.00    -0.075 A 
ATOM      2  C2  I4B d   1      -1.237  -0.315  -0.167  0.00  0.00     0.003 A 
ATOM      3  C3  I4B d   1      -1.911   0.270   0.933  0.00  0.00     0.002 A 
ATOM      4  C4  I4B d   1      -1.181   0.908   1.915  0.00  0.00    -0.004 A 
ATOM      5  C5  I4B d   1       0.198   1.039   1.787  0.00  0.00     0.002 A 
ATOM      6  C6  I4B d   1       0.856   0.490   0.676  0.00  0.00     0.003 A 
ENDROOT
BRANCH   1   7
ATOM      7  C1' I4B d   1       0.809  -0.864  -1.437  0.00  0.00     0.060 C 
BRANCH   7   8
ATOM      8  C2' I4B d   1       0.720   0.072  -2.625  0.00  0.00    -0.013 C 
ATOM      9  C4' I4B d   1       2.069   0.651  -2.965  0.00  0.00     0.013 C 
ATOM     10  C3' I4B d   1       0.155  -0.699  -3.781  0.00  0.00     0.013 C 
ENDBRANCH   7   8
ENDBRANCH   1   7
TORSDOF 2
ENDMDL
