MODEL 1
REMARK minimizedAffinity 0.386850566
REMARK minimizedRMSD -1
REMARK  2 active torsions:
REMARK  status: ('A' for Active; 'I' for Inactive)
REMARK    1  A    between atoms: C2'_3  and  C1'_4 
REMARK    2  A    between atoms: C1'_4  and  C1_5 
ROOT
ATOM      1  C1  I4B d   1       0.100  -0.464  -2.707  0.00  0.00    -0.075 A 
ATOM      2  C2  I4B d   1       1.009   0.539  -2.935  0.00  0.00     0.003 A 
ATOM      3  C3  I4B d   1       1.094   1.148  -4.211  0.00  0.00     0.002 A 
ATOM      4  C4  I4B d   1       0.291   0.692  -5.236  0.00  0.00    -0.004 A 
ATOM      5  C5  I4B d   1      -0.646  -0.309  -4.997  0.00  0.00     0.002 A 
ATOM      6  C6  I4B d   1      -0.751  -0.883  -3.722  0.00  0.00     0.003 A 
ENDROOT
BRANCH   1   7
ATOM      7  C1' I4B d   1       0.061  -1.108  -1.358  0.00  0.00     0.060 C 
BRANCH   7   8
ATOM      8  C2' I4B d   1       0.543  -0.092  -0.342  0.00  0.00    -0.013 C 
ATOM      9  C4' I4B d   1      -0.554   0.276   0.623  0.00  0.00     0.013 C 
ATOM     10  C3' I4B d   1       1.721  -0.679   0.376  0.00  0.00     0.013 C 
ENDBRANCH   7   8
ENDBRANCH   1   7
TORSDOF 2
ENDMDL
