MODEL 1
REMARK minimizedAffinity -4.90752268
REMARK minimizedRMSD -1
REMARK  2 active torsions:
REMARK  status: ('A' for Active; 'I' for Inactive)
REMARK    1  A    between atoms: C2'_3  and  C1'_4 
REMARK    2  A    between atoms: C1'_4  and  C1_5 
ROOT
ATOM      1  C1  I4B d   1       0.752  -0.528  -2.038  0.00  0.00    -0.075 A 
ATOM      2  C2  I4B d   1      -0.194  -0.363  -3.019  0.00  0.00     0.003 A 
ATOM      3  C3  I4B d   1       0.158   0.228  -4.256  0.00  0.00     0.002 A 
ATOM      4  C4  I4B d   1       1.447   0.682  -4.451  0.00  0.00    -0.004 A 
ATOM      5  C5  I4B d   1       2.410   0.493  -3.464  0.00  0.00     0.002 A 
ATOM      6  C6  I4B d   1       2.064  -0.127  -2.255  0.00  0.00     0.003 A 
ENDROOT
BRANCH   1   7
ATOM      7  C1' I4B d   1       0.339  -1.126  -0.731  0.00  0.00     0.060 C 
BRANCH   7   8
ATOM      8  C2' I4B d   1       0.332  -0.022   0.306  0.00  0.00    -0.013 C 
ATOM      9  C4' I4B d   1      -1.058   0.226   0.829  0.00  0.00     0.013 C 
ATOM     10  C3' I4B d   1       1.263  -0.419   1.412  0.00  0.00     0.013 C 
ENDBRANCH   7   8
ENDBRANCH   1   7
TORSDOF 2
ENDMDL
