MODEL 1
REMARK minimizedAffinity -5.494627
REMARK minimizedRMSD -1
REMARK  2 active torsions:
REMARK  status: ('A' for Active; 'I' for Inactive)
REMARK    1  A    between atoms: C2'_3  and  C1'_4 
REMARK    2  A    between atoms: C1'_4  and  C1_5 
ROOT
ATOM      1  C1  I4B d   1      -0.095  -0.142  -0.460  0.00  0.00    -0.075 A 
ATOM      2  C2  I4B d   1      -1.306   0.313  -0.001  0.00  0.00     0.003 A 
ATOM      3  C3  I4B d   1      -1.454   0.707   1.351  0.00  0.00     0.002 A 
ATOM      4  C4  I4B d   1      -0.386   0.582   2.216  0.00  0.00    -0.004 A 
ATOM      5  C5  I4B d   1       0.848   0.143   1.744  0.00  0.00     0.002 A 
ATOM      6  C6  I4B d   1       0.998  -0.210   0.395  0.00  0.00     0.003 A 
ENDROOT
BRANCH   1   7
ATOM      7  C1' I4B d   1       0.017  -0.580  -1.885  0.00  0.00     0.060 C 
BRANCH   7   8
ATOM      8  C2' I4B d   1       0.238   0.653  -2.737  0.00  0.00    -0.013 C 
ATOM      9  C4' I4B d   1       1.639   0.693  -3.286  0.00  0.00     0.013 C 
ATOM     10  C3' I4B d   1      -0.776   0.640  -3.842  0.00  0.00     0.013 C 
ENDBRANCH   7   8
ENDBRANCH   1   7
TORSDOF 2
ENDMDL
