MODEL 1
REMARK minimizedAffinity -4.52569342
REMARK minimizedRMSD -1
REMARK  2 active torsions:
REMARK  status: ('A' for Active; 'I' for Inactive)
REMARK    1  A    between atoms: C2'_3  and  C1'_4 
REMARK    2  A    between atoms: C1'_4  and  C1_5 
ROOT
ATOM      1  C1  I4B d   1       0.130   0.454   1.046  0.00  0.00    -0.075 A 
ATOM      2  C2  I4B d   1      -1.023   0.443   1.791  0.00  0.00     0.003 A 
ATOM      3  C3  I4B d   1      -0.996   0.016   3.141  0.00  0.00     0.002 A 
ATOM      4  C4  I4B d   1       0.188  -0.435   3.687  0.00  0.00    -0.004 A 
ATOM      5  C5  I4B d   1       1.361  -0.401   2.938  0.00  0.00     0.002 A 
ATOM      6  C6  I4B d   1       1.334   0.058   1.613  0.00  0.00     0.003 A 
ENDROOT
BRANCH   1   7
ATOM      7  C1' I4B d   1       0.058   0.879  -0.386  0.00  0.00     0.060 C 
BRANCH   7   8
ATOM      8  C2' I4B d   1       0.712  -0.199  -1.226  0.00  0.00    -0.013 C 
ATOM      9  C4' I4B d   1      -0.107  -1.463  -1.225  0.00  0.00     0.013 C 
ATOM     10  C3' I4B d   1       0.881   0.336  -2.617  0.00  0.00     0.013 C 
ENDBRANCH   7   8
ENDBRANCH   1   7
TORSDOF 2
ENDMDL
