MODEL 1
REMARK minimizedAffinity -3.60521698
REMARK minimizedRMSD -1
REMARK  2 active torsions:
REMARK  status: ('A' for Active; 'I' for Inactive)
REMARK    1  A    between atoms: C2'_3  and  C1'_4 
REMARK    2  A    between atoms: C1'_4  and  C1_5 
ROOT
ATOM      1  C1  I4B d   1       0.286  -0.525  -0.123  0.00  0.00    -0.075 A 
ATOM      2  C2  I4B d   1      -1.016  -0.117  -0.269  0.00  0.00     0.003 A 
ATOM      3  C3  I4B d   1      -1.753   0.330   0.855  0.00  0.00     0.002 A 
ATOM      4  C4  I4B d   1      -1.168   0.304   2.105  0.00  0.00    -0.004 A 
ATOM      5  C5  I4B d   1       0.160  -0.089   2.247  0.00  0.00     0.002 A 
ATOM      6  C6  I4B d   1       0.896  -0.494   1.124  0.00  0.00     0.003 A 
ENDROOT
BRANCH   1   7
ATOM      7  C1' I4B d   1       1.025  -1.022  -1.326  0.00  0.00     0.060 C 
BRANCH   7   8
ATOM      8  C2' I4B d   1       1.014   0.078  -2.367  0.00  0.00    -0.013 C 
ATOM      9  C4' I4B d   1       2.376   0.258  -2.984  0.00  0.00     0.013 C 
ATOM     10  C3' I4B d   1      -0.008  -0.278  -3.406  0.00  0.00     0.013 C 
ENDBRANCH   7   8
ENDBRANCH   1   7
TORSDOF 2
ENDMDL
