MODEL 1
REMARK minimizedAffinity -2.53217864
REMARK minimizedRMSD -1
REMARK  2 active torsions:
REMARK  status: ('A' for Active; 'I' for Inactive)
REMARK    1  A    between atoms: C2'_3  and  C1'_4 
REMARK    2  A    between atoms: C1'_4  and  C1_5 
ROOT
ATOM      1  C1  I4B d   1       0.242  -0.289  -1.381  0.00  0.00    -0.075 A 
ATOM      2  C2  I4B d   1       1.456   0.152  -1.844  0.00  0.00     0.003 A 
ATOM      3  C3  I4B d   1       1.687   0.275  -3.236  0.00  0.00     0.002 A 
ATOM      4  C4  I4B d   1       0.699  -0.100  -4.124  0.00  0.00    -0.004 A 
ATOM      5  C5  I4B d   1      -0.539  -0.525  -3.653  0.00  0.00     0.002 A 
ATOM      6  C6  I4B d   1      -0.774  -0.609  -2.272  0.00  0.00     0.003 A 
ENDROOT
BRANCH   1   7
ATOM      7  C1' I4B d   1       0.044  -0.438   0.094  0.00  0.00     0.060 C 
BRANCH   7   8
ATOM      8  C2' I4B d   1      -1.429  -0.236   0.390  0.00  0.00    -0.013 C 
ATOM      9  C4' I4B d   1      -1.985  -1.381   1.195  0.00  0.00     0.013 C 
ATOM     10  C3' I4B d   1      -1.580   1.064   1.122  0.00  0.00     0.013 C 
ENDBRANCH   7   8
ENDBRANCH   1   7
TORSDOF 2
ENDMDL
