MODEL 1
REMARK minimizedAffinity -4.30781746
REMARK minimizedRMSD -1
REMARK  2 active torsions:
REMARK  status: ('A' for Active; 'I' for Inactive)
REMARK    1  A    between atoms: C2'_3  and  C1'_4 
REMARK    2  A    between atoms: C1'_4  and  C1_5 
ROOT
ATOM      1  C1  I4B d   1       0.597  -0.647  -0.765  0.00  0.00    -0.075 A 
ATOM      2  C2  I4B d   1       1.591  -1.074   0.080  0.00  0.00     0.003 A 
ATOM      3  C3  I4B d   1       1.514  -0.800   1.467  0.00  0.00     0.002 A 
ATOM      4  C4  I4B d   1       0.459  -0.057   1.956  0.00  0.00    -0.004 A 
ATOM      5  C5  I4B d   1      -0.559   0.355   1.101  0.00  0.00     0.002 A 
ATOM      6  C6  I4B d   1      -0.497   0.048  -0.266  0.00  0.00     0.003 A 
ENDROOT
BRANCH   1   7
ATOM      7  C1' I4B d   1       0.726  -0.926  -2.229  0.00  0.00     0.060 C 
BRANCH   7   8
ATOM      8  C2' I4B d   1       0.935   0.396  -2.939  0.00  0.00    -0.013 C 
ATOM      9  C4' I4B d   1       2.366   0.557  -3.382  0.00  0.00     0.013 C 
ATOM     10  C3' I4B d   1      -0.003   0.448  -4.108  0.00  0.00     0.013 C 
ENDBRANCH   7   8
ENDBRANCH   1   7
TORSDOF 2
ENDMDL
