MODEL 1
REMARK minimizedAffinity -5.27668571
REMARK minimizedRMSD -1
REMARK  0 active torsions:
REMARK  status: ('A' for Active; 'I' for Inactive)
ROOT
ATOM      1  N1  IND d   1       0.631  -1.995   1.696  0.00  0.00    -0.196 N 
ATOM      2  C2  IND d   1       1.369  -1.002   1.115  0.00  0.00     0.054 A 
ATOM      3  C3  IND d   1       0.600  -0.275   0.274  0.00  0.00    -0.031 A 
ATOM      4  C4  IND d   1      -1.918  -0.474  -0.223  0.00  0.00     0.051 A 
ATOM      5  C5  IND d   1      -3.010  -1.253   0.040  0.00  0.00    -0.031 A 
ATOM      6  C6  IND d   1      -2.943  -2.339   0.889  0.00  0.00     0.015 A 
ATOM      7  C7  IND d   1      -1.779  -2.682   1.517  0.00  0.00    -0.016 A 
ATOM      8  C8  IND d   1      -0.667  -1.898   1.246  0.00  0.00    -0.047 A 
ATOM      9  C9  IND d   1      -0.718  -0.820   0.353  0.00  0.00    -0.096 A 
ATOM     10  HN1 IND d   1       0.928  -2.582   2.250  0.00  0.00     0.298 HD
ENDROOT
TORSDOF 0
ENDMDL
