MODEL 1
REMARK minimizedAffinity -6.17857075
REMARK minimizedRMSD -1
REMARK  0 active torsions:
REMARK  status: ('A' for Active; 'I' for Inactive)
ROOT
ATOM      1  N1  IND d   1      -0.476  -2.751   1.424  0.00  0.00    -0.196 N 
ATOM      2  C2  IND d   1      -1.693  -3.312   1.692  0.00  0.00     0.054 A 
ATOM      3  C3  IND d   1      -2.670  -2.661   1.022  0.00  0.00    -0.031 A 
ATOM      4  C4  IND d   1      -2.486  -0.713  -0.651  0.00  0.00     0.051 A 
ATOM      5  C5  IND d   1      -1.586   0.162  -1.190  0.00  0.00    -0.031 A 
ATOM      6  C6  IND d   1      -0.242   0.108  -0.882  0.00  0.00     0.015 A 
ATOM      7  C7  IND d   1       0.256  -0.835  -0.028  0.00  0.00    -0.016 A 
ATOM      8  C8  IND d   1      -0.657  -1.720   0.528  0.00  0.00    -0.047 A 
ATOM      9  C9  IND d   1      -2.028  -1.643   0.252  0.00  0.00    -0.096 A 
ATOM     10  HN1 IND d   1       0.276  -3.000   1.759  0.00  0.00     0.298 HD
ENDROOT
TORSDOF 0
ENDMDL
