MODEL 1
REMARK minimizedAffinity -5.91801643
REMARK minimizedRMSD -1
REMARK  0 active torsions:
REMARK  status: ('A' for Active; 'I' for Inactive)
ROOT
ATOM      1  N1  IND d   1       1.218  -1.059   0.389  0.00  0.00    -0.196 N 
ATOM      2  C2  IND d   1       1.113  -1.746   1.566  0.00  0.00     0.054 A 
ATOM      3  C3  IND d   1      -0.172  -1.765   1.986  0.00  0.00    -0.031 A 
ATOM      4  C4  IND d   1      -2.279  -0.824   0.846  0.00  0.00     0.051 A 
ATOM      5  C5  IND d   1      -2.682  -0.081  -0.229  0.00  0.00    -0.031 A 
ATOM      6  C6  IND d   1      -1.788   0.380  -1.173  0.00  0.00     0.015 A 
ATOM      7  C7  IND d   1      -0.452   0.105  -1.083  0.00  0.00    -0.016 A 
ATOM      8  C8  IND d   1      -0.039  -0.642   0.010  0.00  0.00    -0.047 A 
ATOM      9  C9  IND d   1      -0.936  -1.077   0.994  0.00  0.00    -0.096 A 
ATOM     10  HN1 IND d   1       1.947  -0.913  -0.043  0.00  0.00     0.298 HD
ENDROOT
TORSDOF 0
ENDMDL
