MODEL 1
REMARK minimizedAffinity -3.15068722
REMARK minimizedRMSD -1
REMARK  0 active torsions:
REMARK  status: ('A' for Active; 'I' for Inactive)
ROOT
ATOM      1  N1  IND d   1       0.329  -0.228  -1.600  0.00  0.00    -0.196 N 
ATOM      2  C2  IND d   1       1.341  -0.211  -0.681  0.00  0.00     0.054 A 
ATOM      3  C3  IND d   1       0.839  -0.100   0.569  0.00  0.00    -0.031 A 
ATOM      4  C4  IND d   1      -1.614  -0.034   1.347  0.00  0.00     0.051 A 
ATOM      5  C5  IND d   1      -2.894   0.015   0.870  0.00  0.00    -0.031 A 
ATOM      6  C6  IND d   1      -3.171  -0.018  -0.481  0.00  0.00     0.015 A 
ATOM      7  C7  IND d   1      -2.174  -0.113  -1.410  0.00  0.00    -0.016 A 
ATOM      8  C8  IND d   1      -0.873  -0.156  -0.931  0.00  0.00    -0.047 A 
ATOM      9  C9  IND d   1      -0.583  -0.080   0.438  0.00  0.00    -0.096 A 
ATOM     10  HN1 IND d   1       0.427  -0.276  -2.453  0.00  0.00     0.298 HD
ENDROOT
TORSDOF 0
ENDMDL
