MODEL 1
REMARK minimizedAffinity -3.16332078
REMARK minimizedRMSD -1
REMARK  0 active torsions:
REMARK  status: ('A' for Active; 'I' for Inactive)
ROOT
ATOM      1  N1  IND d   1       0.004   1.192   1.466  0.00  0.00    -0.196 N 
ATOM      2  C2  IND d   1       1.152   1.166   0.723  0.00  0.00     0.054 A 
ATOM      3  C3  IND d   1       0.976   0.419  -0.389  0.00  0.00    -0.031 A 
ATOM      4  C4  IND d   1      -1.142  -0.770  -1.243  0.00  0.00     0.051 A 
ATOM      5  C5  IND d   1      -2.430  -1.062  -0.890  0.00  0.00    -0.031 A 
ATOM      6  C6  IND d   1      -2.984  -0.606   0.289  0.00  0.00     0.015 A 
ATOM      7  C7  IND d   1      -2.271   0.172   1.157  0.00  0.00    -0.016 A 
ATOM      8  C8  IND d   1      -0.961   0.464   0.805  0.00  0.00    -0.047 A 
ATOM      9  C9  IND d   1      -0.380  -0.031  -0.369  0.00  0.00    -0.096 A 
ATOM     10  HN1 IND d   1      -0.097   1.595   2.218  0.00  0.00     0.298 HD
ENDROOT
TORSDOF 0
ENDMDL
