MODEL 1
REMARK minimizedAffinity -1.82670271
REMARK minimizedRMSD -1
REMARK  0 active torsions:
REMARK  status: ('A' for Active; 'I' for Inactive)
ROOT
ATOM      1  N1  IND d   1       0.279   0.797  -0.150  0.00  0.00    -0.196 N 
ATOM      2  C2  IND d   1      -0.006  -0.510   0.131  0.00  0.00     0.054 A 
ATOM      3  C3  IND d   1       0.805  -0.969   1.110  0.00  0.00    -0.031 A 
ATOM      4  C4  IND d   1       2.603   0.280   2.464  0.00  0.00     0.051 A 
ATOM      5  C5  IND d   1       3.250   1.482   2.545  0.00  0.00    -0.031 A 
ATOM      6  C6  IND d   1       2.931   2.538   1.717  0.00  0.00     0.015 A 
ATOM      7  C7  IND d   1       1.941   2.436   0.780  0.00  0.00    -0.016 A 
ATOM      8  C8  IND d   1       1.288   1.215   0.691  0.00  0.00    -0.047 A 
ATOM      9  C9  IND d   1       1.636   0.126   1.499  0.00  0.00    -0.096 A 
ATOM     10  HN1 IND d   1      -0.106   1.277  -0.750  0.00  0.00     0.298 HD
ENDROOT
TORSDOF 0
ENDMDL
