MODEL 1
REMARK minimizedAffinity -3.35300636
REMARK minimizedRMSD -1
REMARK  0 active torsions:
REMARK  status: ('A' for Active; 'I' for Inactive)
ROOT
ATOM      1  N1  IND d   1      -0.156   0.767   1.490  0.00  0.00    -0.196 N 
ATOM      2  C2  IND d   1       0.963   1.189   0.827  0.00  0.00     0.054 A 
ATOM      3  C3  IND d   1       0.915   0.803  -0.468  0.00  0.00    -0.031 A 
ATOM      4  C4  IND d   1      -0.949  -0.441  -1.736  0.00  0.00     0.051 A 
ATOM      5  C5  IND d   1      -2.149  -1.065  -1.547  0.00  0.00    -0.031 A 
ATOM      6  C6  IND d   1      -2.761  -1.109  -0.310  0.00  0.00     0.015 A 
ATOM      7  C7  IND d   1      -2.197  -0.517   0.785  0.00  0.00    -0.016 A 
ATOM      8  C8  IND d   1      -0.974   0.111   0.597  0.00  0.00    -0.047 A 
ATOM      9  C9  IND d   1      -0.328   0.122  -0.646  0.00  0.00    -0.096 A 
ATOM     10  HN1 IND d   1      -0.321   0.891   2.325  0.00  0.00     0.298 HD
ENDROOT
TORSDOF 0
ENDMDL
