MODEL 1
REMARK minimizedAffinity -5.39499807
REMARK minimizedRMSD -1
REMARK  0 active torsions:
REMARK  status: ('A' for Active; 'I' for Inactive)
ROOT
ATOM      1  N1  IND d   1       1.108  -1.305   0.949  0.00  0.00    -0.196 N 
ATOM      2  C2  IND d   1       0.596  -2.004   2.006  0.00  0.00     0.054 A 
ATOM      3  C3  IND d   1      -0.747  -1.864   2.056  0.00  0.00    -0.031 A 
ATOM      4  C4  IND d   1      -2.323  -0.619   0.445  0.00  0.00     0.051 A 
ATOM      5  C5  IND d   1      -2.318   0.200  -0.649  0.00  0.00    -0.031 A 
ATOM      6  C6  IND d   1      -1.146   0.565  -1.281  0.00  0.00     0.015 A 
ATOM      7  C7  IND d   1       0.068   0.113  -0.847  0.00  0.00    -0.016 A 
ATOM      8  C8  IND d   1       0.066  -0.714   0.268  0.00  0.00    -0.047 A 
ATOM      9  C9  IND d   1      -1.116  -1.053   0.939  0.00  0.00    -0.096 A 
ATOM     10  HN1 IND d   1       1.941  -1.244   0.743  0.00  0.00     0.298 HD
ENDROOT
TORSDOF 0
ENDMDL
