MODEL 1
REMARK minimizedAffinity -3.52567863
REMARK minimizedRMSD -1
REMARK  0 active torsions:
REMARK  status: ('A' for Active; 'I' for Inactive)
ROOT
ATOM      1  N1  IND d   1       0.742  -0.048   1.384  0.00  0.00    -0.196 N 
ATOM      2  C2  IND d   1       1.909   0.322   0.776  0.00  0.00     0.054 A 
ATOM      3  C3  IND d   1       1.761   0.313  -0.568  0.00  0.00    -0.031 A 
ATOM      4  C4  IND d   1      -0.334  -0.176  -1.981  0.00  0.00     0.051 A 
ATOM      5  C5  IND d   1      -1.631  -0.595  -1.876  0.00  0.00    -0.031 A 
ATOM      6  C6  IND d   1      -2.216  -0.855  -0.653  0.00  0.00     0.015 A 
ATOM      7  C7  IND d   1      -1.526  -0.695   0.515  0.00  0.00    -0.016 A 
ATOM      8  C8  IND d   1      -0.207  -0.277   0.411  0.00  0.00    -0.047 A 
ATOM      9  C9  IND d   1       0.405  -0.052  -0.829  0.00  0.00    -0.096 A 
ATOM     10  HN1 IND d   1       0.620  -0.126   2.232  0.00  0.00     0.298 HD
ENDROOT
TORSDOF 0
ENDMDL
