MODEL 1
REMARK minimizedAffinity -4.65497351
REMARK minimizedRMSD -1
REMARK  0 active torsions:
REMARK  status: ('A' for Active; 'I' for Inactive)
ROOT
ATOM      1  N1  IND d   1       0.608  -0.144   0.771  0.00  0.00    -0.196 N 
ATOM      2  C2  IND d   1       0.833   0.638  -0.328  0.00  0.00     0.054 A 
ATOM      3  C3  IND d   1      -0.193   0.528  -1.202  0.00  0.00    -0.031 A 
ATOM      4  C4  IND d   1      -2.389  -0.798  -0.986  0.00  0.00     0.051 A 
ATOM      5  C5  IND d   1      -3.032  -1.692  -0.178  0.00  0.00    -0.031 A 
ATOM      6  C6  IND d   1      -2.485  -2.123   1.014  0.00  0.00     0.015 A 
ATOM      7  C7  IND d   1      -1.274  -1.664   1.449  0.00  0.00    -0.016 A 
ATOM      8  C8  IND d   1      -0.615  -0.761   0.626  0.00  0.00    -0.047 A 
ATOM      9  C9  IND d   1      -1.145  -0.353  -0.604  0.00  0.00    -0.096 A 
ATOM     10  HN1 IND d   1       1.141  -0.234   1.439  0.00  0.00     0.298 HD
ENDROOT
TORSDOF 0
ENDMDL
