MODEL 1
REMARK minimizedAffinity -3.75658917
REMARK minimizedRMSD -1
REMARK  0 active torsions:
REMARK  status: ('A' for Active; 'I' for Inactive)
ROOT
ATOM      1  N1  IND d   1       0.781  -0.994   0.693  0.00  0.00    -0.196 N 
ATOM      2  C2  IND d   1       0.977   0.033  -0.188  0.00  0.00     0.054 A 
ATOM      3  C3  IND d   1      -0.065   0.124  -1.044  0.00  0.00    -0.031 A 
ATOM      4  C4  IND d   1      -2.246  -1.242  -1.116  0.00  0.00     0.051 A 
ATOM      5  C5  IND d   1      -2.866  -2.313  -0.536  0.00  0.00    -0.031 A 
ATOM      6  C6  IND d   1      -2.292  -3.012   0.507  0.00  0.00     0.015 A 
ATOM      7  C7  IND d   1      -1.075  -2.656   1.017  0.00  0.00    -0.016 A 
ATOM      8  C8  IND d   1      -0.440  -1.574   0.426  0.00  0.00    -0.047 A 
ATOM      9  C9  IND d   1      -0.999  -0.887  -0.660  0.00  0.00    -0.096 A 
ATOM     10  HN1 IND d   1       1.328  -1.237   1.310  0.00  0.00     0.298 HD
ENDROOT
TORSDOF 0
ENDMDL
