MODEL 1
REMARK minimizedAffinity -5.22832203
REMARK minimizedRMSD -1
REMARK  0 active torsions:
REMARK  status: ('A' for Active; 'I' for Inactive)
ROOT
ATOM      1  N1  IND d   1       0.500  -0.674   1.180  0.00  0.00    -0.196 N 
ATOM      2  C2  IND d   1       0.573   0.401   0.339  0.00  0.00     0.054 A 
ATOM      3  C3  IND d   1      -0.605   0.579  -0.300  0.00  0.00    -0.031 A 
ATOM      4  C4  IND d   1      -2.817  -0.713  -0.042  0.00  0.00     0.051 A 
ATOM      5  C5  IND d   1      -3.363  -1.801   0.580  0.00  0.00    -0.031 A 
ATOM      6  C6  IND d   1      -2.635  -2.582   1.455  0.00  0.00     0.015 A 
ATOM      7  C7  IND d   1      -1.332  -2.297   1.749  0.00  0.00    -0.016 A 
ATOM      8  C8  IND d   1      -0.772  -1.198   1.113  0.00  0.00    -0.047 A 
ATOM      9  C9  IND d   1      -1.493  -0.427   0.192  0.00  0.00    -0.096 A 
ATOM     10  HN1 IND d   1       1.141  -0.972   1.670  0.00  0.00     0.298 HD
ENDROOT
TORSDOF 0
ENDMDL
