MODEL 1
REMARK minimizedAffinity -5.62593603
REMARK minimizedRMSD -1
REMARK  0 active torsions:
REMARK  status: ('A' for Active; 'I' for Inactive)
ROOT
ATOM      1  N1  IND d   1      -2.076  -0.657  -1.537  0.00  0.00    -0.196 N 
ATOM      2  C2  IND d   1      -3.100  -1.405  -1.026  0.00  0.00     0.054 A 
ATOM      3  C3  IND d   1      -2.690  -2.074   0.075  0.00  0.00    -0.031 A 
ATOM      4  C4  IND d   1      -0.413  -2.010   1.274  0.00  0.00     0.051 A 
ATOM      5  C5  IND d   1       0.850  -1.500   1.161  0.00  0.00    -0.031 A 
ATOM      6  C6  IND d   1       1.209  -0.663   0.124  0.00  0.00     0.015 A 
ATOM      7  C7  IND d   1       0.310  -0.296  -0.838  0.00  0.00    -0.016 A 
ATOM      8  C8  IND d   1      -0.971  -0.818  -0.730  0.00  0.00    -0.047 A 
ATOM      9  C9  IND d   1      -1.329  -1.701   0.296  0.00  0.00    -0.096 A 
ATOM     10  HN1 IND d   1      -2.116  -0.169  -2.244  0.00  0.00     0.298 HD
ENDROOT
TORSDOF 0
ENDMDL
