MODEL 1
REMARK minimizedAffinity -4.53566933
REMARK minimizedRMSD -1
REMARK  0 active torsions:
REMARK  status: ('A' for Active; 'I' for Inactive)
ROOT
ATOM      1  N1  IND d   1       4.550   4.848  -1.999  0.00  0.00    -0.196 N 
ATOM      2  C2  IND d   1       4.892   4.070  -3.070  0.00  0.00     0.054 A 
ATOM      3  C3  IND d   1       4.391   2.823  -2.924  0.00  0.00    -0.031 A 
ATOM      4  C4  IND d   1       2.896   1.869  -1.057  0.00  0.00     0.051 A 
ATOM      5  C5  IND d   1       2.348   2.189   0.153  0.00  0.00    -0.031 A 
ATOM      6  C6  IND d   1       2.507   3.438   0.718  0.00  0.00     0.015 A 
ATOM      7  C7  IND d   1       3.213   4.422   0.085  0.00  0.00    -0.016 A 
ATOM      8  C8  IND d   1       3.777   4.098  -1.141  0.00  0.00    -0.047 A 
ATOM      9  C9  IND d   1       3.655   2.819  -1.699  0.00  0.00    -0.096 A 
ATOM     10  HN1 IND d   1       4.779   5.669  -1.882  0.00  0.00     0.298 HD
ENDROOT
TORSDOF 0
ENDMDL
