MODEL 1
REMARK minimizedAffinity -2.32214046
REMARK minimizedRMSD -1
REMARK  0 active torsions:
REMARK  status: ('A' for Active; 'I' for Inactive)
ROOT
ATOM      1  N1  IND d   1       2.514   1.777   0.622  0.00  0.00    -0.196 N 
ATOM      2  C2  IND d   1       1.893   2.721   1.392  0.00  0.00     0.054 A 
ATOM      3  C3  IND d   1       2.294   3.961   1.030  0.00  0.00    -0.031 A 
ATOM      4  C4  IND d   1       3.882   4.678  -0.865  0.00  0.00     0.051 A 
ATOM      5  C5  IND d   1       4.721   4.171  -1.817  0.00  0.00    -0.031 A 
ATOM      6  C6  IND d   1       4.868   2.813  -2.010  0.00  0.00     0.015 A 
ATOM      7  C7  IND d   1       4.170   1.907  -1.263  0.00  0.00    -0.016 A 
ATOM      8  C8  IND d   1       3.322   2.418  -0.291  0.00  0.00    -0.047 A 
ATOM      9  C9  IND d   1       3.201   3.795  -0.061  0.00  0.00    -0.096 A 
ATOM     10  HN1 IND d   1       2.416   0.926   0.696  0.00  0.00     0.298 HD
ENDROOT
TORSDOF 0
ENDMDL
