MODEL 1
REMARK minimizedAffinity -3.99133372
REMARK minimizedRMSD -1
REMARK  0 active torsions:
REMARK  status: ('A' for Active; 'I' for Inactive)
ROOT
ATOM      1  N1  IND d   1       2.513   4.132   1.187  0.00  0.00    -0.196 N 
ATOM      2  C2  IND d   1       2.057   2.980   1.765  0.00  0.00     0.054 A 
ATOM      3  C3  IND d   1       2.192   1.940   0.912  0.00  0.00    -0.031 A 
ATOM      4  C4  IND d   1       3.229   1.881  -1.443  0.00  0.00     0.051 A 
ATOM      5  C5  IND d   1       3.750   2.693  -2.412  0.00  0.00    -0.031 A 
ATOM      6  C6  IND d   1       3.890   4.053  -2.225  0.00  0.00     0.015 A 
ATOM      7  C7  IND d   1       3.524   4.653  -1.054  0.00  0.00    -0.016 A 
ATOM      8  C8  IND d   1       2.989   3.833  -0.071  0.00  0.00    -0.047 A 
ATOM      9  C9  IND d   1       2.804   2.458  -0.270  0.00  0.00    -0.096 A 
ATOM     10  HN1 IND d   1       2.505   4.912   1.549  0.00  0.00     0.298 HD
ENDROOT
TORSDOF 0
ENDMDL
