MODEL 1
REMARK minimizedAffinity -3.99793625
REMARK minimizedRMSD -1
REMARK  0 active torsions:
REMARK  status: ('A' for Active; 'I' for Inactive)
ROOT
ATOM      1  N1  IND d   1       0.074  -2.463   1.229  0.00  0.00    -0.196 N 
ATOM      2  C2  IND d   1      -1.013  -3.286   1.333  0.00  0.00     0.054 A 
ATOM      3  C3  IND d   1      -1.935  -2.967   0.397  0.00  0.00    -0.031 A 
ATOM      4  C4  IND d   1      -1.825  -1.198  -1.471  0.00  0.00     0.051 A 
ATOM      5  C5  IND d   1      -1.048  -0.179  -1.945  0.00  0.00    -0.031 A 
ATOM      6  C6  IND d   1       0.168   0.136  -1.375  0.00  0.00     0.015 A 
ATOM      7  C7  IND d   1       0.661  -0.567  -0.312  0.00  0.00    -0.016 A 
ATOM      8  C8  IND d   1      -0.129  -1.599   0.176  0.00  0.00    -0.047 A 
ATOM      9  C9  IND d   1      -1.383  -1.896  -0.371  0.00  0.00    -0.096 A 
ATOM     10  HN1 IND d   1       0.768  -2.482   1.737  0.00  0.00     0.298 HD
ENDROOT
TORSDOF 0
ENDMDL
