MODEL 1
REMARK minimizedAffinity -4.40576935
REMARK minimizedRMSD -1
REMARK  0 active torsions:
REMARK  status: ('A' for Active; 'I' for Inactive)
ROOT
ATOM      1  N1  IND d   1       3.555   4.847  -1.255  0.00  0.00    -0.196 N 
ATOM      2  C2  IND d   1       3.819   4.090  -2.362  0.00  0.00     0.054 A 
ATOM      3  C3  IND d   1       3.540   2.790  -2.120  0.00  0.00    -0.031 A 
ATOM      4  C4  IND d   1       2.545   1.695  -0.014  0.00  0.00     0.051 A 
ATOM      5  C5  IND d   1       2.171   1.974   1.271  0.00  0.00    -0.031 A 
ATOM      6  C6  IND d   1       2.238   3.251   1.789  0.00  0.00     0.015 A 
ATOM      7  C7  IND d   1       2.673   4.304   1.035  0.00  0.00    -0.016 A 
ATOM      8  C8  IND d   1       3.060   4.023  -0.268  0.00  0.00    -0.047 A 
ATOM      9  C9  IND d   1       3.034   2.722  -0.786  0.00  0.00    -0.096 A 
ATOM     10  HN1 IND d   1       3.677   5.696  -1.186  0.00  0.00     0.298 HD
ENDROOT
TORSDOF 0
ENDMDL
