MODEL 1
REMARK minimizedAffinity 5.85559559
REMARK minimizedRMSD -1
REMARK  0 active torsions:
REMARK  status: ('A' for Active; 'I' for Inactive)
ROOT
ATOM      1  C   UNL d   1       1.827  -0.012  -1.060  0.00  0.00     0.172 C 
ATOM      2  N   UNL d   1       3.148   0.567  -1.000  0.00  0.00    -0.070 N 
ATOM      3  C1  UNL d   1       3.707   1.379  -1.950  0.00  0.00    -0.004 A 
ATOM      4  C2  UNL d   1       4.972   1.720  -1.523  0.00  0.00    -0.047 A 
ATOM      5  C3  UNL d   1       5.181   1.090  -0.273  0.00  0.00    -0.047 A 
ATOM      6  C4  UNL d   1       4.036   0.383   0.027  0.00  0.00    -0.004 A 
ENDROOT
TORSDOF 0
ENDMDL
