MODEL 1
REMARK minimizedAffinity -2.90881228
REMARK minimizedRMSD -1
REMARK  0 active torsions:
REMARK  status: ('A' for Active; 'I' for Inactive)
ROOT
ATOM      1  C   UNL d   1      -6.000   4.754   5.616  0.00  0.00     0.172 C 
ATOM      2  N   UNL d   1      -5.137   5.232   4.561  0.00  0.00    -0.070 N 
ATOM      3  C1  UNL d   1      -3.825   5.594   4.706  0.00  0.00    -0.004 A 
ATOM      4  C2  UNL d   1      -3.358   5.992   3.472  0.00  0.00    -0.047 A 
ATOM      5  C3  UNL d   1      -4.427   5.866   2.554  0.00  0.00    -0.047 A 
ATOM      6  C4  UNL d   1      -5.516   5.393   3.255  0.00  0.00    -0.004 A 
ENDROOT
TORSDOF 0
ENDMDL
