MODEL 1
REMARK minimizedAffinity -1.92207575
REMARK minimizedRMSD -1
REMARK  0 active torsions:
REMARK  status: ('A' for Active; 'I' for Inactive)
ROOT
ATOM      1  C   UNL d   1      -5.967   5.995   5.084  0.00  0.00     0.172 C 
ATOM      2  N   UNL d   1      -5.036   5.997   3.980  0.00  0.00    -0.070 N 
ATOM      3  C1  UNL d   1      -3.671   5.995   4.086  0.00  0.00    -0.004 A 
ATOM      4  C2  UNL d   1      -3.149   5.997   2.811  0.00  0.00    -0.047 A 
ATOM      5  C3  UNL d   1      -4.238   6.000   1.907  0.00  0.00    -0.047 A 
ATOM      6  C4  UNL d   1      -5.394   6.000   2.658  0.00  0.00    -0.004 A 
ENDROOT
TORSDOF 0
ENDMDL
