MODEL 1
REMARK minimizedAffinity 0.215512455
REMARK minimizedRMSD -1
REMARK  0 active torsions:
REMARK  status: ('A' for Active; 'I' for Inactive)
ROOT
ATOM      1  C   UNL d   1      -5.999   5.755   4.486  0.00  0.00     0.172 C 
ATOM      2  N   UNL d   1      -5.128   5.830   3.338  0.00  0.00    -0.070 N 
ATOM      3  C1  UNL d   1      -3.766   5.969   3.376  0.00  0.00    -0.004 A 
ATOM      4  C2  UNL d   1      -3.308   5.999   2.077  0.00  0.00    -0.047 A 
ATOM      5  C3  UNL d   1      -4.433   5.875   1.228  0.00  0.00    -0.047 A 
ATOM      6  C4  UNL d   1      -5.547   5.772   2.035  0.00  0.00    -0.004 A 
ENDROOT
TORSDOF 0
ENDMDL
