MODEL 1
REMARK minimizedAffinity -0.310431004
REMARK minimizedRMSD -1
REMARK  0 active torsions:
REMARK  status: ('A' for Active; 'I' for Inactive)
ROOT
ATOM      1  C   UNL d   1       0.234  -0.636   5.245  0.00  0.00     0.172 C 
ATOM      2  N   UNL d   1       0.084  -2.067   5.366  0.00  0.00    -0.070 N 
ATOM      3  C1  UNL d   1       0.999  -3.002   4.963  0.00  0.00    -0.004 A 
ATOM      4  C2  UNL d   1       0.485  -4.248   5.252  0.00  0.00    -0.047 A 
ATOM      5  C3  UNL d   1      -0.784  -4.054   5.848  0.00  0.00    -0.047 A 
ATOM      6  C4  UNL d   1      -1.007  -2.695   5.907  0.00  0.00    -0.004 A 
ENDROOT
TORSDOF 0
ENDMDL
