MODEL 1
REMARK minimizedAffinity -2.12290907
REMARK minimizedRMSD -1
REMARK  0 active torsions:
REMARK  status: ('A' for Active; 'I' for Inactive)
ROOT
ATOM      1  C1  BNZ d   1      -0.021  -0.099  -4.183  0.00  0.00     0.000 A 
ATOM      2  C2  BNZ d   1      -0.250  -0.731  -2.990  0.00  0.00     0.000 A 
ATOM      3  C3  BNZ d   1       0.423  -0.360  -1.860  0.00  0.00     0.000 A 
ATOM      4  C4  BNZ d   1       1.353   0.615  -1.933  0.00  0.00     0.000 A 
ATOM      5  C5  BNZ d   1       1.602   1.255  -3.130  0.00  0.00     0.000 A 
ATOM      6  C6  BNZ d   1       0.895   0.905  -4.257  0.00  0.00     0.000 A 
ENDROOT
TORSDOF 0
ENDMDL
