MODEL 1
REMARK minimizedAffinity -4.49319983
REMARK minimizedRMSD -1
REMARK  0 active torsions:
REMARK  status: ('A' for Active; 'I' for Inactive)
ROOT
ATOM      1  C1  BNZ d   1       0.301   0.801   3.071  0.00  0.00     0.000 A 
ATOM      2  C2  BNZ d   1       0.999   0.452   1.946  0.00  0.00     0.000 A 
ATOM      3  C3  BNZ d   1       0.348   0.157   0.781  0.00  0.00     0.000 A 
ATOM      4  C4  BNZ d   1      -1.000   0.171   0.753  0.00  0.00     0.000 A 
ATOM      5  C5  BNZ d   1      -1.719   0.511   1.882  0.00  0.00     0.000 A 
ATOM      6  C6  BNZ d   1      -1.059   0.846   3.042  0.00  0.00     0.000 A 
ENDROOT
TORSDOF 0
ENDMDL
