MODEL 1
REMARK minimizedAffinity -4.2127614
REMARK minimizedRMSD -1
REMARK  0 active torsions:
REMARK  status: ('A' for Active; 'I' for Inactive)
ROOT
ATOM      1  C1  BNZ d   1       0.445   0.311   0.497  0.00  0.00     0.000 A 
ATOM      2  C2  BNZ d   1       0.433   0.647   1.824  0.00  0.00     0.000 A 
ATOM      3  C3  BNZ d   1      -0.739   0.951   2.459  0.00  0.00     0.000 A 
ATOM      4  C4  BNZ d   1      -1.890   0.958   1.757  0.00  0.00     0.000 A 
ATOM      5  C5  BNZ d   1      -1.893   0.630   0.415  0.00  0.00     0.000 A 
ATOM      6  C6  BNZ d   1      -0.717   0.287  -0.210  0.00  0.00     0.000 A 
ENDROOT
TORSDOF 0
ENDMDL
