MODEL 1
REMARK minimizedAffinity -3.48189139
REMARK minimizedRMSD -1
REMARK  0 active torsions:
REMARK  status: ('A' for Active; 'I' for Inactive)
ROOT
ATOM      1  C1  BNZ d   1       0.591   1.094   1.347  0.00  0.00     0.000 A 
ATOM      2  C2  BNZ d   1       0.426   1.297   2.691  0.00  0.00     0.000 A 
ATOM      3  C3  BNZ d   1      -0.688   0.837   3.337  0.00  0.00     0.000 A 
ATOM      4  C4  BNZ d   1      -1.653   0.212   2.632  0.00  0.00     0.000 A 
ATOM      5  C5  BNZ d   1      -1.505   0.008   1.274  0.00  0.00     0.000 A 
ATOM      6  C6  BNZ d   1      -0.365   0.437   0.635  0.00  0.00     0.000 A 
ENDROOT
TORSDOF 0
ENDMDL
