MODEL 1
REMARK minimizedAffinity -3.73741317
REMARK minimizedRMSD -1
REMARK  0 active torsions:
REMARK  status: ('A' for Active; 'I' for Inactive)
ROOT
ATOM      1  C1  BNZ d   1       0.036   1.678   2.729  0.00  0.00     0.000 A 
ATOM      2  C2  BNZ d   1      -1.048   1.019   3.245  0.00  0.00     0.000 A 
ATOM      3  C3  BNZ d   1      -1.723   0.092   2.502  0.00  0.00     0.000 A 
ATOM      4  C4  BNZ d   1      -1.338  -0.146   1.231  0.00  0.00     0.000 A 
ATOM      5  C5  BNZ d   1      -0.253   0.516   0.693  0.00  0.00     0.000 A 
ATOM      6  C6  BNZ d   1       0.448   1.420   1.458  0.00  0.00     0.000 A 
ENDROOT
TORSDOF 0
ENDMDL
