MODEL 1
REMARK minimizedAffinity -4.75637388
REMARK minimizedRMSD -1
REMARK  0 active torsions:
REMARK  status: ('A' for Active; 'I' for Inactive)
ROOT
ATOM      1  C1  BNZ d   1      -0.887   0.309   0.848  0.00  0.00     0.000 A 
ATOM      2  C2  BNZ d   1      -1.352   0.745   2.060  0.00  0.00     0.000 A 
ATOM      3  C3  BNZ d   1      -0.533   0.778   3.153  0.00  0.00     0.000 A 
ATOM      4  C4  BNZ d   1       0.737   0.338   3.043  0.00  0.00     0.000 A 
ATOM      5  C5  BNZ d   1       1.218  -0.113   1.830  0.00  0.00     0.000 A 
ATOM      6  C6  BNZ d   1       0.402  -0.108   0.723  0.00  0.00     0.000 A 
ENDROOT
TORSDOF 0
ENDMDL
