MODEL 1
REMARK minimizedAffinity -4.28166151
REMARK minimizedRMSD -1
REMARK  0 active torsions:
REMARK  status: ('A' for Active; 'I' for Inactive)
ROOT
ATOM      1  C1  BNZ d   1       0.093   0.286   0.691  0.00  0.00     0.000 A 
ATOM      2  C2  BNZ d   1       0.867   0.108   1.806  0.00  0.00     0.000 A 
ATOM      3  C3  BNZ d   1       0.439   0.537   3.031  0.00  0.00     0.000 A 
ATOM      4  C4  BNZ d   1      -0.743   1.179   3.133  0.00  0.00     0.000 A 
ATOM      5  C5  BNZ d   1      -1.531   1.374   2.016  0.00  0.00     0.000 A 
ATOM      6  C6  BNZ d   1      -1.115   0.906   0.791  0.00  0.00     0.000 A 
ENDROOT
TORSDOF 0
ENDMDL
