MODEL 1
REMARK minimizedAffinity -4.93018055
REMARK minimizedRMSD -1
REMARK  0 active torsions:
REMARK  status: ('A' for Active; 'I' for Inactive)
ROOT
ATOM      1  C1  BNZ d   1      -0.299   0.733   1.066  0.00  0.00     0.000 A 
ATOM      2  C2  BNZ d   1       0.933   0.137   1.090  0.00  0.00     0.000 A 
ATOM      3  C3  BNZ d   1       1.668   0.095   2.242  0.00  0.00     0.000 A 
ATOM      4  C4  BNZ d   1       1.187   0.682   3.357  0.00  0.00     0.000 A 
ATOM      5  C5  BNZ d   1      -0.050   1.296   3.346  0.00  0.00     0.000 A 
ATOM      6  C6  BNZ d   1      -0.803   1.302   2.195  0.00  0.00     0.000 A 
ENDROOT
TORSDOF 0
ENDMDL
