MODEL 1
REMARK minimizedAffinity -4.07126188
REMARK minimizedRMSD -1
REMARK  0 active torsions:
REMARK  status: ('A' for Active; 'I' for Inactive)
ROOT
ATOM      1  C1  BNZ d   1       0.136   0.107   0.644  0.00  0.00     0.000 A 
ATOM      2  C2  BNZ d   1       1.126  -0.221   1.532  0.00  0.00     0.000 A 
ATOM      3  C3  BNZ d   1       0.956  -0.023   2.874  0.00  0.00     0.000 A 
ATOM      4  C4  BNZ d   1      -0.185   0.538   3.322  0.00  0.00     0.000 A 
ATOM      5  C5  BNZ d   1      -1.189   0.882   2.438  0.00  0.00     0.000 A 
ATOM      6  C6  BNZ d   1      -1.030   0.646   1.092  0.00  0.00     0.000 A 
ENDROOT
TORSDOF 0
ENDMDL
