MODEL 1
REMARK minimizedAffinity -1.68221474
REMARK minimizedRMSD -1
REMARK  0 active torsions:
REMARK  status: ('A' for Active; 'I' for Inactive)
ROOT
ATOM      1  C1  DEN d   1      -1.016   1.400   0.450  0.00  0.00     0.130 A 
ATOM      2  C2  DEN d   1      -0.597   1.903   1.755  0.00  0.00    -0.031 A 
ATOM      3  C3  DEN d   1       0.654   1.212   2.130  0.00  0.00     0.027 A 
ATOM      4  C4  DEN d   1       1.977  -0.573   0.821  0.00  0.00     0.027 A 
ATOM      5  C5  DEN d   1       2.007  -1.327  -0.331  0.00  0.00    -0.003 A 
ATOM      6  C6  DEN d   1       1.022  -1.251  -1.280  0.00  0.00     0.001 A 
ATOM      7  C7  DEN d   1      -0.013  -0.368  -1.115  0.00  0.00     0.017 A 
ATOM      8  C8  DEN d   1      -0.054   0.390   0.047  0.00  0.00    -0.094 A 
ATOM      9  C9  DEN d   1       0.958   0.308   0.989  0.00  0.00    -0.072 A 
ENDROOT
TORSDOF 0
ENDMDL
