MODEL 1
REMARK minimizedAffinity -4.13488293
REMARK minimizedRMSD -1
REMARK  0 active torsions:
REMARK  status: ('A' for Active; 'I' for Inactive)
ROOT
ATOM      1  C1  DEN d   1      -2.212   0.643   1.966  0.00  0.00     0.130 A 
ATOM      2  C2  DEN d   1      -1.463   1.363   2.992  0.00  0.00    -0.031 A 
ATOM      3  C3  DEN d   1      -0.044   1.392   2.586  0.00  0.00     0.027 A 
ATOM      4  C4  DEN d   1       1.061   0.401   0.477  0.00  0.00     0.027 A 
ATOM      5  C5  DEN d   1       0.834  -0.311  -0.681  0.00  0.00    -0.003 A 
ATOM      6  C6  DEN d   1      -0.408  -0.780  -1.017  0.00  0.00     0.001 A 
ATOM      7  C7  DEN d   1      -1.480  -0.504  -0.210  0.00  0.00     0.017 A 
ATOM      8  C8  DEN d   1      -1.257   0.207   0.963  0.00  0.00    -0.094 A 
ATOM      9  C9  DEN d   1       0.003   0.683   1.279  0.00  0.00    -0.072 A 
ENDROOT
TORSDOF 0
ENDMDL
