MODEL 1
REMARK minimizedAffinity -3.15341687
REMARK minimizedRMSD -1
REMARK  0 active torsions:
REMARK  status: ('A' for Active; 'I' for Inactive)
ROOT
ATOM      1  C1  DEN d   1       0.182   1.537   2.163  0.00  0.00     0.130 A 
ATOM      2  C2  DEN d   1      -0.924   1.152   3.036  0.00  0.00    -0.031 A 
ATOM      3  C3  DEN d   1      -1.743   0.152   2.322  0.00  0.00     0.027 A 
ATOM      4  C4  DEN d   1      -1.404  -0.837  -0.036  0.00  0.00     0.027 A 
ATOM      5  C5  DEN d   1      -0.611  -0.810  -1.162  0.00  0.00    -0.003 A 
ATOM      6  C6  DEN d   1       0.474   0.020  -1.270  0.00  0.00     0.001 A 
ATOM      7  C7  DEN d   1       0.821   0.824  -0.217  0.00  0.00     0.017 A 
ATOM      8  C8  DEN d   1       0.022   0.807   0.918  0.00  0.00    -0.094 A 
ATOM      9  C9  DEN d   1      -1.063  -0.047   1.013  0.00  0.00    -0.072 A 
ENDROOT
TORSDOF 0
ENDMDL
