MODEL 1
REMARK minimizedAffinity -4.63893747
REMARK minimizedRMSD -1
REMARK  0 active torsions:
REMARK  status: ('A' for Active; 'I' for Inactive)
ROOT
ATOM      1  C1  DEN d   1      -0.274  -1.553  -0.792  0.00  0.00     0.130 A 
ATOM      2  C2  DEN d   1       0.354  -0.548   0.063  0.00  0.00    -0.031 A 
ATOM      3  C3  DEN d   1       0.783   0.576  -0.793  0.00  0.00     0.027 A 
ATOM      4  C4  DEN d   1       0.534   0.860  -3.345  0.00  0.00     0.027 A 
ATOM      5  C5  DEN d   1       0.077   0.266  -4.501  0.00  0.00    -0.003 A 
ATOM      6  C6  DEN d   1      -0.493  -0.979  -4.506  0.00  0.00     0.001 A 
ATOM      7  C7  DEN d   1      -0.663  -1.653  -3.326  0.00  0.00     0.017 A 
ATOM      8  C8  DEN d   1      -0.198  -1.065  -2.157  0.00  0.00    -0.094 A 
ATOM      9  C9  DEN d   1       0.364   0.200  -2.171  0.00  0.00    -0.072 A 
ENDROOT
TORSDOF 0
ENDMDL
