MODEL 1
REMARK minimizedAffinity 9.85002136
REMARK minimizedRMSD -1
REMARK  0 active torsions:
REMARK  status: ('A' for Active; 'I' for Inactive)
ROOT
ATOM      1  C1  DEN d   1       1.615  -1.224  -0.710  0.00  0.00     0.130 A 
ATOM      2  C2  DEN d   1       2.723  -1.997  -0.157  0.00  0.00    -0.031 A 
ATOM      3  C3  DEN d   1       3.899  -1.795  -1.028  0.00  0.00     0.027 A 
ATOM      4  C4  DEN d   1       4.110  -0.364  -3.163  0.00  0.00     0.027 A 
ATOM      5  C5  DEN d   1       3.433   0.466  -4.030  0.00  0.00    -0.003 A 
ATOM      6  C6  DEN d   1       2.105   0.761  -3.871  0.00  0.00     0.001 A 
ATOM      7  C7  DEN d   1       1.422   0.258  -2.795  0.00  0.00     0.017 A 
ATOM      8  C8  DEN d   1       2.096  -0.585  -1.921  0.00  0.00    -0.094 A 
ATOM      9  C9  DEN d   1       3.442  -0.862  -2.092  0.00  0.00    -0.072 A 
ENDROOT
TORSDOF 0
ENDMDL
