MODEL 1
REMARK minimizedAffinity 7.42519093
REMARK minimizedRMSD -1
REMARK  0 active torsions:
REMARK  status: ('A' for Active; 'I' for Inactive)
ROOT
ATOM      1  C1  DEN d   1      -0.629   1.475   1.769  0.00  0.00     0.130 A 
ATOM      2  C2  DEN d   1      -0.278   2.082   3.050  0.00  0.00    -0.031 A 
ATOM      3  C3  DEN d   1      -0.972   1.332   4.116  0.00  0.00     0.027 A 
ATOM      4  C4  DEN d   1      -2.545  -0.702   3.909  0.00  0.00     0.027 A 
ATOM      5  C5  DEN d   1      -3.151  -1.567   3.025  0.00  0.00    -0.003 A 
ATOM      6  C6  DEN d   1      -2.987  -1.458   1.669  0.00  0.00     0.001 A 
ATOM      7  C7  DEN d   1      -2.162  -0.490   1.160  0.00  0.00     0.017 A 
ATOM      8  C8  DEN d   1      -1.553   0.390   2.045  0.00  0.00    -0.094 A 
ATOM      9  C9  DEN d   1      -1.721   0.256   3.413  0.00  0.00    -0.072 A 
ENDROOT
TORSDOF 0
ENDMDL
