MODEL 1
REMARK minimizedAffinity 5.54399443
REMARK minimizedRMSD -1
REMARK  0 active torsions:
REMARK  status: ('A' for Active; 'I' for Inactive)
ROOT
ATOM      1  C1  DEN d   1       2.595   0.225  -4.560  0.00  0.00     0.130 A 
ATOM      2  C2  DEN d   1       2.102   0.648  -3.251  0.00  0.00    -0.031 A 
ATOM      3  C3  DEN d   1       3.025   0.122  -2.225  0.00  0.00     0.027 A 
ATOM      4  C4  DEN d   1       5.159  -1.293  -2.533  0.00  0.00     0.027 A 
ATOM      5  C5  DEN d   1       5.973  -1.910  -3.457  0.00  0.00    -0.003 A 
ATOM      6  C6  DEN d   1       5.702  -1.887  -4.799  0.00  0.00     0.001 A 
ATOM      7  C7  DEN d   1       4.613  -1.196  -5.260  0.00  0.00     0.017 A 
ATOM      8  C8  DEN d   1       3.783  -0.578  -4.334  0.00  0.00    -0.094 A 
ATOM      9  C9  DEN d   1       4.081  -0.602  -2.982  0.00  0.00    -0.072 A 
ENDROOT
TORSDOF 0
ENDMDL
