MODEL 1
REMARK minimizedAffinity 0.64888078
REMARK minimizedRMSD -1
REMARK  0 active torsions:
REMARK  status: ('A' for Active; 'I' for Inactive)
ROOT
ATOM      1  C   UNL d   1       4.975   2.240  -2.658  0.00  0.00     0.078 C 
ATOM      2  C1  UNL d   1       4.073   1.609  -1.640  0.00  0.00    -0.077 A 
ATOM      3  C2  UNL d   1       2.979   0.828  -2.030  0.00  0.00    -0.001 A 
ATOM      4  C3  UNL d   1       2.142   0.255  -1.071  0.00  0.00     0.003 A 
ATOM      5  C4  UNL d   1       2.390   0.458   0.285  0.00  0.00    -0.005 A 
ATOM      6  C5  UNL d   1       3.475   1.236   0.683  0.00  0.00     0.003 A 
ATOM      7  C6  UNL d   1       4.313   1.810  -0.274  0.00  0.00    -0.001 A 
ENDROOT
TORSDOF 0
ENDMDL
