MODEL 1
REMARK minimizedAffinity 4.77180004
REMARK minimizedRMSD -1
REMARK  0 active torsions:
REMARK  status: ('A' for Active; 'I' for Inactive)
ROOT
ATOM      1  C   UNL d   1      -0.211   3.725   0.412  0.00  0.00     0.078 C 
ATOM      2  C1  UNL d   1       0.605   2.514   0.073  0.00  0.00    -0.077 A 
ATOM      3  C2  UNL d   1       0.174   1.602  -0.899  0.00  0.00    -0.001 A 
ATOM      4  C3  UNL d   1       0.940   0.474  -1.197  0.00  0.00     0.003 A 
ATOM      5  C4  UNL d   1       2.140   0.245  -0.527  0.00  0.00    -0.005 A 
ATOM      6  C5  UNL d   1       2.576   1.145   0.443  0.00  0.00     0.003 A 
ATOM      7  C6  UNL d   1       1.812   2.275   0.743  0.00  0.00    -0.001 A 
ENDROOT
TORSDOF 0
ENDMDL
