MODEL 1
REMARK minimizedAffinity -0.314105392
REMARK minimizedRMSD -1
REMARK  0 active torsions:
REMARK  status: ('A' for Active; 'I' for Inactive)
ROOT
ATOM      1  C   UNL d   1       6.000   2.399  -3.231  0.00  0.00     0.078 C 
ATOM      2  C1  UNL d   1       5.100   1.535  -2.398  0.00  0.00    -0.077 A 
ATOM      3  C2  UNL d   1       4.140   0.708  -2.994  0.00  0.00    -0.001 A 
ATOM      4  C3  UNL d   1       3.302  -0.083  -2.206  0.00  0.00     0.003 A 
ATOM      5  C4  UNL d   1       3.415  -0.054  -0.818  0.00  0.00    -0.005 A 
ATOM      6  C5  UNL d   1       4.366   0.767  -0.215  0.00  0.00     0.003 A 
ATOM      7  C6  UNL d   1       5.204   1.559  -1.001  0.00  0.00    -0.001 A 
ENDROOT
TORSDOF 0
ENDMDL
