MODEL 1
REMARK minimizedAffinity 2.95226407
REMARK minimizedRMSD -1
REMARK  0 active torsions:
REMARK  status: ('A' for Active; 'I' for Inactive)
ROOT
ATOM      1  C   UNL d   1       5.481   2.380  -2.603  0.00  0.00     0.078 C 
ATOM      2  C1  UNL d   1       4.555   1.559  -1.756  0.00  0.00    -0.077 A 
ATOM      3  C2  UNL d   1       3.579   0.741  -2.339  0.00  0.00    -0.001 A 
ATOM      4  C3  UNL d   1       2.718  -0.011  -1.538  0.00  0.00     0.003 A 
ATOM      5  C4  UNL d   1       2.823   0.048  -0.150  0.00  0.00    -0.005 A 
ATOM      6  C5  UNL d   1       3.790   0.861   0.439  0.00  0.00     0.003 A 
ATOM      7  C6  UNL d   1       4.652   1.614  -0.360  0.00  0.00    -0.001 A 
ENDROOT
TORSDOF 0
ENDMDL
