MODEL 1
REMARK minimizedAffinity -4.89313221
REMARK minimizedRMSD -1
REMARK  0 active torsions:
REMARK  status: ('A' for Active; 'I' for Inactive)
ROOT
ATOM      1  C   UNL d   1      -2.531   0.699  -2.779  0.00  0.00     0.078 C 
ATOM      2  C1  UNL d   1      -3.733   0.773  -3.673  0.00  0.00    -0.077 A 
ATOM      3  C2  UNL d   1      -3.743   1.604  -4.800  0.00  0.00    -0.001 A 
ATOM      4  C3  UNL d   1      -4.872   1.671  -5.618  0.00  0.00     0.003 A 
ATOM      5  C4  UNL d   1      -6.000   0.911  -5.317  0.00  0.00    -0.005 A 
ATOM      6  C5  UNL d   1      -6.000   0.082  -4.197  0.00  0.00     0.003 A 
ATOM      7  C6  UNL d   1      -4.872   0.014  -3.378  0.00  0.00    -0.001 A 
ENDROOT
TORSDOF 0
ENDMDL
