MODEL 1
REMARK minimizedAffinity 6.29870987
REMARK minimizedRMSD -1
REMARK  0 active torsions:
REMARK  status: ('A' for Active; 'I' for Inactive)
ROOT
ATOM      1  C   UNL d   1       5.430   2.142  -2.700  0.00  0.00     0.078 C 
ATOM      2  C1  UNL d   1       4.452   1.455  -1.795  0.00  0.00    -0.077 A 
ATOM      3  C2  UNL d   1       3.406   0.683  -2.316  0.00  0.00    -0.001 A 
ATOM      4  C3  UNL d   1       2.497   0.057  -1.462  0.00  0.00     0.003 A 
ATOM      5  C4  UNL d   1       2.623   0.198  -0.082  0.00  0.00    -0.005 A 
ATOM      6  C5  UNL d   1       3.659   0.965   0.446  0.00  0.00     0.003 A 
ATOM      7  C6  UNL d   1       4.569   1.592  -0.406  0.00  0.00    -0.001 A 
ENDROOT
TORSDOF 0
ENDMDL
