MODEL 1
REMARK minimizedAffinity 4.87278795
REMARK minimizedRMSD -1
REMARK  0 active torsions:
REMARK  status: ('A' for Active; 'I' for Inactive)
ROOT
ATOM      1  C   UNL d   1       5.865   2.348  -3.040  0.00  0.00     0.078 C 
ATOM      2  C1  UNL d   1       4.897   1.623  -2.153  0.00  0.00    -0.077 A 
ATOM      3  C2  UNL d   1       3.813   0.919  -2.693  0.00  0.00    -0.001 A 
ATOM      4  C3  UNL d   1       2.914   0.257  -1.855  0.00  0.00     0.003 A 
ATOM      5  C4  UNL d   1       3.089   0.293  -0.473  0.00  0.00    -0.005 A 
ATOM      6  C5  UNL d   1       4.163   0.993   0.073  0.00  0.00     0.003 A 
ATOM      7  C6  UNL d   1       5.063   1.656  -0.763  0.00  0.00    -0.001 A 
ENDROOT
TORSDOF 0
ENDMDL
