MODEL 1
REMARK minimizedAffinity 7.72993517
REMARK minimizedRMSD -1
REMARK  0 active torsions:
REMARK  status: ('A' for Active; 'I' for Inactive)
ROOT
ATOM      1  C   UNL d   1      -1.076   1.846  -0.732  0.00  0.00     0.078 C 
ATOM      2  C1  UNL d   1      -0.802   3.031   0.144  0.00  0.00    -0.077 A 
ATOM      3  C2  UNL d   1      -1.493   4.236  -0.036  0.00  0.00    -0.001 A 
ATOM      4  C3  UNL d   1      -1.221   5.335   0.781  0.00  0.00     0.003 A 
ATOM      5  C4  UNL d   1      -0.257   5.240   1.783  0.00  0.00    -0.005 A 
ATOM      6  C5  UNL d   1       0.437   4.046   1.969  0.00  0.00     0.003 A 
ATOM      7  C6  UNL d   1       0.166   2.946   1.153  0.00  0.00    -0.001 A 
ENDROOT
TORSDOF 0
ENDMDL
