MODEL 1
REMARK minimizedAffinity 2.4143827
REMARK minimizedRMSD -1
REMARK  0 active torsions:
REMARK  status: ('A' for Active; 'I' for Inactive)
ROOT
ATOM      1  C   UNL d   1       2.190   0.867  -0.097  0.00  0.00     0.078 C 
ATOM      2  C1  UNL d   1       0.971   1.717   0.098  0.00  0.00    -0.077 A 
ATOM      3  C2  UNL d   1      -0.078   1.697  -0.829  0.00  0.00    -0.001 A 
ATOM      4  C3  UNL d   1      -1.203   2.501  -0.640  0.00  0.00     0.003 A 
ATOM      5  C4  UNL d   1      -1.290   3.332   0.476  0.00  0.00    -0.005 A 
ATOM      6  C5  UNL d   1      -0.250   3.361   1.403  0.00  0.00     0.003 A 
ATOM      7  C6  UNL d   1       0.876   2.557   1.215  0.00  0.00    -0.001 A 
ENDROOT
TORSDOF 0
ENDMDL
