MODEL 1
REMARK minimizedAffinity -2.57580829
REMARK minimizedRMSD -1
REMARK  0 active torsions:
REMARK  status: ('A' for Active; 'I' for Inactive)
ROOT
ATOM      1  O1  BZF d   1      -0.188   2.025   0.298  0.00  0.00    -0.204 OA
ATOM      2  C2  BZF d   1       0.803   2.419   1.176  0.00  0.00     0.174 A 
ATOM      3  C3  BZF d   1       1.655   1.402   1.423  0.00  0.00    -0.012 A 
ATOM      4  C3A BZF d   1       1.218   0.332   0.579  0.00  0.00    -0.107 A 
ATOM      5  C4  BZF d   1       1.672  -0.937   0.363  0.00  0.00     0.055 A 
ATOM      6  C5  BZF d   1       0.976  -1.754  -0.472  0.00  0.00    -0.016 A 
ATOM      7  C6  BZF d   1      -0.178  -1.336  -1.101  0.00  0.00     0.022 A 
ATOM      8  C7  BZF d   1      -0.664  -0.083  -0.922  0.00  0.00     0.029 A 
ATOM      9  C7A BZF d   1       0.055   0.755  -0.105  0.00  0.00     0.058 A 
ENDROOT
TORSDOF 0
ENDMDL
