MODEL 1
REMARK minimizedAffinity 1.81470788
REMARK minimizedRMSD -1
REMARK  0 active torsions:
REMARK  status: ('A' for Active; 'I' for Inactive)
ROOT
ATOM      1  O1  BZF d   1      -0.381   1.527  -0.462  0.00  0.00    -0.204 OA
ATOM      2  C2  BZF d   1       0.656   2.149   0.207  0.00  0.00     0.174 A 
ATOM      3  C3  BZF d   1       1.617   1.260   0.532  0.00  0.00    -0.012 A 
ATOM      4  C3A BZF d   1       1.195   0.021  -0.046  0.00  0.00    -0.107 A 
ATOM      5  C4  BZF d   1       1.737  -1.232  -0.081  0.00  0.00     0.055 A 
ATOM      6  C5  BZF d   1       1.036  -2.239  -0.665  0.00  0.00    -0.016 A 
ATOM      7  C6  BZF d   1      -0.210  -2.030  -1.219  0.00  0.00     0.022 A 
ATOM      8  C7  BZF d   1      -0.786  -0.803  -1.213  0.00  0.00     0.029 A 
ATOM      9  C7A BZF d   1      -0.066   0.223  -0.653  0.00  0.00     0.058 A 
ENDROOT
TORSDOF 0
ENDMDL
