MODEL 1
REMARK minimizedAffinity 9.31992531
REMARK minimizedRMSD -1
REMARK  0 active torsions:
REMARK  status: ('A' for Active; 'I' for Inactive)
ROOT
ATOM      1  O1  BZF d   1       0.840   0.410   0.442  0.00  0.00    -0.204 OA
ATOM      2  C2  BZF d   1       0.937  -0.886  -0.026  0.00  0.00     0.174 A 
ATOM      3  C3  BZF d   1       1.211  -1.739   0.981  0.00  0.00    -0.012 A 
ATOM      4  C3A BZF d   1       1.200  -0.938   2.167  0.00  0.00    -0.107 A 
ATOM      5  C4  BZF d   1       1.390  -1.217   3.490  0.00  0.00     0.055 A 
ATOM      6  C5  BZF d   1       1.386  -0.196   4.387  0.00  0.00    -0.016 A 
ATOM      7  C6  BZF d   1       1.201   1.114   3.996  0.00  0.00     0.022 A 
ATOM      8  C7  BZF d   1       1.004   1.439   2.695  0.00  0.00     0.029 A 
ATOM      9  C7A BZF d   1       0.974   0.406   1.790  0.00  0.00     0.058 A 
ENDROOT
TORSDOF 0
ENDMDL
