MODEL 1
REMARK minimizedAffinity 4.67288017
REMARK minimizedRMSD -1
REMARK  0 active torsions:
REMARK  status: ('A' for Active; 'I' for Inactive)
ROOT
ATOM      1  O1  BZF d   1       2.852  -0.638  -0.421  0.00  0.00    -0.204 OA
ATOM      2  C2  BZF d   1       3.355  -1.923  -0.491  0.00  0.00     0.174 A 
ATOM      3  C3  BZF d   1       2.356  -2.828  -0.503  0.00  0.00    -0.012 A 
ATOM      4  C3A BZF d   1       1.151  -2.058  -0.530  0.00  0.00    -0.107 A 
ATOM      5  C4  BZF d   1      -0.174  -2.388  -0.566  0.00  0.00     0.055 A 
ATOM      6  C5  BZF d   1      -1.103  -1.398  -0.510  0.00  0.00    -0.016 A 
ATOM      7  C6  BZF d   1      -0.744  -0.070  -0.411  0.00  0.00     0.022 A 
ATOM      8  C7  BZF d   1       0.557   0.307  -0.377  0.00  0.00     0.029 A 
ATOM      9  C7A BZF d   1       1.499  -0.689  -0.467  0.00  0.00     0.058 A 
ENDROOT
TORSDOF 0
ENDMDL
