MODEL 1
REMARK minimizedAffinity 8.82153797
REMARK minimizedRMSD -1
REMARK  0 active torsions:
REMARK  status: ('A' for Active; 'I' for Inactive)
ROOT
ATOM      1  O1  BZF d   1      -0.461  -3.010  -1.047  0.00  0.00    -0.204 OA
ATOM      2  C2  BZF d   1       0.416  -3.599  -0.157  0.00  0.00     0.174 A 
ATOM      3  C3  BZF d   1       1.058  -2.663   0.571  0.00  0.00    -0.012 A 
ATOM      4  C3A BZF d   1       0.482  -1.415   0.172  0.00  0.00    -0.107 A 
ATOM      5  C4  BZF d   1       0.692  -0.120   0.552  0.00  0.00     0.055 A 
ATOM      6  C5  BZF d   1       0.016   0.872  -0.085  0.00  0.00    -0.016 A 
ATOM      7  C6  BZF d   1      -0.871   0.607  -1.107  0.00  0.00     0.022 A 
ATOM      8  C7  BZF d   1      -1.116  -0.662  -1.515  0.00  0.00     0.029 A 
ATOM      9  C7A BZF d   1      -0.460  -1.670  -0.851  0.00  0.00     0.058 A 
ENDROOT
TORSDOF 0
ENDMDL
