MODEL 1
REMARK minimizedAffinity 8.86948681
REMARK minimizedRMSD -1
REMARK  0 active torsions:
REMARK  status: ('A' for Active; 'I' for Inactive)
ROOT
ATOM      1  O1  BZF d   1      -1.643  -1.212  -3.245  0.00  0.00    -0.204 OA
ATOM      2  C2  BZF d   1      -1.549  -2.406  -3.933  0.00  0.00     0.174 A 
ATOM      3  C3  BZF d   1      -0.836  -3.309  -3.229  0.00  0.00    -0.012 A 
ATOM      4  C3A BZF d   1      -0.538  -2.666  -1.986  0.00  0.00    -0.107 A 
ATOM      5  C4  BZF d   1       0.132  -3.059  -0.863  0.00  0.00     0.055 A 
ATOM      6  C5  BZF d   1       0.309  -2.168   0.147  0.00  0.00    -0.016 A 
ATOM      7  C6  BZF d   1      -0.166  -0.875   0.065  0.00  0.00     0.022 A 
ATOM      8  C7  BZF d   1      -0.841  -0.441  -1.026  0.00  0.00     0.029 A 
ATOM      9  C7A BZF d   1      -1.050  -1.349  -2.035  0.00  0.00     0.058 A 
ENDROOT
TORSDOF 0
ENDMDL
