MODEL 1
REMARK minimizedAffinity 4.03663874
REMARK minimizedRMSD -1
REMARK  0 active torsions:
REMARK  status: ('A' for Active; 'I' for Inactive)
ROOT
ATOM      1  O1  BZF d   1       2.934  -1.593  -1.410  0.00  0.00    -0.204 OA
ATOM      2  C2  BZF d   1       1.805  -2.274  -0.997  0.00  0.00     0.174 A 
ATOM      3  C3  BZF d   1       1.117  -1.553  -0.088  0.00  0.00    -0.012 A 
ATOM      4  C3A BZF d   1       1.812  -0.307   0.008  0.00  0.00    -0.107 A 
ATOM      5  C4  BZF d   1       1.604   0.831   0.735  0.00  0.00     0.055 A 
ATOM      6  C5  BZF d   1       2.510   1.841   0.654  0.00  0.00    -0.016 A 
ATOM      7  C6  BZF d   1       3.635   1.745  -0.138  0.00  0.00     0.022 A 
ATOM      8  C7  BZF d   1       3.882   0.639  -0.881  0.00  0.00     0.029 A 
ATOM      9  C7A BZF d   1       2.952  -0.370  -0.827  0.00  0.00     0.058 A 
ENDROOT
TORSDOF 0
ENDMDL
