MODEL 1
REMARK minimizedAffinity 7.67495918
REMARK minimizedRMSD -1
REMARK  0 active torsions:
REMARK  status: ('A' for Active; 'I' for Inactive)
ROOT
ATOM      1  O1  BZF d   1      -0.213   1.347  -0.291  0.00  0.00    -0.204 OA
ATOM      2  C2  BZF d   1       0.917   1.641   0.447  0.00  0.00     0.174 A 
ATOM      3  C3  BZF d   1       1.534   0.510   0.847  0.00  0.00    -0.012 A 
ATOM      4  C3A BZF d   1       0.792  -0.556   0.248  0.00  0.00    -0.107 A 
ATOM      5  C4  BZF d   1       0.924  -1.915   0.260  0.00  0.00     0.055 A 
ATOM      6  C5  BZF d   1      -0.011  -2.676  -0.368  0.00  0.00    -0.016 A 
ATOM      7  C6  BZF d   1      -1.092  -2.112  -1.012  0.00  0.00     0.022 A 
ATOM      8  C7  BZF d   1      -1.263  -0.768  -1.056  0.00  0.00     0.029 A 
ATOM      9  C7A BZF d   1      -0.302   0.005  -0.451  0.00  0.00     0.058 A 
ENDROOT
TORSDOF 0
ENDMDL
