MODEL 1
REMARK minimizedAffinity 5.11608601
REMARK minimizedRMSD -1
REMARK  0 active torsions:
REMARK  status: ('A' for Active; 'I' for Inactive)
ROOT
ATOM      1  O1  BZF d   1      -0.388   0.753  -0.961  0.00  0.00    -0.204 OA
ATOM      2  C2  BZF d   1       0.697   1.420  -0.424  0.00  0.00     0.174 A 
ATOM      3  C3  BZF d   1       1.672   0.552  -0.085  0.00  0.00    -0.012 A 
ATOM      4  C3A BZF d   1       1.202  -0.729  -0.515  0.00  0.00    -0.107 A 
ATOM      5  C4  BZF d   1       1.731  -1.987  -0.471  0.00  0.00     0.055 A 
ATOM      6  C5  BZF d   1       0.985  -3.034  -0.910  0.00  0.00    -0.016 A 
ATOM      7  C6  BZF d   1      -0.295  -2.860  -1.395  0.00  0.00     0.022 A 
ATOM      8  C7  BZF d   1      -0.861  -1.631  -1.463  0.00  0.00     0.029 A 
ATOM      9  C7A BZF d   1      -0.097  -0.567  -1.051  0.00  0.00     0.058 A 
ENDROOT
TORSDOF 0
ENDMDL
