MODEL 1
REMARK minimizedAffinity -0.67227608
REMARK minimizedRMSD -1
REMARK  0 active torsions:
REMARK  status: ('A' for Active; 'I' for Inactive)
ROOT
ATOM      1  O1  BZF d   1      -1.661  -0.253  -0.726  0.00  0.00    -0.204 OA
ATOM      2  C2  BZF d   1      -0.299  -0.157  -0.937  0.00  0.00     0.174 A 
ATOM      3  C3  BZF d   1       0.264   0.687  -0.049  0.00  0.00    -0.012 A 
ATOM      4  C3A BZF d   1      -0.798   1.077   0.827  0.00  0.00    -0.107 A 
ATOM      5  C4  BZF d   1      -0.862   1.890   1.921  0.00  0.00     0.055 A 
ATOM      6  C5  BZF d   1      -2.068   2.118   2.506  0.00  0.00    -0.016 A 
ATOM      7  C6  BZF d   1      -3.228   1.552   2.020  0.00  0.00     0.022 A 
ATOM      8  C7  BZF d   1      -3.214   0.734   0.940  0.00  0.00     0.029 A 
ATOM      9  C7A BZF d   1      -1.993   0.476   0.367  0.00  0.00     0.058 A 
ENDROOT
TORSDOF 0
ENDMDL
