MODEL 1
REMARK minimizedAffinity -4.6405468
REMARK minimizedRMSD -1
REMARK  1 active torsions:
REMARK  status: ('A' for Active; 'I' for Inactive)
REMARK    1  A    between atoms: C1_2  and  C2_3 
ROOT
ATOM      1  C2  UNL d   1       0.376  -0.328   0.023  0.00  0.00    -0.081 A 
ATOM      2  C3  UNL d   1       1.678   0.026  -0.349  0.00  0.00     0.006 A 
ATOM      3  C4  UNL d   1       2.292   1.153   0.203  0.00  0.00     0.002 A 
ATOM      4  C5  UNL d   1       1.616   1.940   1.142  0.00  0.00    -0.080 A 
ATOM      5  C6  UNL d   1       2.274   3.135   1.765  0.00  0.00     0.076 C 
ATOM      6  C7  UNL d   1       0.308   1.597   1.501  0.00  0.00     0.002 A 
ATOM      7  C8  UNL d   1      -0.306   0.471   0.949  0.00  0.00     0.006 A 
ENDROOT
BRANCH   1   8
ATOM      8  C1  UNL d   1      -0.264  -1.579  -0.522  0.00  0.00     0.054 C 
ATOM      9  C   UNL d   1      -1.355  -1.248  -1.531  0.00  0.00     0.018 C 
ENDBRANCH   1   8
TORSDOF 1
ENDMDL
