MODEL 1
REMARK minimizedAffinity -2.49284029
REMARK minimizedRMSD -1
REMARK  1 active torsions:
REMARK  status: ('A' for Active; 'I' for Inactive)
REMARK    1  A    between atoms: C1_2  and  C2_3 
ROOT
ATOM      1  C2  UNL d   1       0.695   1.230  -0.240  0.00  0.00    -0.081 A 
ATOM      2  C3  UNL d   1      -0.467   1.572  -0.944  0.00  0.00     0.006 A 
ATOM      3  C4  UNL d   1      -1.291   0.577  -1.476  0.00  0.00     0.002 A 
ATOM      4  C5  UNL d   1      -0.972  -0.774  -1.308  0.00  0.00    -0.080 A 
ATOM      5  C6  UNL d   1      -1.864  -1.852  -1.848  0.00  0.00     0.076 C 
ATOM      6  C7  UNL d   1       0.197  -1.116  -0.619  0.00  0.00     0.002 A 
ATOM      7  C8  UNL d   1       1.022  -0.122  -0.087  0.00  0.00     0.006 A 
ENDROOT
BRANCH   1   8
ATOM      8  C1  UNL d   1       1.551   2.298   0.391  0.00  0.00     0.054 C 
ATOM      9  C   UNL d   1       1.433   2.277   1.908  0.00  0.00     0.018 C 
ENDBRANCH   1   8
TORSDOF 1
ENDMDL
