MODEL 1
REMARK minimizedAffinity -5.99540901
REMARK minimizedRMSD -1
REMARK  1 active torsions:
REMARK  status: ('A' for Active; 'I' for Inactive)
REMARK    1  A    between atoms: C1_2  and  C2_3 
ROOT
ATOM      1  C2  UNL d   1      -0.059  -0.970  -0.265  0.00  0.00    -0.081 A 
ATOM      2  C3  UNL d   1      -0.879  -0.283   0.637  0.00  0.00     0.006 A 
ATOM      3  C4  UNL d   1      -0.455   0.922   1.203  0.00  0.00     0.002 A 
ATOM      4  C5  UNL d   1       0.791   1.463   0.870  0.00  0.00    -0.080 A 
ATOM      5  C6  UNL d   1       1.245   2.771   1.446  0.00  0.00     0.076 C 
ATOM      6  C7  UNL d   1       1.618   0.767  -0.019  0.00  0.00     0.002 A 
ATOM      7  C8  UNL d   1       1.195  -0.438  -0.584  0.00  0.00     0.006 A 
ENDROOT
BRANCH   1   8
ATOM      8  C1  UNL d   1      -0.540  -2.237  -0.926  0.00  0.00     0.054 C 
ATOM      9  C   UNL d   1      -1.618  -1.946  -1.960  0.00  0.00     0.018 C 
ENDBRANCH   1   8
TORSDOF 1
ENDMDL
