MODEL 1
REMARK minimizedAffinity -4.09064913
REMARK minimizedRMSD -1
REMARK  1 active torsions:
REMARK  status: ('A' for Active; 'I' for Inactive)
REMARK    1  A    between atoms: C1_2  and  C2_3 
ROOT
ATOM      1  C2  UNL d   1       2.067   1.714   0.976  0.00  0.00    -0.081 A 
ATOM      2  C3  UNL d   1       3.090   1.019   1.633  0.00  0.00     0.006 A 
ATOM      3  C4  UNL d   1       3.013   0.780   3.007  0.00  0.00     0.002 A 
ATOM      4  C5  UNL d   1       1.910   1.224   3.745  0.00  0.00    -0.080 A 
ATOM      5  C6  UNL d   1       1.801   0.947   5.215  0.00  0.00     0.076 C 
ATOM      6  C7  UNL d   1       0.897   1.933   3.091  0.00  0.00     0.002 A 
ATOM      7  C8  UNL d   1       0.973   2.173   1.717  0.00  0.00     0.006 A 
ENDROOT
BRANCH   1   8
ATOM      8  C1  UNL d   1       2.116   1.917  -0.517  0.00  0.00     0.054 C 
ATOM      9  C   UNL d   1       1.943   0.600  -1.261  0.00  0.00     0.018 C 
ENDBRANCH   1   8
TORSDOF 1
ENDMDL
