MODEL 1
REMARK minimizedAffinity -5.04231167
REMARK minimizedRMSD -1
REMARK  1 active torsions:
REMARK  status: ('A' for Active; 'I' for Inactive)
REMARK    1  A    between atoms: C1_2  and  C2_3 
ROOT
ATOM      1  C2  UNL d   1      -0.123  -0.054  -1.121  0.00  0.00    -0.081 A 
ATOM      2  C3  UNL d   1      -0.763  -0.344   0.090  0.00  0.00     0.006 A 
ATOM      3  C4  UNL d   1      -0.430   0.355   1.253  0.00  0.00     0.002 A 
ATOM      4  C5  UNL d   1       0.542   1.361   1.222  0.00  0.00    -0.080 A 
ATOM      5  C6  UNL d   1       0.888   2.139   2.457  0.00  0.00     0.076 C 
ATOM      6  C7  UNL d   1       1.194   1.639   0.016  0.00  0.00     0.002 A 
ATOM      7  C8  UNL d   1       0.862   0.940  -1.146  0.00  0.00     0.006 A 
ENDROOT
BRANCH   1   8
ATOM      8  C1  UNL d   1      -0.526  -0.761  -2.389  0.00  0.00     0.054 C 
ATOM      9  C   UNL d   1      -2.035  -0.948  -2.463  0.00  0.00     0.018 C 
ENDBRANCH   1   8
TORSDOF 1
ENDMDL
