MODEL 1
REMARK minimizedAffinity -4.78954983
REMARK minimizedRMSD -1
REMARK  1 active torsions:
REMARK  status: ('A' for Active; 'I' for Inactive)
REMARK    1  A    between atoms: C1_2  and  C2_3 
ROOT
ATOM      1  C2  UNL d   1      -0.011  -0.867  -0.199  0.00  0.00    -0.081 A 
ATOM      2  C3  UNL d   1      -0.766   0.102   0.474  0.00  0.00     0.006 A 
ATOM      3  C4  UNL d   1      -0.192   1.321   0.838  0.00  0.00     0.002 A 
ATOM      4  C5  UNL d   1       1.145   1.596   0.529  0.00  0.00    -0.080 A 
ATOM      5  C6  UNL d   1       1.766   2.914   0.888  0.00  0.00     0.076 C 
ATOM      6  C7  UNL d   1       1.905   0.622  -0.127  0.00  0.00     0.002 A 
ATOM      7  C8  UNL d   1       1.331  -0.598  -0.491  0.00  0.00     0.006 A 
ENDROOT
BRANCH   1   8
ATOM      8  C1  UNL d   1      -0.646  -2.157  -0.650  0.00  0.00     0.054 C 
ATOM      9  C   UNL d   1      -1.933  -1.901  -1.421  0.00  0.00     0.018 C 
ENDBRANCH   1   8
TORSDOF 1
ENDMDL
