MODEL 1
REMARK minimizedAffinity -0.344225109
REMARK minimizedRMSD -1
REMARK  1 active torsions:
REMARK  status: ('A' for Active; 'I' for Inactive)
REMARK    1  A    between atoms: C1_2  and  C2_3 
ROOT
ATOM      1  C2  UNL d   1       0.127  -0.378  -0.244  0.00  0.00    -0.081 A 
ATOM      2  C3  UNL d   1       0.064   1.021  -0.285  0.00  0.00     0.006 A 
ATOM      3  C4  UNL d   1       1.195   1.772  -0.612  0.00  0.00     0.002 A 
ATOM      4  C5  UNL d   1       2.406   1.138  -0.910  0.00  0.00    -0.080 A 
ATOM      5  C6  UNL d   1       3.620   1.931  -1.291  0.00  0.00     0.076 C 
ATOM      6  C7  UNL d   1       2.474  -0.258  -0.852  0.00  0.00     0.002 A 
ATOM      7  C8  UNL d   1       1.343  -1.010  -0.525  0.00  0.00     0.006 A 
ENDROOT
BRANCH   1   8
ATOM      8  C1  UNL d   1      -1.108  -1.193   0.044  0.00  0.00     0.054 C 
ATOM      9  C   UNL d   1      -1.916  -1.440  -1.222  0.00  0.00     0.018 C 
ENDBRANCH   1   8
TORSDOF 1
ENDMDL
