MODEL 1
REMARK minimizedAffinity -3.18592763
REMARK minimizedRMSD -1
REMARK  1 active torsions:
REMARK  status: ('A' for Active; 'I' for Inactive)
REMARK    1  A    between atoms: C1_2  and  C2_3 
ROOT
ATOM      1  C2  UNL d   1      -1.030  -0.876  -1.181  0.00  0.00    -0.081 A 
ATOM      2  C3  UNL d   1      -0.746  -1.404   0.085  0.00  0.00     0.006 A 
ATOM      3  C4  UNL d   1      -0.324  -0.569   1.122  0.00  0.00     0.002 A 
ATOM      4  C5  UNL d   1      -0.186   0.807   0.914  0.00  0.00    -0.080 A 
ATOM      5  C6  UNL d   1       0.238   1.718   2.028  0.00  0.00     0.076 C 
ATOM      6  C7  UNL d   1      -0.452   1.333  -0.355  0.00  0.00     0.002 A 
ATOM      7  C8  UNL d   1      -0.873   0.499  -1.393  0.00  0.00     0.006 A 
ENDROOT
BRANCH   1   8
ATOM      8  C1  UNL d   1      -1.547  -1.763  -2.284  0.00  0.00     0.054 C 
ATOM      9  C   UNL d   1      -2.376  -0.974  -3.286  0.00  0.00     0.018 C 
ENDBRANCH   1   8
TORSDOF 1
ENDMDL
