MODEL 1
REMARK minimizedAffinity -4.78763151
REMARK minimizedRMSD -1
REMARK  1 active torsions:
REMARK  status: ('A' for Active; 'I' for Inactive)
REMARK    1  A    between atoms: C1_2  and  C2_3 
ROOT
ATOM      1  C2  UNL d   1      -0.724  -0.704  -0.857  0.00  0.00    -0.081 A 
ATOM      2  C3  UNL d   1       0.426  -1.085  -0.155  0.00  0.00     0.006 A 
ATOM      3  C4  UNL d   1       1.069  -0.181   0.694  0.00  0.00     0.002 A 
ATOM      4  C5  UNL d   1       0.570   1.115   0.861  0.00  0.00    -0.080 A 
ATOM      5  C6  UNL d   1       1.233   2.085   1.793  0.00  0.00     0.076 C 
ATOM      6  C7  UNL d   1      -0.569   1.501   0.146  0.00  0.00     0.002 A 
ATOM      7  C8  UNL d   1      -1.212   0.598  -0.704  0.00  0.00     0.006 A 
ENDROOT
BRANCH   1   8
ATOM      8  C1  UNL d   1      -1.457  -1.696  -1.723  0.00  0.00     0.054 C 
ATOM      9  C   UNL d   1      -1.438  -1.274  -3.185  0.00  0.00     0.018 C 
ENDBRANCH   1   8
TORSDOF 1
ENDMDL
