MODEL 1
REMARK minimizedAffinity -2.80079246
REMARK minimizedRMSD -1
REMARK  1 active torsions:
REMARK  status: ('A' for Active; 'I' for Inactive)
REMARK    1  A    between atoms: C1_2  and  C2_3 
ROOT
ATOM      1  C2  UNL d   1       0.414  -0.353   0.388  0.00  0.00    -0.081 A 
ATOM      2  C3  UNL d   1       1.322   0.259  -0.486  0.00  0.00     0.006 A 
ATOM      3  C4  UNL d   1       1.781   1.554  -0.236  0.00  0.00     0.002 A 
ATOM      4  C5  UNL d   1       1.348   2.255   0.894  0.00  0.00    -0.080 A 
ATOM      5  C6  UNL d   1       1.858   3.635   1.190  0.00  0.00     0.076 C 
ATOM      6  C7  UNL d   1       0.429   1.651   1.758  0.00  0.00     0.002 A 
ATOM      7  C8  UNL d   1      -0.032   0.356   1.508  0.00  0.00     0.006 A 
ENDROOT
BRANCH   1   8
ATOM      8  C1  UNL d   1      -0.034  -1.774   0.157  0.00  0.00     0.054 C 
ATOM      9  C   UNL d   1      -1.286  -1.825  -0.706  0.00  0.00     0.018 C 
ENDBRANCH   1   8
TORSDOF 1
ENDMDL
