MODEL 1
REMARK minimizedAffinity -3.30760169
REMARK minimizedRMSD -1
REMARK  1 active torsions:
REMARK  status: ('A' for Active; 'I' for Inactive)
REMARK    1  A    between atoms: C1_2  and  C2_3 
ROOT
ATOM      1  C2  UNL d   1      -0.840  -1.132  -0.125  0.00  0.00    -0.081 A 
ATOM      2  C3  UNL d   1      -0.859  -0.906   1.256  0.00  0.00     0.006 A 
ATOM      3  C4  UNL d   1      -0.236   0.222   1.798  0.00  0.00     0.002 A 
ATOM      4  C5  UNL d   1       0.409   1.144   0.967  0.00  0.00    -0.080 A 
ATOM      5  C6  UNL d   1       1.055   2.374   1.533  0.00  0.00     0.076 C 
ATOM      6  C7  UNL d   1       0.443   0.909  -0.411  0.00  0.00     0.002 A 
ATOM      7  C8  UNL d   1      -0.179  -0.218  -0.953  0.00  0.00     0.006 A 
ENDROOT
BRANCH   1   8
ATOM      8  C1  UNL d   1      -1.566  -2.313  -0.718  0.00  0.00     0.054 C 
ATOM      9  C   UNL d   1      -2.551  -1.874  -1.792  0.00  0.00     0.018 C 
ENDBRANCH   1   8
TORSDOF 1
ENDMDL
