MODEL 1
REMARK minimizedAffinity -5.0096426
REMARK minimizedRMSD -1
REMARK  1 active torsions:
REMARK  status: ('A' for Active; 'I' for Inactive)
REMARK    1  A    between atoms: C1_2  and  C2_3 
ROOT
ATOM      1  C2  UNL d   1      -0.574  -0.882  -0.311  0.00  0.00    -0.081 A 
ATOM      2  C3  UNL d   1      -1.282  -0.380   0.787  0.00  0.00     0.006 A 
ATOM      3  C4  UNL d   1      -0.818   0.743   1.476  0.00  0.00     0.002 A 
ATOM      4  C5  UNL d   1       0.357   1.387   1.073  0.00  0.00    -0.080 A 
ATOM      5  C6  UNL d   1       0.850   2.612   1.785  0.00  0.00     0.076 C 
ATOM      6  C7  UNL d   1       1.074   0.875  -0.014  0.00  0.00     0.002 A 
ATOM      7  C8  UNL d   1       0.610  -0.248  -0.702  0.00  0.00     0.006 A 
ENDROOT
BRANCH   1   8
ATOM      8  C1  UNL d   1      -1.107  -2.054  -1.096  0.00  0.00     0.054 C 
ATOM      9  C   UNL d   1      -1.746  -1.602  -2.401  0.00  0.00     0.018 C 
ENDBRANCH   1   8
TORSDOF 1
ENDMDL
