MODEL 1
REMARK minimizedAffinity -2.40229559
REMARK minimizedRMSD -1
REMARK  1 active torsions:
REMARK  status: ('A' for Active; 'I' for Inactive)
REMARK    1  A    between atoms: C1_2  and  C2_3 
ROOT
ATOM      1  C2  UNL d   1       1.632   0.629   0.058  0.00  0.00    -0.081 A 
ATOM      2  C3  UNL d   1       1.265   1.902   0.513  0.00  0.00     0.006 A 
ATOM      3  C4  UNL d   1       0.136   2.068   1.319  0.00  0.00     0.002 A 
ATOM      4  C5  UNL d   1      -0.640   0.964   1.689  0.00  0.00    -0.080 A 
ATOM      5  C6  UNL d   1      -1.836   1.125   2.579  0.00  0.00     0.076 C 
ATOM      6  C7  UNL d   1      -0.284  -0.305   1.220  0.00  0.00     0.002 A 
ATOM      7  C8  UNL d   1       0.845  -0.471   0.414  0.00  0.00     0.006 A 
ENDROOT
BRANCH   1   8
ATOM      8  C1  UNL d   1       2.885   0.438  -0.758  0.00  0.00     0.054 C 
ATOM      9  C   UNL d   1       3.332  -1.016  -0.753  0.00  0.00     0.018 C 
ENDBRANCH   1   8
TORSDOF 1
ENDMDL
