MODEL 1
REMARK minimizedAffinity 9.19507217
REMARK minimizedRMSD -1
REMARK  0 active torsions:
REMARK  status: ('A' for Active; 'I' for Inactive)
ROOT
ATOM      1  C   UNL d   1       1.055   1.846   1.981  0.00  0.00     0.077 C 
ATOM      2  C1  UNL d   1       0.085   2.301   0.932  0.00  0.00    -0.074 A 
ATOM      3  C2  UNL d   1      -1.263   2.510   1.242  0.00  0.00    -0.005 A 
ATOM      4  C3  UNL d   1      -2.152   2.942   0.258  0.00  0.00     0.006 A 
ATOM      5  C4  UNL d   1      -1.703   3.169  -1.044  0.00  0.00    -0.005 A 
ATOM      6  C5  UNL d   1      -0.359   2.965  -1.372  0.00  0.00    -0.074 A 
ATOM      7  C6  UNL d   1       0.141   3.213  -2.764  0.00  0.00     0.077 C 
ATOM      8  C7  UNL d   1       0.529   2.538  -0.376  0.00  0.00    -0.001 A 
ENDROOT
TORSDOF 0
ENDMDL
