MODEL 1
REMARK minimizedAffinity 13.737175
REMARK minimizedRMSD -1
REMARK  0 active torsions:
REMARK  status: ('A' for Active; 'I' for Inactive)
ROOT
ATOM      1  C   UNL d   1      -3.807  -0.409  -0.069  0.00  0.00     0.077 C 
ATOM      2  C1  UNL d   1      -3.273   0.506  -1.130  0.00  0.00    -0.074 A 
ATOM      3  C2  UNL d   1      -4.057   0.867  -2.230  0.00  0.00    -0.005 A 
ATOM      4  C3  UNL d   1      -3.550   1.727  -3.204  0.00  0.00     0.006 A 
ATOM      5  C4  UNL d   1      -2.255   2.234  -3.088  0.00  0.00    -0.005 A 
ATOM      6  C5  UNL d   1      -1.456   1.885  -1.995  0.00  0.00    -0.074 A 
ATOM      7  C6  UNL d   1      -0.066   2.428  -1.850  0.00  0.00     0.077 C 
ATOM      8  C7  UNL d   1      -1.975   1.026  -1.017  0.00  0.00    -0.001 A 
ENDROOT
TORSDOF 0
ENDMDL
