MODEL 1
REMARK minimizedAffinity 7.12685919
REMARK minimizedRMSD -1
REMARK  0 active torsions:
REMARK  status: ('A' for Active; 'I' for Inactive)
ROOT
ATOM      1  C   UNL d   1      -0.155   0.898   3.234  0.00  0.00     0.077 C 
ATOM      2  C1  UNL d   1       0.180   1.955   2.224  0.00  0.00    -0.074 A 
ATOM      3  C2  UNL d   1       1.114   2.955   2.513  0.00  0.00    -0.005 A 
ATOM      4  C3  UNL d   1       1.422   3.926   1.561  0.00  0.00     0.006 A 
ATOM      5  C4  UNL d   1       0.800   3.908   0.312  0.00  0.00    -0.005 A 
ATOM      6  C5  UNL d   1      -0.136   2.915   0.004  0.00  0.00    -0.074 A 
ATOM      7  C6  UNL d   1      -0.806   2.875  -1.337  0.00  0.00     0.077 C 
ATOM      8  C7  UNL d   1      -0.435   1.938   0.964  0.00  0.00    -0.001 A 
ENDROOT
TORSDOF 0
ENDMDL
