MODEL 1
REMARK minimizedAffinity 2.69497538
REMARK minimizedRMSD -1
REMARK  0 active torsions:
REMARK  status: ('A' for Active; 'I' for Inactive)
ROOT
ATOM      1  C   UNL d   1      -1.821  -4.902  -4.895  0.00  0.00     0.077 C 
ATOM      2  C1  UNL d   1      -3.275  -5.266  -4.830  0.00  0.00    -0.074 A 
ATOM      3  C2  UNL d   1      -4.025  -5.440  -5.998  0.00  0.00    -0.005 A 
ATOM      4  C3  UNL d   1      -5.373  -5.788  -5.923  0.00  0.00     0.006 A 
ATOM      5  C4  UNL d   1      -5.985  -5.966  -4.681  0.00  0.00    -0.005 A 
ATOM      6  C5  UNL d   1      -5.250  -5.797  -3.502  0.00  0.00    -0.074 A 
ATOM      7  C6  UNL d   1      -5.890  -5.994  -2.160  0.00  0.00     0.077 C 
ATOM      8  C7  UNL d   1      -3.894  -5.454  -3.587  0.00  0.00    -0.001 A 
ENDROOT
TORSDOF 0
ENDMDL
