MODEL 1
REMARK minimizedAffinity 3.52882934
REMARK minimizedRMSD -1
REMARK  0 active torsions:
REMARK  status: ('A' for Active; 'I' for Inactive)
ROOT
ATOM      1  C   UNL d   1       0.804   2.789   3.138  0.00  0.00     0.077 C 
ATOM      2  C1  UNL d   1       0.353   2.930   1.715  0.00  0.00    -0.074 A 
ATOM      3  C2  UNL d   1       0.345   4.178   1.083  0.00  0.00    -0.005 A 
ATOM      4  C3  UNL d   1      -0.069   4.291  -0.244  0.00  0.00     0.006 A 
ATOM      5  C4  UNL d   1      -0.478   3.161  -0.952  0.00  0.00    -0.005 A 
ATOM      6  C5  UNL d   1      -0.477   1.905  -0.337  0.00  0.00    -0.074 A 
ATOM      7  C6  UNL d   1      -0.905   0.678  -1.086  0.00  0.00     0.077 C 
ATOM      8  C7  UNL d   1      -0.053   1.797   0.995  0.00  0.00    -0.001 A 
ENDROOT
TORSDOF 0
ENDMDL
