MODEL 1
REMARK minimizedAffinity 11.8692179
REMARK minimizedRMSD -1
REMARK  0 active torsions:
REMARK  status: ('A' for Active; 'I' for Inactive)
ROOT
ATOM      1  C   UNL d   1      -0.403   2.253   2.637  0.00  0.00     0.077 C 
ATOM      2  C1  UNL d   1       0.234   0.986   3.126  0.00  0.00    -0.074 A 
ATOM      3  C2  UNL d   1       1.380   0.473   2.509  0.00  0.00    -0.005 A 
ATOM      4  C3  UNL d   1       1.967  -0.701   2.981  0.00  0.00     0.006 A 
ATOM      5  C4  UNL d   1       1.415  -1.374   4.071  0.00  0.00    -0.005 A 
ATOM      6  C5  UNL d   1       0.269  -0.876   4.701  0.00  0.00    -0.074 A 
ATOM      7  C6  UNL d   1      -0.332  -1.582   5.880  0.00  0.00     0.077 C 
ATOM      8  C7  UNL d   1      -0.311   0.308   4.225  0.00  0.00    -0.001 A 
ENDROOT
TORSDOF 0
ENDMDL
