MODEL 1
REMARK minimizedAffinity 4.27998877
REMARK minimizedRMSD -1
REMARK  0 active torsions:
REMARK  status: ('A' for Active; 'I' for Inactive)
ROOT
ATOM      1  C   UNL d   1       0.913  -1.838  -1.197  0.00  0.00     0.077 C 
ATOM      2  C1  UNL d   1      -0.209  -0.842  -1.182  0.00  0.00    -0.074 A 
ATOM      3  C2  UNL d   1      -1.538  -1.254  -1.323  0.00  0.00    -0.005 A 
ATOM      4  C3  UNL d   1      -2.571  -0.318  -1.297  0.00  0.00     0.006 A 
ATOM      5  C4  UNL d   1      -2.286   1.038  -1.131  0.00  0.00    -0.005 A 
ATOM      6  C5  UNL d   1      -0.963   1.469  -0.988  0.00  0.00    -0.074 A 
ATOM      7  C6  UNL d   1      -0.640   2.921  -0.799  0.00  0.00     0.077 C 
ATOM      8  C7  UNL d   1       0.069   0.521  -1.008  0.00  0.00    -0.001 A 
ENDROOT
TORSDOF 0
ENDMDL
