MODEL 1
REMARK minimizedAffinity 12.3255825
REMARK minimizedRMSD -1
REMARK  0 active torsions:
REMARK  status: ('A' for Active; 'I' for Inactive)
ROOT
ATOM      1  C   UNL d   1       2.250  -1.822   0.259  0.00  0.00     0.077 C 
ATOM      2  C1  UNL d   1       3.558  -2.382  -0.215  0.00  0.00    -0.074 A 
ATOM      3  C2  UNL d   1       4.554  -1.546  -0.728  0.00  0.00    -0.005 A 
ATOM      4  C3  UNL d   1       5.769  -2.080  -1.156  0.00  0.00     0.006 A 
ATOM      5  C4  UNL d   1       6.000  -3.454  -1.076  0.00  0.00    -0.005 A 
ATOM      6  C5  UNL d   1       5.015  -4.306  -0.566  0.00  0.00    -0.074 A 
ATOM      7  C6  UNL d   1       5.250  -5.784  -0.464  0.00  0.00     0.077 C 
ATOM      8  C7  UNL d   1       3.800  -3.760  -0.131  0.00  0.00    -0.001 A 
ENDROOT
TORSDOF 0
ENDMDL
