MODEL 1
REMARK minimizedAffinity -1.01820707
REMARK minimizedRMSD -1
REMARK  0 active torsions:
REMARK  status: ('A' for Active; 'I' for Inactive)
ROOT
ATOM      1  C   UNL d   1      -5.451  -5.060   5.967  0.00  0.00     0.077 C 
ATOM      2  C1  UNL d   1      -5.636  -3.774   5.216  0.00  0.00    -0.074 A 
ATOM      3  C2  UNL d   1      -5.784  -3.769   3.825  0.00  0.00    -0.005 A 
ATOM      4  C3  UNL d   1      -5.965  -2.567   3.142  0.00  0.00     0.006 A 
ATOM      5  C4  UNL d   1      -6.000  -1.359   3.841  0.00  0.00    -0.005 A 
ATOM      6  C5  UNL d   1      -5.854  -1.345   5.232  0.00  0.00    -0.074 A 
ATOM      7  C6  UNL d   1      -5.899  -0.057   5.999  0.00  0.00     0.077 C 
ATOM      8  C7  UNL d   1      -5.680  -2.558   5.912  0.00  0.00    -0.001 A 
ENDROOT
TORSDOF 0
ENDMDL
