MODEL 1
REMARK minimizedAffinity 9.57344151
REMARK minimizedRMSD -1
REMARK  0 active torsions:
REMARK  status: ('A' for Active; 'I' for Inactive)
ROOT
ATOM      1  C   UNL d   1       1.615  -6.000  -0.764  0.00  0.00     0.077 C 
ATOM      2  C1  UNL d   1       2.874  -5.478  -1.391  0.00  0.00    -0.074 A 
ATOM      3  C2  UNL d   1       3.307  -5.952  -2.634  0.00  0.00    -0.005 A 
ATOM      4  C3  UNL d   1       4.475  -5.450  -3.209  0.00  0.00     0.006 A 
ATOM      5  C4  UNL d   1       5.220  -4.473  -2.548  0.00  0.00    -0.005 A 
ATOM      6  C5  UNL d   1       4.802  -3.987  -1.305  0.00  0.00    -0.074 A 
ATOM      7  C6  UNL d   1       5.585  -2.929  -0.587  0.00  0.00     0.077 C 
ATOM      8  C7  UNL d   1       3.624  -4.490  -0.737  0.00  0.00    -0.001 A 
ENDROOT
TORSDOF 0
ENDMDL
