MODEL 1
REMARK minimizedAffinity -5.42133093
REMARK minimizedRMSD -1
REMARK  2 active torsions:
REMARK  status: ('A' for Active; 'I' for Inactive)
REMARK    1  A    between atoms: C2'_3  and  C1'_4 
REMARK    2  A    between atoms: C1'_4  and  C1_5 
ROOT
ATOM      1  C1  I4B d   1       0.920   0.064  -1.186  0.00  0.00    -0.075 A 
ATOM      2  C2  I4B d   1       0.838   1.291  -1.797  0.00  0.00     0.003 A 
ATOM      3  C3  I4B d   1       1.903   1.757  -2.606  0.00  0.00     0.002 A 
ATOM      4  C4  I4B d   1       3.043   0.991  -2.735  0.00  0.00    -0.004 A 
ATOM      5  C5  I4B d   1       3.115  -0.262  -2.135  0.00  0.00     0.002 A 
ATOM      6  C6  I4B d   1       2.042  -0.735  -1.365  0.00  0.00     0.003 A 
ENDROOT
BRANCH   1   7
ATOM      7  C1' I4B d   1      -0.209  -0.383  -0.312  0.00  0.00     0.060 C 
BRANCH   7   8
ATOM      8  C2' I4B d   1      -1.081   0.822  -0.024  0.00  0.00    -0.013 C 
ATOM      9  C4' I4B d   1      -2.174   0.963  -1.050  0.00  0.00     0.013 C 
ATOM     10  C3' I4B d   1      -1.650   0.662   1.354  0.00  0.00     0.013 C 
ENDBRANCH   7   8
ENDBRANCH   1   7
TORSDOF 2
ENDMDL
