MODEL 1
REMARK minimizedAffinity -4.39783382
REMARK minimizedRMSD -1
REMARK  2 active torsions:
REMARK  status: ('A' for Active; 'I' for Inactive)
REMARK    1  A    between atoms: C2'_3  and  C1'_4 
REMARK    2  A    between atoms: C1'_4  and  C1_5 
ROOT
ATOM      1  C1  I4B d   1       1.277   0.258  -0.133  0.00  0.00    -0.075 A 
ATOM      2  C2  I4B d   1       1.334  -1.102  -0.313  0.00  0.00     0.003 A 
ATOM      3  C3  I4B d   1       1.942  -1.642  -1.472  0.00  0.00     0.002 A 
ATOM      4  C4  I4B d   1       2.431  -0.792  -2.442  0.00  0.00    -0.004 A 
ATOM      5  C5  I4B d   1       2.392   0.586  -2.248  0.00  0.00     0.002 A 
ATOM      6  C6  I4B d   1       1.823   1.114  -1.080  0.00  0.00     0.003 A 
ENDROOT
BRANCH   1   7
ATOM      7  C1' I4B d   1       0.598   0.795   1.087  0.00  0.00     0.060 C 
BRANCH   7   8
ATOM      8  C2' I4B d   1      -0.880   0.484   0.975  0.00  0.00    -0.013 C 
ATOM      9  C4' I4B d   1      -1.634   0.971   2.184  0.00  0.00     0.013 C 
ATOM     10  C3' I4B d   1      -1.394   1.127  -0.279  0.00  0.00     0.013 C 
ENDBRANCH   7   8
ENDBRANCH   1   7
TORSDOF 2
ENDMDL
