MODEL 1
REMARK minimizedAffinity -2.56580305
REMARK minimizedRMSD -1
REMARK  2 active torsions:
REMARK  status: ('A' for Active; 'I' for Inactive)
REMARK    1  A    between atoms: C2'_3  and  C1'_4 
REMARK    2  A    between atoms: C1'_4  and  C1_5 
ROOT
ATOM      1  C1  I4B d   1      -0.607   0.183  -0.129  0.00  0.00    -0.075 A 
ATOM      2  C2  I4B d   1      -0.392  -1.095   0.322  0.00  0.00     0.003 A 
ATOM      3  C3  I4B d   1       0.757  -1.813  -0.091  0.00  0.00     0.002 A 
ATOM      4  C4  I4B d   1       1.631  -1.237  -0.991  0.00  0.00    -0.004 A 
ATOM      5  C5  I4B d   1       1.422   0.068  -1.429  0.00  0.00     0.002 A 
ATOM      6  C6  I4B d   1       0.303   0.787  -0.986  0.00  0.00     0.003 A 
ENDROOT
BRANCH   1   7
ATOM      7  C1' I4B d   1      -1.847   0.900   0.303  0.00  0.00     0.060 C 
BRANCH   7   8
ATOM      8  C2' I4B d   1      -1.968   0.761   1.807  0.00  0.00    -0.013 C 
ATOM      9  C4' I4B d   1      -1.803   2.092   2.492  0.00  0.00     0.013 C 
ATOM     10  C3' I4B d   1      -3.307   0.158   2.110  0.00  0.00     0.013 C 
ENDBRANCH   7   8
ENDBRANCH   1   7
TORSDOF 2
ENDMDL
