MODEL 1
REMARK minimizedAffinity -4.2159152
REMARK minimizedRMSD -1
REMARK  2 active torsions:
REMARK  status: ('A' for Active; 'I' for Inactive)
REMARK    1  A    between atoms: C2'_3  and  C1'_4 
REMARK    2  A    between atoms: C1'_4  and  C1_5 
ROOT
ATOM      1  C1  I4B d   1      -0.632   0.414   0.792  0.00  0.00    -0.075 A 
ATOM      2  C2  I4B d   1      -1.975   0.144   0.877  0.00  0.00     0.003 A 
ATOM      3  C3  I4B d   1      -2.729   0.621   1.977  0.00  0.00     0.002 A 
ATOM      4  C4  I4B d   1      -2.095   1.316   2.986  0.00  0.00    -0.004 A 
ATOM      5  C5  I4B d   1      -0.738   1.609   2.886  0.00  0.00     0.002 A 
ATOM      6  C6  I4B d   1      -0.004   1.166   1.776  0.00  0.00     0.003 A 
ENDROOT
BRANCH   1   7
ATOM      7  C1' I4B d   1       0.141  -0.133  -0.366  0.00  0.00     0.060 C 
BRANCH   7   8
ATOM      8  C2' I4B d   1       0.829  -1.403   0.090  0.00  0.00    -0.013 C 
ATOM      9  C4' I4B d   1      -0.116  -2.575   0.067  0.00  0.00     0.013 C 
ATOM     10  C3' I4B d   1       2.007  -1.640  -0.808  0.00  0.00     0.013 C 
ENDBRANCH   7   8
ENDBRANCH   1   7
TORSDOF 2
ENDMDL
