MODEL 1
REMARK minimizedAffinity -0.446269125
REMARK minimizedRMSD -1
REMARK  2 active torsions:
REMARK  status: ('A' for Active; 'I' for Inactive)
REMARK    1  A    between atoms: C2'_3  and  C1'_4 
REMARK    2  A    between atoms: C1'_4  and  C1_5 
ROOT
ATOM      1  C1  I4B d   1       0.137   0.542   2.446  0.00  0.00    -0.075 A 
ATOM      2  C2  I4B d   1      -1.176   0.903   2.276  0.00  0.00     0.003 A 
ATOM      3  C3  I4B d   1      -1.861   1.605   3.298  0.00  0.00     0.002 A 
ATOM      4  C4  I4B d   1      -1.213   1.880   4.485  0.00  0.00    -0.004 A 
ATOM      5  C5  I4B d   1       0.125   1.534   4.646  0.00  0.00     0.002 A 
ATOM      6  C6  I4B d   1       0.809   0.872   3.616  0.00  0.00     0.003 A 
ENDROOT
BRANCH   1   7
ATOM      7  C1' I4B d   1       0.820  -0.227   1.360  0.00  0.00     0.060 C 
BRANCH   7   8
ATOM      8  C2' I4B d   1      -0.116  -0.285   0.170  0.00  0.00    -0.013 C 
ATOM      9  C4' I4B d   1       0.515   0.332  -1.050  0.00  0.00     0.013 C 
ATOM     10  C3' I4B d   1      -0.469  -1.722  -0.072  0.00  0.00     0.013 C 
ENDBRANCH   7   8
ENDBRANCH   1   7
TORSDOF 2
ENDMDL
