MODEL 1
REMARK minimizedAffinity -1.80131543
REMARK minimizedRMSD -1
REMARK  2 active torsions:
REMARK  status: ('A' for Active; 'I' for Inactive)
REMARK    1  A    between atoms: C2'_3  and  C1'_4 
REMARK    2  A    between atoms: C1'_4  and  C1_5 
ROOT
ATOM      1  C1  I4B d   1      -0.380  -0.327   0.233  0.00  0.00    -0.075 A 
ATOM      2  C2  I4B d   1       0.374  -1.027   1.141  0.00  0.00     0.003 A 
ATOM      3  C3  I4B d   1       1.509  -1.758   0.712  0.00  0.00     0.002 A 
ATOM      4  C4  I4B d   1       1.821  -1.801  -0.631  0.00  0.00    -0.004 A 
ATOM      5  C5  I4B d   1       1.069  -1.072  -1.547  0.00  0.00     0.002 A 
ATOM      6  C6  I4B d   1      -0.032  -0.320  -1.111  0.00  0.00     0.003 A 
ENDROOT
BRANCH   1   7
ATOM      7  C1' I4B d   1      -1.591   0.407   0.716  0.00  0.00     0.060 C 
BRANCH   7   8
ATOM      8  C2' I4B d   1      -1.601   0.347   2.230  0.00  0.00    -0.013 C 
ATOM      9  C4' I4B d   1      -1.710   1.725   2.829  0.00  0.00     0.013 C 
ATOM     10  C3' I4B d   1      -2.750  -0.519   2.651  0.00  0.00     0.013 C 
ENDBRANCH   7   8
ENDBRANCH   1   7
TORSDOF 2
ENDMDL
