MODEL 1
REMARK minimizedAffinity -5.60800552
REMARK minimizedRMSD -1
REMARK  2 active torsions:
REMARK  status: ('A' for Active; 'I' for Inactive)
REMARK    1  A    between atoms: C2'_3  and  C1'_4 
REMARK    2  A    between atoms: C1'_4  and  C1_5 
ROOT
ATOM      1  C1  I4B d   1       1.200   0.375  -0.554  0.00  0.00    -0.075 A 
ATOM      2  C2  I4B d   1       2.274  -0.462  -0.729  0.00  0.00     0.003 A 
ATOM      3  C3  I4B d   1       3.133  -0.297  -1.843  0.00  0.00     0.002 A 
ATOM      4  C4  I4B d   1       2.853   0.679  -2.778  0.00  0.00    -0.004 A 
ATOM      5  C5  I4B d   1       1.777   1.541  -2.587  0.00  0.00     0.002 A 
ATOM      6  C6  I4B d   1       0.952   1.396  -1.462  0.00  0.00     0.003 A 
ENDROOT
BRANCH   1   7
ATOM      7  C1' I4B d   1       0.295   0.151   0.616  0.00  0.00     0.060 C 
BRANCH   7   8
ATOM      8  C2' I4B d   1      -1.049  -0.305   0.085  0.00  0.00    -0.013 C 
ATOM      9  C4' I4B d   1      -1.100  -1.804  -0.054  0.00  0.00     0.013 C 
ATOM     10  C3' I4B d   1      -2.109   0.188   1.025  0.00  0.00     0.013 C 
ENDBRANCH   7   8
ENDBRANCH   1   7
TORSDOF 2
ENDMDL
