MODEL 1
REMARK minimizedAffinity 0.732755184
REMARK minimizedRMSD -1
REMARK  2 active torsions:
REMARK  status: ('A' for Active; 'I' for Inactive)
REMARK    1  A    between atoms: C2'_3  and  C1'_4 
REMARK    2  A    between atoms: C1'_4  and  C1_5 
ROOT
ATOM      1  C1  I4B d   1      -0.268  -0.151  -0.251  0.00  0.00    -0.075 A 
ATOM      2  C2  I4B d   1       0.148  -1.210   0.517  0.00  0.00     0.003 A 
ATOM      3  C3  I4B d   1       1.227  -2.021   0.089  0.00  0.00     0.002 A 
ATOM      4  C4  I4B d   1       1.823  -1.770  -1.130  0.00  0.00    -0.004 A 
ATOM      5  C5  I4B d   1       1.415  -0.683  -1.897  0.00  0.00     0.002 A 
ATOM      6  C6  I4B d   1       0.371   0.139  -1.449  0.00  0.00     0.003 A 
ENDROOT
BRANCH   1   7
ATOM      7  C1' I4B d   1      -1.432   0.664   0.216  0.00  0.00     0.060 C 
BRANCH   7   8
ATOM      8  C2' I4B d   1      -1.527   0.522   1.721  0.00  0.00    -0.013 C 
ATOM      9  C4' I4B d   1      -1.287   1.840   2.409  0.00  0.00     0.013 C 
ATOM     10  C3' I4B d   1      -2.886  -0.020   2.050  0.00  0.00     0.013 C 
ENDBRANCH   7   8
ENDBRANCH   1   7
TORSDOF 2
ENDMDL
