MODEL 1
REMARK minimizedAffinity -2.84101868
REMARK minimizedRMSD -1
REMARK  2 active torsions:
REMARK  status: ('A' for Active; 'I' for Inactive)
REMARK    1  A    between atoms: C2'_3  and  C1'_4 
REMARK    2  A    between atoms: C1'_4  and  C1_5 
ROOT
ATOM      1  C1  I4B d   1      -0.938   0.361   1.231  0.00  0.00    -0.075 A 
ATOM      2  C2  I4B d   1      -0.832   1.716   1.426  0.00  0.00     0.003 A 
ATOM      3  C3  I4B d   1      -1.413   2.319   2.568  0.00  0.00     0.002 A 
ATOM      4  C4  I4B d   1      -2.129   1.543   3.456  0.00  0.00    -0.004 A 
ATOM      5  C5  I4B d   1      -2.216   0.166   3.268  0.00  0.00     0.002 A 
ATOM      6  C6  I4B d   1      -1.606  -0.431   2.155  0.00  0.00     0.003 A 
ENDROOT
BRANCH   1   7
ATOM      7  C1' I4B d   1      -0.341  -0.238  -0.003  0.00  0.00     0.060 C 
BRANCH   7   8
ATOM      8  C2' I4B d   1       0.174  -1.619   0.351  0.00  0.00    -0.013 C 
ATOM      9  C4' I4B d   1      -0.838  -2.681   0.011  0.00  0.00     0.013 C 
ATOM     10  C3' I4B d   1       1.459  -1.837  -0.391  0.00  0.00     0.013 C 
ENDBRANCH   7   8
ENDBRANCH   1   7
TORSDOF 2
ENDMDL
