MODEL 1
REMARK minimizedAffinity -5.47995806
REMARK minimizedRMSD -1
REMARK  2 active torsions:
REMARK  status: ('A' for Active; 'I' for Inactive)
REMARK    1  A    between atoms: C2'_3  and  C1'_4 
REMARK    2  A    between atoms: C1'_4  and  C1_5 
ROOT
ATOM      1  C1  I4B d   1      -0.033   0.194  -1.035  0.00  0.00    -0.075 A 
ATOM      2  C2  I4B d   1       0.825  -0.874  -1.109  0.00  0.00     0.003 A 
ATOM      3  C3  I4B d   1       1.903  -0.861  -2.028  0.00  0.00     0.002 A 
ATOM      4  C4  I4B d   1       2.054   0.211  -2.883  0.00  0.00    -0.004 A 
ATOM      5  C5  I4B d   1       1.197   1.304  -2.791  0.00  0.00     0.002 A 
ATOM      6  C6  I4B d   1       0.154   1.301  -1.853  0.00  0.00     0.003 A 
ENDROOT
BRANCH   1   7
ATOM      7  C1' I4B d   1      -1.179   0.133  -0.077  0.00  0.00     0.060 C 
BRANCH   7   8
ATOM      8  C2' I4B d   1      -0.737   0.775   1.222  0.00  0.00    -0.013 C 
ATOM      9  C4' I4B d   1      -1.860   0.807   2.225  0.00  0.00     0.013 C 
ATOM     10  C3' I4B d   1       0.435   0.000   1.746  0.00  0.00     0.013 C 
ENDBRANCH   7   8
ENDBRANCH   1   7
TORSDOF 2
ENDMDL
