MODEL 1
REMARK minimizedAffinity 5.51814175
REMARK minimizedRMSD -1
REMARK  2 active torsions:
REMARK  status: ('A' for Active; 'I' for Inactive)
REMARK    1  A    between atoms: C2'_3  and  C1'_4 
REMARK    2  A    between atoms: C1'_4  and  C1_5 
ROOT
ATOM      1  C1  I4B d   1      -3.762  -0.014   3.044  0.00  0.00    -0.075 A 
ATOM      2  C2  I4B d   1      -3.258  -0.439   1.840  0.00  0.00     0.003 A 
ATOM      3  C3  I4B d   1      -4.131  -0.888   0.820  0.00  0.00     0.002 A 
ATOM      4  C4  I4B d   1      -5.489  -0.943   1.063  0.00  0.00    -0.004 A 
ATOM      5  C5  I4B d   1      -6.000  -0.491   2.276  0.00  0.00     0.002 A 
ATOM      6  C6  I4B d   1      -5.133  -0.012   3.269  0.00  0.00     0.003 A 
ENDROOT
BRANCH   1   7
ATOM      7  C1' I4B d   1      -2.809   0.422   4.111  0.00  0.00     0.060 C 
BRANCH   7   8
ATOM      8  C2' I4B d   1      -2.615   1.919   3.980  0.00  0.00    -0.013 C 
ATOM      9  C4' I4B d   1      -1.583   2.246   2.933  0.00  0.00     0.013 C 
ATOM     10  C3' I4B d   1      -3.942   2.530   3.642  0.00  0.00     0.013 C 
ENDBRANCH   7   8
ENDBRANCH   1   7
TORSDOF 2
ENDMDL
