MODEL 1
REMARK minimizedAffinity -2.74530292
REMARK minimizedRMSD -1
REMARK  2 active torsions:
REMARK  status: ('A' for Active; 'I' for Inactive)
REMARK    1  A    between atoms: C2'_3  and  C1'_4 
REMARK    2  A    between atoms: C1'_4  and  C1_5 
ROOT
ATOM      1  C1  I4B d   1       0.011   0.444   0.922  0.00  0.00    -0.075 A 
ATOM      2  C2  I4B d   1       0.765  -0.548   1.497  0.00  0.00     0.003 A 
ATOM      3  C3  I4B d   1       1.350  -1.555   0.692  0.00  0.00     0.002 A 
ATOM      4  C4  I4B d   1       1.116  -1.561  -0.667  0.00  0.00    -0.004 A 
ATOM      5  C5  I4B d   1       0.370  -0.541  -1.251  0.00  0.00     0.002 A 
ATOM      6  C6  I4B d   1      -0.176   0.475  -0.454  0.00  0.00     0.003 A 
ENDROOT
BRANCH   1   7
ATOM      7  C1' I4B d   1      -0.621   1.473   1.806  0.00  0.00     0.060 C 
BRANCH   7   8
ATOM      8  C2' I4B d   1      -1.426   0.749   2.865  0.00  0.00    -0.013 C 
ATOM      9  C4' I4B d   1      -1.732   1.652   4.030  0.00  0.00     0.013 C 
ATOM     10  C3' I4B d   1      -2.685   0.244   2.225  0.00  0.00     0.013 C 
ENDBRANCH   7   8
ENDBRANCH   1   7
TORSDOF 2
ENDMDL
