MODEL 1
REMARK minimizedAffinity 4.08228016
REMARK minimizedRMSD -1
REMARK  1 active torsions:
REMARK  status: ('A' for Active; 'I' for Inactive)
REMARK    1  A    between atoms: C1_2  and  C2_3 
ROOT
ATOM      1  C2  UNL d   1       2.416   2.804  -3.990  0.00  0.00    -0.073 A 
ATOM      2  C3  UNL d   1       3.327   3.433  -4.848  0.00  0.00    -0.002 A 
ATOM      3  C4  UNL d   1       2.979   4.617  -5.499  0.00  0.00     0.004 A 
ATOM      4  C5  UNL d   1       1.723   5.187  -5.296  0.00  0.00    -0.004 A 
ATOM      5  C6  UNL d   1       0.804   4.580  -4.434  0.00  0.00    -0.075 A 
ATOM      6  C7  UNL d   1      -0.553   5.180  -4.206  0.00  0.00     0.076 C 
ATOM      7  C8  UNL d   1       1.159   3.390  -3.785  0.00  0.00     0.001 A 
ENDROOT
BRANCH   1   8
ATOM      8  C1  UNL d   1       2.790   1.529  -3.280  0.00  0.00     0.053 C 
ATOM      9  C   UNL d   1       3.752   0.681  -4.096  0.00  0.00     0.018 C 
ENDBRANCH   1   8
TORSDOF 1
ENDMDL
