MODEL 1
REMARK minimizedAffinity 10.1009779
REMARK minimizedRMSD -1
REMARK  1 active torsions:
REMARK  status: ('A' for Active; 'I' for Inactive)
REMARK    1  A    between atoms: C1_2  and  C2_3 
ROOT
ATOM      1  C2  UNL d   1       0.735  -3.861  -0.576  0.00  0.00    -0.073 A 
ATOM      2  C3  UNL d   1       1.305  -2.703  -0.036  0.00  0.00    -0.002 A 
ATOM      3  C4  UNL d   1       2.308  -2.023  -0.728  0.00  0.00     0.004 A 
ATOM      4  C5  UNL d   1       2.747  -2.489  -1.967  0.00  0.00    -0.004 A 
ATOM      5  C6  UNL d   1       2.182  -3.639  -2.528  0.00  0.00    -0.075 A 
ATOM      6  C7  UNL d   1       2.645  -4.155  -3.859  0.00  0.00     0.076 C 
ATOM      7  C8  UNL d   1       1.177  -4.318  -1.826  0.00  0.00     0.001 A 
ENDROOT
BRANCH   1   8
ATOM      8  C1  UNL d   1      -0.353  -4.595   0.164  0.00  0.00     0.053 C 
ATOM      9  C   UNL d   1      -1.687  -4.518  -0.562  0.00  0.00     0.018 C 
ENDBRANCH   1   8
TORSDOF 1
ENDMDL
