MODEL 1
REMARK minimizedAffinity -2.32691288
REMARK minimizedRMSD -1
REMARK  1 active torsions:
REMARK  status: ('A' for Active; 'I' for Inactive)
REMARK    1  A    between atoms: C1_2  and  C2_3 
ROOT
ATOM      1  C2  UNL d   1      -1.241   1.851   1.468  0.00  0.00    -0.073 A 
ATOM      2  C3  UNL d   1      -0.234   2.194   0.559  0.00  0.00    -0.002 A 
ATOM      3  C4  UNL d   1       0.727   1.254   0.183  0.00  0.00     0.004 A 
ATOM      4  C5  UNL d   1       0.686  -0.038   0.706  0.00  0.00    -0.004 A 
ATOM      5  C6  UNL d   1      -0.319  -0.404   1.606  0.00  0.00    -0.075 A 
ATOM      6  C7  UNL d   1      -0.375  -1.790   2.180  0.00  0.00     0.076 C 
ATOM      7  C8  UNL d   1      -1.279   0.546   1.981  0.00  0.00     0.001 A 
ENDROOT
BRANCH   1   8
ATOM      8  C1  UNL d   1      -2.285   2.860   1.871  0.00  0.00     0.053 C 
ATOM      9  C   UNL d   1      -3.225   2.314   2.935  0.00  0.00     0.018 C 
ENDBRANCH   1   8
TORSDOF 1
ENDMDL
