MODEL 1
REMARK minimizedAffinity -0.35379684
REMARK minimizedRMSD -1
REMARK  1 active torsions:
REMARK  status: ('A' for Active; 'I' for Inactive)
REMARK    1  A    between atoms: C1_2  and  C2_3 
ROOT
ATOM      1  C2  UNL d   1       1.551   0.770   1.058  0.00  0.00    -0.073 A 
ATOM      2  C3  UNL d   1       1.162   2.106   0.910  0.00  0.00    -0.002 A 
ATOM      3  C4  UNL d   1      -0.155   2.489   1.169  0.00  0.00     0.004 A 
ATOM      4  C5  UNL d   1      -1.093   1.545   1.585  0.00  0.00    -0.004 A 
ATOM      5  C6  UNL d   1      -0.720   0.207   1.750  0.00  0.00    -0.075 A 
ATOM      6  C7  UNL d   1      -1.718  -0.823   2.195  0.00  0.00     0.076 C 
ATOM      7  C8  UNL d   1       0.603  -0.172   1.486  0.00  0.00     0.001 A 
ENDROOT
BRANCH   1   8
ATOM      8  C1  UNL d   1       2.973   0.352   0.786  0.00  0.00     0.053 C 
ATOM      9  C   UNL d   1       3.050  -0.788  -0.218  0.00  0.00     0.018 C 
ENDBRANCH   1   8
TORSDOF 1
ENDMDL
