MODEL 1
REMARK minimizedAffinity 2.1015141
REMARK minimizedRMSD -1
REMARK  1 active torsions:
REMARK  status: ('A' for Active; 'I' for Inactive)
REMARK    1  A    between atoms: C1_2  and  C2_3 
ROOT
ATOM      1  C2  UNL d   1       0.560   0.983   0.591  0.00  0.00    -0.073 A 
ATOM      2  C3  UNL d   1       1.052   0.155   1.606  0.00  0.00    -0.002 A 
ATOM      3  C4  UNL d   1       2.286  -0.482   1.460  0.00  0.00     0.004 A 
ATOM      4  C5  UNL d   1       3.041  -0.292   0.303  0.00  0.00    -0.004 A 
ATOM      5  C6  UNL d   1       2.571   0.541  -0.718  0.00  0.00    -0.075 A 
ATOM      6  C7  UNL d   1       3.371   0.754  -1.970  0.00  0.00     0.076 C 
ATOM      7  C8  UNL d   1       1.331   1.175  -0.565  0.00  0.00     0.001 A 
ENDROOT
BRANCH   1   8
ATOM      8  C1  UNL d   1      -0.768   1.677   0.747  0.00  0.00     0.053 C 
ATOM      9  C   UNL d   1      -0.691   2.844   1.718  0.00  0.00     0.018 C 
ENDBRANCH   1   8
TORSDOF 1
ENDMDL
