MODEL 1
REMARK minimizedAffinity 0.957312882
REMARK minimizedRMSD -1
REMARK  1 active torsions:
REMARK  status: ('A' for Active; 'I' for Inactive)
REMARK    1  A    between atoms: C1_2  and  C2_3 
ROOT
ATOM      1  C2  UNL d   1      -2.925   1.710   2.366  0.00  0.00    -0.073 A 
ATOM      2  C3  UNL d   1      -2.780   2.809   1.513  0.00  0.00    -0.002 A 
ATOM      3  C4  UNL d   1      -1.706   2.874   0.624  0.00  0.00     0.004 A 
ATOM      4  C5  UNL d   1      -0.772   1.839   0.575  0.00  0.00    -0.004 A 
ATOM      5  C6  UNL d   1      -0.907   0.727   1.411  0.00  0.00    -0.075 A 
ATOM      6  C7  UNL d   1       0.090  -0.394   1.372  0.00  0.00     0.076 C 
ATOM      7  C8  UNL d   1      -1.987   0.670   2.303  0.00  0.00     0.001 A 
ENDROOT
BRANCH   1   8
ATOM      8  C1  UNL d   1      -4.087   1.632   3.323  0.00  0.00     0.053 C 
ATOM      9  C   UNL d   1      -4.370   2.971   3.986  0.00  0.00     0.018 C 
ENDBRANCH   1   8
TORSDOF 1
ENDMDL
