MODEL 1
REMARK minimizedAffinity -0.00668112421
REMARK minimizedRMSD -1
REMARK  1 active torsions:
REMARK  status: ('A' for Active; 'I' for Inactive)
REMARK    1  A    between atoms: C1_2  and  C2_3 
ROOT
ATOM      1  C2  UNL d   1      -0.951   1.026   1.446  0.00  0.00    -0.073 A 
ATOM      2  C3  UNL d   1      -1.247   2.367   1.711  0.00  0.00    -0.002 A 
ATOM      3  C4  UNL d   1      -2.381   2.705   2.452  0.00  0.00     0.004 A 
ATOM      4  C5  UNL d   1      -3.224   1.707   2.939  0.00  0.00    -0.004 A 
ATOM      5  C6  UNL d   1      -2.938   0.360   2.694  0.00  0.00    -0.075 A 
ATOM      6  C7  UNL d   1      -3.837  -0.726   3.210  0.00  0.00     0.076 C 
ATOM      7  C8  UNL d   1      -1.799   0.029   1.947  0.00  0.00     0.001 A 
ENDROOT
BRANCH   1   8
ATOM      8  C1  UNL d   1       0.276   0.656   0.652  0.00  0.00     0.053 C 
ATOM      9  C   UNL d   1       0.952  -0.592   1.196  0.00  0.00     0.018 C 
ENDBRANCH   1   8
TORSDOF 1
ENDMDL
