MODEL 1
REMARK minimizedAffinity -0.167620182
REMARK minimizedRMSD -1
REMARK  1 active torsions:
REMARK  status: ('A' for Active; 'I' for Inactive)
REMARK    1  A    between atoms: C1_2  and  C2_3 
ROOT
ATOM      1  C2  UNL d   1       0.065   0.469   1.139  0.00  0.00    -0.073 A 
ATOM      2  C3  UNL d   1      -0.190  -0.898   1.297  0.00  0.00    -0.002 A 
ATOM      3  C4  UNL d   1      -1.400  -1.332   1.839  0.00  0.00     0.004 A 
ATOM      4  C5  UNL d   1      -2.370  -0.405   2.222  0.00  0.00    -0.004 A 
ATOM      5  C6  UNL d   1      -2.139   0.965   2.062  0.00  0.00    -0.075 A 
ATOM      6  C7  UNL d   1      -3.170   1.975   2.472  0.00  0.00     0.076 C 
ATOM      7  C8  UNL d   1      -0.919   1.393   1.519  0.00  0.00     0.001 A 
ENDROOT
BRANCH   1   8
ATOM      8  C1  UNL d   1       1.368   0.942   0.549  0.00  0.00     0.053 C 
ATOM      9  C   UNL d   1       2.231  -0.216   0.071  0.00  0.00     0.018 C 
ENDBRANCH   1   8
TORSDOF 1
ENDMDL
