MODEL 1
REMARK minimizedAffinity 4.64470148
REMARK minimizedRMSD -1
REMARK  1 active torsions:
REMARK  status: ('A' for Active; 'I' for Inactive)
REMARK    1  A    between atoms: C1_2  and  C2_3 
ROOT
ATOM      1  C2  UNL d   1      -4.589   1.979   4.026  0.00  0.00    -0.073 A 
ATOM      2  C3  UNL d   1      -5.299   1.315   5.033  0.00  0.00    -0.002 A 
ATOM      3  C4  UNL d   1      -5.996   2.041   6.000  0.00  0.00     0.004 A 
ATOM      4  C5  UNL d   1      -5.997   3.435   5.966  0.00  0.00    -0.004 A 
ATOM      5  C6  UNL d   1      -5.303   4.117   4.961  0.00  0.00    -0.075 A 
ATOM      6  C7  UNL d   1      -5.292   5.616   4.912  0.00  0.00     0.076 C 
ATOM      7  C8  UNL d   1      -4.603   3.381   3.995  0.00  0.00     0.001 A 
ENDROOT
BRANCH   1   8
ATOM      8  C1  UNL d   1      -3.839   1.200   2.977  0.00  0.00     0.053 C 
ATOM      9  C   UNL d   1      -2.542   1.884   2.576  0.00  0.00     0.018 C 
ENDBRANCH   1   8
TORSDOF 1
ENDMDL
