MODEL 1
REMARK minimizedAffinity 9.70993519
REMARK minimizedRMSD -1
REMARK  1 active torsions:
REMARK  status: ('A' for Active; 'I' for Inactive)
REMARK    1  A    between atoms: C1_2  and  C2_3 
ROOT
ATOM      1  C2  UNL d   1      -3.593  -3.598  -0.909  0.00  0.00    -0.073 A 
ATOM      2  C3  UNL d   1      -4.061  -4.806  -1.438  0.00  0.00    -0.002 A 
ATOM      3  C4  UNL d   1      -3.390  -6.000  -1.169  0.00  0.00     0.004 A 
ATOM      4  C5  UNL d   1      -2.250  -5.998  -0.364  0.00  0.00    -0.004 A 
ATOM      5  C6  UNL d   1      -1.775  -4.803   0.183  0.00  0.00    -0.075 A 
ATOM      6  C7  UNL d   1      -0.549  -4.784   1.049  0.00  0.00     0.076 C 
ATOM      7  C8  UNL d   1      -2.453  -3.608  -0.094  0.00  0.00     0.001 A 
ENDROOT
BRANCH   1   8
ATOM      8  C1  UNL d   1      -4.318  -2.307  -1.192  0.00  0.00     0.053 C 
ATOM      9  C   UNL d   1      -3.736  -1.577  -2.392  0.00  0.00     0.018 C 
ENDBRANCH   1   8
TORSDOF 1
ENDMDL
