MODEL 1
REMARK minimizedAffinity 3.94442105
REMARK minimizedRMSD -1
REMARK  1 active torsions:
REMARK  status: ('A' for Active; 'I' for Inactive)
REMARK    1  A    between atoms: N_2  and  C1_3 
ROOT
ATOM      1  C1  UNL d   1      -0.706  -1.526   0.372  0.00  0.00     0.143 A 
ATOM      2  C2  UNL d   1       0.601  -1.043   0.492  0.00  0.00    -0.057 A 
ATOM      3  C3  UNL d   1       0.925   0.271   0.136  0.00  0.00     0.033 A 
ATOM      4  C4  UNL d   1      -0.051   1.121  -0.375  0.00  0.00    -0.042 A 
ATOM      5  C5  UNL d   1      -1.352   0.654  -0.526  0.00  0.00     0.033 A 
ATOM      6  C6  UNL d   1      -1.671  -0.658  -0.162  0.00  0.00    -0.057 A 
ENDROOT
BRANCH   1   7
ATOM      7  N   UNL d   1      -1.071  -2.853   0.617  0.00  0.00    -0.732 N 
ATOM      8  C   UNL d   1      -0.641  -3.911  -0.272  0.00  0.00     0.284 C 
ATOM      9  H3  UNL d   1      -1.022  -3.094   1.604  0.00  0.00     0.395 HD
ENDBRANCH   1   7
TORSDOF 1
ENDMDL
