MODEL 1
REMARK minimizedAffinity 10.5758381
REMARK minimizedRMSD -1
REMARK  1 active torsions:
REMARK  status: ('A' for Active; 'I' for Inactive)
REMARK    1  A    between atoms: N_2  and  C1_3 
ROOT
ATOM      1  C1  UNL d   1      -4.426   0.842  -5.278  0.00  0.00     0.143 A 
ATOM      2  C2  UNL d   1      -3.373  -0.076  -5.193  0.00  0.00    -0.057 A 
ATOM      3  C3  UNL d   1      -3.569  -1.434  -5.471  0.00  0.00     0.033 A 
ATOM      4  C4  UNL d   1      -4.833  -1.905  -5.811  0.00  0.00    -0.042 A 
ATOM      5  C5  UNL d   1      -5.899  -1.016  -5.878  0.00  0.00     0.033 A 
ATOM      6  C6  UNL d   1      -5.696   0.341  -5.606  0.00  0.00    -0.057 A 
ENDROOT
BRANCH   1   7
ATOM      7  N   UNL d   1      -4.317   2.187  -4.919  0.00  0.00    -0.732 N 
ATOM      8  C   UNL d   1      -5.189   3.181  -5.508  0.00  0.00     0.284 C 
ATOM      9  H3  UNL d   1      -4.159   2.311  -3.921  0.00  0.00     0.395 HD
ENDBRANCH   1   7
TORSDOF 1
ENDMDL
