MODEL 1
REMARK minimizedAffinity 0.74749881
REMARK minimizedRMSD -1
REMARK  1 active torsions:
REMARK  status: ('A' for Active; 'I' for Inactive)
REMARK    1  A    between atoms: N_2  and  C1_3 
ROOT
ATOM      1  C1  UNL d   1      -2.709  -3.773  -3.498  0.00  0.00     0.143 A 
ATOM      2  C2  UNL d   1      -3.346  -3.273  -4.639  0.00  0.00    -0.057 A 
ATOM      3  C3  UNL d   1      -3.955  -2.012  -4.637  0.00  0.00     0.033 A 
ATOM      4  C4  UNL d   1      -3.963  -1.239  -3.481  0.00  0.00    -0.042 A 
ATOM      5  C5  UNL d   1      -3.358  -1.726  -2.328  0.00  0.00     0.033 A 
ATOM      6  C6  UNL d   1      -2.746  -2.983  -2.338  0.00  0.00    -0.057 A 
ENDROOT
BRANCH   1   7
ATOM      7  N   UNL d   1      -2.171  -5.059  -3.408  0.00  0.00    -0.732 N 
ATOM      8  C   UNL d   1      -2.086  -5.906  -4.578  0.00  0.00     0.284 C 
ATOM      9  H3  UNL d   1      -1.351  -5.096  -2.808  0.00  0.00     0.395 HD
ENDBRANCH   1   7
TORSDOF 1
ENDMDL
