MODEL 1
REMARK minimizedAffinity 3.4553299
REMARK minimizedRMSD -1
REMARK  1 active torsions:
REMARK  status: ('A' for Active; 'I' for Inactive)
REMARK    1  A    between atoms: N_2  and  C1_3 
ROOT
ATOM      1  C1  UNL d   1       2.992   0.880   3.519  0.00  0.00     0.143 A 
ATOM      2  C2  UNL d   1       3.851   0.071   4.270  0.00  0.00    -0.057 A 
ATOM      3  C3  UNL d   1       3.896  -1.315   4.078  0.00  0.00     0.033 A 
ATOM      4  C4  UNL d   1       3.059  -1.922   3.148  0.00  0.00    -0.042 A 
ATOM      5  C5  UNL d   1       2.179  -1.140   2.408  0.00  0.00     0.033 A 
ATOM      6  C6  UNL d   1       2.143   0.244   2.600  0.00  0.00    -0.057 A 
ENDROOT
BRANCH   1   7
ATOM      7  N   UNL d   1       2.830   2.251   3.732  0.00  0.00    -0.732 N 
ATOM      8  C   UNL d   1       3.204   2.850   4.996  0.00  0.00     0.284 C 
ATOM      9  H3  UNL d   1       3.087   2.804   2.918  0.00  0.00     0.395 HD
ENDBRANCH   1   7
TORSDOF 1
ENDMDL
