MODEL 1
REMARK minimizedAffinity -0.317219764
REMARK minimizedRMSD -1
REMARK  1 active torsions:
REMARK  status: ('A' for Active; 'I' for Inactive)
REMARK    1  A    between atoms: N_2  and  C1_3 
ROOT
ATOM      1  C1  UNL d   1      -0.318  -1.190   0.937  0.00  0.00     0.143 A 
ATOM      2  C2  UNL d   1      -0.130  -1.016   2.312  0.00  0.00    -0.057 A 
ATOM      3  C3  UNL d   1       1.075  -0.517   2.823  0.00  0.00     0.033 A 
ATOM      4  C4  UNL d   1       2.126  -0.210   1.966  0.00  0.00    -0.042 A 
ATOM      5  C5  UNL d   1       1.971  -0.398   0.597  0.00  0.00     0.033 A 
ATOM      6  C6  UNL d   1       0.763  -0.891   0.093  0.00  0.00    -0.057 A 
ENDROOT
BRANCH   1   7
ATOM      7  N   UNL d   1      -1.455  -1.775   0.375  0.00  0.00    -0.732 N 
ATOM      8  C   UNL d   1      -1.333  -2.830  -0.608  0.00  0.00     0.284 C 
ATOM      9  H3  UNL d   1      -2.192  -1.928   1.060  0.00  0.00     0.395 HD
ENDBRANCH   1   7
TORSDOF 1
ENDMDL
