MODEL 1
REMARK minimizedAffinity 5.01872158
REMARK minimizedRMSD -1
REMARK  0 active torsions:
REMARK  status: ('A' for Active; 'I' for Inactive)
ROOT
ATOM      1  C   UNL d   1       5.510  -1.763  -1.546  0.00  0.00     0.020 A 
ATOM      2  C1  UNL d   1       5.626  -3.021  -0.955  0.00  0.00     0.020 A 
ATOM      3  C2  UNL d   1       4.481  -3.714  -0.558  0.00  0.00     0.034 A 
ATOM      4  C3  UNL d   1       3.214  -3.150  -0.752  0.00  0.00     0.017 A 
ATOM      5  C4  UNL d   1       3.099  -1.888  -1.345  0.00  0.00     0.017 A 
ATOM      6  C5  UNL d   1       4.249  -1.198  -1.740  0.00  0.00     0.034 A 
ATOM      7 Cl   UNL d   1       1.571  -1.127  -1.616  0.00  0.00    -0.070 Cl
ATOM      8 Cl1  UNL d   1       1.841  -4.064  -0.237  0.00  0.00    -0.070 Cl
ENDROOT
TORSDOF 0
ENDMDL
