MODEL 1
REMARK minimizedAffinity 11.2977295
REMARK minimizedRMSD -1
REMARK  0 active torsions:
REMARK  status: ('A' for Active; 'I' for Inactive)
ROOT
ATOM      1  C   UNL d   1      -1.588   1.037  -1.422  0.00  0.00     0.020 A 
ATOM      2  C1  UNL d   1      -1.673   0.117  -0.378  0.00  0.00     0.020 A 
ATOM      3  C2  UNL d   1      -1.244   0.473   0.902  0.00  0.00     0.034 A 
ATOM      4  C3  UNL d   1      -0.726   1.751   1.142  0.00  0.00     0.017 A 
ATOM      5  C4  UNL d   1      -0.641   2.673   0.093  0.00  0.00     0.017 A 
ATOM      6  C5  UNL d   1      -1.072   2.312  -1.187  0.00  0.00     0.034 A 
ATOM      7 Cl   UNL d   1      -0.014   4.269   0.311  0.00  0.00    -0.070 Cl
ATOM      8 Cl1  UNL d   1      -0.214   2.122   2.750  0.00  0.00    -0.070 Cl
ENDROOT
TORSDOF 0
ENDMDL
