MODEL 1
REMARK minimizedAffinity 12.4483891
REMARK minimizedRMSD -1
REMARK  0 active torsions:
REMARK  status: ('A' for Active; 'I' for Inactive)
ROOT
ATOM      1  C   UNL d   1      -3.159  -0.380  -1.370  0.00  0.00     0.020 A 
ATOM      2  C1  UNL d   1      -3.590   0.946  -1.361  0.00  0.00     0.020 A 
ATOM      3  C2  UNL d   1      -2.660   1.981  -1.250  0.00  0.00     0.034 A 
ATOM      4  C3  UNL d   1      -1.294   1.693  -1.147  0.00  0.00     0.017 A 
ATOM      5  C4  UNL d   1      -0.862   0.361  -1.156  0.00  0.00     0.017 A 
ATOM      6  C5  UNL d   1      -1.798  -0.672  -1.268  0.00  0.00     0.034 A 
ATOM      7 Cl   UNL d   1       0.806  -0.073  -1.033  0.00  0.00    -0.070 Cl
ATOM      8 Cl1  UNL d   1      -0.199   3.023  -1.013  0.00  0.00    -0.070 Cl
ENDROOT
TORSDOF 0
ENDMDL
