MODEL 1
REMARK minimizedAffinity 3.23344755
REMARK minimizedRMSD -1
REMARK  0 active torsions:
REMARK  status: ('A' for Active; 'I' for Inactive)
ROOT
ATOM      1  C   UNL d   1      -4.369   0.233   1.829  0.00  0.00     0.020 A 
ATOM      2  C1  UNL d   1      -4.147  -1.140   1.723  0.00  0.00     0.020 A 
ATOM      3  C2  UNL d   1      -3.736  -1.689   0.507  0.00  0.00     0.034 A 
ATOM      4  C3  UNL d   1      -3.546  -0.865  -0.609  0.00  0.00     0.017 A 
ATOM      5  C4  UNL d   1      -3.769   0.513  -0.502  0.00  0.00     0.017 A 
ATOM      6  C5  UNL d   1      -4.181   1.057   0.719  0.00  0.00     0.034 A 
ATOM      7 Cl   UNL d   1      -3.555   1.593  -1.834  0.00  0.00    -0.070 Cl
ATOM      8 Cl1  UNL d   1      -3.036  -1.612  -2.081  0.00  0.00    -0.070 Cl
ENDROOT
TORSDOF 0
ENDMDL
