MODEL 1
REMARK minimizedAffinity 3.65389514
REMARK minimizedRMSD -1
REMARK  0 active torsions:
REMARK  status: ('A' for Active; 'I' for Inactive)
ROOT
ATOM      1  C   UNL d   1      -3.324  -0.417  -1.421  0.00  0.00     0.020 A 
ATOM      2  C1  UNL d   1      -3.578   0.954  -1.453  0.00  0.00     0.020 A 
ATOM      3  C2  UNL d   1      -2.530   1.862  -1.287  0.00  0.00     0.034 A 
ATOM      4  C3  UNL d   1      -1.224   1.401  -1.087  0.00  0.00     0.017 A 
ATOM      5  C4  UNL d   1      -0.970   0.025  -1.055  0.00  0.00     0.017 A 
ATOM      6  C5  UNL d   1      -2.023  -0.880  -1.222  0.00  0.00     0.034 A 
ATOM      7 Cl   UNL d   1       0.615  -0.620  -0.814  0.00  0.00    -0.070 Cl
ATOM      8 Cl1  UNL d   1       0.023   2.580  -0.889  0.00  0.00    -0.070 Cl
ENDROOT
TORSDOF 0
ENDMDL
