MODEL 1
REMARK minimizedAffinity 1.83665609
REMARK minimizedRMSD -1
REMARK  0 active torsions:
REMARK  status: ('A' for Active; 'I' for Inactive)
ROOT
ATOM      1  C   UNL d   1       1.406   3.589   2.532  0.00  0.00     0.020 A 
ATOM      2  C1  UNL d   1       0.779   2.512   3.157  0.00  0.00     0.020 A 
ATOM      3  C2  UNL d   1      -0.256   1.835   2.509  0.00  0.00     0.034 A 
ATOM      4  C3  UNL d   1      -0.668   2.234   1.232  0.00  0.00     0.017 A 
ATOM      5  C4  UNL d   1      -0.038   3.315   0.605  0.00  0.00     0.017 A 
ATOM      6  C5  UNL d   1       0.999   3.990   1.259  0.00  0.00     0.034 A 
ATOM      7 Cl   UNL d   1      -0.490   3.866  -0.969  0.00  0.00    -0.070 Cl
ATOM      8 Cl1  UNL d   1      -1.954   1.351   0.489  0.00  0.00    -0.070 Cl
ENDROOT
TORSDOF 0
ENDMDL
