MODEL 1
REMARK minimizedAffinity 10.0500994
REMARK minimizedRMSD -1
REMARK  0 active torsions:
REMARK  status: ('A' for Active; 'I' for Inactive)
ROOT
ATOM      1  C   UNL d   1      -1.748  -1.564  -1.869  0.00  0.00     0.020 A 
ATOM      2  C1  UNL d   1      -0.453  -1.079  -2.049  0.00  0.00     0.020 A 
ATOM      3  C2  UNL d   1      -0.082   0.145  -1.488  0.00  0.00     0.034 A 
ATOM      4  C3  UNL d   1      -1.007   0.888  -0.745  0.00  0.00     0.017 A 
ATOM      5  C4  UNL d   1      -2.307   0.400  -0.566  0.00  0.00     0.017 A 
ATOM      6  C5  UNL d   1      -2.673  -0.826  -1.130  0.00  0.00     0.034 A 
ATOM      7 Cl   UNL d   1      -3.503   1.260   0.337  0.00  0.00    -0.070 Cl
ATOM      8 Cl1  UNL d   1      -0.481   2.393  -0.080  0.00  0.00    -0.070 Cl
ENDROOT
TORSDOF 0
ENDMDL
