MODEL 1
REMARK minimizedAffinity 2.14647818
REMARK minimizedRMSD -1
REMARK  0 active torsions:
REMARK  status: ('A' for Active; 'I' for Inactive)
ROOT
ATOM      1  C   UNL d   1      -0.467   1.466  -0.320  0.00  0.00     0.020 A 
ATOM      2  C1  UNL d   1      -0.352   2.246   0.830  0.00  0.00     0.020 A 
ATOM      3  C2  UNL d   1      -0.438   3.637   0.741  0.00  0.00     0.034 A 
ATOM      4  C3  UNL d   1      -0.639   4.252  -0.500  0.00  0.00     0.017 A 
ATOM      5  C4  UNL d   1      -0.755   3.468  -1.653  0.00  0.00     0.017 A 
ATOM      6  C5  UNL d   1      -0.668   2.075  -1.559  0.00  0.00     0.034 A 
ATOM      7 Cl   UNL d   1      -1.005   4.154  -3.220  0.00  0.00    -0.070 Cl
ATOM      8 Cl1  UNL d   1      -0.736   5.977  -0.536  0.00  0.00    -0.070 Cl
ENDROOT
TORSDOF 0
ENDMDL
