MODEL 1
REMARK minimizedAffinity 6.64424849
REMARK minimizedRMSD -1
REMARK  0 active torsions:
REMARK  status: ('A' for Active; 'I' for Inactive)
ROOT
ATOM      1  C   UNL d   1       0.082   4.806   0.068  0.00  0.00     0.020 A 
ATOM      2  C1  UNL d   1      -0.400   4.337  -1.153  0.00  0.00     0.020 A 
ATOM      3  C2  UNL d   1      -0.932   3.049  -1.245  0.00  0.00     0.034 A 
ATOM      4  C3  UNL d   1      -0.983   2.226  -0.114  0.00  0.00     0.017 A 
ATOM      5  C4  UNL d   1      -0.499   2.698   1.111  0.00  0.00     0.017 A 
ATOM      6  C5  UNL d   1       0.033   3.988   1.197  0.00  0.00     0.034 A 
ATOM      7 Cl   UNL d   1      -0.528   1.741   2.550  0.00  0.00    -0.070 Cl
ATOM      8 Cl1  UNL d   1      -1.654   0.645  -0.301  0.00  0.00    -0.070 Cl
ENDROOT
TORSDOF 0
ENDMDL
