MODEL 1
REMARK minimizedAffinity 3.45554566
REMARK minimizedRMSD -1
REMARK  0 active torsions:
REMARK  status: ('A' for Active; 'I' for Inactive)
ROOT
ATOM      1  C   UNL d   1      -3.866   0.124  -0.706  0.00  0.00     0.020 A 
ATOM      2  C1  UNL d   1      -3.359  -1.148  -0.968  0.00  0.00     0.020 A 
ATOM      3  C2  UNL d   1      -1.986  -1.330  -1.141  0.00  0.00     0.034 A 
ATOM      4  C3  UNL d   1      -1.114  -0.238  -1.052  0.00  0.00     0.017 A 
ATOM      5  C4  UNL d   1      -1.624   1.038  -0.789  0.00  0.00     0.017 A 
ATOM      6  C5  UNL d   1      -3.001   1.215  -0.617  0.00  0.00     0.034 A 
ATOM      7 Cl   UNL d   1      -0.612   2.433  -0.665  0.00  0.00    -0.070 Cl
ATOM      8 Cl1  UNL d   1       0.573  -0.537  -1.276  0.00  0.00    -0.070 Cl
ENDROOT
TORSDOF 0
ENDMDL
