MODEL 1
REMARK minimizedAffinity -3.15694141
REMARK minimizedRMSD -1
REMARK  1 active torsions:
REMARK  status: ('A' for Active; 'I' for Inactive)
REMARK    1  A    between atoms: C1_2  and  C2_3 
ROOT
ATOM      1  C2  UNL d   1      -1.654   0.204   0.332  0.00  0.00    -0.081 A 
ATOM      2  C3  UNL d   1      -0.578   0.879  -0.258  0.00  0.00     0.006 A 
ATOM      3  C4  UNL d   1       0.632   0.220  -0.487  0.00  0.00     0.002 A 
ATOM      4  C5  UNL d   1       0.785  -1.125  -0.137  0.00  0.00    -0.080 A 
ATOM      5  C6  UNL d   1       2.069  -1.853  -0.405  0.00  0.00     0.076 C 
ATOM      6  C7  UNL d   1      -0.283  -1.796   0.468  0.00  0.00     0.002 A 
ATOM      7  C8  UNL d   1      -1.494  -1.137   0.698  0.00  0.00     0.006 A 
ENDROOT
BRANCH   1   8
ATOM      8  C1  UNL d   1      -2.981   0.893   0.521  0.00  0.00     0.054 C 
ATOM      9  C   UNL d   1      -3.109   1.472   1.923  0.00  0.00     0.018 C 
ENDBRANCH   1   8
TORSDOF 1
ENDMDL
