MODEL 1
REMARK minimizedAffinity -4.28182173
REMARK minimizedRMSD -1
REMARK  1 active torsions:
REMARK  status: ('A' for Active; 'I' for Inactive)
REMARK    1  A    between atoms: C1_2  and  C2_3 
ROOT
ATOM      1  C2  UNL d   1       1.554   0.189   0.473  0.00  0.00    -0.081 A 
ATOM      2  C3  UNL d   1       2.161  -1.071   0.425  0.00  0.00     0.006 A 
ATOM      3  C4  UNL d   1       1.421  -2.201   0.066  0.00  0.00     0.002 A 
ATOM      4  C5  UNL d   1       0.065  -2.087  -0.258  0.00  0.00    -0.080 A 
ATOM      5  C6  UNL d   1      -0.734  -3.286  -0.674  0.00  0.00     0.076 C 
ATOM      6  C7  UNL d   1      -0.546  -0.830  -0.193  0.00  0.00     0.002 A 
ATOM      7  C8  UNL d   1       0.193   0.299   0.166  0.00  0.00     0.006 A 
ENDROOT
BRANCH   1   8
ATOM      8  C1  UNL d   1       2.365   1.419   0.796  0.00  0.00     0.054 C 
ATOM      9  C   UNL d   1       3.855   1.111   0.809  0.00  0.00     0.018 C 
ENDBRANCH   1   8
TORSDOF 1
ENDMDL
