MODEL 1
REMARK minimizedAffinity -5.40347672
REMARK minimizedRMSD -1
REMARK  1 active torsions:
REMARK  status: ('A' for Active; 'I' for Inactive)
REMARK    1  A    between atoms: C1_2  and  C2_3 
ROOT
ATOM      1  C2  UNL d   1      -0.348   0.186  -0.388  0.00  0.00    -0.081 A 
ATOM      2  C3  UNL d   1       0.429  -0.929  -0.050  0.00  0.00     0.006 A 
ATOM      3  C4  UNL d   1       1.780  -0.780   0.273  0.00  0.00     0.002 A 
ATOM      4  C5  UNL d   1       2.375   0.486   0.270  0.00  0.00    -0.080 A 
ATOM      5  C6  UNL d   1       3.816   0.663   0.644  0.00  0.00     0.076 C 
ATOM      6  C7  UNL d   1       1.604   1.598  -0.085  0.00  0.00     0.002 A 
ATOM      7  C8  UNL d   1       0.253   1.450  -0.408  0.00  0.00     0.006 A 
ENDROOT
BRANCH   1   8
ATOM      8  C1  UNL d   1      -1.820   0.037  -0.674  0.00  0.00     0.054 C 
ATOM      9  C   UNL d   1      -2.663   0.680   0.418  0.00  0.00     0.018 C 
ENDBRANCH   1   8
TORSDOF 1
ENDMDL
