MODEL 1
REMARK minimizedAffinity -5.62887478
REMARK minimizedRMSD -1
REMARK  1 active torsions:
REMARK  status: ('A' for Active; 'I' for Inactive)
REMARK    1  A    between atoms: C1_2  and  C2_3 
ROOT
ATOM      1  C2  UNL d   1      -0.888   0.410  -0.042  0.00  0.00    -0.081 A 
ATOM      2  C3  UNL d   1      -0.581  -0.956  -0.010  0.00  0.00     0.006 A 
ATOM      3  C4  UNL d   1       0.728  -1.382   0.228  0.00  0.00     0.002 A 
ATOM      4  C5  UNL d   1       1.749  -0.451   0.444  0.00  0.00    -0.080 A 
ATOM      5  C6  UNL d   1       3.153  -0.895   0.730  0.00  0.00     0.076 C 
ATOM      6  C7  UNL d   1       1.446   0.914   0.395  0.00  0.00     0.002 A 
ATOM      7  C8  UNL d   1       0.137   1.341   0.157  0.00  0.00     0.006 A 
ENDROOT
BRANCH   1   8
ATOM      8  C1  UNL d   1      -2.311   0.871  -0.233  0.00  0.00     0.054 C 
ATOM      9  C   UNL d   1      -2.956   1.241   1.095  0.00  0.00     0.018 C 
ENDBRANCH   1   8
TORSDOF 1
ENDMDL
