MODEL 1
REMARK minimizedAffinity 3.78808188
REMARK minimizedRMSD -1
REMARK  0 active torsions:
REMARK  status: ('A' for Active; 'I' for Inactive)
ROOT
ATOM      1  C   UNL d   1       0.855   0.336  -3.380  0.00  0.00     0.124 A 
ATOM      2  C1  UNL d   1       1.594   1.133  -2.516  0.00  0.00     0.062 A 
ATOM      3  C2  UNL d   1       1.291   1.162  -1.158  0.00  0.00     0.162 A 
ATOM      4  C3  UNL d   1       0.243   0.391  -0.655  0.00  0.00    -0.034 A 
ATOM      5  C4  UNL d   1      -0.497  -0.406  -1.530  0.00  0.00     0.162 A 
ATOM      6  C5  UNL d   1      -0.190  -0.432  -2.886  0.00  0.00     0.062 A 
ATOM      7  F   UNL d   1      -0.906  -1.202  -3.719  0.00  0.00    -0.097 F 
ATOM      8  F1  UNL d   1      -1.511  -1.160  -1.079  0.00  0.00    -0.096 F 
ATOM      9  I   UNL d   1      -0.214   0.432   1.375  0.00  0.00    -0.060 I 
ATOM     10  F2  UNL d   1       2.022   1.940  -0.347  0.00  0.00    -0.096 F 
ATOM     11  F3  UNL d   1       2.603   1.877  -2.991  0.00  0.00    -0.097 F 
ATOM     12  F4  UNL d   1       1.148   0.311  -4.686  0.00  0.00    -0.092 F 
ENDROOT
TORSDOF 0
ENDMDL
