MODEL 1
REMARK minimizedAffinity -1.67915535
REMARK minimizedRMSD -1
REMARK  0 active torsions:
REMARK  status: ('A' for Active; 'I' for Inactive)
ROOT
ATOM      1  C   UNL d   1      -0.006   0.353   2.046  0.00  0.00     0.124 A 
ATOM      2  C1  UNL d   1      -1.131   0.605   1.273  0.00  0.00     0.062 A 
ATOM      3  C2  UNL d   1      -1.116   0.340  -0.093  0.00  0.00     0.162 A 
ATOM      4  C3  UNL d   1       0.029  -0.182  -0.696  0.00  0.00    -0.034 A 
ATOM      5  C4  UNL d   1       1.157  -0.432   0.088  0.00  0.00     0.162 A 
ATOM      6  C5  UNL d   1       1.137  -0.165   1.453  0.00  0.00     0.062 A 
ATOM      7  F   UNL d   1       2.225  -0.409   2.197  0.00  0.00    -0.097 F 
ATOM      8  F1  UNL d   1       2.274  -0.933  -0.460  0.00  0.00    -0.096 F 
ATOM      9  I   UNL d   1       0.056  -0.580  -2.738  0.00  0.00    -0.060 I 
ATOM     10  F2  UNL d   1      -2.218   0.593  -0.815  0.00  0.00    -0.096 F 
ATOM     11  F3  UNL d   1      -2.236   1.107   1.844  0.00  0.00    -0.097 F 
ATOM     12  F4  UNL d   1      -0.023   0.610   3.360  0.00  0.00    -0.092 F 
ENDROOT
TORSDOF 0
ENDMDL
