MODEL 1
REMARK minimizedAffinity -2.55142021
REMARK minimizedRMSD -1
REMARK  0 active torsions:
REMARK  status: ('A' for Active; 'I' for Inactive)
ROOT
ATOM      1  C   UNL d   1      -0.357   0.956   2.321  0.00  0.00     0.124 A 
ATOM      2  C1  UNL d   1      -1.468   0.760   1.511  0.00  0.00     0.062 A 
ATOM      3  C2  UNL d   1      -1.313   0.271   0.217  0.00  0.00     0.162 A 
ATOM      4  C3  UNL d   1      -0.043  -0.027  -0.276  0.00  0.00    -0.034 A 
ATOM      5  C4  UNL d   1       1.070   0.174   0.544  0.00  0.00     0.162 A 
ATOM      6  C5  UNL d   1       0.910   0.662   1.837  0.00  0.00     0.062 A 
ATOM      7  F   UNL d   1       1.984   0.851   2.617  0.00  0.00    -0.097 F 
ATOM      8  F1  UNL d   1       2.306  -0.103   0.102  0.00  0.00    -0.096 F 
ATOM      9  I   UNL d   1       0.193  -0.758  -2.210  0.00  0.00    -0.060 I 
ATOM     10  F2  UNL d   1      -2.404   0.092  -0.543  0.00  0.00    -0.096 F 
ATOM     11  F3  UNL d   1      -2.693   1.044   1.976  0.00  0.00    -0.097 F 
ATOM     12  F4  UNL d   1      -0.509   1.427   3.565  0.00  0.00    -0.092 F 
ENDROOT
TORSDOF 0
ENDMDL
