MODEL 1
REMARK minimizedAffinity 0.81733191
REMARK minimizedRMSD -1
REMARK  0 active torsions:
REMARK  status: ('A' for Active; 'I' for Inactive)
ROOT
ATOM      1  C   UNL d   1      -2.323   0.557   1.246  0.00  0.00     0.124 A 
ATOM      2  C1  UNL d   1      -2.410   0.259  -0.106  0.00  0.00     0.062 A 
ATOM      3  C2  UNL d   1      -1.279  -0.148  -0.808  0.00  0.00     0.162 A 
ATOM      4  C3  UNL d   1      -0.050  -0.261  -0.157  0.00  0.00    -0.034 A 
ATOM      5  C4  UNL d   1       0.030   0.041   1.203  0.00  0.00     0.162 A 
ATOM      6  C5  UNL d   1      -1.103   0.448   1.900  0.00  0.00     0.062 A 
ATOM      7  F   UNL d   1      -1.017   0.736   3.207  0.00  0.00    -0.097 F 
ATOM      8  F1  UNL d   1       1.195  -0.057   1.860  0.00  0.00    -0.096 F 
ATOM      9  I   UNL d   1       1.643  -0.870  -1.202  0.00  0.00    -0.060 I 
ATOM     10  F2  UNL d   1      -1.392  -0.430  -2.114  0.00  0.00    -0.096 F 
ATOM     11  F3  UNL d   1      -3.587   0.365  -0.740  0.00  0.00    -0.097 F 
ATOM     12  F4  UNL d   1      -3.413   0.950   1.919  0.00  0.00    -0.092 F 
ENDROOT
TORSDOF 0
ENDMDL
