MODEL 1
REMARK minimizedAffinity -2.95740175
REMARK minimizedRMSD -1
REMARK  0 active torsions:
REMARK  status: ('A' for Active; 'I' for Inactive)
ROOT
ATOM      1  C   UNL d   1      -0.379   0.915   2.856  0.00  0.00     0.124 A 
ATOM      2  C1  UNL d   1       0.948   0.642   2.557  0.00  0.00     0.062 A 
ATOM      3  C2  UNL d   1       1.299   0.171   1.295  0.00  0.00     0.162 A 
ATOM      4  C3  UNL d   1       0.320  -0.029   0.322  0.00  0.00    -0.034 A 
ATOM      5  C4  UNL d   1      -1.013   0.246   0.630  0.00  0.00     0.162 A 
ATOM      6  C5  UNL d   1      -1.359   0.717   1.893  0.00  0.00     0.062 A 
ATOM      7  F   UNL d   1      -2.642   0.980   2.180  0.00  0.00    -0.097 F 
ATOM      8  F1  UNL d   1      -1.979   0.065  -0.282  0.00  0.00    -0.096 F 
ATOM      9  I   UNL d   1       0.840  -0.734  -1.566  0.00  0.00    -0.060 I 
ATOM     10  F2  UNL d   1       2.590  -0.084   1.034  0.00  0.00    -0.096 F 
ATOM     11  F3  UNL d   1       1.896   0.832   3.486  0.00  0.00    -0.097 F 
ATOM     12  F4  UNL d   1      -0.714   1.367   4.071  0.00  0.00    -0.092 F 
ENDROOT
TORSDOF 0
ENDMDL
