MODEL 1
REMARK minimizedAffinity -3.90931153
REMARK minimizedRMSD -1
REMARK  0 active torsions:
REMARK  status: ('A' for Active; 'I' for Inactive)
ROOT
ATOM      1  C   UNL d   1      -0.021   0.578   2.036  0.00  0.00     0.124 A 
ATOM      2  C1  UNL d   1      -1.198   0.681   1.308  0.00  0.00     0.062 A 
ATOM      3  C2  UNL d   1      -1.203   0.407  -0.057  0.00  0.00     0.162 A 
ATOM      4  C3  UNL d   1      -0.027   0.028  -0.703  0.00  0.00    -0.034 A 
ATOM      5  C4  UNL d   1       1.153  -0.072   0.036  0.00  0.00     0.162 A 
ATOM      6  C5  UNL d   1       1.153   0.202   1.399  0.00  0.00     0.062 A 
ATOM      7  F   UNL d   1       2.292   0.103   2.101  0.00  0.00    -0.097 F 
ATOM      8  F1  UNL d   1       2.302  -0.434  -0.554  0.00  0.00    -0.096 F 
ATOM      9  I   UNL d   1      -0.030  -0.382  -2.744  0.00  0.00    -0.060 I 
ATOM     10  F2  UNL d   1      -2.356   0.514  -0.736  0.00  0.00    -0.096 F 
ATOM     11  F3  UNL d   1      -2.334   1.045   1.920  0.00  0.00    -0.097 F 
ATOM     12  F4  UNL d   1      -0.019   0.843   3.349  0.00  0.00    -0.092 F 
ENDROOT
TORSDOF 0
ENDMDL
