MODEL 1
REMARK minimizedAffinity -3.00991416
REMARK minimizedRMSD -1
REMARK  0 active torsions:
REMARK  status: ('A' for Active; 'I' for Inactive)
ROOT
ATOM      1  C   UNL d   1      -0.221   0.824   2.597  0.00  0.00     0.124 A 
ATOM      2  C1  UNL d   1      -1.258   0.543   1.718  0.00  0.00     0.062 A 
ATOM      3  C2  UNL d   1      -1.007  -0.153   0.539  0.00  0.00     0.162 A 
ATOM      4  C3  UNL d   1       0.287  -0.575   0.232  0.00  0.00    -0.034 A 
ATOM      5  C4  UNL d   1       1.325  -0.287   1.120  0.00  0.00     0.162 A 
ATOM      6  C5  UNL d   1       1.069   0.408   2.297  0.00  0.00     0.062 A 
ATOM      7  F   UNL d   1       2.073   0.679   3.145  0.00  0.00    -0.097 F 
ATOM      8  F1  UNL d   1       2.580  -0.678   0.856  0.00  0.00    -0.096 F 
ATOM      9  I   UNL d   1       0.665  -1.616  -1.530  0.00  0.00    -0.060 I 
ATOM     10  F2  UNL d   1      -2.029  -0.411  -0.291  0.00  0.00    -0.096 F 
ATOM     11  F3  UNL d   1      -2.505   0.943   2.005  0.00  0.00    -0.097 F 
ATOM     12  F4  UNL d   1      -0.464   1.494   3.730  0.00  0.00    -0.092 F 
ENDROOT
TORSDOF 0
ENDMDL
