MODEL 1
REMARK minimizedAffinity -1.34941137
REMARK minimizedRMSD -1
REMARK  0 active torsions:
REMARK  status: ('A' for Active; 'I' for Inactive)
ROOT
ATOM      1  C   UNL d   1      -0.093   0.173   1.957  0.00  0.00     0.124 A 
ATOM      2  C1  UNL d   1      -1.094   0.698   1.151  0.00  0.00     0.062 A 
ATOM      3  C2  UNL d   1      -1.026   0.555  -0.232  0.00  0.00     0.162 A 
ATOM      4  C3  UNL d   1       0.047  -0.117  -0.818  0.00  0.00    -0.034 A 
ATOM      5  C4  UNL d   1       1.050  -0.641  -0.000  0.00  0.00     0.162 A 
ATOM      6  C5  UNL d   1       0.977  -0.496   1.381  0.00  0.00     0.062 A 
ATOM      7  F   UNL d   1       1.945  -1.003   2.158  0.00  0.00    -0.097 F 
ATOM      8  F1  UNL d   1       2.096  -1.293  -0.531  0.00  0.00    -0.096 F 
ATOM      9  I   UNL d   1       0.152  -0.333  -2.885  0.00  0.00    -0.060 I 
ATOM     10  F2  UNL d   1      -2.007   1.071  -0.986  0.00  0.00    -0.096 F 
ATOM     11  F3  UNL d   1      -2.129   1.345   1.705  0.00  0.00    -0.097 F 
ATOM     12  F4  UNL d   1      -0.161   0.313   3.287  0.00  0.00    -0.092 F 
ENDROOT
TORSDOF 0
ENDMDL
