MODEL 1
REMARK minimizedAffinity -1.97739017
REMARK minimizedRMSD -1
REMARK  0 active torsions:
REMARK  status: ('A' for Active; 'I' for Inactive)
ROOT
ATOM      1  C   UNL d   1       0.008  -0.879  -1.163  0.00  0.00     0.124 A 
ATOM      2  C1  UNL d   1       1.032  -0.681  -0.247  0.00  0.00     0.062 A 
ATOM      3  C2  UNL d   1       0.780  -0.021   0.952  0.00  0.00     0.162 A 
ATOM      4  C3  UNL d   1      -0.501   0.447   1.242  0.00  0.00    -0.034 A 
ATOM      5  C4  UNL d   1      -1.526   0.245   0.316  0.00  0.00     0.162 A 
ATOM      6  C5  UNL d   1      -1.269  -0.416  -0.881  0.00  0.00     0.062 A 
ATOM      7  F   UNL d   1      -2.260  -0.606  -1.765  0.00  0.00    -0.097 F 
ATOM      8  F1  UNL d   1      -2.770   0.682   0.563  0.00  0.00    -0.096 F 
ATOM      9  I   UNL d   1      -0.882   1.436   3.034  0.00  0.00    -0.060 I 
ATOM     10  F2  UNL d   1       1.788   0.156   1.819  0.00  0.00    -0.096 F 
ATOM     11  F3  UNL d   1       2.267  -1.127  -0.517  0.00  0.00    -0.097 F 
ATOM     12  F4  UNL d   1       0.253  -1.514  -2.316  0.00  0.00    -0.092 F 
ENDROOT
TORSDOF 0
ENDMDL
