MODEL 1
REMARK minimizedAffinity -4.9674716
REMARK minimizedRMSD -1
REMARK  2 active torsions:
REMARK  status: ('A' for Active; 'I' for Inactive)
REMARK    1  A    between atoms: C1_2  and  C2_3 
REMARK    2  A    between atoms: C2_3  and  C3_4 
ROOT
ATOM      1  C3  UNL d   1      -0.435   0.152   0.939  0.00  0.00    -0.075 A 
ATOM      2  C4  UNL d   1      -1.575   0.479   1.688  0.00  0.00     0.002 A 
ATOM      3  C5  UNL d   1      -1.453   0.957   2.993  0.00  0.00     0.002 A 
ATOM      4  C6  UNL d   1      -0.193   1.105   3.568  0.00  0.00    -0.004 A 
ATOM      5  C7  UNL d   1       0.946   0.768   2.840  0.00  0.00     0.002 A 
ATOM      6  C8  UNL d   1       0.826   0.293   1.532  0.00  0.00     0.002 A 
ENDROOT
BRANCH   1   7
ATOM      7  C2  UNL d   1      -0.560  -0.338  -0.483  0.00  0.00     0.056 C 
BRANCH   7   8
ATOM      8  C1  UNL d   1       0.756  -0.840  -1.088  0.00  0.00     0.007 C 
ATOM      9  C   UNL d   1       1.186  -0.059  -2.323  0.00  0.00     0.009 C 
ENDBRANCH   7   8
ENDBRANCH   1   7
TORSDOF 2
ENDMDL
