MODEL 1
REMARK minimizedAffinity -6.08029509
REMARK minimizedRMSD -1
REMARK  2 active torsions:
REMARK  status: ('A' for Active; 'I' for Inactive)
REMARK    1  A    between atoms: C1_2  and  C2_3 
REMARK    2  A    between atoms: C2_3  and  C3_4 
ROOT
ATOM      1  C3  UNL d   1      -0.281   0.326   0.756  0.00  0.00    -0.075 A 
ATOM      2  C4  UNL d   1       0.948  -0.074   1.300  0.00  0.00     0.002 A 
ATOM      3  C5  UNL d   1       1.213   0.105   2.658  0.00  0.00     0.002 A 
ATOM      4  C6  UNL d   1       0.259   0.694   3.485  0.00  0.00    -0.004 A 
ATOM      5  C7  UNL d   1      -0.958   1.110   2.952  0.00  0.00     0.002 A 
ATOM      6  C8  UNL d   1      -1.228   0.929   1.594  0.00  0.00     0.002 A 
ENDROOT
BRANCH   1   7
ATOM      7  C2  UNL d   1      -0.585   0.109  -0.707  0.00  0.00     0.056 C 
BRANCH   7   8
ATOM      8  C1  UNL d   1       0.527  -0.613  -1.475  0.00  0.00     0.007 C 
ATOM      9  C   UNL d   1       0.805  -0.005  -2.843  0.00  0.00     0.009 C 
ENDBRANCH   7   8
ENDBRANCH   1   7
TORSDOF 2
ENDMDL
