MODEL 1
REMARK minimizedAffinity -5.79494858
REMARK minimizedRMSD -1
REMARK  2 active torsions:
REMARK  status: ('A' for Active; 'I' for Inactive)
REMARK    1  A    between atoms: C1_2  and  C2_3 
REMARK    2  A    between atoms: C2_3  and  C3_4 
ROOT
ATOM      1  C3  UNL d   1      -0.067  -0.008   0.474  0.00  0.00    -0.075 A 
ATOM      2  C4  UNL d   1       0.820   0.018   1.560  0.00  0.00     0.002 A 
ATOM      3  C5  UNL d   1       0.427   0.566   2.782  0.00  0.00     0.002 A 
ATOM      4  C6  UNL d   1      -0.850   1.101   2.931  0.00  0.00    -0.004 A 
ATOM      5  C7  UNL d   1      -1.734   1.095   1.854  0.00  0.00     0.002 A 
ATOM      6  C8  UNL d   1      -1.345   0.544   0.632  0.00  0.00     0.002 A 
ENDROOT
BRANCH   1   7
ATOM      7  C2  UNL d   1       0.341  -0.626  -0.842  0.00  0.00     0.056 C 
BRANCH   7   8
ATOM      8  C1  UNL d   1       0.672   0.396  -1.934  0.00  0.00     0.007 C 
ATOM      9  C   UNL d   1       0.728  -0.213  -3.329  0.00  0.00     0.009 C 
ENDBRANCH   7   8
ENDBRANCH   1   7
TORSDOF 2
ENDMDL
