MODEL 1
REMARK minimizedAffinity -5.40044641
REMARK minimizedRMSD -1
REMARK  2 active torsions:
REMARK  status: ('A' for Active; 'I' for Inactive)
REMARK    1  A    between atoms: C1_2  and  C2_3 
REMARK    2  A    between atoms: C2_3  and  C3_4 
ROOT
ATOM      1  C3  UNL d   1       0.107   0.259   2.100  0.00  0.00    -0.075 A 
ATOM      2  C4  UNL d   1      -1.223   0.569   2.420  0.00  0.00     0.002 A 
ATOM      3  C5  UNL d   1      -2.221   0.494   1.448  0.00  0.00     0.002 A 
ATOM      4  C6  UNL d   1      -1.902   0.121   0.144  0.00  0.00    -0.004 A 
ATOM      5  C7  UNL d   1      -0.581  -0.172  -0.189  0.00  0.00     0.002 A 
ATOM      6  C8  UNL d   1       0.419  -0.103   0.783  0.00  0.00     0.002 A 
ENDROOT
BRANCH   1   7
ATOM      7  C2  UNL d   1       1.186   0.309   3.155  0.00  0.00     0.056 C 
BRANCH   7   8
ATOM      8  C1  UNL d   1       2.456  -0.464   2.784  0.00  0.00     0.007 C 
ATOM      9  C   UNL d   1       3.736   0.241   3.215  0.00  0.00     0.009 C 
ENDBRANCH   7   8
ENDBRANCH   1   7
TORSDOF 2
ENDMDL
