MODEL 1
REMARK minimizedAffinity 13.0828409
REMARK minimizedRMSD -1
REMARK  1 active torsions:
REMARK  status: ('A' for Active; 'I' for Inactive)
REMARK    1  A    between atoms: C1_2  and  C2_3 
ROOT
ATOM      1  C2  UNL d   1       3.546   3.582  -5.972  0.00  0.00    -0.076 A 
ATOM      2  C3  UNL d   1       3.742   2.190  -5.990  0.00  0.00     0.004 A 
ATOM      3  C4  UNL d   1       2.659   1.313  -6.000  0.00  0.00    -0.003 A 
ATOM      4  C5  UNL d   1       1.362   1.814  -5.993  0.00  0.00     0.000 A 
ATOM      5  C6  UNL d   1       1.148   3.192  -5.993  0.00  0.00     0.000 A 
ATOM      6  C7  UNL d   1       2.229   4.090  -6.000  0.00  0.00    -0.073 A 
ATOM      7  C8  UNL d   1       1.941   5.566  -5.994  0.00  0.00     0.078 C 
ENDROOT
BRANCH   1   8
ATOM      8  C1  UNL d   1       4.759   4.484  -5.935  0.00  0.00     0.053 C 
ATOM      9  C   UNL d   1       4.389   5.959  -5.965  0.00  0.00     0.018 C 
ENDBRANCH   1   8
TORSDOF 1
ENDMDL
