MODEL 1
REMARK minimizedAffinity 0.710577369
REMARK minimizedRMSD -1
REMARK  1 active torsions:
REMARK  status: ('A' for Active; 'I' for Inactive)
REMARK    1  A    between atoms: C1_2  and  C2_3 
ROOT
ATOM      1  C2  UNL d   1       4.798  -4.315   3.373  0.00  0.00    -0.076 A 
ATOM      2  C3  UNL d   1       4.134  -5.527   3.631  0.00  0.00     0.004 A 
ATOM      3  C4  UNL d   1       3.983  -5.999   4.934  0.00  0.00    -0.003 A 
ATOM      4  C5  UNL d   1       4.493  -5.267   6.000  0.00  0.00     0.000 A 
ATOM      5  C6  UNL d   1       5.140  -4.054   5.764  0.00  0.00     0.000 A 
ATOM      6  C7  UNL d   1       5.286  -3.556   4.458  0.00  0.00    -0.073 A 
ATOM      7  C8  UNL d   1       5.997  -2.245   4.261  0.00  0.00     0.078 C 
ENDROOT
BRANCH   1   8
ATOM      8  C1  UNL d   1       4.955  -3.866   1.938  0.00  0.00     0.053 C 
ATOM      9  C   UNL d   1       3.623  -3.752   1.214  0.00  0.00     0.018 C 
ENDBRANCH   1   8
TORSDOF 1
ENDMDL
