MODEL 1
REMARK minimizedAffinity -2.55408716
REMARK minimizedRMSD -1
REMARK  1 active torsions:
REMARK  status: ('A' for Active; 'I' for Inactive)
REMARK    1  A    between atoms: C1_2  and  C2_3 
ROOT
ATOM      1  C2  UNL d   1       3.658  -2.940   1.710  0.00  0.00    -0.076 A 
ATOM      2  C3  UNL d   1       4.518  -3.517   0.760  0.00  0.00     0.004 A 
ATOM      3  C4  UNL d   1       4.197  -3.511  -0.596  0.00  0.00    -0.003 A 
ATOM      4  C5  UNL d   1       3.010  -2.927  -1.025  0.00  0.00     0.000 A 
ATOM      5  C6  UNL d   1       2.153  -2.334  -0.098  0.00  0.00     0.000 A 
ATOM      6  C7  UNL d   1       2.470  -2.318   1.271  0.00  0.00    -0.073 A 
ATOM      7  C8  UNL d   1       1.506  -1.670   2.227  0.00  0.00     0.078 C 
ENDROOT
BRANCH   1   8
ATOM      8  C1  UNL d   1       4.045  -3.001   3.170  0.00  0.00     0.053 C 
ATOM      9  C   UNL d   1       4.496  -4.390   3.596  0.00  0.00     0.018 C 
ENDBRANCH   1   8
TORSDOF 1
ENDMDL
