MODEL 1
REMARK minimizedAffinity -0.602524221
REMARK minimizedRMSD -1
REMARK  1 active torsions:
REMARK  status: ('A' for Active; 'I' for Inactive)
REMARK    1  A    between atoms: C1_2  and  C2_3 
ROOT
ATOM      1  C2  UNL d   1      -3.715   0.000  -3.645  0.00  0.00    -0.076 A 
ATOM      2  C3  UNL d   1      -2.993   0.363  -2.495  0.00  0.00     0.004 A 
ATOM      3  C4  UNL d   1      -2.297   1.570  -2.435  0.00  0.00    -0.003 A 
ATOM      4  C5  UNL d   1      -2.314   2.434  -3.524  0.00  0.00     0.000 A 
ATOM      5  C6  UNL d   1      -3.040   2.098  -4.666  0.00  0.00     0.000 A 
ATOM      6  C7  UNL d   1      -3.759   0.893  -4.737  0.00  0.00    -0.073 A 
ATOM      7  C8  UNL d   1      -4.520   0.579  -5.996  0.00  0.00     0.078 C 
ENDROOT
BRANCH   1   8
ATOM      8  C1  UNL d   1      -4.427  -1.333  -3.662  0.00  0.00     0.053 C 
ATOM      9  C   UNL d   1      -5.900  -1.212  -3.304  0.00  0.00     0.018 C 
ENDBRANCH   1   8
TORSDOF 1
ENDMDL
