MODEL 1
REMARK minimizedAffinity 8.17342567
REMARK minimizedRMSD -1
REMARK  0 active torsions:
REMARK  status: ('A' for Active; 'I' for Inactive)
ROOT
ATOM      1  C   UNL d   1      -5.293   3.572   1.310  0.00  0.00     0.023 A 
ATOM      2  C1  UNL d   1      -6.000   3.635   0.109  0.00  0.00     0.003 A 
ATOM      3  C2  UNL d   1      -5.433   3.134  -1.064  0.00  0.00     0.048 A 
ATOM      4  C3  UNL d   1      -4.159   2.569  -1.029  0.00  0.00     0.023 A 
ATOM      5  C4  UNL d   1      -3.447   2.502   0.170  0.00  0.00     0.048 A 
ATOM      6  C5  UNL d   1      -4.018   3.006   1.340  0.00  0.00     0.003 A 
ATOM      7  I   UNL d   1      -3.313   1.821  -2.774  0.00  0.00    -0.146 I 
ENDROOT
TORSDOF 0
ENDMDL
