MODEL 1
REMARK minimizedAffinity 4.46348763
REMARK minimizedRMSD -1
REMARK  0 active torsions:
REMARK  status: ('A' for Active; 'I' for Inactive)
ROOT
ATOM      1  C   UNL d   1       3.006  -4.362   4.494  0.00  0.00     0.023 A 
ATOM      2  C1  UNL d   1       3.885  -3.285   4.613  0.00  0.00     0.003 A 
ATOM      3  C2  UNL d   1       3.571  -2.058   4.026  0.00  0.00     0.048 A 
ATOM      4  C3  UNL d   1       2.377  -1.914   3.321  0.00  0.00     0.023 A 
ATOM      5  C4  UNL d   1       1.494  -2.989   3.199  0.00  0.00     0.048 A 
ATOM      6  C5  UNL d   1       1.812  -4.214   3.787  0.00  0.00     0.003 A 
ATOM      7  I   UNL d   1       1.907  -0.088   2.445  0.00  0.00    -0.146 I 
ENDROOT
TORSDOF 0
ENDMDL
