MODEL 1
REMARK minimizedAffinity -2.89548874
REMARK minimizedRMSD -1
REMARK  0 active torsions:
REMARK  status: ('A' for Active; 'I' for Inactive)
ROOT
ATOM      1  C   UNL d   1       2.045  -4.930   5.810  0.00  0.00     0.023 A 
ATOM      2  C1  UNL d   1       1.120  -4.860   4.768  0.00  0.00     0.003 A 
ATOM      3  C2  UNL d   1       1.112  -3.756   3.913  0.00  0.00     0.048 A 
ATOM      4  C3  UNL d   1       2.032  -2.726   4.105  0.00  0.00     0.023 A 
ATOM      5  C4  UNL d   1       2.960  -2.792   5.145  0.00  0.00     0.048 A 
ATOM      6  C5  UNL d   1       2.964  -3.897   5.998  0.00  0.00     0.003 A 
ATOM      7  I   UNL d   1       2.022  -1.082   2.833  0.00  0.00    -0.146 I 
ENDROOT
TORSDOF 0
ENDMDL
