MODEL 1
REMARK minimizedAffinity 4.71034908
REMARK minimizedRMSD -1
REMARK  0 active torsions:
REMARK  status: ('A' for Active; 'I' for Inactive)
ROOT
ATOM      1  C   UNL d   1       2.080  -5.997  -5.875  0.00  0.00     0.023 A 
ATOM      2  C1  UNL d   1       3.467  -5.980  -5.729  0.00  0.00     0.003 A 
ATOM      3  C2  UNL d   1       4.037  -5.964  -4.455  0.00  0.00     0.048 A 
ATOM      4  C3  UNL d   1       3.214  -5.967  -3.329  0.00  0.00     0.023 A 
ATOM      5  C4  UNL d   1       1.825  -5.985  -3.470  0.00  0.00     0.048 A 
ATOM      6  C5  UNL d   1       1.260  -6.000  -4.746  0.00  0.00     0.003 A 
ATOM      7  I   UNL d   1       4.060  -5.944  -1.431  0.00  0.00    -0.146 I 
ENDROOT
TORSDOF 0
ENDMDL
