MODEL 1
REMARK minimizedAffinity 10.6399069
REMARK minimizedRMSD -1
REMARK  0 active torsions:
REMARK  status: ('A' for Active; 'I' for Inactive)
ROOT
ATOM      1  C   UNL d   1       4.188  -6.000  -2.987  0.00  0.00     0.023 A 
ATOM      2  C1  UNL d   1       2.825  -6.000  -2.691  0.00  0.00     0.003 A 
ATOM      3  C2  UNL d   1       2.393  -5.764  -1.384  0.00  0.00     0.048 A 
ATOM      4  C3  UNL d   1       3.329  -5.527  -0.378  0.00  0.00     0.023 A 
ATOM      5  C4  UNL d   1       4.694  -5.525  -0.670  0.00  0.00     0.048 A 
ATOM      6  C5  UNL d   1       5.121  -5.763  -1.978  0.00  0.00     0.003 A 
ATOM      7  I   UNL d   1       2.688  -5.174   1.567  0.00  0.00    -0.146 I 
ENDROOT
TORSDOF 0
ENDMDL
