MODEL 1
REMARK minimizedAffinity -4.56505823
REMARK minimizedRMSD -1
REMARK  0 active torsions:
REMARK  status: ('A' for Active; 'I' for Inactive)
ROOT
ATOM      1  C1  BNZ d   1      -0.608   2.985   1.091  0.00  0.00     0.000 A 
ATOM      2  C2  BNZ d   1      -0.326   1.751   1.615  0.00  0.00     0.000 A 
ATOM      3  C3  BNZ d   1      -0.047   0.691   0.798  0.00  0.00     0.000 A 
ATOM      4  C4  BNZ d   1      -0.089   0.856  -0.540  0.00  0.00     0.000 A 
ATOM      5  C5  BNZ d   1      -0.380   2.092  -1.083  0.00  0.00     0.000 A 
ATOM      6  C6  BNZ d   1      -0.623   3.165  -0.257  0.00  0.00     0.000 A 
ENDROOT
TORSDOF 0
ENDMDL
