MODEL 1
REMARK minimizedAffinity -3.24108458
REMARK minimizedRMSD -1
REMARK  0 active torsions:
REMARK  status: ('A' for Active; 'I' for Inactive)
ROOT
ATOM      1  C1  BNZ d   1       0.351   1.094   2.209  0.00  0.00     0.000 A 
ATOM      2  C2  BNZ d   1       0.612  -0.111   1.612  0.00  0.00     0.000 A 
ATOM      3  C3  BNZ d   1       0.610  -0.233   0.251  0.00  0.00     0.000 A 
ATOM      4  C4  BNZ d   1       0.308   0.839  -0.510  0.00  0.00     0.000 A 
ATOM      5  C5  BNZ d   1       0.033   2.058   0.076  0.00  0.00     0.000 A 
ATOM      6  C6  BNZ d   1       0.074   2.186   1.446  0.00  0.00     0.000 A 
ENDROOT
TORSDOF 0
ENDMDL
