MODEL 1
REMARK minimizedAffinity -4.5576601
REMARK minimizedRMSD -1
REMARK  0 active torsions:
REMARK  status: ('A' for Active; 'I' for Inactive)
ROOT
ATOM      1  C1  BNZ d   1      -0.088  -0.063   0.281  0.00  0.00     0.000 A 
ATOM      2  C2  BNZ d   1      -0.124   0.210   1.623  0.00  0.00     0.000 A 
ATOM      3  C3  BNZ d   1      -0.283   1.492   2.072  0.00  0.00     0.000 A 
ATOM      4  C4  BNZ d   1      -0.366   2.501   1.181  0.00  0.00     0.000 A 
ATOM      5  C5  BNZ d   1      -0.323   2.242  -0.174  0.00  0.00     0.000 A 
ATOM      6  C6  BNZ d   1      -0.201   0.947  -0.623  0.00  0.00     0.000 A 
ENDROOT
TORSDOF 0
ENDMDL
