MODEL 1
REMARK minimizedAffinity -2.64718795
REMARK minimizedRMSD -1
REMARK  0 active torsions:
REMARK  status: ('A' for Active; 'I' for Inactive)
ROOT
ATOM      1  C1  BNZ d   1      -1.003  -0.856   1.293  0.00  0.00     0.000 A 
ATOM      2  C2  BNZ d   1      -1.003  -1.554   0.115  0.00  0.00     0.000 A 
ATOM      3  C3  BNZ d   1       0.039  -1.446  -0.763  0.00  0.00     0.000 A 
ATOM      4  C4  BNZ d   1       1.059  -0.611  -0.481  0.00  0.00     0.000 A 
ATOM      5  C5  BNZ d   1       1.070   0.107   0.698  0.00  0.00     0.000 A 
ATOM      6  C6  BNZ d   1       0.038  -0.034   1.598  0.00  0.00     0.000 A 
ENDROOT
TORSDOF 0
ENDMDL
