MODEL 1
REMARK minimizedAffinity -1.25801253
REMARK minimizedRMSD -1
REMARK  0 active torsions:
REMARK  status: ('A' for Active; 'I' for Inactive)
ROOT
ATOM      1  C1  BNZ d   1       0.776  -0.443   0.230  0.00  0.00     0.000 A 
ATOM      2  C2  BNZ d   1       0.851   0.018   1.518  0.00  0.00     0.000 A 
ATOM      3  C3  BNZ d   1       0.424   1.277   1.836  0.00  0.00     0.000 A 
ATOM      4  C4  BNZ d   1      -0.038   2.086   0.862  0.00  0.00     0.000 A 
ATOM      5  C5  BNZ d   1      -0.111   1.640  -0.442  0.00  0.00     0.000 A 
ATOM      6  C6  BNZ d   1       0.283   0.358  -0.753  0.00  0.00     0.000 A 
ENDROOT
TORSDOF 0
ENDMDL
