MODEL 1
REMARK minimizedAffinity -3.42844391
REMARK minimizedRMSD -1
REMARK  0 active torsions:
REMARK  status: ('A' for Active; 'I' for Inactive)
ROOT
ATOM      1  C1  BNZ d   1      -0.719   2.334   1.878  0.00  0.00     0.000 A 
ATOM      2  C2  BNZ d   1       0.016   1.233   2.230  0.00  0.00     0.000 A 
ATOM      3  C3  BNZ d   1       0.263   0.238   1.326  0.00  0.00     0.000 A 
ATOM      4  C4  BNZ d   1      -0.258   0.325   0.085  0.00  0.00     0.000 A 
ATOM      5  C5  BNZ d   1      -1.009   1.424  -0.282  0.00  0.00     0.000 A 
ATOM      6  C6  BNZ d   1      -1.223   2.442   0.618  0.00  0.00     0.000 A 
ENDROOT
TORSDOF 0
ENDMDL
