MODEL 1
REMARK minimizedAffinity -4.01020193
REMARK minimizedRMSD -1
REMARK  0 active torsions:
REMARK  status: ('A' for Active; 'I' for Inactive)
ROOT
ATOM      1  C1  BNZ d   1       0.162  -2.821  -2.616  0.00  0.00     0.000 A 
ATOM      2  C2  BNZ d   1       0.863  -1.683  -2.319  0.00  0.00     0.000 A 
ATOM      3  C3  BNZ d   1       0.661  -1.026  -1.137  0.00  0.00     0.000 A 
ATOM      4  C4  BNZ d   1      -0.268  -1.484  -0.274  0.00  0.00     0.000 A 
ATOM      5  C5  BNZ d   1      -0.989  -2.625  -0.564  0.00  0.00     0.000 A 
ATOM      6  C6  BNZ d   1      -0.756  -3.306  -1.736  0.00  0.00     0.000 A 
ENDROOT
TORSDOF 0
ENDMDL
