MODEL 1
REMARK minimizedAffinity -2.32603812
REMARK minimizedRMSD -1
REMARK  1 active torsions:
REMARK  status: ('A' for Active; 'I' for Inactive)
REMARK    1  A    between atoms: C1_2  and  C2_3 
ROOT
ATOM      1  C2  UNL d   1       1.196   0.984   0.070  0.00  0.00    -0.076 A 
ATOM      2  C3  UNL d   1       1.885   2.093  -0.452  0.00  0.00     0.004 A 
ATOM      3  C4  UNL d   1       1.196   3.190  -0.966  0.00  0.00    -0.003 A 
ATOM      4  C5  UNL d   1      -0.195   3.196  -0.967  0.00  0.00     0.000 A 
ATOM      5  C6  UNL d   1      -0.895   2.112  -0.437  0.00  0.00     0.000 A 
ATOM      6  C7  UNL d   1      -0.215   1.006   0.100  0.00  0.00    -0.073 A 
ATOM      7  C8  UNL d   1      -1.020  -0.138   0.652  0.00  0.00     0.078 C 
ENDROOT
BRANCH   1   8
ATOM      8  C1  UNL d   1       1.997  -0.188   0.589  0.00  0.00     0.053 C 
ATOM      9  C   UNL d   1       2.301  -1.212  -0.494  0.00  0.00     0.018 C 
ENDBRANCH   1   8
TORSDOF 1
ENDMDL
