MODEL 1
REMARK minimizedAffinity 1.06608331
REMARK minimizedRMSD -1
REMARK  1 active torsions:
REMARK  status: ('A' for Active; 'I' for Inactive)
REMARK    1  A    between atoms: C1_2  and  C2_3 
ROOT
ATOM      1  C2  UNL d   1       0.264  -0.926   1.522  0.00  0.00    -0.076 A 
ATOM      2  C3  UNL d   1      -0.968  -0.249   1.549  0.00  0.00     0.004 A 
ATOM      3  C4  UNL d   1      -1.349   0.588   0.502  0.00  0.00    -0.003 A 
ATOM      4  C5  UNL d   1      -0.506   0.762  -0.589  0.00  0.00     0.000 A 
ATOM      5  C6  UNL d   1       0.712   0.084  -0.641  0.00  0.00     0.000 A 
ATOM      6  C7  UNL d   1       1.105  -0.777   0.399  0.00  0.00    -0.073 A 
ATOM      7  C8  UNL d   1       2.431  -1.477   0.294  0.00  0.00     0.078 C 
ENDROOT
BRANCH   1   8
ATOM      8  C1  UNL d   1       0.636  -1.800   2.699  0.00  0.00     0.053 C 
ATOM      9  C   UNL d   1      -0.421  -2.851   3.002  0.00  0.00     0.018 C 
ENDBRANCH   1   8
TORSDOF 1
ENDMDL
