MODEL 1
REMARK minimizedAffinity -5.14831543
REMARK minimizedRMSD -1
REMARK  1 active torsions:
REMARK  status: ('A' for Active; 'I' for Inactive)
REMARK    1  A    between atoms: C1_2  and  C2_3 
ROOT
ATOM      1  C2  UNL d   1      -1.585  -0.265  -0.572  0.00  0.00    -0.076 A 
ATOM      2  C3  UNL d   1      -1.492  -0.816   0.718  0.00  0.00     0.004 A 
ATOM      3  C4  UNL d   1      -0.463  -0.448   1.584  0.00  0.00    -0.003 A 
ATOM      4  C5  UNL d   1       0.490   0.477   1.173  0.00  0.00     0.000 A 
ATOM      5  C6  UNL d   1       0.404   1.047  -0.097  0.00  0.00     0.000 A 
ATOM      6  C7  UNL d   1      -0.637   0.699  -0.976  0.00  0.00    -0.073 A 
ATOM      7  C8  UNL d   1      -0.678   1.340  -2.336  0.00  0.00     0.078 C 
ENDROOT
BRANCH   1   8
ATOM      8  C1  UNL d   1      -2.707  -0.722  -1.476  0.00  0.00     0.053 C 
ATOM      9  C   UNL d   1      -3.703  -1.621  -0.759  0.00  0.00     0.018 C 
ENDBRANCH   1   8
TORSDOF 1
ENDMDL
