MODEL 1
REMARK minimizedAffinity -1.96718752
REMARK minimizedRMSD -1
REMARK  1 active torsions:
REMARK  status: ('A' for Active; 'I' for Inactive)
REMARK    1  A    between atoms: C1_2  and  C2_3 
ROOT
ATOM      1  C2  UNL d   1      -0.059   1.691  -2.621  0.00  0.00    -0.076 A 
ATOM      2  C3  UNL d   1      -0.566   2.597  -1.673  0.00  0.00     0.004 A 
ATOM      3  C4  UNL d   1      -0.718   3.948  -1.981  0.00  0.00    -0.003 A 
ATOM      4  C5  UNL d   1      -0.366   4.414  -3.243  0.00  0.00     0.000 A 
ATOM      5  C6  UNL d   1       0.122   3.526  -4.201  0.00  0.00     0.000 A 
ATOM      6  C7  UNL d   1       0.266   2.159  -3.912  0.00  0.00    -0.073 A 
ATOM      7  C8  UNL d   1       0.802   1.247  -4.981  0.00  0.00     0.078 C 
ENDROOT
BRANCH   1   8
ATOM      8  C1  UNL d   1       0.109   0.242  -2.220  0.00  0.00     0.053 C 
ATOM      9  C   UNL d   1       0.170   0.058  -0.712  0.00  0.00     0.018 C 
ENDBRANCH   1   8
TORSDOF 1
ENDMDL
