MODEL 1
REMARK minimizedAffinity -2.1039381
REMARK minimizedRMSD -1
REMARK  1 active torsions:
REMARK  status: ('A' for Active; 'I' for Inactive)
REMARK    1  A    between atoms: C1_2  and  C2_3 
ROOT
ATOM      1  C2  UNL d   1       0.446   0.552  -2.158  0.00  0.00    -0.076 A 
ATOM      2  C3  UNL d   1       1.254   1.599  -2.635  0.00  0.00     0.004 A 
ATOM      3  C4  UNL d   1       0.695   2.805  -3.052  0.00  0.00    -0.003 A 
ATOM      4  C5  UNL d   1      -0.683   2.985  -3.000  0.00  0.00     0.000 A 
ATOM      5  C6  UNL d   1      -1.499   1.964  -2.513  0.00  0.00     0.000 A 
ATOM      6  C7  UNL d   1      -0.949   0.748  -2.073  0.00  0.00    -0.073 A 
ATOM      7  C8  UNL d   1      -1.877  -0.321  -1.563  0.00  0.00     0.078 C 
ENDROOT
BRANCH   1   8
ATOM      8  C1  UNL d   1       1.106  -0.743  -1.745  0.00  0.00     0.053 C 
ATOM      9  C   UNL d   1       1.503  -0.752  -0.277  0.00  0.00     0.018 C 
ENDBRANCH   1   8
TORSDOF 1
ENDMDL
