MODEL 1
REMARK minimizedAffinity 12.1353779
REMARK minimizedRMSD -1
REMARK  1 active torsions:
REMARK  status: ('A' for Active; 'I' for Inactive)
REMARK    1  A    between atoms: C1_2  and  C2_3 
ROOT
ATOM      1  C2  UNL d   1       4.070   3.927   1.704  0.00  0.00    -0.077 A 
ATOM      2  C3  UNL d   1       4.470   3.211   2.840  0.00  0.00     0.002 A 
ATOM      3  C4  UNL d   1       4.825   3.884   4.011  0.00  0.00     0.002 A 
ATOM      4  C5  UNL d   1       4.779   5.276   4.058  0.00  0.00    -0.004 A 
ATOM      5  C6  UNL d   1       4.385   5.997   2.932  0.00  0.00     0.002 A 
ATOM      6  C7  UNL d   1       4.031   5.326   1.760  0.00  0.00     0.002 A 
ENDROOT
BRANCH   1   7
ATOM      7  C1  UNL d   1       3.640   3.201   0.456  0.00  0.00     0.055 C 
ATOM      8  C   UNL d   1       2.129   3.241   0.286  0.00  0.00     0.019 C 
ENDBRANCH   1   7
TORSDOF 1
ENDMDL
