MODEL 1
REMARK minimizedAffinity 9.04411888
REMARK minimizedRMSD -1
REMARK  1 active torsions:
REMARK  status: ('A' for Active; 'I' for Inactive)
REMARK    1  A    between atoms: C1_2  and  C2_3 
ROOT
ATOM      1  C2  UNL d   1       0.414   1.155   4.605  0.00  0.00    -0.077 A 
ATOM      2  C3  UNL d   1       1.642   0.488   4.722  0.00  0.00     0.002 A 
ATOM      3  C4  UNL d   1       2.051  -0.415   3.739  0.00  0.00     0.002 A 
ATOM      4  C5  UNL d   1       1.241  -0.656   2.631  0.00  0.00    -0.004 A 
ATOM      5  C6  UNL d   1       0.018   0.001   2.507  0.00  0.00     0.002 A 
ATOM      6  C7  UNL d   1      -0.394   0.903   3.489  0.00  0.00     0.002 A 
ENDROOT
BRANCH   1   7
ATOM      7  C1  UNL d   1      -0.006   2.166   5.639  0.00  0.00     0.055 C 
ATOM      8  C   UNL d   1       1.140   3.099   6.000  0.00  0.00     0.019 C 
ENDBRANCH   1   7
TORSDOF 1
ENDMDL
