MODEL 1
REMARK minimizedAffinity 6.44571972
REMARK minimizedRMSD -1
REMARK  1 active torsions:
REMARK  status: ('A' for Active; 'I' for Inactive)
REMARK    1  A    between atoms: C1_2  and  C2_3 
ROOT
ATOM      1  C2  UNL d   1      -0.757   0.319   3.319  0.00  0.00    -0.077 A 
ATOM      2  C3  UNL d   1      -0.412   1.421   4.113  0.00  0.00     0.002 A 
ATOM      3  C4  UNL d   1       0.871   1.529   4.653  0.00  0.00     0.002 A 
ATOM      4  C5  UNL d   1       1.820   0.540   4.400  0.00  0.00    -0.004 A 
ATOM      5  C6  UNL d   1       1.486  -0.561   3.614  0.00  0.00     0.002 A 
ATOM      6  C7  UNL d   1       0.203  -0.671   3.075  0.00  0.00     0.002 A 
ENDROOT
BRANCH   1   7
ATOM      7  C1  UNL d   1      -2.126   0.225   2.696  0.00  0.00     0.055 C 
ATOM      8  C   UNL d   1      -2.766  -1.128   2.967  0.00  0.00     0.019 C 
ENDBRANCH   1   7
TORSDOF 1
ENDMDL
