MODEL 1
REMARK minimizedAffinity 5.58068132
REMARK minimizedRMSD -1
REMARK  1 active torsions:
REMARK  status: ('A' for Active; 'I' for Inactive)
REMARK    1  A    between atoms: C1_2  and  C2_3 
ROOT
ATOM      1  C2  UNL d   1       1.857   0.004   3.676  0.00  0.00    -0.077 A 
ATOM      2  C3  UNL d   1       1.821  -1.353   4.024  0.00  0.00     0.002 A 
ATOM      3  C4  UNL d   1       0.727  -2.144   3.667  0.00  0.00     0.002 A 
ATOM      4  C5  UNL d   1      -0.336  -1.588   2.958  0.00  0.00    -0.004 A 
ATOM      5  C6  UNL d   1      -0.309  -0.238   2.609  0.00  0.00     0.002 A 
ATOM      6  C7  UNL d   1       0.783   0.554   2.965  0.00  0.00     0.002 A 
ENDROOT
BRANCH   1   7
ATOM      7  C1  UNL d   1       3.058   0.848   4.016  0.00  0.00     0.055 C 
ATOM      8  C   UNL d   1       4.333   0.256   3.433  0.00  0.00     0.019 C 
ENDBRANCH   1   7
TORSDOF 1
ENDMDL
