MODEL 1
REMARK minimizedAffinity 12.8515472
REMARK minimizedRMSD -1
REMARK  1 active torsions:
REMARK  status: ('A' for Active; 'I' for Inactive)
REMARK    1  A    between atoms: C1_2  and  C2_3 
ROOT
ATOM      1  C2  UNL d   1       2.549  -1.861  -1.140  0.00  0.00    -0.081 A 
ATOM      2  C3  UNL d   1       2.564  -0.478  -0.923  0.00  0.00     0.006 A 
ATOM      3  C4  UNL d   1       2.032   0.394  -1.876  0.00  0.00     0.002 A 
ATOM      4  C5  UNL d   1       1.469  -0.103  -3.057  0.00  0.00    -0.080 A 
ATOM      5  C6  UNL d   1       0.867   0.820  -4.074  0.00  0.00     0.076 C 
ATOM      6  C7  UNL d   1       1.470  -1.484  -3.281  0.00  0.00     0.002 A 
ATOM      7  C8  UNL d   1       2.003  -2.356  -2.329  0.00  0.00     0.006 A 
ENDROOT
BRANCH   1   8
ATOM      8  C1  UNL d   1       3.064  -2.807  -0.085  0.00  0.00     0.054 C 
ATOM      9  C   UNL d   1       2.304  -4.126  -0.108  0.00  0.00     0.018 C 
ENDBRANCH   1   8
TORSDOF 1
ENDMDL
