MODEL 1
REMARK minimizedAffinity 7.31633997
REMARK minimizedRMSD -1
REMARK  1 active torsions:
REMARK  status: ('A' for Active; 'I' for Inactive)
REMARK    1  A    between atoms: C1_2  and  C2_3 
ROOT
ATOM      1  C2  UNL d   1       3.029  -3.787  -1.934  0.00  0.00    -0.081 A 
ATOM      2  C3  UNL d   1       1.951  -3.533  -2.791  0.00  0.00     0.006 A 
ATOM      3  C4  UNL d   1       1.199  -2.364  -2.655  0.00  0.00     0.002 A 
ATOM      4  C5  UNL d   1       1.515  -1.427  -1.665  0.00  0.00    -0.080 A 
ATOM      5  C6  UNL d   1       0.734  -0.154  -1.527  0.00  0.00     0.076 C 
ATOM      6  C7  UNL d   1       2.581  -1.690  -0.797  0.00  0.00     0.002 A 
ATOM      7  C8  UNL d   1       3.333  -2.859  -0.933  0.00  0.00     0.006 A 
ENDROOT
BRANCH   1   8
ATOM      8  C1  UNL d   1       3.883  -5.016  -2.120  0.00  0.00     0.054 C 
ATOM      9  C   UNL d   1       5.206  -4.887  -1.379  0.00  0.00     0.018 C 
ENDBRANCH   1   8
TORSDOF 1
ENDMDL
