MODEL 1
REMARK minimizedAffinity 8.64776802
REMARK minimizedRMSD -1
REMARK  1 active torsions:
REMARK  status: ('A' for Active; 'I' for Inactive)
REMARK    1  A    between atoms: C1_2  and  C2_3 
ROOT
ATOM      1  C2  UNL d   1       2.616  -0.949  -0.626  0.00  0.00    -0.081 A 
ATOM      2  C3  UNL d   1       1.560  -0.702  -1.511  0.00  0.00     0.006 A 
ATOM      3  C4  UNL d   1       0.843  -1.761  -2.071  0.00  0.00     0.002 A 
ATOM      4  C5  UNL d   1       1.165  -3.084  -1.751  0.00  0.00    -0.080 A 
ATOM      5  C6  UNL d   1       0.384  -4.230  -2.323  0.00  0.00     0.076 C 
ATOM      6  C7  UNL d   1       2.232  -3.332  -0.881  0.00  0.00     0.002 A 
ATOM      7  C8  UNL d   1       2.950  -2.273  -0.320  0.00  0.00     0.006 A 
ENDROOT
BRANCH   1   8
ATOM      8  C1  UNL d   1       3.349   0.193   0.031  0.00  0.00     0.054 C 
ATOM      9  C   UNL d   1       3.426   1.403  -0.889  0.00  0.00     0.018 C 
ENDBRANCH   1   8
TORSDOF 1
ENDMDL
