MODEL 1
REMARK minimizedAffinity 5.83187151
REMARK minimizedRMSD -1
REMARK  1 active torsions:
REMARK  status: ('A' for Active; 'I' for Inactive)
REMARK    1  A    between atoms: C1_2  and  C2_3 
ROOT
ATOM      1  C2  UNL d   1       2.523  -1.103  -1.430  0.00  0.00    -0.081 A 
ATOM      2  C3  UNL d   1       1.259  -1.692  -1.304  0.00  0.00     0.006 A 
ATOM      3  C4  UNL d   1       1.137  -3.066  -1.084  0.00  0.00     0.002 A 
ATOM      4  C5  UNL d   1       2.275  -3.872  -0.978  0.00  0.00    -0.080 A 
ATOM      5  C6  UNL d   1       2.159  -5.343  -0.712  0.00  0.00     0.076 C 
ATOM      6  C7  UNL d   1       3.538  -3.287  -1.121  0.00  0.00     0.002 A 
ATOM      7  C8  UNL d   1       3.661  -1.913  -1.342  0.00  0.00     0.006 A 
ENDROOT
BRANCH   1   8
ATOM      8  C1  UNL d   1       2.660   0.388  -1.602  0.00  0.00     0.054 C 
ATOM      9  C   UNL d   1       4.044   0.868  -1.187  0.00  0.00     0.018 C 
ENDBRANCH   1   8
TORSDOF 1
ENDMDL
