MODEL 1
REMARK minimizedAffinity 12.1385565
REMARK minimizedRMSD -1
REMARK  1 active torsions:
REMARK  status: ('A' for Active; 'I' for Inactive)
REMARK    1  A    between atoms: C1_2  and  C2_3 
ROOT
ATOM      1  C2  UNL d   1       1.865   0.253  -2.084  0.00  0.00    -0.081 A 
ATOM      2  C3  UNL d   1       1.353  -0.938  -2.615  0.00  0.00     0.006 A 
ATOM      3  C4  UNL d   1       1.625  -2.162  -1.999  0.00  0.00     0.002 A 
ATOM      4  C5  UNL d   1       2.405  -2.216  -0.839  0.00  0.00    -0.080 A 
ATOM      5  C6  UNL d   1       2.679  -3.520  -0.151  0.00  0.00     0.076 C 
ATOM      6  C7  UNL d   1       2.931  -1.028  -0.319  0.00  0.00     0.002 A 
ATOM      7  C8  UNL d   1       2.661   0.196  -0.934  0.00  0.00     0.006 A 
ENDROOT
BRANCH   1   8
ATOM      8  C1  UNL d   1       1.521   1.580  -2.709  0.00  0.00     0.054 C 
ATOM      9  C   UNL d   1       1.696   2.721  -1.716  0.00  0.00     0.018 C 
ENDBRANCH   1   8
TORSDOF 1
ENDMDL
