MODEL 1
REMARK minimizedAffinity 14.4642248
REMARK minimizedRMSD -1
REMARK  1 active torsions:
REMARK  status: ('A' for Active; 'I' for Inactive)
REMARK    1  A    between atoms: C1_2  and  C2_3 
ROOT
ATOM      1  C2  UNL d   1      -4.569  -5.775  -1.082  0.00  0.00    -0.081 A 
ATOM      2  C3  UNL d   1      -4.373  -5.393  -2.415  0.00  0.00     0.006 A 
ATOM      3  C4  UNL d   1      -3.082  -5.245  -2.927  0.00  0.00     0.002 A 
ATOM      4  C5  UNL d   1      -1.966  -5.483  -2.118  0.00  0.00    -0.080 A 
ATOM      5  C6  UNL d   1      -0.575  -5.357  -2.663  0.00  0.00     0.076 C 
ATOM      6  C7  UNL d   1      -2.161  -5.848  -0.781  0.00  0.00     0.002 A 
ATOM      7  C8  UNL d   1      -3.452  -5.996  -0.269  0.00  0.00     0.006 A 
ENDROOT
BRANCH   1   8
ATOM      8  C1  UNL d   1      -5.960  -5.998  -0.545  0.00  0.00     0.054 C 
ATOM      9  C   UNL d   1      -5.998  -5.852   0.969  0.00  0.00     0.018 C 
ENDBRANCH   1   8
TORSDOF 1
ENDMDL
