MODEL 1
REMARK minimizedAffinity 2.15123534
REMARK minimizedRMSD -1
REMARK  1 active torsions:
REMARK  status: ('A' for Active; 'I' for Inactive)
REMARK    1  A    between atoms: C1_2  and  C2_3 
ROOT
ATOM      1  C2  UNL d   1      -1.417   1.210   2.901  0.00  0.00    -0.081 A 
ATOM      2  C3  UNL d   1      -2.710   1.552   3.315  0.00  0.00     0.006 A 
ATOM      3  C4  UNL d   1      -3.791   0.717   3.025  0.00  0.00     0.002 A 
ATOM      4  C5  UNL d   1      -3.597  -0.478   2.323  0.00  0.00    -0.080 A 
ATOM      5  C6  UNL d   1      -4.744  -1.398   2.031  0.00  0.00     0.076 C 
ATOM      6  C7  UNL d   1      -2.308  -0.811   1.894  0.00  0.00     0.002 A 
ATOM      7  C8  UNL d   1      -1.226   0.024   2.183  0.00  0.00     0.006 A 
ENDROOT
BRANCH   1   8
ATOM      8  C1  UNL d   1      -0.240   2.076   3.269  0.00  0.00     0.054 C 
ATOM      9  C   UNL d   1       0.945   1.236   3.725  0.00  0.00     0.018 C 
ENDBRANCH   1   8
TORSDOF 1
ENDMDL
