MODEL 1
REMARK minimizedAffinity 10.0843353
REMARK minimizedRMSD -1
REMARK  1 active torsions:
REMARK  status: ('A' for Active; 'I' for Inactive)
REMARK    1  A    between atoms: C1_2  and  C2_3 
ROOT
ATOM      1  C2  UNL d   1       1.747   2.036  -1.103  0.00  0.00    -0.081 A 
ATOM      2  C3  UNL d   1       2.766   1.115  -0.830  0.00  0.00     0.006 A 
ATOM      3  C4  UNL d   1       2.904  -0.039  -1.606  0.00  0.00     0.002 A 
ATOM      4  C5  UNL d   1       2.031  -0.287  -2.671  0.00  0.00    -0.080 A 
ATOM      5  C6  UNL d   1       2.187  -1.506  -3.530  0.00  0.00     0.076 C 
ATOM      6  C7  UNL d   1       1.002   0.624  -2.932  0.00  0.00     0.002 A 
ATOM      7  C8  UNL d   1       0.863   1.777  -2.157  0.00  0.00     0.006 A 
ENDROOT
BRANCH   1   8
ATOM      8  C1  UNL d   1       1.635   3.312  -0.309  0.00  0.00     0.054 C 
ATOM      9  C   UNL d   1       0.855   4.372  -1.074  0.00  0.00     0.018 C 
ENDBRANCH   1   8
TORSDOF 1
ENDMDL
