MODEL 1
REMARK minimizedAffinity 9.8670311
REMARK minimizedRMSD -1
REMARK  1 active torsions:
REMARK  status: ('A' for Active; 'I' for Inactive)
REMARK    1  A    between atoms: C1_2  and  C2_3 
ROOT
ATOM      1  C2  UNL d   1       1.398  -1.304  -2.342  0.00  0.00    -0.081 A 
ATOM      2  C3  UNL d   1       1.810   0.024  -2.507  0.00  0.00     0.006 A 
ATOM      3  C4  UNL d   1       2.553   0.664  -1.513  0.00  0.00     0.002 A 
ATOM      4  C5  UNL d   1       2.903  -0.015  -0.340  0.00  0.00    -0.080 A 
ATOM      5  C6  UNL d   1       3.726   0.650   0.722  0.00  0.00     0.076 C 
ATOM      6  C7  UNL d   1       2.476  -1.336  -0.167  0.00  0.00     0.002 A 
ATOM      7  C8  UNL d   1       1.732  -1.976  -1.161  0.00  0.00     0.006 A 
ENDROOT
BRANCH   1   8
ATOM      8  C1  UNL d   1       0.652  -2.017  -3.441  0.00  0.00     0.054 C 
ATOM      9  C   UNL d   1       1.468  -2.062  -4.725  0.00  0.00     0.018 C 
ENDBRANCH   1   8
TORSDOF 1
ENDMDL
