MODEL 1
REMARK minimizedAffinity 9.80420303
REMARK minimizedRMSD -1
REMARK  1 active torsions:
REMARK  status: ('A' for Active; 'I' for Inactive)
REMARK    1  A    between atoms: C1_2  and  C2_3 
ROOT
ATOM      1  C2  UNL d   1       1.697  -3.226  -0.613  0.00  0.00    -0.081 A 
ATOM      2  C3  UNL d   1       0.642  -2.332  -0.836  0.00  0.00     0.006 A 
ATOM      3  C4  UNL d   1       0.901  -0.995  -1.148  0.00  0.00     0.002 A 
ATOM      4  C5  UNL d   1       2.217  -0.532  -1.250  0.00  0.00    -0.080 A 
ATOM      5  C6  UNL d   1       2.508   0.894  -1.614  0.00  0.00     0.076 C 
ATOM      6  C7  UNL d   1       3.270  -1.420  -1.011  0.00  0.00     0.002 A 
ATOM      7  C8  UNL d   1       3.013  -2.757  -0.698  0.00  0.00     0.006 A 
ENDROOT
BRANCH   1   8
ATOM      8  C1  UNL d   1       1.423  -4.683  -0.340  0.00  0.00     0.054 C 
ATOM      9  C   UNL d   1       1.834  -5.553  -1.519  0.00  0.00     0.018 C 
ENDBRANCH   1   8
TORSDOF 1
ENDMDL
