MODEL 1
REMARK minimizedAffinity 8.8896656
REMARK minimizedRMSD -1
REMARK  1 active torsions:
REMARK  status: ('A' for Active; 'I' for Inactive)
REMARK    1  A    between atoms: C1_2  and  C2_3 
ROOT
ATOM      1  C2  UNL d   1       3.420  -1.413  -0.681  0.00  0.00    -0.081 A 
ATOM      2  C3  UNL d   1       2.557  -1.743  -1.733  0.00  0.00     0.006 A 
ATOM      3  C4  UNL d   1       2.033  -0.746  -2.559  0.00  0.00     0.002 A 
ATOM      4  C5  UNL d   1       2.369   0.596  -2.353  0.00  0.00    -0.080 A 
ATOM      5  C6  UNL d   1       1.837   1.673  -3.251  0.00  0.00     0.076 C 
ATOM      6  C7  UNL d   1       3.218   0.928  -1.292  0.00  0.00     0.002 A 
ATOM      7  C8  UNL d   1       3.742  -0.068  -0.465  0.00  0.00     0.006 A 
ENDROOT
BRANCH   1   8
ATOM      8  C1  UNL d   1       4.039  -2.491   0.171  0.00  0.00     0.054 C 
ATOM      9  C   UNL d   1       5.559  -2.424   0.132  0.00  0.00     0.018 C 
ENDBRANCH   1   8
TORSDOF 1
ENDMDL
