MODEL 1
REMARK minimizedAffinity 9.66234589
REMARK minimizedRMSD -1
REMARK  1 active torsions:
REMARK  status: ('A' for Active; 'I' for Inactive)
REMARK    1  A    between atoms: C1_2  and  C2_3 
ROOT
ATOM      1  C2  UNL d   1       0.239  -3.370  -1.432  0.00  0.00    -0.081 A 
ATOM      2  C3  UNL d   1       0.835  -2.105  -1.503  0.00  0.00     0.006 A 
ATOM      3  C4  UNL d   1       2.150  -1.916  -1.072  0.00  0.00     0.002 A 
ATOM      4  C5  UNL d   1       2.894  -2.989  -0.571  0.00  0.00    -0.080 A 
ATOM      5  C6  UNL d   1       4.316  -2.806  -0.132  0.00  0.00     0.076 C 
ATOM      6  C7  UNL d   1       2.293  -4.250  -0.484  0.00  0.00     0.002 A 
ATOM      7  C8  UNL d   1       0.978  -4.439  -0.914  0.00  0.00     0.006 A 
ENDROOT
BRANCH   1   8
ATOM      8  C1  UNL d   1      -1.157  -3.590  -1.957  0.00  0.00     0.054 C 
ATOM      9  C   UNL d   1      -1.135  -4.119  -3.384  0.00  0.00     0.018 C 
ENDBRANCH   1   8
TORSDOF 1
ENDMDL
