MODEL 1
REMARK minimizedAffinity 2.45533919
REMARK minimizedRMSD -1
REMARK  1 active torsions:
REMARK  status: ('A' for Active; 'I' for Inactive)
REMARK    1  A    between atoms: C1_2  and  C2_3 
ROOT
ATOM      1  C2  UNL d   1      -0.279  -2.264  -2.033  0.00  0.00    -0.081 A 
ATOM      2  C3  UNL d   1       0.855  -1.750  -2.673  0.00  0.00     0.006 A 
ATOM      3  C4  UNL d   1       2.120  -1.899  -2.099  0.00  0.00     0.002 A 
ATOM      4  C5  UNL d   1       2.273  -2.570  -0.882  0.00  0.00    -0.080 A 
ATOM      5  C6  UNL d   1       3.629  -2.763  -0.270  0.00  0.00     0.076 C 
ATOM      6  C7  UNL d   1       1.138  -3.068  -0.233  0.00  0.00     0.002 A 
ATOM      7  C8  UNL d   1      -0.127  -2.919  -0.806  0.00  0.00     0.006 A 
ENDROOT
BRANCH   1   8
ATOM      8  C1  UNL d   1      -1.637  -2.162  -2.680  0.00  0.00     0.054 C 
ATOM      9  C   UNL d   1      -2.374  -3.493  -2.631  0.00  0.00     0.018 C 
ENDBRANCH   1   8
TORSDOF 1
ENDMDL
