MODEL 1
REMARK minimizedAffinity 1.9942193
REMARK minimizedRMSD -1
REMARK  0 active torsions:
REMARK  status: ('A' for Active; 'I' for Inactive)
ROOT
ATOM      1  C4' PXY d   1      -1.694  -0.054   0.452  0.00  0.00     0.077 C 
ATOM      2  C1' PXY d   1       1.567  -2.327   4.650  0.00  0.00     0.077 C 
ATOM      3  C1  PXY d   1       0.720  -1.721   3.548  0.00  0.00    -0.082 A 
ATOM      4  C2  PXY d   1      -0.554  -2.063   3.439  0.00  0.00     0.003 A 
ATOM      5  C3  PXY d   1      -1.326  -1.549   2.429  0.00  0.00     0.003 A 
ATOM      6  C4  PXY d   1      -0.803  -0.634   1.555  0.00  0.00    -0.082 A 
ATOM      7  C5  PXY d   1       0.492  -0.272   1.666  0.00  0.00     0.003 A 
ATOM      8  C6  PXY d   1       1.270  -0.837   2.673  0.00  0.00     0.003 A 
ENDROOT
TORSDOF 0
ENDMDL
