MODEL 1
REMARK minimizedAffinity -2.06313109
REMARK minimizedRMSD -1
REMARK  0 active torsions:
REMARK  status: ('A' for Active; 'I' for Inactive)
ROOT
ATOM      1  C4' PXY d   1      -3.071  -1.544   3.722  0.00  0.00     0.077 C 
ATOM      2  C1' PXY d   1       2.332  -0.472   1.967  0.00  0.00     0.077 C 
ATOM      3  C1  PXY d   1       0.918  -0.765   2.430  0.00  0.00    -0.082 A 
ATOM      4  C2  PXY d   1      -0.086  -0.041   1.965  0.00  0.00     0.003 A 
ATOM      5  C3  PXY d   1      -1.367  -0.272   2.397  0.00  0.00     0.003 A 
ATOM      6  C4  PXY d   1      -1.629  -1.289   3.275  0.00  0.00    -0.082 A 
ATOM      7  C5  PXY d   1      -0.611  -2.040   3.746  0.00  0.00     0.003 A 
ATOM      8  C6  PXY d   1       0.687  -1.763   3.326  0.00  0.00     0.003 A 
ENDROOT
TORSDOF 0
ENDMDL
