MODEL 1
REMARK minimizedAffinity 0.55973798
REMARK minimizedRMSD -1
REMARK  0 active torsions:
REMARK  status: ('A' for Active; 'I' for Inactive)
ROOT
ATOM      1  C4' PXY d   1      -3.405  -2.056   2.951  0.00  0.00     0.077 C 
ATOM      2  C1' PXY d   1       2.208  -0.782   3.480  0.00  0.00     0.077 C 
ATOM      3  C1  PXY d   1       0.733  -1.103   3.339  0.00  0.00    -0.082 A 
ATOM      4  C2  PXY d   1       0.247  -2.200   3.897  0.00  0.00     0.003 A 
ATOM      5  C3  PXY d   1      -1.078  -2.522   3.753  0.00  0.00     0.003 A 
ATOM      6  C4  PXY d   1      -1.925  -1.686   3.075  0.00  0.00    -0.082 A 
ATOM      7  C5  PXY d   1      -1.438  -0.560   2.512  0.00  0.00     0.003 A 
ATOM      8  C6  PXY d   1      -0.082  -0.272   2.635  0.00  0.00     0.003 A 
ENDROOT
TORSDOF 0
ENDMDL
