MODEL 1
REMARK minimizedAffinity 0.406976253
REMARK minimizedRMSD -1
REMARK  0 active torsions:
REMARK  status: ('A' for Active; 'I' for Inactive)
ROOT
ATOM      1  C4' PXY d   1       2.204  -2.175   4.883  0.00  0.00     0.077 C 
ATOM      2  C1' PXY d   1      -1.490  -0.074   0.965  0.00  0.00     0.077 C 
ATOM      3  C1  PXY d   1      -0.530  -0.624   2.002  0.00  0.00    -0.082 A 
ATOM      4  C2  PXY d   1       0.773  -0.567   1.782  0.00  0.00     0.003 A 
ATOM      5  C3  PXY d   1       1.654  -1.088   2.694  0.00  0.00     0.003 A 
ATOM      6  C4  PXY d   1       1.198  -1.625   3.869  0.00  0.00    -0.082 A 
ATOM      7  C5  PXY d   1      -0.130  -1.677   4.105  0.00  0.00     0.003 A 
ATOM      8  C6  PXY d   1      -1.009  -1.180   3.148  0.00  0.00     0.003 A 
ENDROOT
TORSDOF 0
ENDMDL
