MODEL 1
REMARK minimizedAffinity 0.20216541
REMARK minimizedRMSD -1
REMARK  0 active torsions:
REMARK  status: ('A' for Active; 'I' for Inactive)
ROOT
ATOM      1  C4' PXY d   1      -2.892  -0.898   2.870  0.00  0.00     0.077 C 
ATOM      2  C1' PXY d   1       2.852  -0.712   2.250  0.00  0.00     0.077 C 
ATOM      3  C1  PXY d   1       1.344  -0.749   2.406  0.00  0.00    -0.082 A 
ATOM      4  C2  PXY d   1       0.808  -1.413   3.417  0.00  0.00     0.003 A 
ATOM      5  C3  PXY d   1      -0.555  -1.484   3.554  0.00  0.00     0.003 A 
ATOM      6  C4  PXY d   1      -1.375  -0.825   2.678  0.00  0.00    -0.082 A 
ATOM      7  C5  PXY d   1      -0.835  -0.137   1.650  0.00  0.00     0.003 A 
ATOM      8  C6  PXY d   1       0.549  -0.111   1.505  0.00  0.00     0.003 A 
ENDROOT
TORSDOF 0
ENDMDL
