MODEL 1
REMARK minimizedAffinity 0.919932306
REMARK minimizedRMSD -1
REMARK  0 active torsions:
REMARK  status: ('A' for Active; 'I' for Inactive)
ROOT
ATOM      1  C4' PXY d   1      -3.393  -1.695   3.169  0.00  0.00     0.077 C 
ATOM      2  C1' PXY d   1       2.268  -1.416   4.306  0.00  0.00     0.077 C 
ATOM      3  C1  PXY d   1       0.784  -1.477   4.002  0.00  0.00    -0.082 A 
ATOM      4  C2  PXY d   1      -0.004  -2.241   4.741  0.00  0.00     0.003 A 
ATOM      5  C3  PXY d   1      -1.343  -2.333   4.460  0.00  0.00     0.003 A 
ATOM      6  C4  PXY d   1      -1.891  -1.595   3.445  0.00  0.00    -0.082 A 
ATOM      7  C5  PXY d   1      -1.095  -0.805   2.693  0.00  0.00     0.003 A 
ATOM      8  C6  PXY d   1       0.268  -0.757   2.969  0.00  0.00     0.003 A 
ENDROOT
TORSDOF 0
ENDMDL
