MODEL 1
REMARK minimizedAffinity 3.44231033
REMARK minimizedRMSD -1
REMARK  0 active torsions:
REMARK  status: ('A' for Active; 'I' for Inactive)
ROOT
ATOM      1  C4' PXY d   1      -2.629   0.282   1.275  0.00  0.00     0.077 C 
ATOM      2  C1' PXY d   1       1.484  -2.537   4.199  0.00  0.00     0.077 C 
ATOM      3  C1  PXY d   1       0.399  -1.809   3.430  0.00  0.00    -0.082 A 
ATOM      4  C2  PXY d   1       0.667  -0.642   2.867  0.00  0.00     0.003 A 
ATOM      5  C3  PXY d   1      -0.311   0.045   2.195  0.00  0.00     0.003 A 
ATOM      6  C4  PXY d   1      -1.562  -0.493   2.053  0.00  0.00    -0.082 A 
ATOM      7  C5  PXY d   1      -1.840  -1.688   2.615  0.00  0.00     0.003 A 
ATOM      8  C6  PXY d   1      -0.845  -2.351   3.328  0.00  0.00     0.003 A 
ENDROOT
TORSDOF 0
ENDMDL
