MODEL 1
REMARK minimizedAffinity 2.22779036
REMARK minimizedRMSD -1
REMARK  0 active torsions:
REMARK  status: ('A' for Active; 'I' for Inactive)
ROOT
ATOM      1  C4' PXY d   1       2.985  -2.962   4.174  0.00  0.00     0.077 C 
ATOM      2  C1' PXY d   1      -1.663  -0.197   2.133  0.00  0.00     0.077 C 
ATOM      3  C1  PXY d   1      -0.451  -0.926   2.679  0.00  0.00    -0.082 A 
ATOM      4  C2  PXY d   1       0.761  -0.551   2.304  0.00  0.00     0.003 A 
ATOM      5  C3  PXY d   1       1.867  -1.220   2.763  0.00  0.00     0.003 A 
ATOM      6  C4  PXY d   1       1.733  -2.249   3.656  0.00  0.00    -0.082 A 
ATOM      7  C5  PXY d   1       0.500  -2.631   4.051  0.00  0.00     0.003 A 
ATOM      8  C6  PXY d   1      -0.611  -1.966   3.542  0.00  0.00     0.003 A 
ENDROOT
TORSDOF 0
ENDMDL
