MODEL 1
REMARK minimizedAffinity 5.01026297
REMARK minimizedRMSD -1
REMARK  0 active torsions:
REMARK  status: ('A' for Active; 'I' for Inactive)
ROOT
ATOM      1  C4' PXY d   1       2.314  -2.031   4.427  0.00  0.00     0.077 C 
ATOM      2  C1' PXY d   1      -1.488   0.866   1.176  0.00  0.00     0.077 C 
ATOM      3  C1  PXY d   1      -0.487   0.100   2.018  0.00  0.00    -0.082 A 
ATOM      4  C2  PXY d   1      -0.709  -0.063   3.312  0.00  0.00     0.003 A 
ATOM      5  C3  PXY d   1       0.202  -0.726   4.094  0.00  0.00     0.003 A 
ATOM      6  C4  PXY d   1       1.326  -1.273   3.536  0.00  0.00    -0.082 A 
ATOM      7  C5  PXY d   1       1.555  -1.120   2.215  0.00  0.00     0.003 A 
ATOM      8  C6  PXY d   1       0.638  -0.409   1.446  0.00  0.00     0.003 A 
ENDROOT
TORSDOF 0
ENDMDL
