MODEL 1
REMARK minimizedAffinity 5.01486683
REMARK minimizedRMSD -1
REMARK  0 active torsions:
REMARK  status: ('A' for Active; 'I' for Inactive)
ROOT
ATOM      1  C4' PXY d   1      -4.451  -6.000  -2.315  0.00  0.00     0.077 C 
ATOM      2  C1' PXY d   1      -3.935  -0.324  -1.349  0.00  0.00     0.077 C 
ATOM      3  C1  PXY d   1      -4.057  -1.814  -1.600  0.00  0.00    -0.082 A 
ATOM      4  C2  PXY d   1      -5.037  -2.270  -2.363  0.00  0.00     0.003 A 
ATOM      5  C3  PXY d   1      -5.182  -3.617  -2.575  0.00  0.00     0.003 A 
ATOM      6  C4  PXY d   1      -4.283  -4.503  -2.042  0.00  0.00    -0.082 A 
ATOM      7  C5  PXY d   1      -3.275  -4.044  -1.271  0.00  0.00     0.003 A 
ATOM      8  C6  PXY d   1      -3.169  -2.676  -1.035  0.00  0.00     0.003 A 
ENDROOT
TORSDOF 0
ENDMDL
