MODEL 1
REMARK minimizedAffinity 4.2128005
REMARK minimizedRMSD -1
REMARK  0 active torsions:
REMARK  status: ('A' for Active; 'I' for Inactive)
ROOT
ATOM      1  C4' PXY d   1       0.259  -0.808   2.747  0.00  0.00     0.077 C 
ATOM      2  C1' PXY d   1      -3.485   0.902  -1.312  0.00  0.00     0.077 C 
ATOM      3  C1  PXY d   1      -2.509   0.442  -0.248  0.00  0.00    -0.082 A 
ATOM      4  C2  PXY d   1      -1.940   1.333   0.547  0.00  0.00     0.003 A 
ATOM      5  C3  PXY d   1      -1.030   0.938   1.494  0.00  0.00     0.003 A 
ATOM      6  C4  PXY d   1      -0.740  -0.390   1.664  0.00  0.00    -0.082 A 
ATOM      7  C5  PXY d   1      -1.325  -1.306   0.864  0.00  0.00     0.003 A 
ATOM      8  C6  PXY d   1      -2.214  -0.881  -0.118  0.00  0.00     0.003 A 
ENDROOT
TORSDOF 0
ENDMDL
