MODEL 1
REMARK minimizedAffinity 2.07343245
REMARK minimizedRMSD -1
REMARK  0 active torsions:
REMARK  status: ('A' for Active; 'I' for Inactive)
ROOT
ATOM      1  C4' PXY d   1      -1.157   0.207   1.828  0.00  0.00     0.077 C 
ATOM      2  C1' PXY d   1       3.133  -2.546   4.553  0.00  0.00     0.077 C 
ATOM      3  C1  PXY d   1       2.016  -1.813   3.837  0.00  0.00    -0.082 A 
ATOM      4  C2  PXY d   1       0.761  -2.189   4.026  0.00  0.00     0.003 A 
ATOM      5  C3  PXY d   1      -0.259  -1.559   3.362  0.00  0.00     0.003 A 
ATOM      6  C4  PXY d   1       0.002  -0.498   2.537  0.00  0.00    -0.082 A 
ATOM      7  C5  PXY d   1       1.279  -0.101   2.348  0.00  0.00     0.003 A 
ATOM      8  C6  PXY d   1       2.304  -0.781   2.999  0.00  0.00     0.003 A 
ENDROOT
TORSDOF 0
ENDMDL
