MODEL 1
REMARK minimizedAffinity 7.20865488
REMARK minimizedRMSD -1
REMARK  0 active torsions:
REMARK  status: ('A' for Active; 'I' for Inactive)
ROOT
ATOM      1  C4' PXY d   1      -0.942  -6.000  -6.000  0.00  0.00     0.077 C 
ATOM      2  C1' PXY d   1       1.950  -4.107  -1.366  0.00  0.00     0.077 C 
ATOM      3  C1  PXY d   1       1.198  -4.595  -2.589  0.00  0.00    -0.082 A 
ATOM      4  C2  PXY d   1      -0.015  -5.104  -2.451  0.00  0.00     0.003 A 
ATOM      5  C3  PXY d   1      -0.696  -5.580  -3.542  0.00  0.00     0.003 A 
ATOM      6  C4  PXY d   1      -0.150  -5.486  -4.795  0.00  0.00    -0.082 A 
ATOM      7  C5  PXY d   1       1.083  -4.958  -4.945  0.00  0.00     0.003 A 
ATOM      8  C6  PXY d   1       1.774  -4.518  -3.820  0.00  0.00     0.003 A 
ENDROOT
TORSDOF 0
ENDMDL
