MODEL 1
REMARK minimizedAffinity 19.2612362
REMARK minimizedRMSD -1
REMARK  1 active torsions:
REMARK  status: ('A' for Active; 'I' for Inactive)
REMARK    1  A    between atoms: N_2  and  C1_3 
ROOT
ATOM      1  C1  UNL d   1      -0.291  -1.894   1.621  0.00  0.00     0.143 A 
ATOM      2  C2  UNL d   1      -0.370  -0.508   1.448  0.00  0.00    -0.057 A 
ATOM      3  C3  UNL d   1      -1.472   0.085   0.821  0.00  0.00     0.033 A 
ATOM      4  C4  UNL d   1      -2.505  -0.704   0.326  0.00  0.00    -0.042 A 
ATOM      5  C5  UNL d   1      -2.437  -2.086   0.464  0.00  0.00     0.033 A 
ATOM      6  C6  UNL d   1      -1.337  -2.671   1.098  0.00  0.00    -0.057 A 
ENDROOT
BRANCH   1   7
ATOM      7  N   UNL d   1       0.823  -2.550   2.148  0.00  0.00    -0.732 N 
ATOM      8  C   UNL d   1       1.123  -2.474   3.562  0.00  0.00     0.284 C 
ATOM      9  H3  UNL d   1       0.957  -3.475   1.745  0.00  0.00     0.395 HD
ENDBRANCH   1   7
TORSDOF 1
ENDMDL
