MODEL 1
REMARK minimizedAffinity 12.0572157
REMARK minimizedRMSD -1
REMARK  1 active torsions:
REMARK  status: ('A' for Active; 'I' for Inactive)
REMARK    1  A    between atoms: N_2  and  C1_3 
ROOT
ATOM      1  C1  UNL d   1       1.042   4.076  -3.248  0.00  0.00     0.143 A 
ATOM      2  C2  UNL d   1       2.395   4.348  -3.480  0.00  0.00    -0.057 A 
ATOM      3  C3  UNL d   1       3.397   3.482  -3.028  0.00  0.00     0.033 A 
ATOM      4  C4  UNL d   1       3.065   2.339  -2.309  0.00  0.00    -0.042 A 
ATOM      5  C5  UNL d   1       1.729   2.061  -2.045  0.00  0.00     0.033 A 
ATOM      6  C6  UNL d   1       0.731   2.927  -2.504  0.00  0.00    -0.057 A 
ENDROOT
BRANCH   1   7
ATOM      7  N   UNL d   1       0.004   4.948  -3.586  0.00  0.00    -0.732 N 
ATOM      8  C   UNL d   1      -0.510   4.994  -4.938  0.00  0.00     0.284 C 
ATOM      9  H3  UNL d   1      -0.714   4.994  -2.866  0.00  0.00     0.395 HD
ENDBRANCH   1   7
TORSDOF 1
ENDMDL
