MODEL 1
REMARK minimizedAffinity 9.49751759
REMARK minimizedRMSD -1
REMARK  1 active torsions:
REMARK  status: ('A' for Active; 'I' for Inactive)
REMARK    1  A    between atoms: N_2  and  C1_3 
ROOT
ATOM      1  C1  UNL d   1      -2.080  -5.061  -4.912  0.00  0.00     0.143 A 
ATOM      2  C2  UNL d   1      -2.784  -4.434  -3.877  0.00  0.00    -0.057 A 
ATOM      3  C3  UNL d   1      -2.127  -3.646  -2.925  0.00  0.00     0.033 A 
ATOM      4  C4  UNL d   1      -0.745  -3.493  -2.975  0.00  0.00    -0.042 A 
ATOM      5  C5  UNL d   1      -0.022  -4.127  -3.979  0.00  0.00     0.033 A 
ATOM      6  C6  UNL d   1      -0.685  -4.907  -4.931  0.00  0.00    -0.057 A 
ENDROOT
BRANCH   1   7
ATOM      7  N   UNL d   1      -2.664  -5.937  -5.830  0.00  0.00    -0.732 N 
ATOM      8  C   UNL d   1      -4.101  -5.985  -5.993  0.00  0.00     0.284 C 
ATOM      9  H3  UNL d   1      -2.145  -5.987  -6.703  0.00  0.00     0.395 HD
ENDBRANCH   1   7
TORSDOF 1
ENDMDL
