MODEL 1
REMARK minimizedAffinity 12.8446321
REMARK minimizedRMSD -1
REMARK  1 active torsions:
REMARK  status: ('A' for Active; 'I' for Inactive)
REMARK    1  A    between atoms: N_2  and  C1_3 
ROOT
ATOM      1  C1  UNL d   1       4.075   3.408  -2.629  0.00  0.00     0.143 A 
ATOM      2  C2  UNL d   1       3.809   2.560  -1.548  0.00  0.00    -0.057 A 
ATOM      3  C3  UNL d   1       2.583   1.894  -1.432  0.00  0.00     0.033 A 
ATOM      4  C4  UNL d   1       1.586   2.089  -2.383  0.00  0.00    -0.042 A 
ATOM      5  C5  UNL d   1       1.819   2.947  -3.452  0.00  0.00     0.033 A 
ATOM      6  C6  UNL d   1       3.048   3.603  -3.566  0.00  0.00    -0.057 A 
ENDROOT
BRANCH   1   7
ATOM      7  N   UNL d   1       5.237   4.174  -2.748  0.00  0.00    -0.732 N 
ATOM      8  C   UNL d   1       5.932   4.649  -1.571  0.00  0.00     0.284 C 
ATOM      9  H3  UNL d   1       5.851   3.836  -3.486  0.00  0.00     0.395 HD
ENDBRANCH   1   7
TORSDOF 1
ENDMDL
