MODEL 1
REMARK minimizedAffinity 3.21740842
REMARK minimizedRMSD -1
REMARK  1 active torsions:
REMARK  status: ('A' for Active; 'I' for Inactive)
REMARK    1  A    between atoms: N_2  and  C1_3 
ROOT
ATOM      1  C1  UNL d   1      -2.926  -0.207   0.844  0.00  0.00     0.143 A 
ATOM      2  C2  UNL d   1      -2.925  -1.562   1.191  0.00  0.00    -0.057 A 
ATOM      3  C3  UNL d   1      -1.822  -2.149   1.823  0.00  0.00     0.033 A 
ATOM      4  C4  UNL d   1      -0.686  -1.394   2.094  0.00  0.00    -0.042 A 
ATOM      5  C5  UNL d   1      -0.655  -0.052   1.736  0.00  0.00     0.033 A 
ATOM      6  C6  UNL d   1      -1.762   0.530   1.110  0.00  0.00    -0.057 A 
ENDROOT
BRANCH   1   7
ATOM      7  N   UNL d   1      -3.953   0.411   0.125  0.00  0.00    -0.732 N 
ATOM      8  C   UNL d   1      -5.339   0.174   0.468  0.00  0.00     0.284 C 
ATOM      9  H3  UNL d   1      -3.740   1.380  -0.100  0.00  0.00     0.395 HD
ENDBRANCH   1   7
TORSDOF 1
ENDMDL
