MODEL 1
REMARK minimizedAffinity 7.71848059
REMARK minimizedRMSD -1
REMARK  1 active torsions:
REMARK  status: ('A' for Active; 'I' for Inactive)
REMARK    1  A    between atoms: N_2  and  C1_3 
ROOT
ATOM      1  C1  UNL d   1      -0.309  -1.915   2.201  0.00  0.00     0.143 A 
ATOM      2  C2  UNL d   1      -0.295  -0.531   2.403  0.00  0.00    -0.057 A 
ATOM      3  C3  UNL d   1      -1.428   0.252   2.150  0.00  0.00     0.033 A 
ATOM      4  C4  UNL d   1      -2.590  -0.335   1.661  0.00  0.00    -0.042 A 
ATOM      5  C5  UNL d   1      -2.620  -1.705   1.429  0.00  0.00     0.033 A 
ATOM      6  C6  UNL d   1      -1.487  -2.482   1.689  0.00  0.00    -0.057 A 
ENDROOT
BRANCH   1   7
ATOM      7  N   UNL d   1       0.814  -2.734   2.340  0.00  0.00    -0.732 N 
ATOM      8  C   UNL d   1       1.459  -3.305   1.177  0.00  0.00     0.284 C 
ATOM      9  H3  UNL d   1       1.461  -2.389   3.046  0.00  0.00     0.395 HD
ENDBRANCH   1   7
TORSDOF 1
ENDMDL
