MODEL 1
REMARK minimizedAffinity 13.3740568
REMARK minimizedRMSD -1
REMARK  1 active torsions:
REMARK  status: ('A' for Active; 'I' for Inactive)
REMARK    1  A    between atoms: N_2  and  C1_3 
ROOT
ATOM      1  C1  UNL d   1       1.100   2.594  -2.275  0.00  0.00     0.143 A 
ATOM      2  C2  UNL d   1       2.432   2.171  -2.332  0.00  0.00    -0.057 A 
ATOM      3  C3  UNL d   1       3.156   1.894  -1.166  0.00  0.00     0.033 A 
ATOM      4  C4  UNL d   1       2.567   2.064   0.083  0.00  0.00    -0.042 A 
ATOM      5  C5  UNL d   1       1.252   2.508   0.164  0.00  0.00     0.033 A 
ATOM      6  C6  UNL d   1       0.532   2.776  -1.004  0.00  0.00    -0.057 A 
ENDROOT
BRANCH   1   7
ATOM      7  N   UNL d   1       0.358   2.979  -3.394  0.00  0.00    -0.732 N 
ATOM      8  C   UNL d   1      -0.174   4.321  -3.499  0.00  0.00     0.284 C 
ATOM      9  H3  UNL d   1       0.747   2.617  -4.262  0.00  0.00     0.395 HD
ENDBRANCH   1   7
TORSDOF 1
ENDMDL
