MODEL 1
REMARK minimizedAffinity 9.23897934
REMARK minimizedRMSD -1
REMARK  1 active torsions:
REMARK  status: ('A' for Active; 'I' for Inactive)
REMARK    1  A    between atoms: N_2  and  C1_3 
ROOT
ATOM      1  C1  UNL d   1       0.646   3.207  -3.322  0.00  0.00     0.143 A 
ATOM      2  C2  UNL d   1       0.552   2.699  -2.022  0.00  0.00    -0.057 A 
ATOM      3  C3  UNL d   1       1.698   2.389  -1.279  0.00  0.00     0.033 A 
ATOM      4  C4  UNL d   1       2.961   2.554  -1.837  0.00  0.00    -0.042 A 
ATOM      5  C5  UNL d   1       3.078   3.034  -3.136  0.00  0.00     0.033 A 
ATOM      6  C6  UNL d   1       1.930   3.348  -3.871  0.00  0.00    -0.057 A 
ENDROOT
BRANCH   1   7
ATOM      7  N   UNL d   1      -0.457   3.441  -4.147  0.00  0.00    -0.732 N 
ATOM      8  C   UNL d   1      -0.768   4.780  -4.599  0.00  0.00     0.284 C 
ATOM      9  H3  UNL d   1      -0.567   2.725  -4.861  0.00  0.00     0.395 HD
ENDBRANCH   1   7
TORSDOF 1
ENDMDL
