MODEL 1
REMARK minimizedAffinity -1.48184299
REMARK minimizedRMSD -1
REMARK  1 active torsions:
REMARK  status: ('A' for Active; 'I' for Inactive)
REMARK    1  A    between atoms: N_2  and  C1_3 
ROOT
ATOM      1  C1  UNL d   1      -0.291   0.332   0.018  0.00  0.00     0.143 A 
ATOM      2  C2  UNL d   1       0.970   0.750  -0.422  0.00  0.00    -0.057 A 
ATOM      3  C3  UNL d   1       2.131   0.052  -0.068  0.00  0.00     0.033 A 
ATOM      4  C4  UNL d   1       2.054  -1.063   0.759  0.00  0.00    -0.042 A 
ATOM      5  C5  UNL d   1       0.815  -1.482   1.230  0.00  0.00     0.033 A 
ATOM      6  C6  UNL d   1      -0.342  -0.785   0.867  0.00  0.00    -0.057 A 
ENDROOT
BRANCH   1   7
ATOM      7  N   UNL d   1      -1.471   1.040  -0.218  0.00  0.00    -0.732 N 
ATOM      8  C   UNL d   1      -1.992   1.957   0.773  0.00  0.00     0.284 C 
ATOM      9  H3  UNL d   1      -1.535   1.381  -1.174  0.00  0.00     0.395 HD
ENDBRANCH   1   7
TORSDOF 1
ENDMDL
