MODEL 1
REMARK minimizedAffinity -3.65954423
REMARK minimizedRMSD -1
REMARK  2 active torsions:
REMARK  status: ('A' for Active; 'I' for Inactive)
REMARK    1  A    between atoms: C1_2  and  C2_3 
REMARK    2  A    between atoms: C2_3  and  C3_4 
ROOT
ATOM      1  C3  UNL d   1       2.768  -0.748  -0.918  0.00  0.00    -0.075 A 
ATOM      2  C4  UNL d   1       2.308   0.559  -0.698  0.00  0.00     0.002 A 
ATOM      3  C5  UNL d   1       1.348   0.816   0.281  0.00  0.00     0.002 A 
ATOM      4  C6  UNL d   1       0.829  -0.228   1.043  0.00  0.00    -0.004 A 
ATOM      5  C7  UNL d   1       1.266  -1.532   0.822  0.00  0.00     0.002 A 
ATOM      6  C8  UNL d   1       2.229  -1.792  -0.154  0.00  0.00     0.002 A 
ENDROOT
BRANCH   1   7
ATOM      7  C2  UNL d   1       3.828  -1.029  -1.956  0.00  0.00     0.056 C 
BRANCH   7   8
ATOM      8  C1  UNL d   1       4.706   0.180  -2.293  0.00  0.00     0.007 C 
ATOM      9  C   UNL d   1       5.816  -0.142  -3.285  0.00  0.00     0.009 C 
ENDBRANCH   7   8
ENDBRANCH   1   7
TORSDOF 2
ENDMDL
