MODEL 1
REMARK minimizedAffinity -3.51042461
REMARK minimizedRMSD -1
REMARK  2 active torsions:
REMARK  status: ('A' for Active; 'I' for Inactive)
REMARK    1  A    between atoms: C1_2  and  C2_3 
REMARK    2  A    between atoms: C2_3  and  C3_4 
ROOT
ATOM      1  C3  UNL d   1       2.269  -0.856  -0.463  0.00  0.00    -0.075 A 
ATOM      2  C4  UNL d   1       2.308   0.393   0.174  0.00  0.00     0.002 A 
ATOM      3  C5  UNL d   1       1.356   0.726   1.137  0.00  0.00     0.002 A 
ATOM      4  C6  UNL d   1       0.349  -0.178   1.469  0.00  0.00    -0.004 A 
ATOM      5  C7  UNL d   1       0.291  -1.415   0.830  0.00  0.00     0.002 A 
ATOM      6  C8  UNL d   1       1.245  -1.753  -0.131  0.00  0.00     0.002 A 
ENDROOT
BRANCH   1   7
ATOM      7  C2  UNL d   1       3.314  -1.235  -1.486  0.00  0.00     0.056 C 
BRANCH   7   8
ATOM      8  C1  UNL d   1       4.489  -0.255  -1.569  0.00  0.00     0.007 C 
ATOM      9  C   UNL d   1       5.438  -0.553  -2.722  0.00  0.00     0.009 C 
ENDBRANCH   7   8
ENDBRANCH   1   7
TORSDOF 2
ENDMDL
