MODEL 1
REMARK minimizedAffinity -4.73250484
REMARK minimizedRMSD -1
REMARK  2 active torsions:
REMARK  status: ('A' for Active; 'I' for Inactive)
REMARK    1  A    between atoms: C1_2  and  C2_3 
REMARK    2  A    between atoms: C2_3  and  C3_4 
ROOT
ATOM      1  C3  UNL d   1       1.989   0.093  -0.597  0.00  0.00    -0.075 A 
ATOM      2  C4  UNL d   1       2.201   1.363  -1.152  0.00  0.00     0.002 A 
ATOM      3  C5  UNL d   1       3.250   1.580  -2.045  0.00  0.00     0.002 A 
ATOM      4  C6  UNL d   1       4.105   0.534  -2.387  0.00  0.00    -0.004 A 
ATOM      5  C7  UNL d   1       3.914  -0.728  -1.829  0.00  0.00     0.002 A 
ATOM      6  C8  UNL d   1       2.862  -0.948  -0.938  0.00  0.00     0.002 A 
ENDROOT
BRANCH   1   7
ATOM      7  C2  UNL d   1       0.837  -0.155   0.348  0.00  0.00     0.056 C 
BRANCH   7   8
ATOM      8  C1  UNL d   1       1.190  -1.053   1.539  0.00  0.00     0.007 C 
ATOM      9  C   UNL d   1      -0.019  -1.428   2.387  0.00  0.00     0.009 C 
ENDBRANCH   7   8
ENDBRANCH   1   7
TORSDOF 2
ENDMDL
