MODEL 1
REMARK minimizedAffinity -1.88155818
REMARK minimizedRMSD -1
REMARK  2 active torsions:
REMARK  status: ('A' for Active; 'I' for Inactive)
REMARK    1  A    between atoms: C1_2  and  C2_3 
REMARK    2  A    between atoms: C2_3  and  C3_4 
ROOT
ATOM      1  C3  UNL d   1       2.762  -0.458  -0.775  0.00  0.00    -0.075 A 
ATOM      2  C4  UNL d   1       2.363   0.887  -0.778  0.00  0.00     0.002 A 
ATOM      3  C5  UNL d   1       1.212   1.286  -0.099  0.00  0.00     0.002 A 
ATOM      4  C6  UNL d   1       0.440   0.347   0.581  0.00  0.00    -0.004 A 
ATOM      5  C7  UNL d   1       0.817  -0.994   0.578  0.00  0.00     0.002 A 
ATOM      6  C8  UNL d   1       1.972  -1.396  -0.097  0.00  0.00     0.002 A 
ENDROOT
BRANCH   1   7
ATOM      7  C2  UNL d   1       4.023  -0.891  -1.483  0.00  0.00     0.056 C 
BRANCH   7   8
ATOM      8  C1  UNL d   1       4.654   0.198  -2.357  0.00  0.00     0.007 C 
ATOM      9  C   UNL d   1       5.998  -0.209  -2.946  0.00  0.00     0.009 C 
ENDBRANCH   7   8
ENDBRANCH   1   7
TORSDOF 2
ENDMDL
