MODEL 1
REMARK minimizedAffinity -3.84850693
REMARK minimizedRMSD -1
REMARK  2 active torsions:
REMARK  status: ('A' for Active; 'I' for Inactive)
REMARK    1  A    between atoms: C1_2  and  C2_3 
REMARK    2  A    between atoms: C2_3  and  C3_4 
ROOT
ATOM      1  C3  UNL d   1       1.301  -0.489   0.734  0.00  0.00    -0.075 A 
ATOM      2  C4  UNL d   1       1.866  -1.750   0.490  0.00  0.00     0.002 A 
ATOM      3  C5  UNL d   1       2.863  -1.905  -0.474  0.00  0.00     0.002 A 
ATOM      4  C6  UNL d   1       3.299  -0.807  -1.211  0.00  0.00    -0.004 A 
ATOM      5  C7  UNL d   1       2.734   0.447  -0.989  0.00  0.00     0.002 A 
ATOM      6  C8  UNL d   1       1.739   0.606  -0.022  0.00  0.00     0.002 A 
ENDROOT
BRANCH   1   7
ATOM      7  C2  UNL d   1       0.243  -0.310   1.796  0.00  0.00     0.056 C 
BRANCH   7   8
ATOM      8  C1  UNL d   1       0.798   0.090   3.168  0.00  0.00     0.007 C 
ATOM      9  C   UNL d   1      -0.245   0.035   4.276  0.00  0.00     0.009 C 
ENDBRANCH   7   8
ENDBRANCH   1   7
TORSDOF 2
ENDMDL
