MODEL 1
REMARK minimizedAffinity 2.8545711
REMARK minimizedRMSD -1
REMARK  2 active torsions:
REMARK  status: ('A' for Active; 'I' for Inactive)
REMARK    1  A    between atoms: C1_2  and  C2_3 
REMARK    2  A    between atoms: C2_3  and  C3_4 
ROOT
ATOM      1  C3  UNL d   1       2.352   0.538  -0.459  0.00  0.00    -0.075 A 
ATOM      2  C4  UNL d   1       3.202  -0.380  -1.091  0.00  0.00     0.002 A 
ATOM      3  C5  UNL d   1       2.894  -1.741  -1.099  0.00  0.00     0.002 A 
ATOM      4  C6  UNL d   1       1.741  -2.201  -0.468  0.00  0.00    -0.004 A 
ATOM      5  C7  UNL d   1       0.897  -1.299   0.177  0.00  0.00     0.002 A 
ATOM      6  C8  UNL d   1       1.200   0.063   0.183  0.00  0.00     0.002 A 
ENDROOT
BRANCH   1   7
ATOM      7  C2  UNL d   1       2.664   2.016  -0.471  0.00  0.00     0.056 C 
BRANCH   7   8
ATOM      8  C1  UNL d   1       3.430   2.481  -1.714  0.00  0.00     0.007 C 
ATOM      9  C   UNL d   1       4.455   3.568  -1.417  0.00  0.00     0.009 C 
ENDBRANCH   7   8
ENDBRANCH   1   7
TORSDOF 2
ENDMDL
