MODEL 1
REMARK minimizedAffinity -4.40266085
REMARK minimizedRMSD -1
REMARK  2 active torsions:
REMARK  status: ('A' for Active; 'I' for Inactive)
REMARK    1  A    between atoms: C1_2  and  C2_3 
REMARK    2  A    between atoms: C2_3  and  C3_4 
ROOT
ATOM      1  C3  UNL d   1       2.779  -0.861  -0.786  0.00  0.00    -0.075 A 
ATOM      2  C4  UNL d   1       2.134  -1.984  -0.247  0.00  0.00     0.002 A 
ATOM      3  C5  UNL d   1       0.903  -1.853   0.396  0.00  0.00     0.002 A 
ATOM      4  C6  UNL d   1       0.307  -0.600   0.518  0.00  0.00    -0.004 A 
ATOM      5  C7  UNL d   1       0.946   0.525   0.002  0.00  0.00     0.002 A 
ATOM      6  C8  UNL d   1       2.176   0.397  -0.646  0.00  0.00     0.002 A 
ENDROOT
BRANCH   1   7
ATOM      7  C2  UNL d   1       4.097  -1.000  -1.509  0.00  0.00     0.056 C 
BRANCH   7   8
ATOM      8  C1  UNL d   1       4.525   0.258  -2.272  0.00  0.00     0.007 C 
ATOM      9  C   UNL d   1       5.996   0.249  -2.666  0.00  0.00     0.009 C 
ENDBRANCH   7   8
ENDBRANCH   1   7
TORSDOF 2
ENDMDL
