MODEL 1
REMARK minimizedAffinity -2.97881341
REMARK minimizedRMSD -1
REMARK  2 active torsions:
REMARK  status: ('A' for Active; 'I' for Inactive)
REMARK    1  A    between atoms: C1_2  and  C2_3 
REMARK    2  A    between atoms: C2_3  and  C3_4 
ROOT
ATOM      1  C3  UNL d   1       1.929  -2.020   0.032  0.00  0.00    -0.075 A 
ATOM      2  C4  UNL d   1       1.056  -1.081   0.599  0.00  0.00     0.002 A 
ATOM      3  C5  UNL d   1       1.319   0.285   0.492  0.00  0.00     0.002 A 
ATOM      4  C6  UNL d   1       2.461   0.728  -0.172  0.00  0.00    -0.004 A 
ATOM      5  C7  UNL d   1       3.344  -0.197  -0.724  0.00  0.00     0.002 A 
ATOM      6  C8  UNL d   1       3.081  -1.565  -0.623  0.00  0.00     0.002 A 
ENDROOT
BRANCH   1   7
ATOM      7  C2  UNL d   1       1.634  -3.499   0.118  0.00  0.00     0.056 C 
BRANCH   7   8
ATOM      8  C1  UNL d   1       0.776  -3.895   1.324  0.00  0.00     0.007 C 
ATOM      9  C   UNL d   1       1.152  -5.249   1.911  0.00  0.00     0.009 C 
ENDBRANCH   7   8
ENDBRANCH   1   7
TORSDOF 2
ENDMDL
