MODEL 1
REMARK minimizedAffinity -3.70104575
REMARK minimizedRMSD -1
REMARK  2 active torsions:
REMARK  status: ('A' for Active; 'I' for Inactive)
REMARK    1  A    between atoms: C1_2  and  C2_3 
REMARK    2  A    between atoms: C2_3  and  C3_4 
ROOT
ATOM      1  C3  UNL d   1       2.926  -0.457  -1.175  0.00  0.00    -0.075 A 
ATOM      2  C4  UNL d   1       1.966   0.392  -0.605  0.00  0.00     0.002 A 
ATOM      3  C5  UNL d   1       1.121  -0.071   0.405  0.00  0.00     0.002 A 
ATOM      4  C6  UNL d   1       1.218  -1.388   0.849  0.00  0.00    -0.004 A 
ATOM      5  C7  UNL d   1       2.157  -2.245   0.277  0.00  0.00     0.002 A 
ATOM      6  C8  UNL d   1       3.006  -1.783  -0.729  0.00  0.00     0.002 A 
ENDROOT
BRANCH   1   7
ATOM      7  C2  UNL d   1       3.862   0.047  -2.247  0.00  0.00     0.056 C 
BRANCH   7   8
ATOM      8  C1  UNL d   1       5.315  -0.407  -2.069  0.00  0.00     0.007 C 
ATOM      9  C   UNL d   1       6.000  -0.756  -3.384  0.00  0.00     0.009 C 
ENDBRANCH   7   8
ENDBRANCH   1   7
TORSDOF 2
ENDMDL
