MODEL 1
REMARK minimizedAffinity -4.4163909
REMARK minimizedRMSD -1
REMARK  2 active torsions:
REMARK  status: ('A' for Active; 'I' for Inactive)
REMARK    1  A    between atoms: C1_2  and  C2_3 
REMARK    2  A    between atoms: C2_3  and  C3_4 
ROOT
ATOM      1  C3  UNL d   1       2.786  -0.753  -0.790  0.00  0.00    -0.075 A 
ATOM      2  C4  UNL d   1       2.106  -1.716  -0.030  0.00  0.00     0.002 A 
ATOM      3  C5  UNL d   1       0.991  -1.360   0.729  0.00  0.00     0.002 A 
ATOM      4  C6  UNL d   1       0.549  -0.039   0.746  0.00  0.00    -0.004 A 
ATOM      5  C7  UNL d   1       1.227   0.929   0.008  0.00  0.00     0.002 A 
ATOM      6  C8  UNL d   1       2.340   0.575  -0.756  0.00  0.00     0.002 A 
ENDROOT
BRANCH   1   7
ATOM      7  C2  UNL d   1       3.976  -1.138  -1.637  0.00  0.00     0.056 C 
BRANCH   7   8
ATOM      8  C1  UNL d   1       4.642   0.044  -2.350  0.00  0.00     0.007 C 
ATOM      9  C   UNL d   1       5.983  -0.312  -2.977  0.00  0.00     0.009 C 
ENDBRANCH   7   8
ENDBRANCH   1   7
TORSDOF 2
ENDMDL
