MODEL 1
REMARK minimizedAffinity -1.72171915
REMARK minimizedRMSD -1
REMARK  2 active torsions:
REMARK  status: ('A' for Active; 'I' for Inactive)
REMARK    1  A    between atoms: C1_2  and  C2_3 
REMARK    2  A    between atoms: C2_3  and  C3_4 
ROOT
ATOM      1  C3  UNL d   1       1.709  -0.665  -0.635  0.00  0.00    -0.075 A 
ATOM      2  C4  UNL d   1       2.844  -1.440  -0.915  0.00  0.00     0.002 A 
ATOM      3  C5  UNL d   1       3.908  -0.903  -1.640  0.00  0.00     0.002 A 
ATOM      4  C6  UNL d   1       3.846   0.409  -2.104  0.00  0.00    -0.004 A 
ATOM      5  C7  UNL d   1       2.717   1.183  -1.846  0.00  0.00     0.002 A 
ATOM      6  C8  UNL d   1       1.653   0.649  -1.116  0.00  0.00     0.002 A 
ENDROOT
BRANCH   1   7
ATOM      7  C2  UNL d   1       0.568  -1.231   0.175  0.00  0.00     0.056 C 
BRANCH   7   8
ATOM      8  C1  UNL d   1       0.814  -1.228   1.688  0.00  0.00     0.007 C 
ATOM      9  C   UNL d   1       1.741  -0.109   2.142  0.00  0.00     0.009 C 
ENDBRANCH   7   8
ENDBRANCH   1   7
TORSDOF 2
ENDMDL
