MODEL 1
REMARK minimizedAffinity -4.46277142
REMARK minimizedRMSD -1
REMARK  2 active torsions:
REMARK  status: ('A' for Active; 'I' for Inactive)
REMARK    1  A    between atoms: C1_2  and  C2_3 
REMARK    2  A    between atoms: C2_3  and  C3_4 
ROOT
ATOM      1  C3  UNL d   1       2.851  -0.739  -0.966  0.00  0.00    -0.075 A 
ATOM      2  C4  UNL d   1       2.217  -1.672  -0.133  0.00  0.00     0.002 A 
ATOM      3  C5  UNL d   1       1.145  -1.288   0.674  0.00  0.00     0.002 A 
ATOM      4  C6  UNL d   1       0.701   0.033   0.665  0.00  0.00    -0.004 A 
ATOM      5  C7  UNL d   1       1.334   0.972  -0.146  0.00  0.00     0.002 A 
ATOM      6  C8  UNL d   1       2.404   0.589  -0.957  0.00  0.00     0.002 A 
ENDROOT
BRANCH   1   7
ATOM      7  C2  UNL d   1       3.992  -1.154  -1.863  0.00  0.00     0.056 C 
BRANCH   7   8
ATOM      8  C1  UNL d   1       4.491  -0.044  -2.794  0.00  0.00     0.007 C 
ATOM      9  C   UNL d   1       5.999  -0.067  -3.001  0.00  0.00     0.009 C 
ENDBRANCH   7   8
ENDBRANCH   1   7
TORSDOF 2
ENDMDL
