MODEL 1
REMARK minimizedAffinity -3.08992338
REMARK minimizedRMSD -1
REMARK  0 active torsions:
REMARK  status: ('A' for Active; 'I' for Inactive)
ROOT
ATOM      1  C   UNL d   1      -4.819   3.411  -5.960  0.00  0.00     0.078 C 
ATOM      2  C1  UNL d   1      -4.798   3.085  -4.497  0.00  0.00    -0.077 A 
ATOM      3  C2  UNL d   1      -3.590   2.850  -3.827  0.00  0.00    -0.001 A 
ATOM      4  C3  UNL d   1      -3.586   2.537  -2.467  0.00  0.00     0.003 A 
ATOM      5  C4  UNL d   1      -4.787   2.455  -1.764  0.00  0.00    -0.005 A 
ATOM      6  C5  UNL d   1      -5.993   2.685  -2.422  0.00  0.00     0.003 A 
ATOM      7  C6  UNL d   1      -5.999   2.998  -3.782  0.00  0.00    -0.001 A 
ENDROOT
TORSDOF 0
ENDMDL
