MODEL 1
REMARK minimizedAffinity -1.48554838
REMARK minimizedRMSD -1
REMARK  0 active torsions:
REMARK  status: ('A' for Active; 'I' for Inactive)
ROOT
ATOM      1  C   UNL d   1      -2.847   3.573  -2.562  0.00  0.00     0.078 C 
ATOM      2  C1  UNL d   1      -3.953   3.081  -3.447  0.00  0.00    -0.077 A 
ATOM      3  C2  UNL d   1      -4.967   2.256  -2.943  0.00  0.00    -0.001 A 
ATOM      4  C3  UNL d   1      -5.985   1.797  -3.781  0.00  0.00     0.003 A 
ATOM      5  C4  UNL d   1      -5.999   2.157  -5.127  0.00  0.00    -0.005 A 
ATOM      6  C5  UNL d   1      -4.994   2.976  -5.637  0.00  0.00     0.003 A 
ATOM      7  C6  UNL d   1      -3.975   3.435  -4.802  0.00  0.00    -0.001 A 
ENDROOT
TORSDOF 0
ENDMDL
