MODEL 1
REMARK minimizedAffinity 4.27155542
REMARK minimizedRMSD -1
REMARK  0 active torsions:
REMARK  status: ('A' for Active; 'I' for Inactive)
ROOT
ATOM      1  C   UNL d   1      -2.313  -4.026  -2.679  0.00  0.00     0.078 C 
ATOM      2  C1  UNL d   1      -1.039  -3.946  -1.891  0.00  0.00    -0.077 A 
ATOM      3  C2  UNL d   1      -0.387  -2.722  -1.698  0.00  0.00    -0.001 A 
ATOM      4  C3  UNL d   1       0.803  -2.663  -0.971  0.00  0.00     0.003 A 
ATOM      5  C4  UNL d   1       1.352  -3.825  -0.433  0.00  0.00    -0.005 A 
ATOM      6  C5  UNL d   1       0.712  -5.048  -0.622  0.00  0.00     0.003 A 
ATOM      7  C6  UNL d   1      -0.478  -5.109  -1.348  0.00  0.00    -0.001 A 
ENDROOT
TORSDOF 0
ENDMDL
