MODEL 1
REMARK minimizedAffinity 0.557372689
REMARK minimizedRMSD -1
REMARK  0 active torsions:
REMARK  status: ('A' for Active; 'I' for Inactive)
ROOT
ATOM      1  C   UNL d   1       0.473  -3.703  -0.729  0.00  0.00     0.078 C 
ATOM      2  C1  UNL d   1      -0.131  -3.358  -2.058  0.00  0.00    -0.077 A 
ATOM      3  C2  UNL d   1      -1.482  -3.615  -2.325  0.00  0.00    -0.001 A 
ATOM      4  C3  UNL d   1      -2.028  -3.297  -3.569  0.00  0.00     0.003 A 
ATOM      5  C4  UNL d   1      -1.231  -2.722  -4.557  0.00  0.00    -0.005 A 
ATOM      6  C5  UNL d   1       0.114  -2.465  -4.301  0.00  0.00     0.003 A 
ATOM      7  C6  UNL d   1       0.662  -2.781  -3.057  0.00  0.00    -0.001 A 
ENDROOT
TORSDOF 0
ENDMDL
