MODEL 1
REMARK minimizedAffinity -4.77068663
REMARK minimizedRMSD -1
REMARK  0 active torsions:
REMARK  status: ('A' for Active; 'I' for Inactive)
ROOT
ATOM      1  C   UNL d   1      -4.916   3.396  -3.053  0.00  0.00     0.078 C 
ATOM      2  C1  UNL d   1      -4.898   2.259  -4.032  0.00  0.00    -0.077 A 
ATOM      3  C2  UNL d   1      -5.990   1.390  -4.147  0.00  0.00    -0.001 A 
ATOM      4  C3  UNL d   1      -5.956   0.330  -5.055  0.00  0.00     0.003 A 
ATOM      5  C4  UNL d   1      -4.832   0.130  -5.854  0.00  0.00    -0.005 A 
ATOM      6  C5  UNL d   1      -3.740   0.988  -5.745  0.00  0.00     0.003 A 
ATOM      7  C6  UNL d   1      -3.772   2.048  -4.837  0.00  0.00    -0.001 A 
ENDROOT
TORSDOF 0
ENDMDL
