MODEL 1
REMARK minimizedAffinity -1.06703341
REMARK minimizedRMSD -1
REMARK  0 active torsions:
REMARK  status: ('A' for Active; 'I' for Inactive)
ROOT
ATOM      1  C   UNL d   1       0.245   1.936   2.831  0.00  0.00     0.078 C 
ATOM      2  C1  UNL d   1       0.142   2.480   1.437  0.00  0.00    -0.077 A 
ATOM      3  C2  UNL d   1       0.034   3.856   1.206  0.00  0.00    -0.001 A 
ATOM      4  C3  UNL d   1      -0.070   4.348  -0.096  0.00  0.00     0.003 A 
ATOM      5  C4  UNL d   1      -0.070   3.469  -1.177  0.00  0.00    -0.005 A 
ATOM      6  C5  UNL d   1       0.034   2.097  -0.957  0.00  0.00     0.003 A 
ATOM      7  C6  UNL d   1       0.139   1.604   0.344  0.00  0.00    -0.001 A 
ENDROOT
TORSDOF 0
ENDMDL
