MODEL 1
REMARK minimizedAffinity 0.0672394335
REMARK minimizedRMSD -1
REMARK  0 active torsions:
REMARK  status: ('A' for Active; 'I' for Inactive)
ROOT
ATOM      1  C   UNL d   1       1.116  -0.777  -1.642  0.00  0.00     0.078 C 
ATOM      2  C1  UNL d   1       0.765  -2.235  -1.618  0.00  0.00    -0.077 A 
ATOM      3  C2  UNL d   1      -0.300  -2.733  -2.378  0.00  0.00    -0.001 A 
ATOM      4  C3  UNL d   1      -0.621  -4.090  -2.339  0.00  0.00     0.003 A 
ATOM      5  C4  UNL d   1       0.117  -4.961  -1.540  0.00  0.00    -0.005 A 
ATOM      6  C5  UNL d   1       1.178  -4.474  -0.779  0.00  0.00     0.003 A 
ATOM      7  C6  UNL d   1       1.500  -3.117  -0.816  0.00  0.00    -0.001 A 
ENDROOT
TORSDOF 0
ENDMDL
