MODEL 1
REMARK minimizedAffinity 1.17429471
REMARK minimizedRMSD -1
REMARK  0 active torsions:
REMARK  status: ('A' for Active; 'I' for Inactive)
ROOT
ATOM      1  C   UNL d   1       1.506  -0.381  -1.125  0.00  0.00     0.078 C 
ATOM      2  C1  UNL d   1       1.013   0.908  -0.540  0.00  0.00    -0.077 A 
ATOM      3  C2  UNL d   1       0.071   1.694  -1.216  0.00  0.00    -0.001 A 
ATOM      4  C3  UNL d   1      -0.372   2.897  -0.663  0.00  0.00     0.003 A 
ATOM      5  C4  UNL d   1       0.122   3.325   0.567  0.00  0.00    -0.005 A 
ATOM      6  C5  UNL d   1       1.060   2.552   1.246  0.00  0.00     0.003 A 
ATOM      7  C6  UNL d   1       1.505   1.349   0.696  0.00  0.00    -0.001 A 
ENDROOT
TORSDOF 0
ENDMDL
