MODEL 1
REMARK minimizedAffinity 2.77413321
REMARK minimizedRMSD -1
REMARK  0 active torsions:
REMARK  status: ('A' for Active; 'I' for Inactive)
ROOT
ATOM      1  C   UNL d   1       0.532   1.174  -1.489  0.00  0.00     0.078 C 
ATOM      2  C1  UNL d   1      -0.209   2.371  -0.970  0.00  0.00    -0.077 A 
ATOM      3  C2  UNL d   1      -1.469   2.714  -1.476  0.00  0.00    -0.001 A 
ATOM      4  C3  UNL d   1      -2.143   3.836  -0.991  0.00  0.00     0.003 A 
ATOM      5  C4  UNL d   1      -1.564   4.624   0.001  0.00  0.00    -0.005 A 
ATOM      6  C5  UNL d   1      -0.310   4.292   0.510  0.00  0.00     0.003 A 
ATOM      7  C6  UNL d   1       0.365   3.170   0.026  0.00  0.00    -0.001 A 
ENDROOT
TORSDOF 0
ENDMDL
