MODEL 1
REMARK minimizedAffinity -1.17399788
REMARK minimizedRMSD -1
REMARK  0 active torsions:
REMARK  status: ('A' for Active; 'I' for Inactive)
ROOT
ATOM      1  C   UNL d   1       0.316   3.268  -0.377  0.00  0.00     0.078 C 
ATOM      2  C1  UNL d   1      -0.139   1.914  -0.832  0.00  0.00    -0.077 A 
ATOM      3  C2  UNL d   1      -1.462   1.495  -0.639  0.00  0.00    -0.001 A 
ATOM      4  C3  UNL d   1      -1.869   0.227  -1.059  0.00  0.00     0.003 A 
ATOM      5  C4  UNL d   1      -0.960  -0.632  -1.673  0.00  0.00    -0.005 A 
ATOM      6  C5  UNL d   1       0.359  -0.225  -1.866  0.00  0.00     0.003 A 
ATOM      7  C6  UNL d   1       0.768   1.042  -1.447  0.00  0.00    -0.001 A 
ENDROOT
TORSDOF 0
ENDMDL
