MODEL 1
REMARK minimizedAffinity 2.423702
REMARK minimizedRMSD -1
REMARK  0 active torsions:
REMARK  status: ('A' for Active; 'I' for Inactive)
ROOT
ATOM      1  C   UNL d   1      -0.817   2.375   0.762  0.00  0.00     0.078 C 
ATOM      2  C1  UNL d   1      -0.423   3.629   0.040  0.00  0.00    -0.077 A 
ATOM      3  C2  UNL d   1       0.766   3.694  -0.696  0.00  0.00    -0.001 A 
ATOM      4  C3  UNL d   1       1.126   4.870  -1.355  0.00  0.00     0.003 A 
ATOM      5  C4  UNL d   1       0.302   5.992  -1.284  0.00  0.00    -0.005 A 
ATOM      6  C5  UNL d   1      -0.883   5.938  -0.552  0.00  0.00     0.003 A 
ATOM      7  C6  UNL d   1      -1.244   4.762   0.108  0.00  0.00    -0.001 A 
ENDROOT
TORSDOF 0
ENDMDL
