MODEL 1
REMARK minimizedAffinity 10.305747
REMARK minimizedRMSD -1
REMARK  0 active torsions:
REMARK  status: ('A' for Active; 'I' for Inactive)
ROOT
ATOM      1  C   UNL d   1       1.583   5.981  -2.569  0.00  0.00     0.078 C 
ATOM      2  C1  UNL d   1       1.003   5.212  -1.421  0.00  0.00    -0.077 A 
ATOM      3  C2  UNL d   1      -0.300   5.458  -0.973  0.00  0.00    -0.001 A 
ATOM      4  C3  UNL d   1      -0.824   4.741   0.104  0.00  0.00     0.003 A 
ATOM      5  C4  UNL d   1      -0.051   3.773   0.743  0.00  0.00    -0.005 A 
ATOM      6  C5  UNL d   1       1.248   3.523   0.305  0.00  0.00     0.003 A 
ATOM      7  C6  UNL d   1       1.774   4.239  -0.771  0.00  0.00    -0.001 A 
ENDROOT
TORSDOF 0
ENDMDL
