MODEL 1
REMARK minimizedAffinity -6.26690769
REMARK minimizedRMSD -1
REMARK  0 active torsions:
REMARK  status: ('A' for Active; 'I' for Inactive)
ROOT
ATOM      1  C1  DEN d   1       1.045   0.035  -0.744  0.00  0.00     0.130 A 
ATOM      2  C2  DEN d   1      -0.159   0.859  -0.800  0.00  0.00    -0.031 A 
ATOM      3  C3  DEN d   1      -1.065   0.417   0.279  0.00  0.00     0.027 A 
ATOM      4  C4  DEN d   1      -0.721  -1.450   2.024  0.00  0.00     0.027 A 
ATOM      5  C5  DEN d   1       0.139  -2.433   2.462  0.00  0.00    -0.003 A 
ATOM      6  C6  DEN d   1       1.337  -2.683   1.845  0.00  0.00     0.001 A 
ATOM      7  C7  DEN d   1       1.728  -1.910   0.784  0.00  0.00     0.017 A 
ATOM      8  C8  DEN d   1       0.862  -0.922   0.332  0.00  0.00    -0.094 A 
ATOM      9  C9  DEN d   1      -0.338  -0.677   0.976  0.00  0.00    -0.072 A 
ENDROOT
TORSDOF 0
ENDMDL
