MODEL 1
REMARK minimizedAffinity -5.79580164
REMARK minimizedRMSD -1
REMARK  0 active torsions:
REMARK  status: ('A' for Active; 'I' for Inactive)
ROOT
ATOM      1  C1  DEN d   1       0.352   0.275  -0.491  0.00  0.00     0.130 A 
ATOM      2  C2  DEN d   1      -0.756   1.199  -0.269  0.00  0.00    -0.031 A 
ATOM      3  C3  DEN d   1      -1.501   0.743   0.922  0.00  0.00     0.027 A 
ATOM      4  C4  DEN d   1      -1.044  -1.293   2.439  0.00  0.00     0.027 A 
ATOM      5  C5  DEN d   1      -0.222  -2.379   2.642  0.00  0.00    -0.003 A 
ATOM      6  C6  DEN d   1       0.820  -2.674   1.803  0.00  0.00     0.001 A 
ATOM      7  C7  DEN d   1       1.095  -1.847   0.746  0.00  0.00     0.017 A 
ATOM      8  C8  DEN d   1       0.266  -0.754   0.530  0.00  0.00    -0.094 A 
ATOM      9  C9  DEN d   1      -0.775  -0.466   1.397  0.00  0.00    -0.072 A 
ENDROOT
TORSDOF 0
ENDMDL
