MODEL 1
REMARK minimizedAffinity -6.45189476
REMARK minimizedRMSD -1
REMARK  0 active torsions:
REMARK  status: ('A' for Active; 'I' for Inactive)
ROOT
ATOM      1  C1  DEN d   1      -0.799   0.206   0.371  0.00  0.00     0.130 A 
ATOM      2  C2  DEN d   1       0.147   0.886  -0.510  0.00  0.00    -0.031 A 
ATOM      3  C3  DEN d   1       1.428   0.153  -0.455  0.00  0.00     0.027 A 
ATOM      4  C4  DEN d   1       2.033  -1.958   0.897  0.00  0.00     0.027 A 
ATOM      5  C5  DEN d   1       1.562  -2.889   1.796  0.00  0.00    -0.003 A 
ATOM      6  C6  DEN d   1       0.291  -2.833   2.306  0.00  0.00     0.001 A 
ATOM      7  C7  DEN d   1      -0.567  -1.852   1.884  0.00  0.00     0.017 A 
ATOM      8  C8  DEN d   1      -0.096  -0.906   0.983  0.00  0.00    -0.094 A 
ATOM      9  C9  DEN d   1       1.188  -0.986   0.470  0.00  0.00    -0.072 A 
ENDROOT
TORSDOF 0
ENDMDL
