MODEL 1
REMARK minimizedAffinity -4.46200991
REMARK minimizedRMSD -1
REMARK  0 active torsions:
REMARK  status: ('A' for Active; 'I' for Inactive)
ROOT
ATOM      1  C1  DEN d   1       0.740   1.200  -0.382  0.00  0.00     0.130 A 
ATOM      2  C2  DEN d   1      -0.551   1.704   0.079  0.00  0.00    -0.031 A 
ATOM      3  C3  DEN d   1      -1.237   0.611   0.797  0.00  0.00     0.027 A 
ATOM      4  C4  DEN d   1      -0.429  -1.797   1.242  0.00  0.00     0.027 A 
ATOM      5  C5  DEN d   1       0.597  -2.693   1.035  0.00  0.00    -0.003 A 
ATOM      6  C6  DEN d   1       1.718  -2.368   0.318  0.00  0.00     0.001 A 
ATOM      7  C7  DEN d   1       1.860  -1.099  -0.180  0.00  0.00     0.017 A 
ATOM      8  C8  DEN d   1       0.827  -0.193   0.018  0.00  0.00    -0.094 A 
ATOM      9  C9  DEN d   1      -0.292  -0.537   0.756  0.00  0.00    -0.072 A 
ENDROOT
TORSDOF 0
ENDMDL
