MODEL 1
REMARK minimizedAffinity -6.02315569
REMARK minimizedRMSD -1
REMARK  0 active torsions:
REMARK  status: ('A' for Active; 'I' for Inactive)
ROOT
ATOM      1  C1  DEN d   1      -0.150  -1.939   1.636  0.00  0.00     0.130 A 
ATOM      2  C2  DEN d   1       1.108  -2.665   1.488  0.00  0.00    -0.031 A 
ATOM      3  C3  DEN d   1       1.904  -1.991   0.442  0.00  0.00     0.027 A 
ATOM      4  C4  DEN d   1       1.315   0.098  -0.950  0.00  0.00     0.027 A 
ATOM      5  C5  DEN d   1       0.352   1.054  -1.188  0.00  0.00    -0.003 A 
ATOM      6  C6  DEN d   1      -0.850   1.059  -0.531  0.00  0.00     0.001 A 
ATOM      7  C7  DEN d   1      -1.102   0.115   0.429  0.00  0.00     0.017 A 
ATOM      8  C8  DEN d   1      -0.139  -0.856   0.669  0.00  0.00    -0.094 A 
ATOM      9  C9  DEN d   1       1.074  -0.837   0.004  0.00  0.00    -0.072 A 
ENDROOT
TORSDOF 0
ENDMDL
