MODEL 1
REMARK minimizedAffinity -7.04774237
REMARK minimizedRMSD -1
REMARK  0 active torsions:
REMARK  status: ('A' for Active; 'I' for Inactive)
ROOT
ATOM      1  C1  DEN d   1      -0.676   0.512   0.525  0.00  0.00     0.130 A 
ATOM      2  C2  DEN d   1       0.281   0.856  -0.523  0.00  0.00    -0.031 A 
ATOM      3  C3  DEN d   1       1.338  -0.176  -0.534  0.00  0.00     0.027 A 
ATOM      4  C4  DEN d   1       1.580  -2.265   0.959  0.00  0.00     0.027 A 
ATOM      5  C5  DEN d   1       1.019  -2.972   2.000  0.00  0.00    -0.003 A 
ATOM      6  C6  DEN d   1      -0.118  -2.553   2.638  0.00  0.00     0.001 A 
ATOM      7  C7  DEN d   1      -0.756  -1.418   2.213  0.00  0.00     0.017 A 
ATOM      8  C8  DEN d   1      -0.193  -0.696   1.170  0.00  0.00    -0.094 A 
ATOM      9  C9  DEN d   1       0.950  -1.142   0.529  0.00  0.00    -0.072 A 
ENDROOT
TORSDOF 0
ENDMDL
