MODEL 1
REMARK minimizedAffinity -5.44234657
REMARK minimizedRMSD -1
REMARK  0 active torsions:
REMARK  status: ('A' for Active; 'I' for Inactive)
ROOT
ATOM      1  C1  DEN d   1      -1.179   0.556   0.478  0.00  0.00     0.130 A 
ATOM      2  C2  DEN d   1      -0.316   0.985  -0.620  0.00  0.00    -0.031 A 
ATOM      3  C3  DEN d   1       0.898   0.145  -0.602  0.00  0.00     0.027 A 
ATOM      4  C4  DEN d   1       1.522  -1.771   1.008  0.00  0.00     0.027 A 
ATOM      5  C5  DEN d   1       1.111  -2.492   2.108  0.00  0.00    -0.003 A 
ATOM      6  C6  DEN d   1      -0.066  -2.227   2.757  0.00  0.00     0.001 A 
ATOM      7  C7  DEN d   1      -0.895  -1.245   2.284  0.00  0.00     0.017 A 
ATOM      8  C8  DEN d   1      -0.485  -0.509   1.180  0.00  0.00    -0.094 A 
ATOM      9  C9  DEN d   1       0.703  -0.800   0.530  0.00  0.00    -0.072 A 
ENDROOT
TORSDOF 0
ENDMDL
