MODEL 1
REMARK minimizedAffinity -6.63431025
REMARK minimizedRMSD -1
REMARK  0 active torsions:
REMARK  status: ('A' for Active; 'I' for Inactive)
ROOT
ATOM      1  C1  DEN d   1      -0.644   0.407   0.628  0.00  0.00     0.130 A 
ATOM      2  C2  DEN d   1       0.146   0.974  -0.461  0.00  0.00    -0.031 A 
ATOM      3  C3  DEN d   1       1.295   0.079  -0.706  0.00  0.00     0.027 A 
ATOM      4  C4  DEN d   1       1.921  -2.120   0.488  0.00  0.00     0.027 A 
ATOM      5  C5  DEN d   1       1.560  -2.999   1.485  0.00  0.00    -0.003 A 
ATOM      6  C6  DEN d   1       0.466  -2.788   2.282  0.00  0.00     0.001 A 
ATOM      7  C7  DEN d   1      -0.331  -1.695   2.067  0.00  0.00     0.017 A 
ATOM      8  C8  DEN d   1       0.032  -0.801   1.068  0.00  0.00    -0.094 A 
ATOM      9  C9  DEN d   1       1.134  -1.038   0.264  0.00  0.00    -0.072 A 
ENDROOT
TORSDOF 0
ENDMDL
