MODEL 1
REMARK minimizedAffinity -5.70172071
REMARK minimizedRMSD -1
REMARK  0 active torsions:
REMARK  status: ('A' for Active; 'I' for Inactive)
ROOT
ATOM      1  C1  DEN d   1      -0.590   0.589   0.166  0.00  0.00     0.130 A 
ATOM      2  C2  DEN d   1       0.333   1.039  -0.873  0.00  0.00    -0.031 A 
ATOM      3  C3  DEN d   1       1.478   0.107  -0.901  0.00  0.00     0.027 A 
ATOM      4  C4  DEN d   1       1.907  -1.981   0.552  0.00  0.00     0.027 A 
ATOM      5  C5  DEN d   1       1.411  -2.756   1.577  0.00  0.00    -0.003 A 
ATOM      6  C6  DEN d   1       0.241  -2.454   2.221  0.00  0.00     0.001 A 
ATOM      7  C7  DEN d   1      -0.497  -1.373   1.816  0.00  0.00     0.017 A 
ATOM      8  C8  DEN d   1      -0.000  -0.583   0.788  0.00  0.00    -0.094 A 
ATOM      9  C9  DEN d   1       1.179  -0.912   0.142  0.00  0.00    -0.072 A 
ENDROOT
TORSDOF 0
ENDMDL
