MODEL 1
REMARK minimizedAffinity -6.51561975
REMARK minimizedRMSD -1
REMARK  0 active torsions:
REMARK  status: ('A' for Active; 'I' for Inactive)
ROOT
ATOM      1  C1  DEN d   1      -0.481   0.699   0.489  0.00  0.00     0.130 A 
ATOM      2  C2  DEN d   1       0.491   1.075  -0.534  0.00  0.00    -0.031 A 
ATOM      3  C3  DEN d   1       1.517   0.016  -0.601  0.00  0.00     0.027 A 
ATOM      4  C4  DEN d   1       1.693  -2.162   0.770  0.00  0.00     0.027 A 
ATOM      5  C5  DEN d   1       1.107  -2.912   1.766  0.00  0.00    -0.003 A 
ATOM      6  C6  DEN d   1      -0.021  -2.498   2.424  0.00  0.00     0.001 A 
ATOM      7  C7  DEN d   1      -0.625  -1.322   2.063  0.00  0.00     0.017 A 
ATOM      8  C8  DEN d   1      -0.036  -0.557   1.064  0.00  0.00    -0.094 A 
ATOM      9  C9  DEN d   1       1.098  -0.999   0.403  0.00  0.00    -0.072 A 
ENDROOT
TORSDOF 0
ENDMDL
