MODEL 1
REMARK minimizedAffinity -6.1650176
REMARK minimizedRMSD -1
REMARK  0 active torsions:
REMARK  status: ('A' for Active; 'I' for Inactive)
ROOT
ATOM      1  C1  DEN d   1      -0.841   0.349   0.035  0.00  0.00     0.130 A 
ATOM      2  C2  DEN d   1       0.009   0.933  -0.999  0.00  0.00    -0.031 A 
ATOM      3  C3  DEN d   1       1.269   0.164  -1.043  0.00  0.00     0.027 A 
ATOM      4  C4  DEN d   1       1.980  -1.867   0.378  0.00  0.00     0.027 A 
ATOM      5  C5  DEN d   1       1.598  -2.717   1.393  0.00  0.00    -0.003 A 
ATOM      6  C6  DEN d   1       0.400  -2.584   2.044  0.00  0.00     0.001 A 
ATOM      7  C7  DEN d   1      -0.478  -1.606   1.656  0.00  0.00     0.017 A 
ATOM      8  C8  DEN d   1      -0.097  -0.741   0.639  0.00  0.00    -0.094 A 
ATOM      9  C9  DEN d   1       1.113  -0.900  -0.015  0.00  0.00    -0.072 A 
ENDROOT
TORSDOF 0
ENDMDL
