MODEL 1
REMARK minimizedAffinity -4.10992479
REMARK minimizedRMSD -1
REMARK  0 active torsions:
REMARK  status: ('A' for Active; 'I' for Inactive)
ROOT
ATOM      1  C1  DEN d   1      -1.196   0.084   0.728  0.00  0.00     0.130 A 
ATOM      2  C2  DEN d   1      -0.413   0.556  -0.411  0.00  0.00    -0.031 A 
ATOM      3  C3  DEN d   1       0.809  -0.269  -0.498  0.00  0.00     0.027 A 
ATOM      4  C4  DEN d   1       1.557  -2.225   1.007  0.00  0.00     0.027 A 
ATOM      5  C5  DEN d   1       1.227  -2.984   2.108  0.00  0.00    -0.003 A 
ATOM      6  C6  DEN d   1       0.093  -2.753   2.841  0.00  0.00     0.001 A 
ATOM      7  C7  DEN d   1      -0.776  -1.767   2.454  0.00  0.00     0.017 A 
ATOM      8  C8  DEN d   1      -0.447  -0.993   1.349  0.00  0.00    -0.094 A 
ATOM      9  C9  DEN d   1       0.698  -1.250   0.614  0.00  0.00    -0.072 A 
ENDROOT
TORSDOF 0
ENDMDL
