MODEL 1
REMARK minimizedAffinity -5.70976019
REMARK minimizedRMSD -1
REMARK  0 active torsions:
REMARK  status: ('A' for Active; 'I' for Inactive)
ROOT
ATOM      1  C1  DEN d   1      -0.611   0.208   0.386  0.00  0.00     0.130 A 
ATOM      2  C2  DEN d   1       0.317   0.634  -0.658  0.00  0.00    -0.031 A 
ATOM      3  C3  DEN d   1       1.497  -0.252  -0.609  0.00  0.00     0.027 A 
ATOM      4  C4  DEN d   1       1.974  -2.234   0.970  0.00  0.00     0.027 A 
ATOM      5  C5  DEN d   1       1.486  -2.969   2.029  0.00  0.00    -0.003 A 
ATOM      6  C6  DEN d   1       0.291  -2.677   2.631  0.00  0.00     0.001 A 
ATOM      7  C7  DEN d   1      -0.479  -1.651   2.149  0.00  0.00     0.017 A 
ATOM      8  C8  DEN d   1       0.009  -0.901   1.087  0.00  0.00    -0.094 A 
ATOM      9  C9  DEN d   1       1.214  -1.220   0.484  0.00  0.00    -0.072 A 
ENDROOT
TORSDOF 0
ENDMDL
