MODEL 1
REMARK minimizedAffinity 1.51297283
REMARK minimizedRMSD -1
REMARK  1 active torsions:
REMARK  status: ('A' for Active; 'I' for Inactive)
REMARK    1  A    between atoms: C3_4  and  O_7 
ROOT
ATOM      1  C   UNL d   1      -1.637   0.490   0.976  0.00  0.00    -0.033 A 
ATOM      2  C1  UNL d   1      -0.360   0.281   0.450  0.00  0.00     0.039 A 
ATOM      3  C2  UNL d   1       0.613  -0.371   1.210  0.00  0.00    -0.080 A 
ATOM      4  C3  UNL d   1       0.296  -0.810   2.492  0.00  0.00     0.150 A 
ATOM      5  C4  UNL d   1      -0.974  -0.610   3.021  0.00  0.00    -0.007 A 
ATOM      6  C5  UNL d   1      -1.944   0.043   2.261  0.00  0.00     0.039 A 
ENDROOT
BRANCH   4   7
ATOM      7  O   UNL d   1       1.214  -1.447   3.274  0.00  0.00    -0.526 OA
ATOM      8  H5  UNL d   1       2.055  -1.490   2.788  0.00  0.00     0.418 HD
ENDBRANCH   4   7
TORSDOF 1
ENDMDL
