MODEL 1
REMARK minimizedAffinity 4.10338593
REMARK minimizedRMSD -1
REMARK  1 active torsions:
REMARK  status: ('A' for Active; 'I' for Inactive)
REMARK    1  A    between atoms: C3_4  and  O_7 
ROOT
ATOM      1  C   UNL d   1       2.917   2.113   0.626  0.00  0.00    -0.033 A 
ATOM      2  C1  UNL d   1       3.011   2.199  -0.765  0.00  0.00     0.039 A 
ATOM      3  C2  UNL d   1       3.097   3.447  -1.385  0.00  0.00    -0.080 A 
ATOM      4  C3  UNL d   1       3.089   4.599  -0.605  0.00  0.00     0.150 A 
ATOM      5  C4  UNL d   1       2.999   4.522   0.781  0.00  0.00    -0.007 A 
ATOM      6  C5  UNL d   1       2.912   3.275   1.399  0.00  0.00     0.039 A 
ENDROOT
BRANCH   4   7
ATOM      7  O   UNL d   1       3.166   5.840  -1.165  0.00  0.00    -0.526 OA
ATOM      8  H5  UNL d   1       3.194   5.740  -2.131  0.00  0.00     0.418 HD
ENDBRANCH   4   7
TORSDOF 1
ENDMDL
