MODEL 1
REMARK minimizedAffinity 2.66752267
REMARK minimizedRMSD -1
REMARK  1 active torsions:
REMARK  status: ('A' for Active; 'I' for Inactive)
REMARK    1  A    between atoms: C3_4  and  O_7 
ROOT
ATOM      1  C   UNL d   1      -2.146   0.153   1.759  0.00  0.00    -0.033 A 
ATOM      2  C1  UNL d   1      -0.942   0.138   1.052  0.00  0.00     0.039 A 
ATOM      3  C2  UNL d   1       0.216  -0.359   1.653  0.00  0.00    -0.080 A 
ATOM      4  C3  UNL d   1       0.156  -0.839   2.959  0.00  0.00     0.150 A 
ATOM      5  C4  UNL d   1      -1.041  -0.831   3.667  0.00  0.00    -0.007 A 
ATOM      6  C5  UNL d   1      -2.196  -0.333   3.065  0.00  0.00     0.039 A 
ENDROOT
BRANCH   4   7
ATOM      7  O   UNL d   1       1.261  -1.329   3.589  0.00  0.00    -0.526 OA
ATOM      8  H5  UNL d   1       2.021  -1.245   2.989  0.00  0.00     0.418 HD
ENDBRANCH   4   7
TORSDOF 1
ENDMDL
