MODEL 1
REMARK minimizedAffinity -5.24970007
REMARK minimizedRMSD -1
REMARK  1 active torsions:
REMARK  status: ('A' for Active; 'I' for Inactive)
REMARK    1  A    between atoms: C3_4  and  O_7 
ROOT
ATOM      1  C   UNL d   1      -0.127   0.013   2.126  0.00  0.00    -0.033 A 
ATOM      2  C1  UNL d   1       0.606  -0.309   3.270  0.00  0.00     0.039 A 
ATOM      3  C2  UNL d   1       0.304   0.300   4.489  0.00  0.00    -0.080 A 
ATOM      4  C3  UNL d   1      -0.732   1.228   4.552  0.00  0.00     0.150 A 
ATOM      5  C4  UNL d   1      -1.469   1.550   3.417  0.00  0.00    -0.007 A 
ATOM      6  C5  UNL d   1      -1.166   0.941   2.200  0.00  0.00     0.039 A 
ENDROOT
BRANCH   4   7
ATOM      7  O   UNL d   1      -1.060   1.852   5.718  0.00  0.00    -0.526 OA
ATOM      8  H5  UNL d   1      -0.448   1.552   6.411  0.00  0.00     0.418 HD
ENDBRANCH   4   7
TORSDOF 1
ENDMDL
