MODEL 1
REMARK minimizedAffinity 3.19938898
REMARK minimizedRMSD -1
REMARK  1 active torsions:
REMARK  status: ('A' for Active; 'I' for Inactive)
REMARK    1  A    between atoms: C3_4  and  O_7 
ROOT
ATOM      1  C   UNL d   1      -3.099   0.056   0.588  0.00  0.00    -0.033 A 
ATOM      2  C1  UNL d   1      -2.477  -0.337  -0.599  0.00  0.00     0.039 A 
ATOM      3  C2  UNL d   1      -1.096  -0.540  -0.632  0.00  0.00    -0.080 A 
ATOM      4  C3  UNL d   1      -0.350  -0.348   0.528  0.00  0.00     0.150 A 
ATOM      5  C4  UNL d   1      -0.964   0.039   1.715  0.00  0.00    -0.007 A 
ATOM      6  C5  UNL d   1      -2.343   0.243   1.745  0.00  0.00     0.039 A 
ENDROOT
BRANCH   4   7
ATOM      7  O   UNL d   1       1.001  -0.530   0.544  0.00  0.00    -0.526 OA
ATOM      8  H5  UNL d   1       1.290  -0.769  -0.353  0.00  0.00     0.418 HD
ENDBRANCH   4   7
TORSDOF 1
ENDMDL
