MODEL 1
REMARK minimizedAffinity 0.0680906922
REMARK minimizedRMSD -1
REMARK  1 active torsions:
REMARK  status: ('A' for Active; 'I' for Inactive)
REMARK    1  A    between atoms: C3_4  and  O_7 
ROOT
ATOM      1  C   UNL d   1      -0.169  -0.105   2.242  0.00  0.00    -0.033 A 
ATOM      2  C1  UNL d   1      -0.299  -0.669   3.512  0.00  0.00     0.039 A 
ATOM      3  C2  UNL d   1      -1.551  -1.088   3.967  0.00  0.00    -0.080 A 
ATOM      4  C3  UNL d   1      -2.663  -0.938   3.143  0.00  0.00     0.150 A 
ATOM      5  C4  UNL d   1      -2.540  -0.380   1.875  0.00  0.00    -0.007 A 
ATOM      6  C5  UNL d   1      -1.289   0.038   1.422  0.00  0.00     0.039 A 
ENDROOT
BRANCH   4   7
ATOM      7  O   UNL d   1      -3.906  -1.328   3.545  0.00  0.00    -0.526 OA
ATOM      8  H5  UNL d   1      -3.842  -1.668   4.453  0.00  0.00     0.418 HD
ENDBRANCH   4   7
TORSDOF 1
ENDMDL
