MODEL 1
REMARK minimizedAffinity -1.79932725
REMARK minimizedRMSD -1
REMARK  1 active torsions:
REMARK  status: ('A' for Active; 'I' for Inactive)
REMARK    1  A    between atoms: C3_4  and  O_7 
ROOT
ATOM      1  C   UNL d   1       0.043   0.118   2.020  0.00  0.00    -0.033 A 
ATOM      2  C1  UNL d   1      -1.186   0.613   1.579  0.00  0.00     0.039 A 
ATOM      3  C2  UNL d   1      -2.375   0.082   2.081  0.00  0.00    -0.080 A 
ATOM      4  C3  UNL d   1      -2.323  -0.942   3.022  0.00  0.00     0.150 A 
ATOM      5  C4  UNL d   1      -1.102  -1.438   3.469  0.00  0.00    -0.007 A 
ATOM      6  C5  UNL d   1       0.085  -0.906   2.966  0.00  0.00     0.039 A 
ENDROOT
BRANCH   4   7
ATOM      7  O   UNL d   1      -3.457  -1.496   3.537  0.00  0.00    -0.526 OA
ATOM      8  H5  UNL d   1      -4.224  -1.074   3.116  0.00  0.00     0.418 HD
ENDBRANCH   4   7
TORSDOF 1
ENDMDL
