MODEL 1
REMARK minimizedAffinity 1.3128376
REMARK minimizedRMSD -1
REMARK  1 active torsions:
REMARK  status: ('A' for Active; 'I' for Inactive)
REMARK    1  A    between atoms: C3_4  and  O_7 
ROOT
ATOM      1  C   UNL d   1      -2.068   0.261   0.554  0.00  0.00    -0.033 A 
ATOM      2  C1  UNL d   1      -0.732  -0.016   0.257  0.00  0.00     0.039 A 
ATOM      3  C2  UNL d   1       0.150  -0.381   1.276  0.00  0.00    -0.080 A 
ATOM      4  C3  UNL d   1      -0.315  -0.464   2.586  0.00  0.00     0.150 A 
ATOM      5  C4  UNL d   1      -1.645  -0.193   2.888  0.00  0.00    -0.007 A 
ATOM      6  C5  UNL d   1      -2.525   0.172   1.869  0.00  0.00     0.039 A 
ENDROOT
BRANCH   4   7
ATOM      7  O   UNL d   1       0.510  -0.811   3.614  0.00  0.00    -0.526 OA
ATOM      8  H5  UNL d   1       1.405  -0.941   3.260  0.00  0.00     0.418 HD
ENDBRANCH   4   7
TORSDOF 1
ENDMDL
