MODEL 1
REMARK minimizedAffinity -1.43612099
REMARK minimizedRMSD -1
REMARK  1 active torsions:
REMARK  status: ('A' for Active; 'I' for Inactive)
REMARK    1  A    between atoms: C3_4  and  O_7 
ROOT
ATOM      1  C   UNL d   1       5.767   3.908   4.320  0.00  0.00    -0.033 A 
ATOM      2  C1  UNL d   1       5.940   5.279   4.126  0.00  0.00     0.039 A 
ATOM      3  C2  UNL d   1       5.020   6.000   3.362  0.00  0.00    -0.080 A 
ATOM      4  C3  UNL d   1       3.933   5.337   2.798  0.00  0.00     0.150 A 
ATOM      5  C4  UNL d   1       3.752   3.971   2.991  0.00  0.00    -0.007 A 
ATOM      6  C5  UNL d   1       4.672   3.254   3.754  0.00  0.00     0.039 A 
ENDROOT
BRANCH   4   7
ATOM      7  O   UNL d   1       3.011   5.997   2.041  0.00  0.00    -0.526 OA
ATOM      8  H5  UNL d   1       3.280   6.928   1.970  0.00  0.00     0.418 HD
ENDBRANCH   4   7
TORSDOF 1
ENDMDL
