MODEL 1
REMARK minimizedAffinity 11.0758705
REMARK minimizedRMSD -1
REMARK  2 active torsions:
REMARK  status: ('A' for Active; 'I' for Inactive)
REMARK    1  A    between atoms: C2'_3  and  C1'_4 
REMARK    2  A    between atoms: C1'_4  and  C1_5 
ROOT
ATOM      1  C1  I4B d   1       3.760   5.631  -2.111  0.00  0.00    -0.075 A 
ATOM      2  C2  I4B d   1       5.095   5.848  -1.876  0.00  0.00     0.003 A 
ATOM      3  C3  I4B d   1       5.995   5.997  -2.959  0.00  0.00     0.002 A 
ATOM      4  C4  I4B d   1       5.528   5.872  -4.252  0.00  0.00    -0.004 A 
ATOM      5  C5  I4B d   1       4.170   5.676  -4.489  0.00  0.00     0.002 A 
ATOM      6  C6  I4B d   1       3.279   5.567  -3.412  0.00  0.00     0.003 A 
ENDROOT
BRANCH   1   7
ATOM      7  C1' I4B d   1       2.844   5.445  -0.943  0.00  0.00     0.060 C 
BRANCH   7   8
ATOM      8  C2' I4B d   1       1.800   4.417  -1.328  0.00  0.00    -0.013 C 
ATOM      9  C4' I4B d   1       1.581   3.421  -0.220  0.00  0.00     0.013 C 
ATOM     10  C3' I4B d   1       0.532   5.147  -1.658  0.00  0.00     0.013 C 
ENDBRANCH   7   8
ENDBRANCH   1   7
TORSDOF 2
ENDMDL
