MODEL 1
REMARK minimizedAffinity 5.53419733
REMARK minimizedRMSD -1
REMARK  2 active torsions:
REMARK  status: ('A' for Active; 'I' for Inactive)
REMARK    1  A    between atoms: C2'_3  and  C1'_4 
REMARK    2  A    between atoms: C1'_4  and  C1_5 
ROOT
ATOM      1  C1  I4B d   1       2.637   0.774   1.443  0.00  0.00    -0.075 A 
ATOM      2  C2  I4B d   1       1.369   1.292   1.520  0.00  0.00     0.003 A 
ATOM      3  C3  I4B d   1       1.005   2.409   0.729  0.00  0.00     0.002 A 
ATOM      4  C4  I4B d   1       1.950   3.003  -0.082  0.00  0.00    -0.004 A 
ATOM      5  C5  I4B d   1       3.229   2.462  -0.177  0.00  0.00     0.002 A 
ATOM      6  C6  I4B d   1       3.572   1.333   0.581  0.00  0.00     0.003 A 
ENDROOT
BRANCH   1   7
ATOM      7  C1' I4B d   1       2.997  -0.386   2.317  0.00  0.00     0.060 C 
BRANCH   7   8
ATOM      8  C2' I4B d   1       1.711  -0.989   2.844  0.00  0.00    -0.013 C 
ATOM      9  C4' I4B d   1       0.920  -1.639   1.739  0.00  0.00     0.013 C 
ATOM     10  C3' I4B d   1       2.068  -1.982   3.910  0.00  0.00     0.013 C 
ENDBRANCH   7   8
ENDBRANCH   1   7
TORSDOF 2
ENDMDL
