MODEL 1
REMARK minimizedAffinity 13.2661276
REMARK minimizedRMSD -1
REMARK  2 active torsions:
REMARK  status: ('A' for Active; 'I' for Inactive)
REMARK    1  A    between atoms: C2'_3  and  C1'_4 
REMARK    2  A    between atoms: C1'_4  and  C1_5 
ROOT
ATOM      1  C1  I4B d   1      -5.644  -3.546  -5.280  0.00  0.00    -0.075 A 
ATOM      2  C2  I4B d   1      -5.140  -3.585  -4.004  0.00  0.00     0.003 A 
ATOM      3  C3  I4B d   1      -4.847  -4.827  -3.391  0.00  0.00     0.002 A 
ATOM      4  C4  I4B d   1      -5.119  -5.999  -4.067  0.00  0.00    -0.004 A 
ATOM      5  C5  I4B d   1      -5.609  -5.957  -5.369  0.00  0.00     0.002 A 
ATOM      6  C6  I4B d   1      -5.862  -4.723  -5.985  0.00  0.00     0.003 A 
ENDROOT
BRANCH   1   7
ATOM      7  C1' I4B d   1      -5.973  -2.218  -5.885  0.00  0.00     0.060 C 
BRANCH   7   8
ATOM      8  C2' I4B d   1      -4.701  -1.396  -5.927  0.00  0.00    -0.013 C 
ATOM      9  C4' I4B d   1      -4.650  -0.410  -4.789  0.00  0.00     0.013 C 
ATOM     10  C3' I4B d   1      -3.538  -2.341  -5.877  0.00  0.00     0.013 C 
ENDBRANCH   7   8
ENDBRANCH   1   7
TORSDOF 2
ENDMDL
