MODEL 1
REMARK minimizedAffinity 9.42381477
REMARK minimizedRMSD -1
REMARK  2 active torsions:
REMARK  status: ('A' for Active; 'I' for Inactive)
REMARK    1  A    between atoms: C2'_3  and  C1'_4 
REMARK    2  A    between atoms: C1'_4  and  C1_5 
ROOT
ATOM      1  C1  I4B d   1      -4.284  -0.520  -3.259  0.00  0.00    -0.075 A 
ATOM      2  C2  I4B d   1      -4.165  -1.478  -4.235  0.00  0.00     0.003 A 
ATOM      3  C3  I4B d   1      -4.983  -2.634  -4.202  0.00  0.00     0.002 A 
ATOM      4  C4  I4B d   1      -5.864  -2.813  -3.156  0.00  0.00    -0.004 A 
ATOM      5  C5  I4B d   1      -6.000  -1.830  -2.180  0.00  0.00     0.002 A 
ATOM      6  C6  I4B d   1      -5.214  -0.670  -2.238  0.00  0.00     0.003 A 
ENDROOT
BRANCH   1   7
ATOM      7  C1' I4B d   1      -3.381   0.672  -3.306  0.00  0.00     0.060 C 
BRANCH   7   8
ATOM      8  C2' I4B d   1      -4.148   1.859  -2.759  0.00  0.00    -0.013 C 
ATOM      9  C4' I4B d   1      -3.329   2.617  -1.747  0.00  0.00     0.013 C 
ATOM     10  C3' I4B d   1      -4.529   2.736  -3.914  0.00  0.00     0.013 C 
ENDBRANCH   7   8
ENDBRANCH   1   7
TORSDOF 2
ENDMDL
