MODEL 1
REMARK minimizedAffinity 5.76984978
REMARK minimizedRMSD -1
REMARK  2 active torsions:
REMARK  status: ('A' for Active; 'I' for Inactive)
REMARK    1  A    between atoms: C2'_3  and  C1'_4 
REMARK    2  A    between atoms: C1'_4  and  C1_5 
ROOT
ATOM      1  C1  I4B d   1       4.179   5.941  -2.946  0.00  0.00    -0.075 A 
ATOM      2  C2  I4B d   1       5.528   5.936  -3.202  0.00  0.00     0.003 A 
ATOM      3  C3  I4B d   1       6.000   5.968  -4.537  0.00  0.00     0.002 A 
ATOM      4  C4  I4B d   1       5.095   5.954  -5.579  0.00  0.00    -0.004 A 
ATOM      5  C5  I4B d   1       3.728   5.982  -5.317  0.00  0.00     0.002 A 
ATOM      6  C6  I4B d   1       3.267   5.988  -3.992  0.00  0.00     0.003 A 
ENDROOT
BRANCH   1   7
ATOM      7  C1' I4B d   1       3.715   5.873  -1.526  0.00  0.00     0.060 C 
BRANCH   7   8
ATOM      8  C2' I4B d   1       2.535   4.925  -1.465  0.00  0.00    -0.013 C 
ATOM      9  C4' I4B d   1       2.413   4.293  -0.104  0.00  0.00     0.013 C 
ATOM     10  C3' I4B d   1       1.300   5.700  -1.815  0.00  0.00     0.013 C 
ENDBRANCH   7   8
ENDBRANCH   1   7
TORSDOF 2
ENDMDL
