MODEL 1
REMARK minimizedAffinity 16.4529362
REMARK minimizedRMSD -1
REMARK  2 active torsions:
REMARK  status: ('A' for Active; 'I' for Inactive)
REMARK    1  A    between atoms: C2'_3  and  C1'_4 
REMARK    2  A    between atoms: C1'_4  and  C1_5 
ROOT
ATOM      1  C1  I4B d   1      -3.960   3.116  -0.223  0.00  0.00    -0.075 A 
ATOM      2  C2  I4B d   1      -3.664   2.787   1.077  0.00  0.00     0.003 A 
ATOM      3  C3  I4B d   1      -4.551   3.143   2.121  0.00  0.00     0.002 A 
ATOM      4  C4  I4B d   1      -5.690   3.866   1.830  0.00  0.00    -0.004 A 
ATOM      5  C5  I4B d   1      -6.000   4.178   0.509  0.00  0.00     0.002 A 
ATOM      6  C6  I4B d   1      -5.136   3.790  -0.525  0.00  0.00     0.003 A 
ENDROOT
BRANCH   1   7
ATOM      7  C1' I4B d   1      -2.985   2.753  -1.298  0.00  0.00     0.060 C 
BRANCH   7   8
ATOM      8  C2' I4B d   1      -3.675   1.799  -2.252  0.00  0.00    -0.013 C 
ATOM      9  C4' I4B d   1      -3.806   2.402  -3.626  0.00  0.00     0.013 C 
ATOM     10  C3' I4B d   1      -2.880   0.529  -2.291  0.00  0.00     0.013 C 
ENDBRANCH   7   8
ENDBRANCH   1   7
TORSDOF 2
ENDMDL
