MODEL 1
REMARK minimizedAffinity 20.6789856
REMARK minimizedRMSD -1
REMARK  2 active torsions:
REMARK  status: ('A' for Active; 'I' for Inactive)
REMARK    1  A    between atoms: C2'_3  and  C1'_4 
REMARK    2  A    between atoms: C1'_4  and  C1_5 
ROOT
ATOM      1  C1  I4B d   1      -4.896  -1.866  -4.382  0.00  0.00    -0.075 A 
ATOM      2  C2  I4B d   1      -5.999  -2.682  -4.425  0.00  0.00     0.003 A 
ATOM      3  C3  I4B d   1      -5.991  -3.850  -5.225  0.00  0.00     0.002 A 
ATOM      4  C4  I4B d   1      -4.886  -4.136  -6.000  0.00  0.00    -0.004 A 
ATOM      5  C5  I4B d   1      -3.759  -3.320  -5.938  0.00  0.00     0.002 A 
ATOM      6  C6  I4B d   1      -3.759  -2.185  -5.114  0.00  0.00     0.003 A 
ENDROOT
BRANCH   1   7
ATOM      7  C1' I4B d   1      -4.950  -0.623  -3.552  0.00  0.00     0.060 C 
BRANCH   7   8
ATOM      8  C2' I4B d   1      -3.993   0.384  -4.157  0.00  0.00    -0.013 C 
ATOM      9  C4' I4B d   1      -4.705   1.307  -5.112  0.00  0.00     0.013 C 
ATOM     10  C3' I4B d   1      -3.358   1.151  -3.036  0.00  0.00     0.013 C 
ENDBRANCH   7   8
ENDBRANCH   1   7
TORSDOF 2
ENDMDL
