MODEL 1
REMARK minimizedAffinity 5.66442347
REMARK minimizedRMSD -1
REMARK  2 active torsions:
REMARK  status: ('A' for Active; 'I' for Inactive)
REMARK    1  A    between atoms: C2'_3  and  C1'_4 
REMARK    2  A    between atoms: C1'_4  and  C1_5 
ROOT
ATOM      1  C1  I4B d   1       2.839  -2.765   3.495  0.00  0.00    -0.075 A 
ATOM      2  C2  I4B d   1       3.203  -1.885   2.506  0.00  0.00     0.003 A 
ATOM      3  C3  I4B d   1       2.229  -1.061   1.892  0.00  0.00     0.002 A 
ATOM      4  C4  I4B d   1       0.905  -1.185   2.258  0.00  0.00    -0.004 A 
ATOM      5  C5  I4B d   1       0.541  -2.061   3.276  0.00  0.00     0.002 A 
ATOM      6  C6  I4B d   1       1.515  -2.848   3.907  0.00  0.00     0.003 A 
ENDROOT
BRANCH   1   7
ATOM      7  C1' I4B d   1       3.887  -3.643   4.099  0.00  0.00     0.060 C 
BRANCH   7   8
ATOM      8  C2' I4B d   1       5.243  -3.075   3.730  0.00  0.00    -0.013 C 
ATOM      9  C4' I4B d   1       5.999  -2.631   4.954  0.00  0.00     0.013 C 
ATOM     10  C3' I4B d   1       5.998  -4.130   2.980  0.00  0.00     0.013 C 
ENDBRANCH   7   8
ENDBRANCH   1   7
TORSDOF 2
ENDMDL
