MODEL 1
REMARK minimizedAffinity 2.23719287
REMARK minimizedRMSD -1
REMARK  2 active torsions:
REMARK  status: ('A' for Active; 'I' for Inactive)
REMARK    1  A    between atoms: C2'_3  and  C1'_4 
REMARK    2  A    between atoms: C1'_4  and  C1_5 
ROOT
ATOM      1  C1  I4B d   1       3.526  -2.736   4.118  0.00  0.00    -0.075 A 
ATOM      2  C2  I4B d   1       3.728  -3.429   5.285  0.00  0.00     0.003 A 
ATOM      3  C3  I4B d   1       4.990  -4.009   5.560  0.00  0.00     0.002 A 
ATOM      4  C4  I4B d   1       6.000  -3.915   4.624  0.00  0.00    -0.004 A 
ATOM      5  C5  I4B d   1       5.800  -3.192   3.451  0.00  0.00     0.002 A 
ATOM      6  C6  I4B d   1       4.559  -2.588   3.202  0.00  0.00     0.003 A 
ENDROOT
BRANCH   1   7
ATOM      7  C1' I4B d   1       2.171  -2.164   3.845  0.00  0.00     0.060 C 
BRANCH   7   8
ATOM      8  C2' I4B d   1       2.055  -1.929   2.352  0.00  0.00    -0.013 C 
ATOM      9  C4' I4B d   1       0.633  -2.086   1.884  0.00  0.00     0.013 C 
ATOM     10  C3' I4B d   1       2.573  -0.552   2.059  0.00  0.00     0.013 C 
ENDBRANCH   7   8
ENDBRANCH   1   7
TORSDOF 2
ENDMDL
