MODEL 1
REMARK minimizedAffinity -2.74872112
REMARK minimizedRMSD -1
REMARK  1 active torsions:
REMARK  status: ('A' for Active; 'I' for Inactive)
REMARK    1  A    between atoms: C1_2  and  C2_3 
ROOT
ATOM      1  C2  UNL d   1      -0.537  -1.645  -0.139  0.00  0.00    -0.077 A 
ATOM      2  C3  UNL d   1       0.725  -1.770  -0.738  0.00  0.00     0.002 A 
ATOM      3  C4  UNL d   1       0.946  -2.733  -1.724  0.00  0.00     0.002 A 
ATOM      4  C5  UNL d   1      -0.089  -3.576  -2.122  0.00  0.00    -0.004 A 
ATOM      5  C6  UNL d   1      -1.347  -3.461  -1.531  0.00  0.00     0.002 A 
ATOM      6  C7  UNL d   1      -1.570  -2.499  -0.545  0.00  0.00     0.002 A 
ENDROOT
BRANCH   1   7
ATOM      7  C1  UNL d   1      -0.791  -0.574   0.890  0.00  0.00     0.055 C 
ATOM      8  C   UNL d   1      -0.540   0.814   0.317  0.00  0.00     0.019 C 
ENDBRANCH   1   7
TORSDOF 1
ENDMDL
