MODEL 1
REMARK minimizedAffinity -4.99487448
REMARK minimizedRMSD -1
REMARK  1 active torsions:
REMARK  status: ('A' for Active; 'I' for Inactive)
REMARK    1  A    between atoms: C1_2  and  C2_3 
ROOT
ATOM      1  C2  UNL d   1       0.217   0.082  -0.011  0.00  0.00    -0.077 A 
ATOM      2  C3  UNL d   1       1.390   0.809   0.237  0.00  0.00     0.002 A 
ATOM      3  C4  UNL d   1       1.338   2.191   0.424  0.00  0.00     0.002 A 
ATOM      4  C5  UNL d   1       0.115   2.858   0.369  0.00  0.00    -0.004 A 
ATOM      5  C6  UNL d   1      -1.056   2.144   0.122  0.00  0.00     0.002 A 
ATOM      6  C7  UNL d   1      -1.006   0.762  -0.067  0.00  0.00     0.002 A 
ENDROOT
BRANCH   1   7
ATOM      7  C1  UNL d   1       0.265  -1.416  -0.163  0.00  0.00     0.055 C 
ATOM      8  C   UNL d   1      -0.182  -1.846  -1.553  0.00  0.00     0.019 C 
ENDBRANCH   1   7
TORSDOF 1
ENDMDL
