MODEL 1
REMARK minimizedAffinity -4.36933851
REMARK minimizedRMSD -1
REMARK  1 active torsions:
REMARK  status: ('A' for Active; 'I' for Inactive)
REMARK    1  A    between atoms: C1_2  and  C2_3 
ROOT
ATOM      1  C2  UNL d   1       0.087   0.883   0.279  0.00  0.00    -0.077 A 
ATOM      2  C3  UNL d   1       1.482   0.864   0.421  0.00  0.00     0.002 A 
ATOM      3  C4  UNL d   1       2.211   2.054   0.385  0.00  0.00     0.002 A 
ATOM      4  C5  UNL d   1       1.554   3.271   0.211  0.00  0.00    -0.004 A 
ATOM      5  C6  UNL d   1       0.168   3.300   0.067  0.00  0.00     0.002 A 
ATOM      6  C7  UNL d   1      -0.563   2.111   0.102  0.00  0.00     0.002 A 
ENDROOT
BRANCH   1   7
ATOM      7  C1  UNL d   1      -0.706  -0.395   0.367  0.00  0.00     0.055 C 
ATOM      8  C   UNL d   1       0.176  -1.612   0.129  0.00  0.00     0.019 C 
ENDBRANCH   1   7
TORSDOF 1
ENDMDL
