MODEL 1
REMARK minimizedAffinity -5.41778231
REMARK minimizedRMSD -1
REMARK  1 active torsions:
REMARK  status: ('A' for Active; 'I' for Inactive)
REMARK    1  A    between atoms: C1_2  and  C2_3 
ROOT
ATOM      1  C2  UNL d   1       0.113  -0.252   0.162  0.00  0.00    -0.077 A 
ATOM      2  C3  UNL d   1      -1.202   0.039   0.550  0.00  0.00     0.002 A 
ATOM      3  C4  UNL d   1      -1.643   1.363   0.613  0.00  0.00     0.002 A 
ATOM      4  C5  UNL d   1      -0.777   2.404   0.285  0.00  0.00    -0.004 A 
ATOM      5  C6  UNL d   1       0.533   2.124  -0.101  0.00  0.00     0.002 A 
ATOM      6  C7  UNL d   1       0.976   0.802  -0.163  0.00  0.00     0.002 A 
ENDROOT
BRANCH   1   7
ATOM      7  C1  UNL d   1       0.576  -1.681   0.046  0.00  0.00     0.055 C 
ATOM      8  C   UNL d   1      -0.308  -2.474  -0.907  0.00  0.00     0.019 C 
ENDBRANCH   1   7
TORSDOF 1
ENDMDL
