MODEL 1
REMARK minimizedAffinity -2.81935787
REMARK minimizedRMSD -1
REMARK  1 active torsions:
REMARK  status: ('A' for Active; 'I' for Inactive)
REMARK    1  A    between atoms: C1_2  and  C2_3 
ROOT
ATOM      1  C2  UNL d   1      -0.059  -0.059   0.115  0.00  0.00    -0.077 A 
ATOM      2  C3  UNL d   1       1.033   0.663  -0.387  0.00  0.00     0.002 A 
ATOM      3  C4  UNL d   1       1.023   2.059  -0.374  0.00  0.00     0.002 A 
ATOM      4  C5  UNL d   1      -0.075   2.745   0.142  0.00  0.00    -0.004 A 
ATOM      5  C6  UNL d   1      -1.167   2.036   0.641  0.00  0.00     0.002 A 
ATOM      6  C7  UNL d   1      -1.159   0.641   0.628  0.00  0.00     0.002 A 
ENDROOT
BRANCH   1   7
ATOM      7  C1  UNL d   1      -0.029  -1.564   0.147  0.00  0.00     0.055 C 
ATOM      8  C   UNL d   1      -0.145  -2.151  -1.252  0.00  0.00     0.019 C 
ENDBRANCH   1   7
TORSDOF 1
ENDMDL
