MODEL 1
REMARK minimizedAffinity -3.00930166
REMARK minimizedRMSD -1
REMARK  1 active torsions:
REMARK  status: ('A' for Active; 'I' for Inactive)
REMARK    1  A    between atoms: C1_2  and  C2_3 
ROOT
ATOM      1  C2  UNL d   1      -0.228   0.823  -0.089  0.00  0.00    -0.077 A 
ATOM      2  C3  UNL d   1       1.014   1.168  -0.639  0.00  0.00     0.002 A 
ATOM      3  C4  UNL d   1       1.556   2.436  -0.420  0.00  0.00     0.002 A 
ATOM      4  C5  UNL d   1       0.865   3.367   0.352  0.00  0.00    -0.004 A 
ATOM      5  C6  UNL d   1      -0.372   3.035   0.902  0.00  0.00     0.002 A 
ATOM      6  C7  UNL d   1      -0.916   1.768   0.683  0.00  0.00     0.002 A 
ENDROOT
BRANCH   1   7
ATOM      7  C1  UNL d   1      -0.792  -0.560  -0.283  0.00  0.00     0.055 C 
ATOM      8  C   UNL d   1       0.299  -1.618  -0.210  0.00  0.00     0.019 C 
ENDBRANCH   1   7
TORSDOF 1
ENDMDL
