MODEL 1
REMARK minimizedAffinity -4.60128689
REMARK minimizedRMSD -1
REMARK  1 active torsions:
REMARK  status: ('A' for Active; 'I' for Inactive)
REMARK    1  A    between atoms: C1_2  and  C2_3 
ROOT
ATOM      1  C2  UNL d   1      -0.078  -0.041  -0.242  0.00  0.00    -0.077 A 
ATOM      2  C3  UNL d   1       1.084   0.736  -0.341  0.00  0.00     0.002 A 
ATOM      3  C4  UNL d   1       1.003   2.130  -0.344  0.00  0.00     0.002 A 
ATOM      4  C5  UNL d   1      -0.237   2.758  -0.244  0.00  0.00    -0.004 A 
ATOM      5  C6  UNL d   1      -1.398   1.993  -0.146  0.00  0.00     0.002 A 
ATOM      6  C7  UNL d   1      -1.320   0.600  -0.144  0.00  0.00     0.002 A 
ENDROOT
BRANCH   1   7
ATOM      7  C1  UNL d   1       0.011  -1.544  -0.188  0.00  0.00     0.055 C 
ATOM      8  C   UNL d   1       0.173  -2.139  -1.580  0.00  0.00     0.019 C 
ENDBRANCH   1   7
TORSDOF 1
ENDMDL
