MODEL 1
REMARK minimizedAffinity -2.47806406
REMARK minimizedRMSD -1
REMARK  1 active torsions:
REMARK  status: ('A' for Active; 'I' for Inactive)
REMARK    1  A    between atoms: C1_2  and  C2_3 
ROOT
ATOM      1  C2  UNL d   1      -0.282   1.276   0.538  0.00  0.00    -0.077 A 
ATOM      2  C3  UNL d   1      -1.072   0.120   0.621  0.00  0.00     0.002 A 
ATOM      3  C4  UNL d   1      -0.483  -1.144   0.564  0.00  0.00     0.002 A 
ATOM      4  C5  UNL d   1       0.898  -1.265   0.427  0.00  0.00    -0.004 A 
ATOM      5  C6  UNL d   1       1.692  -0.122   0.341  0.00  0.00     0.002 A 
ATOM      6  C7  UNL d   1       1.105   1.142   0.397  0.00  0.00     0.002 A 
ENDROOT
BRANCH   1   7
ATOM      7  C1  UNL d   1      -0.911   2.640   0.649  0.00  0.00     0.055 C 
ATOM      8  C   UNL d   1      -0.100   3.551   1.559  0.00  0.00     0.019 C 
ENDBRANCH   1   7
TORSDOF 1
ENDMDL
