MODEL 1
REMARK minimizedAffinity -1.32336438
REMARK minimizedRMSD -1
REMARK  1 active torsions:
REMARK  status: ('A' for Active; 'I' for Inactive)
REMARK    1  A    between atoms: C1_2  and  C2_3 
ROOT
ATOM      1  C2  UNL d   1      -0.686  -1.762  -0.734  0.00  0.00    -0.077 A 
ATOM      2  C3  UNL d   1      -1.710  -1.524  -1.661  0.00  0.00     0.002 A 
ATOM      3  C4  UNL d   1      -2.309  -2.587  -2.340  0.00  0.00     0.002 A 
ATOM      4  C5  UNL d   1      -1.894  -3.894  -2.096  0.00  0.00    -0.004 A 
ATOM      5  C6  UNL d   1      -0.875  -4.141  -1.177  0.00  0.00     0.002 A 
ATOM      6  C7  UNL d   1      -0.274  -3.080  -0.498  0.00  0.00     0.002 A 
ENDROOT
BRANCH   1   7
ATOM      7  C1  UNL d   1      -0.073  -0.621   0.036  0.00  0.00     0.055 C 
ATOM      8  C   UNL d   1      -0.988   0.595   0.046  0.00  0.00     0.019 C 
ENDBRANCH   1   7
TORSDOF 1
ENDMDL
