MODEL 1
REMARK minimizedAffinity -4.65456486
REMARK minimizedRMSD -1
REMARK  1 active torsions:
REMARK  status: ('A' for Active; 'I' for Inactive)
REMARK    1  A    between atoms: C1_2  and  C2_3 
ROOT
ATOM      1  C2  UNL d   1       0.426  -0.056   0.012  0.00  0.00    -0.077 A 
ATOM      2  C3  UNL d   1       1.435   0.825  -0.401  0.00  0.00     0.002 A 
ATOM      3  C4  UNL d   1       1.226   2.205  -0.363  0.00  0.00     0.002 A 
ATOM      4  C5  UNL d   1       0.011   2.716   0.090  0.00  0.00    -0.004 A 
ATOM      5  C6  UNL d   1      -0.999   1.847   0.501  0.00  0.00     0.002 A 
ATOM      6  C7  UNL d   1      -0.792   0.468   0.463  0.00  0.00     0.002 A 
ENDROOT
BRANCH   1   7
ATOM      7  C1  UNL d   1       0.667  -1.543   0.018  0.00  0.00     0.055 C 
ATOM      8  C   UNL d   1      -0.447  -2.288  -0.704  0.00  0.00     0.019 C 
ENDBRANCH   1   7
TORSDOF 1
ENDMDL
