MODEL 1
REMARK minimizedAffinity 11.6420908
REMARK minimizedRMSD -1
REMARK  1 active torsions:
REMARK  status: ('A' for Active; 'I' for Inactive)
REMARK    1  A    between atoms: C1_2  and  C2_3 
ROOT
ATOM      1  C2  UNL d   1       1.533  -4.302  -2.707  0.00  0.00    -0.077 A 
ATOM      2  C3  UNL d   1       1.879  -4.667  -1.398  0.00  0.00     0.002 A 
ATOM      3  C4  UNL d   1       2.989  -4.093  -0.775  0.00  0.00     0.002 A 
ATOM      4  C5  UNL d   1       3.758  -3.148  -1.451  0.00  0.00    -0.004 A 
ATOM      5  C6  UNL d   1       3.423  -2.780  -2.754  0.00  0.00     0.002 A 
ATOM      6  C7  UNL d   1       2.315  -3.354  -3.378  0.00  0.00     0.002 A 
ENDROOT
BRANCH   1   7
ATOM      7  C1  UNL d   1       0.308  -4.883  -3.363  0.00  0.00     0.055 C 
ATOM      8  C   UNL d   1      -0.922  -4.723  -2.480  0.00  0.00     0.019 C 
ENDBRANCH   1   7
TORSDOF 1
ENDMDL
