MODEL 1
REMARK minimizedAffinity 5.61792183
REMARK minimizedRMSD -1
REMARK  0 active torsions:
REMARK  status: ('A' for Active; 'I' for Inactive)
ROOT
ATOM      1  C2' OXE d   1      -1.720   4.174  -5.176  0.00  0.00     0.078 C 
ATOM      2  C1' OXE d   1      -2.752   2.278  -3.381  0.00  0.00     0.078 C 
ATOM      3  C1  OXE d   1      -1.556   3.084  -2.942  0.00  0.00    -0.078 A 
ATOM      4  C2  OXE d   1      -1.029   3.976  -3.845  0.00  0.00    -0.078 A 
ATOM      5  C3  OXE d   1       0.042   4.784  -3.471  0.00  0.00     0.003 A 
ATOM      6  C4  OXE d   1       0.682   4.588  -2.241  0.00  0.00    -0.002 A 
ATOM      7  C5  OXE d   1       0.186   3.657  -1.323  0.00  0.00    -0.002 A 
ATOM      8  C6  OXE d   1      -0.956   2.928  -1.640  0.00  0.00     0.003 A 
ENDROOT
TORSDOF 0
ENDMDL
