MODEL 1
REMARK minimizedAffinity 1.51664674
REMARK minimizedRMSD -1
REMARK  0 active torsions:
REMARK  status: ('A' for Active; 'I' for Inactive)
ROOT
ATOM      1  C2' OXE d   1      -4.068  -0.750  -1.138  0.00  0.00     0.078 C 
ATOM      2  C1' OXE d   1      -4.045   0.782   1.214  0.00  0.00     0.078 C 
ATOM      3  C1  OXE d   1      -2.734   0.215   0.732  0.00  0.00    -0.078 A 
ATOM      4  C2  OXE d   1      -2.762  -0.572  -0.395  0.00  0.00    -0.078 A 
ATOM      5  C3  OXE d   1      -1.572  -1.076  -0.913  0.00  0.00     0.003 A 
ATOM      6  C4  OXE d   1      -0.370  -0.916  -0.214  0.00  0.00    -0.002 A 
ATOM      7  C5  OXE d   1      -0.326  -0.151   0.956  0.00  0.00    -0.002 A 
ATOM      8  C6  OXE d   1      -1.489   0.455   1.418  0.00  0.00     0.003 A 
ENDROOT
TORSDOF 0
ENDMDL
