MODEL 1
REMARK minimizedAffinity 14.4890366
REMARK minimizedRMSD -1
REMARK  0 active torsions:
REMARK  status: ('A' for Active; 'I' for Inactive)
ROOT
ATOM      1  C2' OXE d   1       3.870   0.085   2.031  0.00  0.00     0.078 C 
ATOM      2  C1' OXE d   1       2.521   0.117  -0.431  0.00  0.00     0.078 C 
ATOM      3  C1  OXE d   1       1.715  -0.179   0.809  0.00  0.00    -0.078 A 
ATOM      4  C2  OXE d   1       2.392  -0.238   2.004  0.00  0.00    -0.078 A 
ATOM      5  C3  OXE d   1       1.688  -0.453   3.185  0.00  0.00     0.003 A 
ATOM      6  C4  OXE d   1       0.322  -0.761   3.151  0.00  0.00    -0.002 A 
ATOM      7  C5  OXE d   1      -0.379  -0.745   1.940  0.00  0.00    -0.002 A 
ATOM      8  C6  OXE d   1       0.293  -0.414   0.768  0.00  0.00     0.003 A 
ENDROOT
TORSDOF 0
ENDMDL
