MODEL 1
REMARK minimizedAffinity 12.6939192
REMARK minimizedRMSD -1
REMARK  0 active torsions:
REMARK  status: ('A' for Active; 'I' for Inactive)
ROOT
ATOM      1  C2' OXE d   1       1.117  -3.555  -2.144  0.00  0.00     0.078 C 
ATOM      2  C1' OXE d   1       0.190  -1.159  -3.275  0.00  0.00     0.078 C 
ATOM      3  C1  OXE d   1       0.610  -1.137  -1.826  0.00  0.00    -0.078 A 
ATOM      4  C2  OXE d   1       1.018  -2.324  -1.268  0.00  0.00    -0.078 A 
ATOM      5  C3  OXE d   1       1.467  -2.349   0.049  0.00  0.00     0.003 A 
ATOM      6  C4  OXE d   1       1.363  -1.208   0.855  0.00  0.00    -0.002 A 
ATOM      7  C5  OXE d   1       0.912   0.002   0.317  0.00  0.00    -0.002 A 
ATOM      8  C6  OXE d   1       0.573   0.065  -1.030  0.00  0.00     0.003 A 
ENDROOT
TORSDOF 0
ENDMDL
