MODEL 1
REMARK minimizedAffinity -0.824104607
REMARK minimizedRMSD -1
REMARK  0 active torsions:
REMARK  status: ('A' for Active; 'I' for Inactive)
ROOT
ATOM      1  C2' OXE d   1      -4.502  -5.354   2.077  0.00  0.00     0.078 C 
ATOM      2  C1' OXE d   1      -2.664  -3.748   0.690  0.00  0.00     0.078 C 
ATOM      3  C1  OXE d   1      -3.689  -4.503  -0.119  0.00  0.00    -0.078 A 
ATOM      4  C2  OXE d   1      -4.555  -5.323   0.564  0.00  0.00    -0.078 A 
ATOM      5  C3  OXE d   1      -5.555  -5.999  -0.128  0.00  0.00     0.003 A 
ATOM      6  C4  OXE d   1      -5.591  -5.972  -1.527  0.00  0.00    -0.002 A 
ATOM      7  C5  OXE d   1      -4.694  -5.175  -2.245  0.00  0.00    -0.002 A 
ATOM      8  C6  OXE d   1      -3.766  -4.402  -1.555  0.00  0.00     0.003 A 
ENDROOT
TORSDOF 0
ENDMDL
