MODEL 1
REMARK minimizedAffinity 12.2851295
REMARK minimizedRMSD -1
REMARK  0 active torsions:
REMARK  status: ('A' for Active; 'I' for Inactive)
ROOT
ATOM      1  C2' OXE d   1      -4.437  -3.606  -0.967  0.00  0.00     0.078 C 
ATOM      2  C1' OXE d   1      -5.930  -5.983  -1.008  0.00  0.00     0.078 C 
ATOM      3  C1  OXE d   1      -5.577  -5.397   0.337  0.00  0.00    -0.078 A 
ATOM      4  C2  OXE d   1      -4.806  -4.259   0.348  0.00  0.00    -0.078 A 
ATOM      5  C3  OXE d   1      -4.498  -3.647   1.559  0.00  0.00     0.003 A 
ATOM      6  C4  OXE d   1      -4.835  -4.263   2.771  0.00  0.00    -0.002 A 
ATOM      7  C5  OXE d   1      -5.585  -5.444   2.782  0.00  0.00    -0.002 A 
ATOM      8  C6  OXE d   1      -5.999  -6.000   1.577  0.00  0.00     0.003 A 
ENDROOT
TORSDOF 0
ENDMDL
