MODEL 1
REMARK minimizedAffinity 1.15917528
REMARK minimizedRMSD -1
REMARK  0 active torsions:
REMARK  status: ('A' for Active; 'I' for Inactive)
ROOT
ATOM      1  C2' OXE d   1      -1.097  -2.467   0.253  0.00  0.00     0.078 C 
ATOM      2  C1' OXE d   1       1.032  -3.984  -0.769  0.00  0.00     0.078 C 
ATOM      3  C1  OXE d   1       1.356  -2.653  -0.137  0.00  0.00    -0.078 A 
ATOM      4  C2  OXE d   1       0.304  -1.897   0.318  0.00  0.00    -0.078 A 
ATOM      5  C3  OXE d   1       0.551  -0.686   0.959  0.00  0.00     0.003 A 
ATOM      6  C4  OXE d   1       1.848  -0.161   1.006  0.00  0.00    -0.002 A 
ATOM      7  C5  OXE d   1       2.930  -0.898   0.512  0.00  0.00    -0.002 A 
ATOM      8  C6  OXE d   1       2.707  -2.162  -0.023  0.00  0.00     0.003 A 
ENDROOT
TORSDOF 0
ENDMDL
