MODEL 1
REMARK minimizedAffinity 3.60775781
REMARK minimizedRMSD -1
REMARK  0 active torsions:
REMARK  status: ('A' for Active; 'I' for Inactive)
ROOT
ATOM      1  C2' OXE d   1      -1.121  -4.502  -0.176  0.00  0.00     0.078 C 
ATOM      2  C1' OXE d   1      -3.751  -3.753   0.462  0.00  0.00     0.078 C 
ATOM      3  C1  OXE d   1      -3.533  -4.556  -0.796  0.00  0.00    -0.078 A 
ATOM      4  C2  OXE d   1      -2.239  -4.878  -1.125  0.00  0.00    -0.078 A 
ATOM      5  C3  OXE d   1      -1.987  -5.664  -2.246  0.00  0.00     0.003 A 
ATOM      6  C4  OXE d   1      -3.025  -6.000  -3.124  0.00  0.00    -0.002 A 
ATOM      7  C5  OXE d   1      -4.346  -5.648  -2.828  0.00  0.00    -0.002 A 
ATOM      8  C6  OXE d   1      -4.622  -4.964  -1.649  0.00  0.00     0.003 A 
ENDROOT
TORSDOF 0
ENDMDL
