MODEL 1
REMARK minimizedAffinity 11.2025738
REMARK minimizedRMSD -1
REMARK  0 active torsions:
REMARK  status: ('A' for Active; 'I' for Inactive)
ROOT
ATOM      1  C2' OXE d   1      -2.455  -2.937   5.256  0.00  0.00     0.078 C 
ATOM      2  C1' OXE d   1      -2.243  -5.355   3.846  0.00  0.00     0.078 C 
ATOM      3  C1  OXE d   1      -3.582  -5.006   4.447  0.00  0.00    -0.078 A 
ATOM      4  C2  OXE d   1      -3.664  -3.843   5.175  0.00  0.00    -0.078 A 
ATOM      5  C3  OXE d   1      -4.888  -3.447   5.705  0.00  0.00     0.003 A 
ATOM      6  C4  OXE d   1      -6.000  -4.296   5.634  0.00  0.00    -0.002 A 
ATOM      7  C5  OXE d   1      -5.927  -5.503   4.931  0.00  0.00    -0.002 A 
ATOM      8  C6  OXE d   1      -4.740  -5.852   4.297  0.00  0.00     0.003 A 
ENDROOT
TORSDOF 0
ENDMDL
