MODEL 1
REMARK minimizedAffinity 11.8474894
REMARK minimizedRMSD -1
REMARK  0 active torsions:
REMARK  status: ('A' for Active; 'I' for Inactive)
ROOT
ATOM      1  C2' OXE d   1       2.390   0.198  -0.344  0.00  0.00     0.078 C 
ATOM      2  C1' OXE d   1       3.152   0.462   2.345  0.00  0.00     0.078 C 
ATOM      3  C1  OXE d   1       1.758  -0.035   2.054  0.00  0.00    -0.078 A 
ATOM      4  C2  OXE d   1       1.378  -0.117   0.736  0.00  0.00    -0.078 A 
ATOM      5  C3  OXE d   1       0.122  -0.622   0.411  0.00  0.00     0.003 A 
ATOM      6  C4  OXE d   1      -0.811  -0.902   1.416  0.00  0.00    -0.002 A 
ATOM      7  C5  OXE d   1      -0.458  -0.787   2.765  0.00  0.00    -0.002 A 
ATOM      8  C6  OXE d   1       0.834  -0.397   3.101  0.00  0.00     0.003 A 
ENDROOT
TORSDOF 0
ENDMDL
