MODEL 1
REMARK minimizedAffinity 6.74134064
REMARK minimizedRMSD -1
REMARK  0 active torsions:
REMARK  status: ('A' for Active; 'I' for Inactive)
ROOT
ATOM      1  C2' OXE d   1       0.791   4.273  -1.899  0.00  0.00     0.078 C 
ATOM      2  C1' OXE d   1       2.794   2.390  -1.335  0.00  0.00     0.078 C 
ATOM      3  C1  OXE d   1       1.407   2.120  -0.809  0.00  0.00    -0.078 A 
ATOM      4  C2  OXE d   1       0.443   3.070  -1.050  0.00  0.00    -0.078 A 
ATOM      5  C3  OXE d   1      -0.866   2.845  -0.635  0.00  0.00     0.003 A 
ATOM      6  C4  OXE d   1      -1.177   1.733   0.158  0.00  0.00    -0.002 A 
ATOM      7  C5  OXE d   1      -0.202   0.774   0.449  0.00  0.00    -0.002 A 
ATOM      8  C6  OXE d   1       1.082   0.930  -0.062  0.00  0.00     0.003 A 
ENDROOT
TORSDOF 0
ENDMDL
