MODEL 1
REMARK minimizedAffinity 5.22898102
REMARK minimizedRMSD -1
REMARK  0 active torsions:
REMARK  status: ('A' for Active; 'I' for Inactive)
ROOT
ATOM      1  C2' OXE d   1      -0.997  -1.781   1.259  0.00  0.00     0.078 C 
ATOM      2  C1' OXE d   1      -3.752  -1.933   0.745  0.00  0.00     0.078 C 
ATOM      3  C1  OXE d   1      -2.848  -2.907   0.031  0.00  0.00    -0.078 A 
ATOM      4  C2  OXE d   1      -1.497  -2.794   0.253  0.00  0.00    -0.078 A 
ATOM      5  C3  OXE d   1      -0.623  -3.702  -0.339  0.00  0.00     0.003 A 
ATOM      6  C4  OXE d   1      -1.093  -4.630  -1.276  0.00  0.00    -0.002 A 
ATOM      7  C5  OXE d   1      -2.462  -4.735  -1.547  0.00  0.00    -0.002 A 
ATOM      8  C6  OXE d   1      -3.355  -3.911  -0.871  0.00  0.00     0.003 A 
ENDROOT
TORSDOF 0
ENDMDL
