MODEL 1
REMARK minimizedAffinity -3.40620351
REMARK minimizedRMSD -1
REMARK  0 active torsions:
REMARK  status: ('A' for Active; 'I' for Inactive)
ROOT
ATOM      1  C2' OXE d   1      -2.693  -1.204  -1.011  0.00  0.00     0.078 C 
ATOM      2  C1' OXE d   1      -1.703   1.115   0.224  0.00  0.00     0.078 C 
ATOM      3  C1  OXE d   1      -0.864  -0.136   0.301  0.00  0.00    -0.078 A 
ATOM      4  C2  OXE d   1      -1.378  -1.278  -0.266  0.00  0.00    -0.078 A 
ATOM      5  C3  OXE d   1      -0.621  -2.446  -0.271  0.00  0.00     0.003 A 
ATOM      6  C4  OXE d   1       0.590  -2.508   0.429  0.00  0.00    -0.002 A 
ATOM      7  C5  OXE d   1       1.113  -1.368   1.047  0.00  0.00    -0.002 A 
ATOM      8  C6  OXE d   1       0.420  -0.165   0.956  0.00  0.00     0.003 A 
ENDROOT
TORSDOF 0
ENDMDL
