MODEL 1
REMARK minimizedAffinity 6.55776834
REMARK minimizedRMSD -1
REMARK  0 active torsions:
REMARK  status: ('A' for Active; 'I' for Inactive)
ROOT
ATOM      1  C2' OXE d   1       0.472  -0.886   1.752  0.00  0.00     0.078 C 
ATOM      2  C1' OXE d   1       3.193  -0.515   2.333  0.00  0.00     0.078 C 
ATOM      3  C1  OXE d   1       2.738  -0.280   0.914  0.00  0.00    -0.078 A 
ATOM      4  C2  OXE d   1       1.414  -0.509   0.629  0.00  0.00    -0.078 A 
ATOM      5  C3  OXE d   1       0.931  -0.255  -0.652  0.00  0.00     0.003 A 
ATOM      6  C4  OXE d   1       1.811   0.083  -1.687  0.00  0.00    -0.002 A 
ATOM      7  C5  OXE d   1       3.170   0.283  -1.426  0.00  0.00    -0.002 A 
ATOM      8  C6  OXE d   1       3.642   0.147  -0.125  0.00  0.00     0.003 A 
ENDROOT
TORSDOF 0
ENDMDL
