MODEL 1
REMARK minimizedAffinity 8.27732658
REMARK minimizedRMSD -1
REMARK  0 active torsions:
REMARK  status: ('A' for Active; 'I' for Inactive)
ROOT
ATOM      1  C2' OXE d   1      -3.738  -6.000  -1.201  0.00  0.00     0.078 C 
ATOM      2  C1' OXE d   1      -3.264  -3.263  -0.790  0.00  0.00     0.078 C 
ATOM      3  C1  OXE d   1      -2.456  -3.966  -1.852  0.00  0.00    -0.078 A 
ATOM      4  C2  OXE d   1      -2.661  -5.315  -2.015  0.00  0.00    -0.078 A 
ATOM      5  C3  OXE d   1      -1.981  -6.000  -3.017  0.00  0.00     0.003 A 
ATOM      6  C4  OXE d   1      -0.979  -5.361  -3.758  0.00  0.00    -0.002 A 
ATOM      7  C5  OXE d   1      -0.726  -3.997  -3.582  0.00  0.00    -0.002 A 
ATOM      8  C6  OXE d   1      -1.483  -3.277  -2.664  0.00  0.00     0.003 A 
ENDROOT
TORSDOF 0
ENDMDL
