MODEL 1
REMARK minimizedAffinity 8.88225842
REMARK minimizedRMSD -1
REMARK  0 active torsions:
REMARK  status: ('A' for Active; 'I' for Inactive)
ROOT
ATOM      1  C2' OXE d   1      -2.876  -3.199  -1.322  0.00  0.00     0.078 C 
ATOM      2  C1' OXE d   1      -3.119  -5.986  -1.560  0.00  0.00     0.078 C 
ATOM      3  C1  OXE d   1      -2.136  -5.286  -2.464  0.00  0.00    -0.078 A 
ATOM      4  C2  OXE d   1      -2.057  -3.917  -2.373  0.00  0.00    -0.078 A 
ATOM      5  C3  OXE d   1      -1.127  -3.227  -3.146  0.00  0.00     0.003 A 
ATOM      6  C4  OXE d   1      -0.380  -3.897  -4.123  0.00  0.00    -0.002 A 
ATOM      7  C5  OXE d   1      -0.474  -5.287  -4.259  0.00  0.00    -0.002 A 
ATOM      8  C6  OXE d   1      -1.314  -5.999  -3.410  0.00  0.00     0.003 A 
ENDROOT
TORSDOF 0
ENDMDL
