MODEL 1
REMARK minimizedAffinity 8.46175003
REMARK minimizedRMSD -1
REMARK  0 active torsions:
REMARK  status: ('A' for Active; 'I' for Inactive)
ROOT
ATOM      1  C2' OXE d   1       1.989  -0.026  -0.297  0.00  0.00     0.078 C 
ATOM      2  C1' OXE d   1       2.744   0.132   2.402  0.00  0.00     0.078 C 
ATOM      3  C1  OXE d   1       1.369  -0.403   2.086  0.00  0.00    -0.078 A 
ATOM      4  C2  OXE d   1       0.991  -0.433   0.766  0.00  0.00    -0.078 A 
ATOM      5  C3  OXE d   1      -0.245  -0.968   0.415  0.00  0.00     0.003 A 
ATOM      6  C4  OXE d   1      -1.166  -1.333   1.405  0.00  0.00    -0.002 A 
ATOM      7  C5  OXE d   1      -0.816  -1.273   2.758  0.00  0.00    -0.002 A 
ATOM      8  C6  OXE d   1       0.461  -0.851   3.113  0.00  0.00     0.003 A 
ENDROOT
TORSDOF 0
ENDMDL
