MODEL 1
REMARK minimizedAffinity 12.856245
REMARK minimizedRMSD -1
REMARK  0 active torsions:
REMARK  status: ('A' for Active; 'I' for Inactive)
ROOT
ATOM      1  C2' OXE d   1      -5.178  -5.056   3.070  0.00  0.00     0.078 C 
ATOM      2  C1' OXE d   1      -4.264  -4.164   0.570  0.00  0.00     0.078 C 
ATOM      3  C1  OXE d   1      -3.330  -4.035   1.748  0.00  0.00    -0.078 A 
ATOM      4  C2  OXE d   1      -3.803  -4.431   2.976  0.00  0.00    -0.078 A 
ATOM      5  C3  OXE d   1      -2.963  -4.385   4.085  0.00  0.00     0.003 A 
ATOM      6  C4  OXE d   1      -1.697  -3.796   3.992  0.00  0.00    -0.002 A 
ATOM      7  C5  OXE d   1      -1.211  -3.350   2.758  0.00  0.00    -0.002 A 
ATOM      8  C6  OXE d   1      -1.997  -3.501   1.621  0.00  0.00     0.003 A 
ENDROOT
TORSDOF 0
ENDMDL
