MODEL 1
REMARK minimizedAffinity 7.01411676
REMARK minimizedRMSD -1
REMARK  0 active torsions:
REMARK  status: ('A' for Active; 'I' for Inactive)
ROOT
ATOM      1  C   UNL d   1       0.436  -0.742   2.409  0.00  0.00    -0.002 A 
ATOM      2  C1  UNL d   1       0.006  -0.675   3.727  0.00  0.00     0.010 A 
ATOM      3  C2  UNL d   1      -1.200  -1.265   4.111  0.00  0.00     0.041 A 
ATOM      4  C3  UNL d   1      -1.972  -1.932   3.140  0.00  0.00    -0.075 A 
ATOM      5  S   UNL d   1      -3.482  -2.729   3.381  0.00  0.00     0.015 SA
ATOM      6  C4  UNL d   1      -3.590  -3.179   1.741  0.00  0.00     0.022 A 
ATOM      7  C5  UNL d   1      -2.510  -2.740   1.013  0.00  0.00     0.026 A 
ATOM      8  C6  UNL d   1      -1.559  -2.014   1.807  0.00  0.00    -0.082 A 
ATOM      9  C7  UNL d   1      -0.333  -1.405   1.449  0.00  0.00     0.045 A 
ENDROOT
TORSDOF 0
ENDMDL
