MODEL 1
REMARK minimizedAffinity 23.5304585
REMARK minimizedRMSD -1
REMARK  0 active torsions:
REMARK  status: ('A' for Active; 'I' for Inactive)
ROOT
ATOM      1  C   UNL d   1       1.242  -1.946   1.329  0.00  0.00    -0.002 A 
ATOM      2  C1  UNL d   1       0.125  -1.196   0.991  0.00  0.00     0.010 A 
ATOM      3  C2  UNL d   1       0.249   0.156   0.666  0.00  0.00     0.041 A 
ATOM      4  C3  UNL d   1       1.528   0.747   0.686  0.00  0.00    -0.075 A 
ATOM      5  S   UNL d   1       1.921   2.386   0.324  0.00  0.00     0.015 SA
ATOM      6  C4  UNL d   1       3.582   2.129   0.610  0.00  0.00     0.022 A 
ATOM      7  C5  UNL d   1       3.847   0.830   0.973  0.00  0.00     0.026 A 
ATOM      8  C6  UNL d   1       2.668   0.012   1.023  0.00  0.00    -0.082 A 
ATOM      9  C7  UNL d   1       2.509  -1.356   1.348  0.00  0.00     0.045 A 
ENDROOT
TORSDOF 0
ENDMDL
