MODEL 1
REMARK minimizedAffinity 16.1207275
REMARK minimizedRMSD -1
REMARK  0 active torsions:
REMARK  status: ('A' for Active; 'I' for Inactive)
ROOT
ATOM      1  C   UNL d   1       1.350   3.128   0.386  0.00  0.00    -0.002 A 
ATOM      2  C1  UNL d   1       1.345   4.472   0.041  0.00  0.00     0.010 A 
ATOM      3  C2  UNL d   1       0.539   4.935  -1.000  0.00  0.00     0.041 A 
ATOM      4  C3  UNL d   1      -0.272   4.016  -1.694  0.00  0.00    -0.075 A 
ATOM      5  S   UNL d   1      -1.342   4.355  -3.003  0.00  0.00     0.015 SA
ATOM      6  C4  UNL d   1      -1.818   2.724  -3.135  0.00  0.00     0.022 A 
ATOM      7  C5  UNL d   1      -1.186   1.926  -2.210  0.00  0.00     0.026 A 
ATOM      8  C6  UNL d   1      -0.286   2.657  -1.364  0.00  0.00    -0.082 A 
ATOM      9  C7  UNL d   1       0.544   2.219  -0.304  0.00  0.00     0.045 A 
ENDROOT
TORSDOF 0
ENDMDL
