MODEL 1
REMARK minimizedAffinity 15.2875929
REMARK minimizedRMSD -1
REMARK  0 active torsions:
REMARK  status: ('A' for Active; 'I' for Inactive)
ROOT
ATOM      1  C   UNL d   1      -5.993  -5.210   5.882  0.00  0.00    -0.002 A 
ATOM      2  C1  UNL d   1      -5.726  -3.853   6.000  0.00  0.00     0.010 A 
ATOM      3  C2  UNL d   1      -4.757  -3.248   5.197  0.00  0.00     0.041 A 
ATOM      4  C3  UNL d   1      -4.057  -4.036   4.263  0.00  0.00    -0.075 A 
ATOM      5  S   UNL d   1      -2.829  -3.511   3.173  0.00  0.00     0.015 SA
ATOM      6  C4  UNL d   1      -2.631  -5.075   2.525  0.00  0.00     0.022 A 
ATOM      7  C5  UNL d   1      -3.473  -5.988   3.114  0.00  0.00     0.026 A 
ATOM      8  C6  UNL d   1      -4.309  -5.404   4.125  0.00  0.00    -0.082 A 
ATOM      9  C7  UNL d   1      -5.296  -5.988   4.955  0.00  0.00     0.045 A 
ENDROOT
TORSDOF 0
ENDMDL
