MODEL 1
REMARK minimizedAffinity 21.8679466
REMARK minimizedRMSD -1
REMARK  0 active torsions:
REMARK  status: ('A' for Active; 'I' for Inactive)
ROOT
ATOM      1  C   UNL d   1      -0.789  -0.832   2.255  0.00  0.00    -0.002 A 
ATOM      2  C1  UNL d   1       0.317  -0.712   1.426  0.00  0.00     0.010 A 
ATOM      3  C2  UNL d   1       1.067  -1.836   1.075  0.00  0.00     0.041 A 
ATOM      4  C3  UNL d   1       0.681  -3.095   1.574  0.00  0.00    -0.075 A 
ATOM      5  S   UNL d   1       1.448  -4.611   1.277  0.00  0.00     0.015 SA
ATOM      6  C4  UNL d   1       0.325  -5.453   2.243  0.00  0.00     0.022 A 
ATOM      7  C5  UNL d   1      -0.618  -4.615   2.787  0.00  0.00     0.026 A 
ATOM      8  C6  UNL d   1      -0.429  -3.242   2.410  0.00  0.00    -0.082 A 
ATOM      9  C7  UNL d   1      -1.168  -2.083   2.749  0.00  0.00     0.045 A 
ENDROOT
TORSDOF 0
ENDMDL
