MODEL 1
REMARK minimizedAffinity 17.4771233
REMARK minimizedRMSD -1
REMARK  0 active torsions:
REMARK  status: ('A' for Active; 'I' for Inactive)
ROOT
ATOM      1  C   UNL d   1      -1.683  -2.233   1.654  0.00  0.00    -0.002 A 
ATOM      2  C1  UNL d   1      -0.775  -1.858   0.675  0.00  0.00     0.010 A 
ATOM      3  C2  UNL d   1       0.348  -1.094   1.002  0.00  0.00     0.041 A 
ATOM      4  C3  UNL d   1       0.545  -0.712   2.344  0.00  0.00    -0.075 A 
ATOM      5  S   UNL d   1       1.847   0.222   2.978  0.00  0.00     0.015 SA
ATOM      6  C4  UNL d   1       1.230   0.144   4.564  0.00  0.00     0.022 A 
ATOM      7  C5  UNL d   1       0.058  -0.573   4.627  0.00  0.00     0.026 A 
ATOM      8  C6  UNL d   1      -0.355  -1.079   3.348  0.00  0.00    -0.082 A 
ATOM      9  C7  UNL d   1      -1.484  -1.852   2.984  0.00  0.00     0.045 A 
ENDROOT
TORSDOF 0
ENDMDL
