MODEL 1
REMARK minimizedAffinity 23.3248844
REMARK minimizedRMSD -1
REMARK  0 active torsions:
REMARK  status: ('A' for Active; 'I' for Inactive)
ROOT
ATOM      1  C   UNL d   1      -1.045  -1.505   2.811  0.00  0.00    -0.002 A 
ATOM      2  C1  UNL d   1      -0.675  -2.424   1.839  0.00  0.00     0.010 A 
ATOM      3  C2  UNL d   1       0.588  -2.361   1.247  0.00  0.00     0.041 A 
ATOM      4  C3  UNL d   1       1.482  -1.350   1.653  0.00  0.00    -0.075 A 
ATOM      5  S   UNL d   1       3.081  -1.080   1.068  0.00  0.00     0.015 SA
ATOM      6  C4  UNL d   1       3.310   0.261   2.095  0.00  0.00     0.022 A 
ATOM      7  C5  UNL d   1       2.204   0.510   2.872  0.00  0.00     0.026 A 
ATOM      8  C6  UNL d   1       1.132  -0.414   2.631  0.00  0.00    -0.082 A 
ATOM      9  C7  UNL d   1      -0.156  -0.504   3.211  0.00  0.00     0.045 A 
ENDROOT
TORSDOF 0
ENDMDL
