MODEL 1
REMARK minimizedAffinity 16.9177074
REMARK minimizedRMSD -1
REMARK  0 active torsions:
REMARK  status: ('A' for Active; 'I' for Inactive)
ROOT
ATOM      1  C   UNL d   1       0.365  -0.216   2.674  0.00  0.00    -0.002 A 
ATOM      2  C1  UNL d   1      -0.465  -1.324   2.582  0.00  0.00     0.010 A 
ATOM      3  C2  UNL d   1      -0.127  -2.398   1.756  0.00  0.00     0.041 A 
ATOM      4  C3  UNL d   1       1.073  -2.340   1.020  0.00  0.00    -0.075 A 
ATOM      5  S   UNL d   1       1.692  -3.538  -0.055  0.00  0.00     0.015 SA
ATOM      6  C4  UNL d   1       3.073  -2.607  -0.415  0.00  0.00     0.022 A 
ATOM      7  C5  UNL d   1       3.078  -1.409   0.258  0.00  0.00     0.026 A 
ATOM      8  C6  UNL d   1       1.926  -1.235   1.097  0.00  0.00    -0.082 A 
ATOM      9  C7  UNL d   1       1.554  -0.162   1.942  0.00  0.00     0.045 A 
ENDROOT
TORSDOF 0
ENDMDL
