MODEL 1
REMARK minimizedAffinity 17.0412292
REMARK minimizedRMSD -1
REMARK  0 active torsions:
REMARK  status: ('A' for Active; 'I' for Inactive)
ROOT
ATOM      1  C   UNL d   1      -3.320   5.130  -1.472  0.00  0.00    -0.002 A 
ATOM      2  C1  UNL d   1      -3.848   3.895  -1.823  0.00  0.00     0.010 A 
ATOM      3  C2  UNL d   1      -3.687   3.396  -3.117  0.00  0.00     0.041 A 
ATOM      4  C3  UNL d   1      -2.979   4.165  -4.061  0.00  0.00    -0.075 A 
ATOM      5  S   UNL d   1      -2.658   3.755  -5.705  0.00  0.00     0.015 SA
ATOM      6  C4  UNL d   1      -1.812   5.209  -5.980  0.00  0.00     0.022 A 
ATOM      7  C5  UNL d   1      -1.766   6.000  -4.856  0.00  0.00     0.026 A 
ATOM      8  C6  UNL d   1      -2.438   5.411  -3.732  0.00  0.00    -0.082 A 
ATOM      9  C7  UNL d   1      -2.619   5.890  -2.412  0.00  0.00     0.045 A 
ENDROOT
TORSDOF 0
ENDMDL
