MODEL 1
REMARK minimizedAffinity 17.6073933
REMARK minimizedRMSD -1
REMARK  0 active torsions:
REMARK  status: ('A' for Active; 'I' for Inactive)
ROOT
ATOM      1  C   UNL d   1       1.361   2.676  -2.017  0.00  0.00    -0.002 A 
ATOM      2  C1  UNL d   1       1.150   2.145  -0.752  0.00  0.00     0.010 A 
ATOM      3  C2  UNL d   1       1.914   1.068  -0.298  0.00  0.00     0.041 A 
ATOM      4  C3  UNL d   1       2.904   0.530  -1.143  0.00  0.00    -0.075 A 
ATOM      5  S   UNL d   1       3.961  -0.788  -0.798  0.00  0.00     0.015 SA
ATOM      6  C4  UNL d   1       4.718  -0.676  -2.320  0.00  0.00     0.022 A 
ATOM      7  C5  UNL d   1       4.190   0.336  -3.086  0.00  0.00     0.026 A 
ATOM      8  C6  UNL d   1       3.136   1.049  -2.420  0.00  0.00    -0.082 A 
ATOM      9  C7  UNL d   1       2.345   2.140  -2.852  0.00  0.00     0.045 A 
ENDROOT
TORSDOF 0
ENDMDL
