MODEL 1
REMARK minimizedAffinity 18.3348465
REMARK minimizedRMSD -1
REMARK  0 active torsions:
REMARK  status: ('A' for Active; 'I' for Inactive)
ROOT
ATOM      1  C   UNL d   1      -0.894  -2.628   2.684  0.00  0.00    -0.002 A 
ATOM      2  C1  UNL d   1      -1.016  -1.388   3.296  0.00  0.00     0.010 A 
ATOM      3  C2  UNL d   1      -0.094  -0.373   3.035  0.00  0.00     0.041 A 
ATOM      4  C3  UNL d   1       0.964  -0.627   2.140  0.00  0.00    -0.075 A 
ATOM      5  S   UNL d   1       2.212   0.465   1.668  0.00  0.00     0.015 SA
ATOM      6  C4  UNL d   1       2.937  -0.688   0.644  0.00  0.00     0.022 A 
ATOM      7  C5  UNL d   1       2.257  -1.882   0.649  0.00  0.00     0.026 A 
ATOM      8  C6  UNL d   1       1.108  -1.867   1.511  0.00  0.00    -0.082 A 
ATOM      9  C7  UNL d   1       0.157  -2.876   1.797  0.00  0.00     0.045 A 
ENDROOT
TORSDOF 0
ENDMDL
