MODEL 1
REMARK minimizedAffinity 4.06943703
REMARK minimizedRMSD -1
REMARK  0 active torsions:
REMARK  status: ('A' for Active; 'I' for Inactive)
ROOT
ATOM      1  C   UNL d   1      -3.956  -6.000  -1.476  0.00  0.00    -0.002 A 
ATOM      2  C1  UNL d   1      -5.285  -5.623  -1.606  0.00  0.00     0.010 A 
ATOM      3  C2  UNL d   1      -5.991  -5.122  -0.510  0.00  0.00     0.041 A 
ATOM      4  C3  UNL d   1      -5.332  -5.004   0.729  0.00  0.00    -0.075 A 
ATOM      5  S   UNL d   1      -5.996  -4.417   2.208  0.00  0.00     0.015 SA
ATOM      6  C4  UNL d   1      -4.531  -4.652   3.046  0.00  0.00     0.022 A 
ATOM      7  C5  UNL d   1      -3.548  -5.166   2.233  0.00  0.00     0.026 A 
ATOM      8  C6  UNL d   1      -3.994  -5.377   0.884  0.00  0.00    -0.082 A 
ATOM      9  C7  UNL d   1      -3.305  -5.882  -0.245  0.00  0.00     0.045 A 
ENDROOT
TORSDOF 0
ENDMDL
