MODEL 1
REMARK minimizedAffinity 1.54953265
REMARK minimizedRMSD -1
REMARK  0 active torsions:
REMARK  status: ('A' for Active; 'I' for Inactive)
ROOT
ATOM      1  C1  BNZ d   1       2.067   3.814  -4.890  0.00  0.00     0.000 A 
ATOM      2  C2  BNZ d   1       3.430   3.740  -5.001  0.00  0.00     0.000 A 
ATOM      3  C3  BNZ d   1       4.145   4.773  -5.538  0.00  0.00     0.000 A 
ATOM      4  C4  BNZ d   1       3.495   5.861  -5.999  0.00  0.00     0.000 A 
ATOM      5  C5  BNZ d   1       2.120   5.946  -5.903  0.00  0.00     0.000 A 
ATOM      6  C6  BNZ d   1       1.407   4.921  -5.326  0.00  0.00     0.000 A 
ENDROOT
TORSDOF 0
ENDMDL
