MODEL 1
REMARK minimizedAffinity 2.42043805
REMARK minimizedRMSD -1
REMARK  0 active torsions:
REMARK  status: ('A' for Active; 'I' for Inactive)
ROOT
ATOM      1  C1  BNZ d   1       0.511  -1.427   1.425  0.00  0.00     0.000 A 
ATOM      2  C2  BNZ d   1       0.337  -2.406   0.484  0.00  0.00     0.000 A 
ATOM      3  C3  BNZ d   1       1.365  -3.238   0.140  0.00  0.00     0.000 A 
ATOM      4  C4  BNZ d   1       2.576  -3.065   0.708  0.00  0.00     0.000 A 
ATOM      5  C5  BNZ d   1       2.771  -2.077   1.652  0.00  0.00     0.000 A 
ATOM      6  C6  BNZ d   1       1.723  -1.266   2.024  0.00  0.00     0.000 A 
ENDROOT
TORSDOF 0
ENDMDL
