MODEL 1
REMARK minimizedAffinity 1.68894708
REMARK minimizedRMSD -1
REMARK  0 active torsions:
REMARK  status: ('A' for Active; 'I' for Inactive)
ROOT
ATOM      1  C1  BNZ d   1       4.380  -4.584   0.370  0.00  0.00     0.000 A 
ATOM      2  C2  BNZ d   1       3.025  -4.642   0.178  0.00  0.00     0.000 A 
ATOM      3  C3  BNZ d   1       2.247  -3.530   0.339  0.00  0.00     0.000 A 
ATOM      4  C4  BNZ d   1       2.818  -2.373   0.731  0.00  0.00     0.000 A 
ATOM      5  C5  BNZ d   1       4.181  -2.300   0.938  0.00  0.00     0.000 A 
ATOM      6  C6  BNZ d   1       4.966  -3.412   0.737  0.00  0.00     0.000 A 
ENDROOT
TORSDOF 0
ENDMDL
