MODEL 1
REMARK minimizedAffinity 5.79950333
REMARK minimizedRMSD -1
REMARK  0 active torsions:
REMARK  status: ('A' for Active; 'I' for Inactive)
ROOT
ATOM      1  C1  BNZ d   1       1.987  -1.783   1.816  0.00  0.00     0.000 A 
ATOM      2  C2  BNZ d   1       2.991  -2.457   1.173  0.00  0.00     0.000 A 
ATOM      3  C3  BNZ d   1       2.712  -3.523   0.364  0.00  0.00     0.000 A 
ATOM      4  C4  BNZ d   1       1.436  -3.938   0.231  0.00  0.00     0.000 A 
ATOM      5  C5  BNZ d   1       0.413  -3.274   0.879  0.00  0.00     0.000 A 
ATOM      6  C6  BNZ d   1       0.694  -2.177   1.662  0.00  0.00     0.000 A 
ENDROOT
TORSDOF 0
ENDMDL
