MODEL 1
REMARK minimizedAffinity -0.866787136
REMARK minimizedRMSD -1
REMARK  0 active torsions:
REMARK  status: ('A' for Active; 'I' for Inactive)
ROOT
ATOM      1  C1  BNZ d   1      -0.387   5.943   4.817  0.00  0.00     0.000 A 
ATOM      2  C2  BNZ d   1      -1.074   5.958   3.633  0.00  0.00     0.000 A 
ATOM      3  C3  BNZ d   1      -2.441   5.997   3.616  0.00  0.00     0.000 A 
ATOM      4  C4  BNZ d   1      -3.118   5.981   4.782  0.00  0.00     0.000 A 
ATOM      5  C5  BNZ d   1      -2.440   5.956   5.985  0.00  0.00     0.000 A 
ATOM      6  C6  BNZ d   1      -1.064   5.956   5.998  0.00  0.00     0.000 A 
ENDROOT
TORSDOF 0
ENDMDL
