MODEL 1
REMARK minimizedAffinity 6.63537407
REMARK minimizedRMSD -1
REMARK  0 active torsions:
REMARK  status: ('A' for Active; 'I' for Inactive)
ROOT
ATOM      1  C1  BNZ d   1       2.232  -1.194   1.575  0.00  0.00     0.000 A 
ATOM      2  C2  BNZ d   1       1.015  -0.803   2.064  0.00  0.00     0.000 A 
ATOM      3  C3  BNZ d   1      -0.136  -1.408   1.643  0.00  0.00     0.000 A 
ATOM      4  C4  BNZ d   1      -0.072  -2.375   0.706  0.00  0.00     0.000 A 
ATOM      5  C5  BNZ d   1       1.147  -2.775   0.196  0.00  0.00     0.000 A 
ATOM      6  C6  BNZ d   1       2.307  -2.190   0.650  0.00  0.00     0.000 A 
ENDROOT
TORSDOF 0
ENDMDL
