MODEL 1
REMARK minimizedAffinity 4.83579874
REMARK minimizedRMSD -1
REMARK  0 active torsions:
REMARK  status: ('A' for Active; 'I' for Inactive)
ROOT
ATOM      1  C1  BNZ d   1       3.701  -3.583   5.999  0.00  0.00     0.000 A 
ATOM      2  C2  BNZ d   1       5.067  -3.627   5.917  0.00  0.00     0.000 A 
ATOM      3  C3  BNZ d   1       5.724  -4.822   5.819  0.00  0.00     0.000 A 
ATOM      4  C4  BNZ d   1       5.018  -5.971   5.845  0.00  0.00     0.000 A 
ATOM      5  C5  BNZ d   1       3.640  -5.943   5.937  0.00  0.00     0.000 A 
ATOM      6  C6  BNZ d   1       2.980  -4.737   5.996  0.00  0.00     0.000 A 
ENDROOT
TORSDOF 0
ENDMDL
