MODEL 1
REMARK minimizedAffinity 3.93076015
REMARK minimizedRMSD -1
REMARK  0 active torsions:
REMARK  status: ('A' for Active; 'I' for Inactive)
ROOT
ATOM      1  C1  BNZ d   1       0.997  -1.019   2.765  0.00  0.00     0.000 A 
ATOM      2  C2  BNZ d   1       2.226  -1.377   2.278  0.00  0.00     0.000 A 
ATOM      3  C3  BNZ d   1       2.336  -2.147   1.154  0.00  0.00     0.000 A 
ATOM      4  C4  BNZ d   1       1.219  -2.591   0.542  0.00  0.00     0.000 A 
ATOM      5  C5  BNZ d   1      -0.027  -2.246   1.026  0.00  0.00     0.000 A 
ATOM      6  C6  BNZ d   1      -0.134  -1.439   2.135  0.00  0.00     0.000 A 
ENDROOT
TORSDOF 0
ENDMDL
