MODEL 1
REMARK minimizedAffinity 3.92253518
REMARK minimizedRMSD -1
REMARK  0 active torsions:
REMARK  status: ('A' for Active; 'I' for Inactive)
ROOT
ATOM      1  C1  BNZ d   1       4.116   3.647  -5.753  0.00  0.00     0.000 A 
ATOM      2  C2  BNZ d   1       2.747   3.667  -5.745  0.00  0.00     0.000 A 
ATOM      3  C3  BNZ d   1       2.064   4.842  -5.889  0.00  0.00     0.000 A 
ATOM      4  C4  BNZ d   1       2.749   5.999  -5.999  0.00  0.00     0.000 A 
ATOM      5  C5  BNZ d   1       4.130   5.996  -6.000  0.00  0.00     0.000 A 
ATOM      6  C6  BNZ d   1       4.814   4.806  -5.894  0.00  0.00     0.000 A 
ENDROOT
TORSDOF 0
ENDMDL
