MODEL 1
REMARK minimizedAffinity -4.63081694
REMARK minimizedRMSD -1
REMARK  1 active torsions:
REMARK  status: ('A' for Active; 'I' for Inactive)
REMARK    1  A    between atoms: C3_4  and  O_7 
ROOT
ATOM      1  C   UNL d   1      -1.046  -0.107   3.175  0.00  0.00    -0.033 A 
ATOM      2  C1  UNL d   1      -2.029  -0.199   2.187  0.00  0.00     0.039 A 
ATOM      3  C2  UNL d   1      -1.676  -0.115   0.839  0.00  0.00    -0.080 A 
ATOM      4  C3  UNL d   1      -0.339   0.059   0.492  0.00  0.00     0.150 A 
ATOM      5  C4  UNL d   1       0.646   0.147   1.471  0.00  0.00    -0.007 A 
ATOM      6  C5  UNL d   1       0.292   0.064   2.817  0.00  0.00     0.039 A 
ENDROOT
BRANCH   4   7
ATOM      7  O   UNL d   1       0.053   0.151  -0.810  0.00  0.00    -0.526 OA
ATOM      8  H5  UNL d   1      -0.737   0.102  -1.374  0.00  0.00     0.418 HD
ENDBRANCH   4   7
TORSDOF 1
ENDMDL
