MODEL 1
REMARK minimizedAffinity -2.62944102
REMARK minimizedRMSD -1
REMARK  1 active torsions:
REMARK  status: ('A' for Active; 'I' for Inactive)
REMARK    1  A    between atoms: C3_4  and  O_7 
ROOT
ATOM      1  C   UNL d   1      -0.318  -0.173   0.326  0.00  0.00    -0.033 A 
ATOM      2  C1  UNL d   1       0.364   0.613  -0.604  0.00  0.00     0.039 A 
ATOM      3  C2  UNL d   1       0.764   0.064  -1.824  0.00  0.00    -0.080 A 
ATOM      4  C3  UNL d   1       0.476  -1.269  -2.101  0.00  0.00     0.150 A 
ATOM      5  C4  UNL d   1      -0.206  -2.057  -1.180  0.00  0.00    -0.007 A 
ATOM      6  C5  UNL d   1      -0.604  -1.508   0.038  0.00  0.00     0.039 A 
ENDROOT
BRANCH   4   7
ATOM      7  O   UNL d   1       0.851  -1.850  -3.276  0.00  0.00    -0.526 OA
ATOM      8  H5  UNL d   1       1.339  -1.194  -3.802  0.00  0.00     0.418 HD
ENDBRANCH   4   7
TORSDOF 1
ENDMDL
