MODEL 1
REMARK minimizedAffinity -4.1977005
REMARK minimizedRMSD -1
REMARK  1 active torsions:
REMARK  status: ('A' for Active; 'I' for Inactive)
REMARK    1  A    between atoms: C3_4  and  O_7 
ROOT
ATOM      1  C   UNL d   1      -1.511  -0.007   3.247  0.00  0.00    -0.033 A 
ATOM      2  C1  UNL d   1      -2.404   0.115   2.181  0.00  0.00     0.039 A 
ATOM      3  C2  UNL d   1      -1.936   0.057   0.866  0.00  0.00    -0.080 A 
ATOM      4  C3  UNL d   1      -0.575  -0.122   0.633  0.00  0.00     0.150 A 
ATOM      5  C4  UNL d   1       0.319  -0.248   1.691  0.00  0.00    -0.007 A 
ATOM      6  C5  UNL d   1      -0.150  -0.189   3.002  0.00  0.00     0.039 A 
ENDROOT
BRANCH   4   7
ATOM      7  O   UNL d   1      -0.071  -0.180  -0.632  0.00  0.00    -0.526 OA
ATOM      8  H5  UNL d   1      -0.801  -0.050  -1.261  0.00  0.00     0.418 HD
ENDBRANCH   4   7
TORSDOF 1
ENDMDL
