MODEL 1
REMARK minimizedAffinity -5.34006739
REMARK minimizedRMSD -1
REMARK  1 active torsions:
REMARK  status: ('A' for Active; 'I' for Inactive)
REMARK    1  A    between atoms: C3_4  and  O_7 
ROOT
ATOM      1  C   UNL d   1      -1.808  -0.232   2.976  0.00  0.00    -0.033 A 
ATOM      2  C1  UNL d   1      -2.686  -0.130   1.896  0.00  0.00     0.039 A 
ATOM      3  C2  UNL d   1      -2.193  -0.133   0.589  0.00  0.00    -0.080 A 
ATOM      4  C3  UNL d   1      -0.821  -0.240   0.377  0.00  0.00     0.150 A 
ATOM      5  C4  UNL d   1       0.060  -0.345   1.449  0.00  0.00    -0.007 A 
ATOM      6  C5  UNL d   1      -0.435  -0.341   2.752  0.00  0.00     0.039 A 
ENDROOT
BRANCH   4   7
ATOM      7  O   UNL d   1      -0.293  -0.242  -0.879  0.00  0.00    -0.526 OA
ATOM      8  H5  UNL d   1      -1.017  -0.134  -1.518  0.00  0.00     0.418 HD
ENDBRANCH   4   7
TORSDOF 1
ENDMDL
