MODEL 1
REMARK minimizedAffinity -3.58110452
REMARK minimizedRMSD -1
REMARK  1 active torsions:
REMARK  status: ('A' for Active; 'I' for Inactive)
REMARK    1  A    between atoms: C3_4  and  O_7 
ROOT
ATOM      1  C   UNL d   1       0.379   0.486  -0.679  0.00  0.00    -0.033 A 
ATOM      2  C1  UNL d   1      -0.829  -0.059  -0.240  0.00  0.00     0.039 A 
ATOM      3  C2  UNL d   1      -0.975  -0.459   1.089  0.00  0.00    -0.080 A 
ATOM      4  C3  UNL d   1       0.092  -0.307   1.970  0.00  0.00     0.150 A 
ATOM      5  C4  UNL d   1       1.298   0.239   1.541  0.00  0.00    -0.007 A 
ATOM      6  C5  UNL d   1       1.442   0.637   0.212  0.00  0.00     0.039 A 
ENDROOT
BRANCH   4   7
ATOM      7  O   UNL d   1      -0.001  -0.686   3.276  0.00  0.00    -0.526 OA
ATOM      8  H5  UNL d   1      -0.881  -1.073   3.422  0.00  0.00     0.418 HD
ENDBRANCH   4   7
TORSDOF 1
ENDMDL
