MODEL 1
REMARK minimizedAffinity -3.13357472
REMARK minimizedRMSD -1
REMARK  1 active torsions:
REMARK  status: ('A' for Active; 'I' for Inactive)
REMARK    1  A    between atoms: C3_4  and  O_7 
ROOT
ATOM      1  C   UNL d   1      -2.283   0.225   0.239  0.00  0.00    -0.033 A 
ATOM      2  C1  UNL d   1      -0.919  -0.072   0.246  0.00  0.00     0.039 A 
ATOM      3  C2  UNL d   1      -0.245  -0.241   1.458  0.00  0.00    -0.080 A 
ATOM      4  C3  UNL d   1      -0.947  -0.112   2.653  0.00  0.00     0.150 A 
ATOM      5  C4  UNL d   1      -2.307   0.179   2.653  0.00  0.00    -0.007 A 
ATOM      6  C5  UNL d   1      -2.978   0.348   1.443  0.00  0.00     0.039 A 
ENDROOT
BRANCH   4   7
ATOM      7  O   UNL d   1      -0.332  -0.264   3.860  0.00  0.00    -0.526 OA
ATOM      8  H5  UNL d   1       0.612  -0.433   3.705  0.00  0.00     0.418 HD
ENDBRANCH   4   7
TORSDOF 1
ENDMDL
