MODEL 1
REMARK minimizedAffinity -5.57389259
REMARK minimizedRMSD -1
REMARK  1 active torsions:
REMARK  status: ('A' for Active; 'I' for Inactive)
REMARK    1  A    between atoms: C3_4  and  O_7 
ROOT
ATOM      1  C   UNL d   1      -2.319   0.236   0.358  0.00  0.00    -0.033 A 
ATOM      2  C1  UNL d   1      -1.005  -0.236   0.344  0.00  0.00     0.039 A 
ATOM      3  C2  UNL d   1      -0.386  -0.617   1.536  0.00  0.00    -0.080 A 
ATOM      4  C3  UNL d   1      -1.090  -0.521   2.733  0.00  0.00     0.150 A 
ATOM      5  C4  UNL d   1      -2.401  -0.056   2.753  0.00  0.00    -0.007 A 
ATOM      6  C5  UNL d   1      -3.017   0.325   1.562  0.00  0.00     0.039 A 
ENDROOT
BRANCH   4   7
ATOM      7  O   UNL d   1      -0.526  -0.876   3.922  0.00  0.00    -0.526 OA
ATOM      8  H5  UNL d   1       0.391  -1.152   3.757  0.00  0.00     0.418 HD
ENDBRANCH   4   7
TORSDOF 1
ENDMDL
