MODEL 1
REMARK minimizedAffinity -4.42083359
REMARK minimizedRMSD -1
REMARK  1 active torsions:
REMARK  status: ('A' for Active; 'I' for Inactive)
REMARK    1  A    between atoms: C3_4  and  O_7 
ROOT
ATOM      1  C   UNL d   1       1.095   0.001   1.351  0.00  0.00    -0.033 A 
ATOM      2  C1  UNL d   1       0.408  -0.204   2.549  0.00  0.00     0.039 A 
ATOM      3  C2  UNL d   1      -0.987  -0.139   2.577  0.00  0.00    -0.080 A 
ATOM      4  C3  UNL d   1      -1.681   0.129   1.400  0.00  0.00     0.150 A 
ATOM      5  C4  UNL d   1      -1.004   0.330   0.202  0.00  0.00    -0.007 A 
ATOM      6  C5  UNL d   1       0.389   0.266   0.177  0.00  0.00     0.039 A 
ENDROOT
BRANCH   4   7
ATOM      7  O   UNL d   1      -3.042   0.206   1.378  0.00  0.00    -0.526 OA
ATOM      8  H5  UNL d   1      -3.373   0.075   2.283  0.00  0.00     0.418 HD
ENDBRANCH   4   7
TORSDOF 1
ENDMDL
