MODEL 1
REMARK minimizedAffinity -4.48899698
REMARK minimizedRMSD -1
REMARK  1 active torsions:
REMARK  status: ('A' for Active; 'I' for Inactive)
REMARK    1  A    between atoms: C3_4  and  O_7 
ROOT
ATOM      1  C   UNL d   1      -1.930  -0.558   3.006  0.00  0.00    -0.033 A 
ATOM      2  C1  UNL d   1      -2.648  -0.010   1.942  0.00  0.00     0.039 A 
ATOM      3  C2  UNL d   1      -2.002   0.281   0.738  0.00  0.00    -0.080 A 
ATOM      4  C3  UNL d   1      -0.641   0.018   0.613  0.00  0.00     0.150 A 
ATOM      5  C4  UNL d   1       0.080  -0.531   1.668  0.00  0.00    -0.007 A 
ATOM      6  C5  UNL d   1      -0.567  -0.820   2.869  0.00  0.00     0.039 A 
ENDROOT
BRANCH   4   7
ATOM      7  O   UNL d   1       0.034   0.290  -0.540  0.00  0.00    -0.526 OA
ATOM      8  H5  UNL d   1      -0.585   0.693  -1.172  0.00  0.00     0.418 HD
ENDBRANCH   4   7
TORSDOF 1
ENDMDL
