MODEL 1
REMARK minimizedAffinity -2.71671176
REMARK minimizedRMSD -1
REMARK  1 active torsions:
REMARK  status: ('A' for Active; 'I' for Inactive)
REMARK    1  A    between atoms: C3_4  and  O_7 
ROOT
ATOM      1  C   UNL d   1       1.017  -1.255  -3.808  0.00  0.00    -0.033 A 
ATOM      2  C1  UNL d   1       1.590  -0.139  -3.196  0.00  0.00     0.039 A 
ATOM      3  C2  UNL d   1       0.987   0.431  -2.073  0.00  0.00    -0.080 A 
ATOM      4  C3  UNL d   1      -0.187  -0.125  -1.572  0.00  0.00     0.150 A 
ATOM      5  C4  UNL d   1      -0.762  -1.240  -2.174  0.00  0.00    -0.007 A 
ATOM      6  C5  UNL d   1      -0.158  -1.807  -3.296  0.00  0.00     0.039 A 
ENDROOT
BRANCH   4   7
ATOM      7  O   UNL d   1      -0.815   0.399  -0.481  0.00  0.00    -0.526 OA
ATOM      8  H5  UNL d   1      -0.320   1.182  -0.188  0.00  0.00     0.418 HD
ENDBRANCH   4   7
TORSDOF 1
ENDMDL
