MODEL 1
REMARK minimizedAffinity -3.70698786
REMARK minimizedRMSD -1
REMARK  1 active torsions:
REMARK  status: ('A' for Active; 'I' for Inactive)
REMARK    1  A    between atoms: C3_4  and  O_7 
ROOT
ATOM      1  C   UNL d   1       0.823   0.356  -0.599  0.00  0.00    -0.033 A 
ATOM      2  C1  UNL d   1      -0.403  -0.311  -0.560  0.00  0.00     0.039 A 
ATOM      3  C2  UNL d   1      -0.933  -0.732   0.661  0.00  0.00    -0.080 A 
ATOM      4  C3  UNL d   1      -0.229  -0.478   1.835  0.00  0.00     0.150 A 
ATOM      5  C4  UNL d   1       0.991   0.189   1.805  0.00  0.00    -0.007 A 
ATOM      6  C5  UNL d   1       1.519   0.607   0.584  0.00  0.00     0.039 A 
ENDROOT
BRANCH   4   7
ATOM      7  O   UNL d   1      -0.704  -0.874   3.050  0.00  0.00    -0.526 OA
ATOM      8  H5  UNL d   1      -1.541  -1.348   2.914  0.00  0.00     0.418 HD
ENDBRANCH   4   7
TORSDOF 1
ENDMDL
