MODEL 1
REMARK minimizedAffinity -5.02402735
REMARK minimizedRMSD -1
REMARK  1 active torsions:
REMARK  status: ('A' for Active; 'I' for Inactive)
REMARK    1  A    between atoms: C3_4  and  O_7 
ROOT
ATOM      1  C   UNL d   1      -1.097  -0.593   3.234  0.00  0.00    -0.033 A 
ATOM      2  C1  UNL d   1       0.165  -0.423   2.663  0.00  0.00     0.039 A 
ATOM      3  C2  UNL d   1       0.284  -0.104   1.309  0.00  0.00    -0.080 A 
ATOM      4  C3  UNL d   1      -0.866   0.045   0.539  0.00  0.00     0.150 A 
ATOM      5  C4  UNL d   1      -2.128  -0.119   1.102  0.00  0.00    -0.007 A 
ATOM      6  C5  UNL d   1      -2.244  -0.440   2.454  0.00  0.00     0.039 A 
ENDROOT
BRANCH   4   7
ATOM      7  O   UNL d   1      -0.801   0.352  -0.788  0.00  0.00    -0.526 OA
ATOM      8  H5  UNL d   1       0.134   0.406  -1.045  0.00  0.00     0.418 HD
ENDBRANCH   4   7
TORSDOF 1
ENDMDL
