MODEL 1
REMARK minimizedAffinity -5.42077112
REMARK minimizedRMSD -1
REMARK  1 active torsions:
REMARK  status: ('A' for Active; 'I' for Inactive)
REMARK    1  A    between atoms: C3_4  and  O_7 
ROOT
ATOM      1  C   UNL d   1      -1.577   0.023   3.222  0.00  0.00    -0.033 A 
ATOM      2  C1  UNL d   1      -2.515   0.028   2.187  0.00  0.00     0.039 A 
ATOM      3  C2  UNL d   1      -2.094   0.156   0.862  0.00  0.00    -0.080 A 
ATOM      4  C3  UNL d   1      -0.735   0.277   0.585  0.00  0.00     0.150 A 
ATOM      5  C4  UNL d   1       0.205   0.269   1.610  0.00  0.00    -0.007 A 
ATOM      6  C5  UNL d   1      -0.217   0.142   2.933  0.00  0.00     0.039 A 
ENDROOT
BRANCH   4   7
ATOM      7  O   UNL d   1      -0.278   0.410  -0.692  0.00  0.00    -0.526 OA
ATOM      8  H5  UNL d   1      -1.042   0.428  -1.293  0.00  0.00     0.418 HD
ENDBRANCH   4   7
TORSDOF 1
ENDMDL
