MODEL 1
REMARK minimizedAffinity -4.91474009
REMARK minimizedRMSD -1
REMARK  1 active torsions:
REMARK  status: ('A' for Active; 'I' for Inactive)
REMARK    1  A    between atoms: C3_4  and  O_7 
ROOT
ATOM      1  C   UNL d   1      -1.226  -0.893   2.289  0.00  0.00    -0.033 A 
ATOM      2  C1  UNL d   1      -2.385  -0.462   1.640  0.00  0.00     0.039 A 
ATOM      3  C2  UNL d   1      -2.957   0.768   1.972  0.00  0.00    -0.080 A 
ATOM      4  C3  UNL d   1      -2.361   1.556   2.952  0.00  0.00     0.150 A 
ATOM      5  C4  UNL d   1      -1.204   1.135   3.599  0.00  0.00    -0.007 A 
ATOM      6  C5  UNL d   1      -0.635  -0.094   3.268  0.00  0.00     0.039 A 
ENDROOT
BRANCH   4   7
ATOM      7  O   UNL d   1      -2.885   2.762   3.313  0.00  0.00    -0.526 OA
ATOM      8  H5  UNL d   1      -3.699   2.909   2.802  0.00  0.00     0.418 HD
ENDBRANCH   4   7
TORSDOF 1
ENDMDL
