MODEL 1
REMARK minimizedAffinity -4.96099567
REMARK minimizedRMSD -1
REMARK  1 active torsions:
REMARK  status: ('A' for Active; 'I' for Inactive)
REMARK    1  A    between atoms: C3_4  and  O_7 
ROOT
ATOM      1  C   UNL d   1       1.175   0.416   0.951  0.00  0.00    -0.033 A 
ATOM      2  C1  UNL d   1       0.250   0.533  -0.088  0.00  0.00     0.039 A 
ATOM      3  C2  UNL d   1      -1.118   0.468   0.182  0.00  0.00    -0.080 A 
ATOM      4  C3  UNL d   1      -1.548   0.286   1.494  0.00  0.00     0.150 A 
ATOM      5  C4  UNL d   1      -0.632   0.173   2.534  0.00  0.00    -0.007 A 
ATOM      6  C5  UNL d   1       0.734   0.238   2.263  0.00  0.00     0.039 A 
ENDROOT
BRANCH   4   7
ATOM      7  O   UNL d   1      -2.873   0.212   1.806  0.00  0.00    -0.526 OA
ATOM      8  H5  UNL d   1      -3.387   0.277   0.984  0.00  0.00     0.418 HD
ENDBRANCH   4   7
TORSDOF 1
ENDMDL
