MODEL 1
REMARK minimizedAffinity -4.73969936
REMARK minimizedRMSD -1
REMARK  1 active torsions:
REMARK  status: ('A' for Active; 'I' for Inactive)
REMARK    1  A    between atoms: C3_4  and  O_7 
ROOT
ATOM      1  C   UNL d   1      -1.243  -0.798   3.206  0.00  0.00    -0.033 A 
ATOM      2  C1  UNL d   1      -2.145  -0.406   2.215  0.00  0.00     0.039 A 
ATOM      3  C2  UNL d   1      -1.678  -0.018   0.958  0.00  0.00    -0.080 A 
ATOM      4  C3  UNL d   1      -0.310  -0.026   0.704  0.00  0.00     0.150 A 
ATOM      5  C4  UNL d   1       0.595  -0.419   1.686  0.00  0.00    -0.007 A 
ATOM      6  C5  UNL d   1       0.127  -0.805   2.941  0.00  0.00     0.039 A 
ENDROOT
BRANCH   4   7
ATOM      7  O   UNL d   1       0.193   0.349  -0.506  0.00  0.00    -0.526 OA
ATOM      8  H5  UNL d   1      -0.546   0.622  -1.075  0.00  0.00     0.418 HD
ENDBRANCH   4   7
TORSDOF 1
ENDMDL
