MODEL 1
REMARK minimizedAffinity -5.32367563
REMARK minimizedRMSD -1
REMARK  1 active torsions:
REMARK  status: ('A' for Active; 'I' for Inactive)
REMARK    1  A    between atoms: C3_4  and  O_7 
ROOT
ATOM      1  C   UNL d   1      -0.045  -0.647   2.423  0.00  0.00    -0.033 A 
ATOM      2  C1  UNL d   1      -1.070  -0.529   3.363  0.00  0.00     0.039 A 
ATOM      3  C2  UNL d   1      -2.351  -0.150   2.958  0.00  0.00    -0.080 A 
ATOM      4  C3  UNL d   1      -2.594   0.107   1.612  0.00  0.00     0.150 A 
ATOM      5  C4  UNL d   1      -1.578  -0.012   0.669  0.00  0.00    -0.007 A 
ATOM      6  C5  UNL d   1      -0.299  -0.390   1.076  0.00  0.00     0.039 A 
ENDROOT
BRANCH   4   7
ATOM      7  O   UNL d   1      -3.827   0.484   1.169  0.00  0.00    -0.526 OA
ATOM      8  H5  UNL d   1      -4.421   0.553   1.935  0.00  0.00     0.418 HD
ENDBRANCH   4   7
TORSDOF 1
ENDMDL
