MODEL 1
REMARK minimizedAffinity -2.43872023
REMARK minimizedRMSD -1
REMARK  1 active torsions:
REMARK  status: ('A' for Active; 'I' for Inactive)
REMARK    1  A    between atoms: C3_4  and  O_7 
ROOT
ATOM      1  C   UNL d   1       1.044   0.339   2.602  0.00  0.00    -0.033 A 
ATOM      2  C1  UNL d   1      -0.276   0.441   2.159  0.00  0.00     0.039 A 
ATOM      3  C2  UNL d   1      -0.558   0.434   0.792  0.00  0.00    -0.080 A 
ATOM      4  C3  UNL d   1       0.487   0.323  -0.121  0.00  0.00     0.150 A 
ATOM      5  C4  UNL d   1       1.804   0.217   0.314  0.00  0.00    -0.007 A 
ATOM      6  C5  UNL d   1       2.084   0.225   1.679  0.00  0.00     0.039 A 
ENDROOT
BRANCH   4   7
ATOM      7  O   UNL d   1       0.262   0.316  -1.465  0.00  0.00    -0.526 OA
ATOM      8  H5  UNL d   1      -0.692   0.425  -1.618  0.00  0.00     0.418 HD
ENDBRANCH   4   7
TORSDOF 1
ENDMDL
