MODEL 1
REMARK minimizedAffinity -1.799371
REMARK minimizedRMSD -1
REMARK  2 active torsions:
REMARK  status: ('A' for Active; 'I' for Inactive)
REMARK    1  A    between atoms: C2'_3  and  C1'_4 
REMARK    2  A    between atoms: C1'_4  and  C1_5 
ROOT
ATOM      1  C1  I4B d   1      -0.231  -0.104  -0.006  0.00  0.00    -0.075 A 
ATOM      2  C2  I4B d   1       0.514  -1.231   0.238  0.00  0.00     0.003 A 
ATOM      3  C3  I4B d   1       1.900  -1.124   0.509  0.00  0.00     0.002 A 
ATOM      4  C4  I4B d   1       2.505   0.116   0.477  0.00  0.00    -0.004 A 
ATOM      5  C5  I4B d   1       1.744   1.259   0.252  0.00  0.00     0.002 A 
ATOM      6  C6  I4B d   1       0.365   1.150   0.021  0.00  0.00     0.003 A 
ENDROOT
BRANCH   1   7
ATOM      7  C1' I4B d   1      -1.685  -0.256  -0.321  0.00  0.00     0.060 C 
BRANCH   7   8
ATOM      8  C2' I4B d   1      -1.907   0.222  -1.742  0.00  0.00    -0.013 C 
ATOM      9  C4' I4B d   1      -2.313  -0.915  -2.643  0.00  0.00     0.013 C 
ATOM     10  C3' I4B d   1      -2.960   1.290  -1.711  0.00  0.00     0.013 C 
ENDBRANCH   7   8
ENDBRANCH   1   7
TORSDOF 2
ENDMDL
