MODEL 1
REMARK minimizedAffinity -0.909874201
REMARK minimizedRMSD -1
REMARK  2 active torsions:
REMARK  status: ('A' for Active; 'I' for Inactive)
REMARK    1  A    between atoms: C2'_3  and  C1'_4 
REMARK    2  A    between atoms: C1'_4  and  C1_5 
ROOT
ATOM      1  C1  I4B d   1       1.922  -0.463   1.375  0.00  0.00    -0.075 A 
ATOM      2  C2  I4B d   1       0.735  -0.905   0.847  0.00  0.00     0.003 A 
ATOM      3  C3  I4B d   1       0.056  -1.999   1.436  0.00  0.00     0.002 A 
ATOM      4  C4  I4B d   1       0.622  -2.649   2.513  0.00  0.00    -0.004 A 
ATOM      5  C5  I4B d   1       1.815  -2.186   3.061  0.00  0.00     0.002 A 
ATOM      6  C6  I4B d   1       2.463  -1.078   2.496  0.00  0.00     0.003 A 
ENDROOT
BRANCH   1   7
ATOM      7  C1' I4B d   1       2.629   0.674   0.708  0.00  0.00     0.060 C 
BRANCH   7   8
ATOM      8  C2' I4B d   1       1.890   1.951   1.055  0.00  0.00    -0.013 C 
ATOM      9  C4' I4B d   1       0.503   1.955   0.469  0.00  0.00     0.013 C 
ATOM     10  C3' I4B d   1       1.847   2.069   2.549  0.00  0.00     0.013 C 
ENDBRANCH   7   8
ENDBRANCH   1   7
TORSDOF 2
ENDMDL
