MODEL 1
REMARK minimizedAffinity -3.82171106
REMARK minimizedRMSD -1
REMARK  2 active torsions:
REMARK  status: ('A' for Active; 'I' for Inactive)
REMARK    1  A    between atoms: C2'_3  and  C1'_4 
REMARK    2  A    between atoms: C1'_4  and  C1_5 
ROOT
ATOM      1  C1  I4B d   1      -0.568  -0.304   0.218  0.00  0.00    -0.075 A 
ATOM      2  C2  I4B d   1       0.010   0.890  -0.138  0.00  0.00     0.003 A 
ATOM      3  C3  I4B d   1       1.331   1.192   0.273  0.00  0.00     0.002 A 
ATOM      4  C4  I4B d   1       2.014   0.302   1.075  0.00  0.00    -0.004 A 
ATOM      5  C5  I4B d   1       1.436  -0.917   1.416  0.00  0.00     0.002 A 
ATOM      6  C6  I4B d   1       0.141  -1.228   0.975  0.00  0.00     0.003 A 
ENDROOT
BRANCH   1   7
ATOM      7  C1' I4B d   1      -1.976  -0.577  -0.205  0.00  0.00     0.060 C 
BRANCH   7   8
ATOM      8  C2' I4B d   1      -2.136  -0.096  -1.633  0.00  0.00    -0.013 C 
ATOM      9  C4' I4B d   1      -2.513  -1.230  -2.550  0.00  0.00     0.013 C 
ATOM     10  C3' I4B d   1      -3.180   0.980  -1.645  0.00  0.00     0.013 C 
ENDBRANCH   7   8
ENDBRANCH   1   7
TORSDOF 2
ENDMDL
