MODEL 1
REMARK minimizedAffinity -5.27005386
REMARK minimizedRMSD -1
REMARK  2 active torsions:
REMARK  status: ('A' for Active; 'I' for Inactive)
REMARK    1  A    between atoms: C2'_3  and  C1'_4 
REMARK    2  A    between atoms: C1'_4  and  C1_5 
ROOT
ATOM      1  C1  I4B d   1       0.834   0.218   0.198  0.00  0.00    -0.075 A 
ATOM      2  C2  I4B d   1       1.826  -0.509   0.807  0.00  0.00     0.003 A 
ATOM      3  C3  I4B d   1       2.539   0.035   1.903  0.00  0.00     0.002 A 
ATOM      4  C4  I4B d   1       2.263   1.321   2.321  0.00  0.00    -0.004 A 
ATOM      5  C5  I4B d   1       1.242   2.048   1.717  0.00  0.00     0.002 A 
ATOM      6  C6  I4B d   1       0.514   1.489   0.657  0.00  0.00     0.003 A 
ENDROOT
BRANCH   1   7
ATOM      7  C1' I4B d   1       0.123  -0.376  -0.977  0.00  0.00     0.060 C 
BRANCH   7   8
ATOM      8  C2' I4B d   1      -1.354  -0.072  -0.832  0.00  0.00    -0.013 C 
ATOM      9  C4' I4B d   1      -2.123  -0.510  -2.050  0.00  0.00     0.013 C 
ATOM     10  C3' I4B d   1      -1.850  -0.767   0.401  0.00  0.00     0.013 C 
ENDBRANCH   7   8
ENDBRANCH   1   7
TORSDOF 2
ENDMDL
