MODEL 1
REMARK minimizedAffinity -3.56675124
REMARK minimizedRMSD -1
REMARK  2 active torsions:
REMARK  status: ('A' for Active; 'I' for Inactive)
REMARK    1  A    between atoms: C2'_3  and  C1'_4 
REMARK    2  A    between atoms: C1'_4  and  C1_5 
ROOT
ATOM      1  C1  I4B d   1       2.363   0.335   1.980  0.00  0.00    -0.075 A 
ATOM      2  C2  I4B d   1       2.299   1.355   2.896  0.00  0.00     0.003 A 
ATOM      3  C3  I4B d   1       2.275   1.067   4.283  0.00  0.00     0.002 A 
ATOM      4  C4  I4B d   1       2.268  -0.247   4.704  0.00  0.00    -0.004 A 
ATOM      5  C5  I4B d   1       2.357  -1.279   3.774  0.00  0.00     0.002 A 
ATOM      6  C6  I4B d   1       2.417  -0.987   2.404  0.00  0.00     0.003 A 
ENDROOT
BRANCH   1   7
ATOM      7  C1' I4B d   1       2.353   0.673   0.523  0.00  0.00     0.060 C 
BRANCH   7   8
ATOM      8  C2' I4B d   1       1.075   1.432   0.229  0.00  0.00    -0.013 C 
ATOM      9  C4' I4B d   1       1.333   2.603  -0.681  0.00  0.00     0.013 C 
ATOM     10  C3' I4B d   1       0.099   0.473  -0.385  0.00  0.00     0.013 C 
ENDBRANCH   7   8
ENDBRANCH   1   7
TORSDOF 2
ENDMDL
