MODEL 1
REMARK minimizedAffinity -3.71592617
REMARK minimizedRMSD -1
REMARK  2 active torsions:
REMARK  status: ('A' for Active; 'I' for Inactive)
REMARK    1  A    between atoms: C2'_3  and  C1'_4 
REMARK    2  A    between atoms: C1'_4  and  C1_5 
ROOT
ATOM      1  C1  I4B d   1      -0.600   0.218  -0.147  0.00  0.00    -0.075 A 
ATOM      2  C2  I4B d   1      -0.052   1.461  -0.340  0.00  0.00     0.003 A 
ATOM      3  C3  I4B d   1       1.295   1.710   0.017  0.00  0.00     0.002 A 
ATOM      4  C4  I4B d   1       2.038   0.708   0.608  0.00  0.00    -0.004 A 
ATOM      5  C5  I4B d   1       1.487  -0.558   0.783  0.00  0.00     0.002 A 
ATOM      6  C6  I4B d   1       0.164  -0.809   0.392  0.00  0.00     0.003 A 
ENDROOT
BRANCH   1   7
ATOM      7  C1' I4B d   1      -2.036  -0.001  -0.505  0.00  0.00     0.060 C 
BRANCH   7   8
ATOM      8  C2' I4B d   1      -2.235   0.460  -1.935  0.00  0.00    -0.013 C 
ATOM      9  C4' I4B d   1      -2.538  -0.702  -2.845  0.00  0.00     0.013 C 
ATOM     10  C3' I4B d   1      -3.350   1.462  -1.947  0.00  0.00     0.013 C 
ENDBRANCH   7   8
ENDBRANCH   1   7
TORSDOF 2
ENDMDL
