MODEL 1
REMARK minimizedAffinity -2.27706599
REMARK minimizedRMSD -1
REMARK  2 active torsions:
REMARK  status: ('A' for Active; 'I' for Inactive)
REMARK    1  A    between atoms: C2'_3  and  C1'_4 
REMARK    2  A    between atoms: C1'_4  and  C1_5 
ROOT
ATOM      1  C1  I4B d   1      -2.348   0.665  -1.185  0.00  0.00    -0.075 A 
ATOM      2  C2  I4B d   1      -2.453   1.971  -1.596  0.00  0.00     0.003 A 
ATOM      3  C3  I4B d   1      -2.779   2.271  -2.941  0.00  0.00     0.002 A 
ATOM      4  C4  I4B d   1      -2.941   1.243  -3.847  0.00  0.00    -0.004 A 
ATOM      5  C5  I4B d   1      -2.856  -0.080  -3.423  0.00  0.00     0.002 A 
ATOM      6  C6  I4B d   1      -2.571  -0.372  -2.082  0.00  0.00     0.003 A 
ENDROOT
BRANCH   1   7
ATOM      7  C1' I4B d   1      -1.970   0.385   0.235  0.00  0.00     0.060 C 
BRANCH   7   8
ATOM      8  C2' I4B d   1      -0.655  -0.368   0.227  0.00  0.00    -0.013 C 
ATOM      9  C4' I4B d   1       0.462   0.481   0.776  0.00  0.00     0.013 C 
ATOM     10  C3' I4B d   1      -0.832  -1.618   1.036  0.00  0.00     0.013 C 
ENDBRANCH   7   8
ENDBRANCH   1   7
TORSDOF 2
ENDMDL
