MODEL 1
REMARK minimizedAffinity -4.36507797
REMARK minimizedRMSD -1
REMARK  1 active torsions:
REMARK  status: ('A' for Active; 'I' for Inactive)
REMARK    1  A    between atoms: C1_2  and  C2_3 
ROOT
ATOM      1  C2  UNL d   1      -0.008   1.957  -1.022  0.00  0.00    -0.081 A 
ATOM      2  C3  UNL d   1       0.134   1.243   0.174  0.00  0.00     0.006 A 
ATOM      3  C4  UNL d   1       0.278  -0.147   0.155  0.00  0.00     0.002 A 
ATOM      4  C5  UNL d   1       0.291  -0.843  -1.058  0.00  0.00    -0.080 A 
ATOM      5  C6  UNL d   1       0.475  -2.331  -1.093  0.00  0.00     0.076 C 
ATOM      6  C7  UNL d   1       0.132  -0.131  -2.251  0.00  0.00     0.002 A 
ATOM      7  C8  UNL d   1      -0.013   1.258  -2.234  0.00  0.00     0.006 A 
ENDROOT
BRANCH   1   8
ATOM      8  C1  UNL d   1      -0.099   3.462  -1.009  0.00  0.00     0.054 C 
ATOM      9  C   UNL d   1      -0.006   4.010   0.408  0.00  0.00     0.018 C 
ENDBRANCH   1   8
TORSDOF 1
ENDMDL
