MODEL 1
REMARK minimizedAffinity -1.07836342
REMARK minimizedRMSD -1
REMARK  1 active torsions:
REMARK  status: ('A' for Active; 'I' for Inactive)
REMARK    1  A    between atoms: C1_2  and  C2_3 
ROOT
ATOM      1  C2  UNL d   1      -0.310   2.016  -0.452  0.00  0.00    -0.081 A 
ATOM      2  C3  UNL d   1      -0.119   2.678   0.766  0.00  0.00     0.006 A 
ATOM      3  C4  UNL d   1       0.164   1.955   1.928  0.00  0.00     0.002 A 
ATOM      4  C5  UNL d   1       0.268   0.561   1.889  0.00  0.00    -0.080 A 
ATOM      5  C6  UNL d   1       0.601  -0.224   3.123  0.00  0.00     0.076 C 
ATOM      6  C7  UNL d   1       0.060  -0.102   0.675  0.00  0.00     0.002 A 
ATOM      7  C8  UNL d   1      -0.224   0.620  -0.487  0.00  0.00     0.006 A 
ENDROOT
BRANCH   1   8
ATOM      8  C1  UNL d   1      -0.550   2.796  -1.719  0.00  0.00     0.054 C 
ATOM      9  C   UNL d   1       0.056   4.190  -1.634  0.00  0.00     0.018 C 
ENDBRANCH   1   8
TORSDOF 1
ENDMDL
