MODEL 1
REMARK minimizedAffinity -3.42819595
REMARK minimizedRMSD -1
REMARK  1 active torsions:
REMARK  status: ('A' for Active; 'I' for Inactive)
REMARK    1  A    between atoms: C1_2  and  C2_3 
ROOT
ATOM      1  C2  UNL d   1       0.161   0.558   0.205  0.00  0.00    -0.081 A 
ATOM      2  C3  UNL d   1      -0.523   1.340  -0.734  0.00  0.00     0.006 A 
ATOM      3  C4  UNL d   1      -1.233   2.473  -0.330  0.00  0.00     0.002 A 
ATOM      4  C5  UNL d   1      -1.264   2.848   1.017  0.00  0.00    -0.080 A 
ATOM      5  C6  UNL d   1      -1.996   4.080   1.460  0.00  0.00     0.076 C 
ATOM      6  C7  UNL d   1      -0.595   2.058   1.958  0.00  0.00     0.002 A 
ATOM      7  C8  UNL d   1       0.114   0.924   1.555  0.00  0.00     0.006 A 
ENDROOT
BRANCH   1   8
ATOM      8  C1  UNL d   1       0.980  -0.628  -0.235  0.00  0.00     0.054 C 
ATOM      9  C   UNL d   1       0.092  -1.806  -0.610  0.00  0.00     0.018 C 
ENDBRANCH   1   8
TORSDOF 1
ENDMDL
