MODEL 1
REMARK minimizedAffinity 1.29655528
REMARK minimizedRMSD -1
REMARK  1 active torsions:
REMARK  status: ('A' for Active; 'I' for Inactive)
REMARK    1  A    between atoms: C1_2  and  C2_3 
ROOT
ATOM      1  C2  UNL d   1       0.577  -4.997  -0.960  0.00  0.00    -0.081 A 
ATOM      2  C3  UNL d   1      -0.142  -4.006  -0.278  0.00  0.00     0.006 A 
ATOM      3  C4  UNL d   1      -1.187  -3.329  -0.910  0.00  0.00     0.002 A 
ATOM      4  C5  UNL d   1      -1.537  -3.635  -2.229  0.00  0.00    -0.080 A 
ATOM      5  C6  UNL d   1      -2.676  -2.936  -2.909  0.00  0.00     0.076 C 
ATOM      6  C7  UNL d   1      -0.808  -4.612  -2.916  0.00  0.00     0.002 A 
ATOM      7  C8  UNL d   1       0.238  -5.289  -2.285  0.00  0.00     0.006 A 
ENDROOT
BRANCH   1   8
ATOM      8  C1  UNL d   1       1.662  -5.774  -0.260  0.00  0.00     0.054 C 
ATOM      9  C   UNL d   1       3.028  -5.141  -0.484  0.00  0.00     0.018 C 
ENDBRANCH   1   8
TORSDOF 1
ENDMDL
