MODEL 1
REMARK minimizedAffinity -4.38596964
REMARK minimizedRMSD -1
REMARK  1 active torsions:
REMARK  status: ('A' for Active; 'I' for Inactive)
REMARK    1  A    between atoms: C1_2  and  C2_3 
ROOT
ATOM      1  C2  UNL d   1      -0.055  -0.426  -0.062  0.00  0.00    -0.081 A 
ATOM      2  C3  UNL d   1      -1.065   0.486   0.269  0.00  0.00     0.006 A 
ATOM      3  C4  UNL d   1      -0.803   1.859   0.282  0.00  0.00     0.002 A 
ATOM      4  C5  UNL d   1       0.469   2.341  -0.043  0.00  0.00    -0.080 A 
ATOM      5  C6  UNL d   1       0.756   3.814  -0.062  0.00  0.00     0.076 C 
ATOM      6  C7  UNL d   1       1.483   1.429  -0.357  0.00  0.00     0.002 A 
ATOM      7  C8  UNL d   1       1.221   0.057  -0.370  0.00  0.00     0.006 A 
ENDROOT
BRANCH   1   8
ATOM      8  C1  UNL d   1      -0.352  -1.902  -0.140  0.00  0.00     0.054 C 
ATOM      9  C   UNL d   1      -0.145  -2.434  -1.551  0.00  0.00     0.018 C 
ENDBRANCH   1   8
TORSDOF 1
ENDMDL
