MODEL 1
REMARK minimizedAffinity -5.36236525
REMARK minimizedRMSD -1
REMARK  1 active torsions:
REMARK  status: ('A' for Active; 'I' for Inactive)
REMARK    1  A    between atoms: C1_2  and  C2_3 
ROOT
ATOM      1  C2  UNL d   1      -0.647   1.104   0.383  0.00  0.00    -0.081 A 
ATOM      2  C3  UNL d   1       0.469   0.259   0.377  0.00  0.00     0.006 A 
ATOM      3  C4  UNL d   1       1.761   0.792   0.367  0.00  0.00     0.002 A 
ATOM      4  C5  UNL d   1       1.957   2.177   0.371  0.00  0.00    -0.080 A 
ATOM      5  C6  UNL d   1       3.338   2.762   0.391  0.00  0.00     0.076 C 
ATOM      6  C7  UNL d   1       0.842   3.021   0.358  0.00  0.00     0.002 A 
ATOM      7  C8  UNL d   1      -0.449   2.489   0.367  0.00  0.00     0.006 A 
ENDROOT
BRANCH   1   8
ATOM      8  C1  UNL d   1      -2.040   0.533   0.459  0.00  0.00     0.054 C 
ATOM      9  C   UNL d   1      -2.216  -0.334   1.697  0.00  0.00     0.018 C 
ENDBRANCH   1   8
TORSDOF 1
ENDMDL
