MODEL 1
REMARK minimizedAffinity -3.10080624
REMARK minimizedRMSD -1
REMARK  1 active torsions:
REMARK  status: ('A' for Active; 'I' for Inactive)
REMARK    1  A    between atoms: C1_2  and  C2_3 
ROOT
ATOM      1  C2  UNL d   1      -0.238   1.557   0.674  0.00  0.00    -0.081 A 
ATOM      2  C3  UNL d   1       0.945   0.943   0.245  0.00  0.00     0.006 A 
ATOM      3  C4  UNL d   1       0.961  -0.416  -0.078  0.00  0.00     0.002 A 
ATOM      4  C5  UNL d   1      -0.206  -1.181   0.014  0.00  0.00    -0.080 A 
ATOM      5  C6  UNL d   1      -0.210  -2.633  -0.360  0.00  0.00     0.076 C 
ATOM      6  C7  UNL d   1      -1.385  -0.572   0.459  0.00  0.00     0.002 A 
ATOM      7  C8  UNL d   1      -1.401   0.787   0.783  0.00  0.00     0.006 A 
ENDROOT
BRANCH   1   8
ATOM      8  C1  UNL d   1      -0.273   3.036   0.962  0.00  0.00     0.054 C 
ATOM      9  C   UNL d   1       1.029   3.710   0.554  0.00  0.00     0.018 C 
ENDBRANCH   1   8
TORSDOF 1
ENDMDL
