MODEL 1
REMARK minimizedAffinity -5.93371058
REMARK minimizedRMSD -1
REMARK  1 active torsions:
REMARK  status: ('A' for Active; 'I' for Inactive)
REMARK    1  A    between atoms: C1_2  and  C2_3 
ROOT
ATOM      1  C2  UNL d   1       0.260  -0.031   0.150  0.00  0.00    -0.081 A 
ATOM      2  C3  UNL d   1       1.331  -0.707   0.746  0.00  0.00     0.006 A 
ATOM      3  C4  UNL d   1       2.542  -0.050   0.980  0.00  0.00     0.002 A 
ATOM      4  C5  UNL d   1       2.698   1.295   0.629  0.00  0.00    -0.080 A 
ATOM      5  C6  UNL d   1       3.982   2.021   0.902  0.00  0.00     0.076 C 
ATOM      6  C7  UNL d   1       1.634   1.966   0.017  0.00  0.00     0.002 A 
ATOM      7  C8  UNL d   1       0.424   1.309  -0.218  0.00  0.00     0.006 A 
ENDROOT
BRANCH   1   8
ATOM      8  C1  UNL d   1      -1.067  -0.719  -0.045  0.00  0.00     0.054 C 
ATOM      9  C   UNL d   1      -1.832  -0.826   1.267  0.00  0.00     0.018 C 
ENDBRANCH   1   8
TORSDOF 1
ENDMDL
