MODEL 1
REMARK minimizedAffinity -3.74752164
REMARK minimizedRMSD -1
REMARK  1 active torsions:
REMARK  status: ('A' for Active; 'I' for Inactive)
REMARK    1  A    between atoms: C1_2  and  C2_3 
ROOT
ATOM      1  C2  UNL d   1       1.060  -0.058   0.015  0.00  0.00    -0.081 A 
ATOM      2  C3  UNL d   1       2.245   0.666   0.198  0.00  0.00     0.006 A 
ATOM      3  C4  UNL d   1       2.206   2.047   0.408  0.00  0.00     0.002 A 
ATOM      4  C5  UNL d   1       0.982   2.724   0.447  0.00  0.00    -0.080 A 
ATOM      5  C6  UNL d   1       0.925   4.201   0.701  0.00  0.00     0.076 C 
ATOM      6  C7  UNL d   1      -0.200   2.004   0.247  0.00  0.00     0.002 A 
ATOM      7  C8  UNL d   1      -0.161   0.623   0.036  0.00  0.00     0.006 A 
ENDROOT
BRANCH   1   8
ATOM      8  C1  UNL d   1       1.095  -1.556  -0.147  0.00  0.00     0.054 C 
ATOM      9  C   UNL d   1       0.084  -2.024  -1.183  0.00  0.00     0.018 C 
ENDBRANCH   1   8
TORSDOF 1
ENDMDL
