MODEL 1
REMARK minimizedAffinity -3.12230229
REMARK minimizedRMSD -1
REMARK  1 active torsions:
REMARK  status: ('A' for Active; 'I' for Inactive)
REMARK    1  A    between atoms: C1_2  and  C2_3 
ROOT
ATOM      1  C2  UNL d   1       0.286   2.223   0.309  0.00  0.00    -0.081 A 
ATOM      2  C3  UNL d   1      -0.810   1.632   0.950  0.00  0.00     0.006 A 
ATOM      3  C4  UNL d   1      -1.136   0.296   0.707  0.00  0.00     0.002 A 
ATOM      4  C5  UNL d   1      -0.368  -0.474  -0.173  0.00  0.00    -0.080 A 
ATOM      5  C6  UNL d   1      -0.689  -1.918  -0.419  0.00  0.00     0.076 C 
ATOM      6  C7  UNL d   1       0.716   0.122  -0.827  0.00  0.00     0.002 A 
ATOM      7  C8  UNL d   1       1.042   1.458  -0.586  0.00  0.00     0.006 A 
ENDROOT
BRANCH   1   8
ATOM      8  C1  UNL d   1       0.679   3.646   0.617  0.00  0.00     0.054 C 
ATOM      9  C   UNL d   1       2.191   3.802   0.674  0.00  0.00     0.018 C 
ENDBRANCH   1   8
TORSDOF 1
ENDMDL
