MODEL 1
REMARK minimizedAffinity -5.03267384
REMARK minimizedRMSD -1
REMARK  1 active torsions:
REMARK  status: ('A' for Active; 'I' for Inactive)
REMARK    1  A    between atoms: C1_2  and  C2_3 
ROOT
ATOM      1  C2  UNL d   1       0.091  -0.453   0.102  0.00  0.00    -0.081 A 
ATOM      2  C3  UNL d   1       1.237   0.199  -0.372  0.00  0.00     0.006 A 
ATOM      3  C4  UNL d   1       1.335   1.591  -0.312  0.00  0.00     0.002 A 
ATOM      4  C5  UNL d   1       0.293   2.354   0.228  0.00  0.00    -0.080 A 
ATOM      5  C6  UNL d   1       0.398   3.847   0.325  0.00  0.00     0.076 C 
ATOM      6  C7  UNL d   1      -0.858   1.704   0.684  0.00  0.00     0.002 A 
ATOM      7  C8  UNL d   1      -0.957   0.312   0.625  0.00  0.00     0.006 A 
ENDROOT
BRANCH   1   8
ATOM      8  C1  UNL d   1       0.010  -1.958   0.099  0.00  0.00     0.054 C 
ATOM      9  C   UNL d   1      -0.345  -2.490  -1.282  0.00  0.00     0.018 C 
ENDBRANCH   1   8
TORSDOF 1
ENDMDL
