MODEL 1
REMARK minimizedAffinity -5.22339582
REMARK minimizedRMSD -1
REMARK  1 active torsions:
REMARK  status: ('A' for Active; 'I' for Inactive)
REMARK    1  A    between atoms: C1_2  and  C2_3 
ROOT
ATOM      1  C2  UNL d   1       0.239  -0.665   0.399  0.00  0.00    -0.081 A 
ATOM      2  C3  UNL d   1       1.391   0.098   0.172  0.00  0.00     0.006 A 
ATOM      3  C4  UNL d   1       1.301   1.480  -0.007  0.00  0.00     0.002 A 
ATOM      4  C5  UNL d   1       0.060   2.124   0.047  0.00  0.00    -0.080 A 
ATOM      5  C6  UNL d   1      -0.048   3.611  -0.112  0.00  0.00     0.076 C 
ATOM      6  C7  UNL d   1      -1.093   1.359   0.257  0.00  0.00     0.002 A 
ATOM      7  C8  UNL d   1      -1.004  -0.023   0.434  0.00  0.00     0.006 A 
ENDROOT
BRANCH   1   8
ATOM      8  C1  UNL d   1       0.339  -2.147   0.655  0.00  0.00     0.054 C 
ATOM      9  C   UNL d   1      -0.097  -2.950  -0.562  0.00  0.00     0.018 C 
ENDBRANCH   1   8
TORSDOF 1
ENDMDL
