MODEL 1
REMARK minimizedAffinity -2.37721586
REMARK minimizedRMSD -1
REMARK  1 active torsions:
REMARK  status: ('A' for Active; 'I' for Inactive)
REMARK    1  A    between atoms: C1_2  and  C2_3 
ROOT
ATOM      1  C2  UNL d   1      -0.095  -1.159  -0.193  0.00  0.00    -0.081 A 
ATOM      2  C3  UNL d   1      -1.296  -0.481   0.050  0.00  0.00     0.006 A 
ATOM      3  C4  UNL d   1      -1.290   0.882   0.355  0.00  0.00     0.002 A 
ATOM      4  C5  UNL d   1      -0.085   1.591   0.415  0.00  0.00    -0.080 A 
ATOM      5  C6  UNL d   1      -0.067   3.061   0.712  0.00  0.00     0.076 C 
ATOM      6  C7  UNL d   1       1.115   0.909   0.189  0.00  0.00     0.002 A 
ATOM      7  C8  UNL d   1       1.110  -0.454  -0.116  0.00  0.00     0.006 A 
ENDROOT
BRANCH   1   8
ATOM      8  C1  UNL d   1      -0.103  -2.615  -0.586  0.00  0.00     0.054 C 
ATOM      9  C   UNL d   1      -1.242  -2.922  -1.549  0.00  0.00     0.018 C 
ENDBRANCH   1   8
TORSDOF 1
ENDMDL
