MODEL 1
REMARK minimizedAffinity -1.86677694
REMARK minimizedRMSD -1
REMARK  1 active torsions:
REMARK  status: ('A' for Active; 'I' for Inactive)
REMARK    1  A    between atoms: C1_2  and  C2_3 
ROOT
ATOM      1  C2  UNL d   1      -0.167   1.771   0.374  0.00  0.00    -0.081 A 
ATOM      2  C3  UNL d   1       0.685   0.697   0.089  0.00  0.00     0.006 A 
ATOM      3  C4  UNL d   1       2.010   0.926  -0.290  0.00  0.00     0.002 A 
ATOM      4  C5  UNL d   1       2.506   2.230  -0.383  0.00  0.00    -0.080 A 
ATOM      5  C6  UNL d   1       3.935   2.488  -0.760  0.00  0.00     0.076 C 
ATOM      6  C7  UNL d   1       1.651   3.304  -0.115  0.00  0.00     0.002 A 
ATOM      7  C8  UNL d   1       0.326   3.076   0.264  0.00  0.00     0.006 A 
ENDROOT
BRANCH   1   8
ATOM      8  C1  UNL d   1      -1.578   1.526   0.846  0.00  0.00     0.054 C 
ATOM      9  C   UNL d   1      -1.902   0.039   0.874  0.00  0.00     0.018 C 
ENDBRANCH   1   8
TORSDOF 1
ENDMDL
