MODEL 1
REMARK minimizedAffinity -5.85761547
REMARK minimizedRMSD -1
REMARK  1 active torsions:
REMARK  status: ('A' for Active; 'I' for Inactive)
REMARK    1  A    between atoms: C1_2  and  C2_3 
ROOT
ATOM      1  C2  UNL d   1      -0.196  -0.852  -0.080  0.00  0.00    -0.081 A 
ATOM      2  C3  UNL d   1      -1.255   0.058   0.021  0.00  0.00     0.006 A 
ATOM      3  C4  UNL d   1      -1.005   1.421   0.192  0.00  0.00     0.002 A 
ATOM      4  C5  UNL d   1       0.309   1.899   0.257  0.00  0.00    -0.080 A 
ATOM      5  C6  UNL d   1       0.592   3.364   0.410  0.00  0.00     0.076 C 
ATOM      6  C7  UNL d   1       1.367   0.988   0.173  0.00  0.00     0.002 A 
ATOM      7  C8  UNL d   1       1.117  -0.375   0.003  0.00  0.00     0.006 A 
ENDROOT
BRANCH   1   8
ATOM      8  C1  UNL d   1      -0.462  -2.314  -0.329  0.00  0.00     0.054 C 
ATOM      9  C   UNL d   1      -0.480  -2.628  -1.818  0.00  0.00     0.018 C 
ENDBRANCH   1   8
TORSDOF 1
ENDMDL
