MODEL 1
REMARK minimizedAffinity -4.28315449
REMARK minimizedRMSD -1
REMARK  1 active torsions:
REMARK  status: ('A' for Active; 'I' for Inactive)
REMARK    1  A    between atoms: C1_2  and  C2_3 
ROOT
ATOM      1  C2  UNL d   1      -0.122  -1.090   0.441  0.00  0.00    -0.081 A 
ATOM      2  C3  UNL d   1      -1.240  -0.326   0.795  0.00  0.00     0.006 A 
ATOM      3  C4  UNL d   1      -1.217   1.065   0.668  0.00  0.00     0.002 A 
ATOM      4  C5  UNL d   1      -0.079   1.714   0.177  0.00  0.00    -0.080 A 
ATOM      5  C6  UNL d   1      -0.052   3.204   0.006  0.00  0.00     0.076 C 
ATOM      6  C7  UNL d   1       1.044   0.952  -0.161  0.00  0.00     0.002 A 
ATOM      7  C8  UNL d   1       1.022  -0.438  -0.033  0.00  0.00     0.006 A 
ENDROOT
BRANCH   1   8
ATOM      8  C1  UNL d   1      -0.167  -2.594   0.517  0.00  0.00     0.054 C 
ATOM      9  C   UNL d   1      -0.475  -3.208  -0.842  0.00  0.00     0.018 C 
ENDBRANCH   1   8
TORSDOF 1
ENDMDL
