MODEL 1
REMARK minimizedAffinity -4.78392172
REMARK minimizedRMSD -1
REMARK  1 active torsions:
REMARK  status: ('A' for Active; 'I' for Inactive)
REMARK    1  A    between atoms: C1_2  and  C2_3 
ROOT
ATOM      1  C2  UNL d   1      -0.123  -0.252   0.094  0.00  0.00    -0.081 A 
ATOM      2  C3  UNL d   1       1.172   0.239  -0.112  0.00  0.00     0.006 A 
ATOM      3  C4  UNL d   1       1.408   1.615  -0.164  0.00  0.00     0.002 A 
ATOM      4  C5  UNL d   1       0.356   2.522  -0.004  0.00  0.00    -0.080 A 
ATOM      5  C6  UNL d   1       0.600   4.002  -0.027  0.00  0.00     0.076 C 
ATOM      6  C7  UNL d   1      -0.941   2.032   0.185  0.00  0.00     0.002 A 
ATOM      7  C8  UNL d   1      -1.178   0.656   0.236  0.00  0.00     0.006 A 
ENDROOT
BRANCH   1   8
ATOM      8  C1  UNL d   1      -0.371  -1.734   0.215  0.00  0.00     0.054 C 
ATOM      9  C   UNL d   1      -0.201  -2.434  -1.126  0.00  0.00     0.018 C 
ENDBRANCH   1   8
TORSDOF 1
ENDMDL
