MODEL 1
REMARK minimizedAffinity -4.56638479
REMARK minimizedRMSD -1
REMARK  1 active torsions:
REMARK  status: ('A' for Active; 'I' for Inactive)
REMARK    1  A    between atoms: C1_2  and  C2_3 
ROOT
ATOM      1  C2  UNL d   1       0.071  -0.414   0.349  0.00  0.00    -0.081 A 
ATOM      2  C3  UNL d   1      -1.056   0.410   0.444  0.00  0.00     0.006 A 
ATOM      3  C4  UNL d   1      -0.925   1.799   0.387  0.00  0.00     0.002 A 
ATOM      4  C5  UNL d   1       0.335   2.387   0.225  0.00  0.00    -0.080 A 
ATOM      5  C6  UNL d   1       0.487   3.876   0.132  0.00  0.00     0.076 C 
ATOM      6  C7  UNL d   1       1.463   1.564   0.148  0.00  0.00     0.002 A 
ATOM      7  C8  UNL d   1       1.332   0.175   0.206  0.00  0.00     0.006 A 
ENDROOT
BRANCH   1   8
ATOM      8  C1  UNL d   1      -0.074  -1.915   0.345  0.00  0.00     0.054 C 
ATOM      9  C   UNL d   1      -0.269  -2.449  -1.067  0.00  0.00     0.018 C 
ENDBRANCH   1   8
TORSDOF 1
ENDMDL
