MODEL 1
REMARK minimizedAffinity -1.97298896
REMARK minimizedRMSD -1
REMARK  1 active torsions:
REMARK  status: ('A' for Active; 'I' for Inactive)
REMARK    1  A    between atoms: C1_2  and  C2_3 
ROOT
ATOM      1  C2  UNL d   1      -0.366  -0.814  -0.186  0.00  0.00    -0.081 A 
ATOM      2  C3  UNL d   1      -1.368   0.063   0.249  0.00  0.00     0.006 A 
ATOM      3  C4  UNL d   1      -1.107   1.429   0.378  0.00  0.00     0.002 A 
ATOM      4  C5  UNL d   1       0.156   1.942   0.066  0.00  0.00    -0.080 A 
ATOM      5  C6  UNL d   1       0.441   3.411   0.171  0.00  0.00     0.076 C 
ATOM      6  C7  UNL d   1       1.162   1.065  -0.352  0.00  0.00     0.002 A 
ATOM      7  C8  UNL d   1       0.902  -0.301  -0.480  0.00  0.00     0.006 A 
ENDROOT
BRANCH   1   8
ATOM      8  C1  UNL d   1      -0.663  -2.278  -0.388  0.00  0.00     0.054 C 
ATOM      9  C   UNL d   1      -0.612  -2.654  -1.862  0.00  0.00     0.018 C 
ENDBRANCH   1   8
TORSDOF 1
ENDMDL
