MODEL 1
REMARK minimizedAffinity -4.57010889
REMARK minimizedRMSD -1
REMARK  1 active torsions:
REMARK  status: ('A' for Active; 'I' for Inactive)
REMARK    1  A    between atoms: C1_2  and  C2_3 
ROOT
ATOM      1  C2  UNL d   1      -0.196  -1.033  -0.372  0.00  0.00    -0.081 A 
ATOM      2  C3  UNL d   1      -1.167  -0.314   0.335  0.00  0.00     0.006 A 
ATOM      3  C4  UNL d   1      -1.080   1.076   0.443  0.00  0.00     0.002 A 
ATOM      4  C5  UNL d   1      -0.026   1.771  -0.160  0.00  0.00    -0.080 A 
ATOM      5  C6  UNL d   1       0.063   3.265  -0.078  0.00  0.00     0.076 C 
ATOM      6  C7  UNL d   1       0.954   1.050  -0.852  0.00  0.00     0.002 A 
ATOM      7  C8  UNL d   1       0.868  -0.339  -0.959  0.00  0.00     0.006 A 
ENDROOT
BRANCH   1   8
ATOM      8  C1  UNL d   1      -0.322  -2.525  -0.545  0.00  0.00     0.054 C 
ATOM      9  C   UNL d   1      -0.306  -2.915  -2.016  0.00  0.00     0.018 C 
ENDBRANCH   1   8
TORSDOF 1
ENDMDL
