MODEL 1
REMARK minimizedAffinity -4.72683525
REMARK minimizedRMSD -1
REMARK  1 active torsions:
REMARK  status: ('A' for Active; 'I' for Inactive)
REMARK    1  A    between atoms: N_2  and  C1_3 
ROOT
ATOM      1  C1  UNL d   1      -0.229  -0.632   0.399  0.00  0.00     0.143 A 
ATOM      2  C2  UNL d   1      -1.313  -0.525  -0.479  0.00  0.00    -0.057 A 
ATOM      3  C3  UNL d   1      -2.425  -1.368  -0.364  0.00  0.00     0.033 A 
ATOM      4  C4  UNL d   1      -2.460  -2.354   0.616  0.00  0.00    -0.042 A 
ATOM      5  C5  UNL d   1      -1.383  -2.495   1.483  0.00  0.00     0.033 A 
ATOM      6  C6  UNL d   1      -0.278  -1.646   1.368  0.00  0.00    -0.057 A 
ENDROOT
BRANCH   1   7
ATOM      7  N   UNL d   1       0.948   0.110   0.275  0.00  0.00    -0.732 N 
ATOM      8  C   UNL d   1       1.148   1.312   1.055  0.00  0.00     0.284 C 
ATOM      9  H3  UNL d   1       1.774  -0.480   0.202  0.00  0.00     0.395 HD
ENDBRANCH   1   7
TORSDOF 1
ENDMDL
