MODEL 1
REMARK minimizedAffinity -4.33206415
REMARK minimizedRMSD -1
REMARK  1 active torsions:
REMARK  status: ('A' for Active; 'I' for Inactive)
REMARK    1  A    between atoms: N_2  and  C1_3 
ROOT
ATOM      1  C1  UNL d   1       0.007  -0.584   0.131  0.00  0.00     0.143 A 
ATOM      2  C2  UNL d   1      -0.803  -0.054  -0.878  0.00  0.00    -0.057 A 
ATOM      3  C3  UNL d   1      -2.109  -0.517  -1.080  0.00  0.00     0.033 A 
ATOM      4  C4  UNL d   1      -2.619  -1.544  -0.291  0.00  0.00    -0.042 A 
ATOM      5  C5  UNL d   1      -1.822  -2.103   0.702  0.00  0.00     0.033 A 
ATOM      6  C6  UNL d   1      -0.521  -1.631   0.902  0.00  0.00    -0.057 A 
ENDROOT
BRANCH   1   7
ATOM      7  N   UNL d   1       1.347  -0.235   0.318  0.00  0.00    -0.732 N 
ATOM      8  C   UNL d   1       1.724   1.145   0.540  0.00  0.00     0.284 C 
ATOM      9  H3  UNL d   1       1.844  -0.901   0.903  0.00  0.00     0.395 HD
ENDBRANCH   1   7
TORSDOF 1
ENDMDL
