MODEL 1
REMARK minimizedAffinity -3.04894018
REMARK minimizedRMSD -1
REMARK  1 active torsions:
REMARK  status: ('A' for Active; 'I' for Inactive)
REMARK    1  A    between atoms: N_2  and  C1_3 
ROOT
ATOM      1  C1  UNL d   1      -1.126  -0.781   0.622  0.00  0.00     0.143 A 
ATOM      2  C2  UNL d   1      -0.851  -1.828   1.509  0.00  0.00    -0.057 A 
ATOM      3  C3  UNL d   1      -1.718  -2.920   1.635  0.00  0.00     0.033 A 
ATOM      4  C4  UNL d   1      -2.895  -2.970   0.895  0.00  0.00    -0.042 A 
ATOM      5  C5  UNL d   1      -3.201  -1.928   0.026  0.00  0.00     0.033 A 
ATOM      6  C6  UNL d   1      -2.328  -0.844  -0.100  0.00  0.00    -0.057 A 
ENDROOT
BRANCH   1   7
ATOM      7  N   UNL d   1      -0.353   0.378   0.524  0.00  0.00    -0.732 N 
ATOM      8  C   UNL d   1       0.982   0.329  -0.033  0.00  0.00     0.284 C 
ATOM      9  H3  UNL d   1      -0.898   1.184   0.227  0.00  0.00     0.395 HD
ENDBRANCH   1   7
TORSDOF 1
ENDMDL
