MODEL 1
REMARK minimizedAffinity -2.69722414
REMARK minimizedRMSD -1
REMARK  1 active torsions:
REMARK  status: ('A' for Active; 'I' for Inactive)
REMARK    1  A    between atoms: N_2  and  C1_3 
ROOT
ATOM      1  C1  UNL d   1       1.609   0.760   0.275  0.00  0.00     0.143 A 
ATOM      2  C2  UNL d   1       0.298   1.015  -0.142  0.00  0.00    -0.057 A 
ATOM      3  C3  UNL d   1      -0.723   0.078   0.060  0.00  0.00     0.033 A 
ATOM      4  C4  UNL d   1      -0.443  -1.146   0.659  0.00  0.00    -0.042 A 
ATOM      5  C5  UNL d   1       0.858  -1.431   1.058  0.00  0.00     0.033 A 
ATOM      6  C6  UNL d   1       1.872  -0.488   0.859  0.00  0.00    -0.057 A 
ENDROOT
BRANCH   1   7
ATOM      7  N   UNL d   1       2.687   1.610   0.013  0.00  0.00    -0.732 N 
ATOM      8  C   UNL d   1       2.726   2.944   0.572  0.00  0.00     0.284 C 
ATOM      9  H3  UNL d   1       3.580   1.123   0.037  0.00  0.00     0.395 HD
ENDBRANCH   1   7
TORSDOF 1
ENDMDL
