MODEL 1
REMARK minimizedAffinity -4.1702404
REMARK minimizedRMSD -1
REMARK  1 active torsions:
REMARK  status: ('A' for Active; 'I' for Inactive)
REMARK    1  A    between atoms: N_2  and  C1_3 
ROOT
ATOM      1  C1  UNL d   1      -1.803  -1.888   0.142  0.00  0.00     0.143 A 
ATOM      2  C2  UNL d   1      -2.720  -1.508  -0.845  0.00  0.00    -0.057 A 
ATOM      3  C3  UNL d   1      -2.471  -0.417  -1.686  0.00  0.00     0.033 A 
ATOM      4  C4  UNL d   1      -1.309   0.333  -1.537  0.00  0.00    -0.042 A 
ATOM      5  C5  UNL d   1      -0.396  -0.011  -0.547  0.00  0.00     0.033 A 
ATOM      6  C6  UNL d   1      -0.647  -1.105   0.287  0.00  0.00    -0.057 A 
ENDROOT
BRANCH   1   7
ATOM      7  N   UNL d   1      -2.039  -2.901   1.074  0.00  0.00    -0.732 N 
ATOM      8  C   UNL d   1      -1.125  -3.117   2.175  0.00  0.00     0.284 C 
ATOM      9  H3  UNL d   1      -3.021  -2.974   1.328  0.00  0.00     0.395 HD
ENDBRANCH   1   7
TORSDOF 1
ENDMDL
