MODEL 1
REMARK minimizedAffinity -5.22899342
REMARK minimizedRMSD -1
REMARK  1 active torsions:
REMARK  status: ('A' for Active; 'I' for Inactive)
REMARK    1  A    between atoms: N_2  and  C1_3 
ROOT
ATOM      1  C1  UNL d   1      -0.795  -0.554   0.868  0.00  0.00     0.143 A 
ATOM      2  C2  UNL d   1      -0.658  -1.856   1.361  0.00  0.00    -0.057 A 
ATOM      3  C3  UNL d   1      -1.672  -2.807   1.194  0.00  0.00     0.033 A 
ATOM      4  C4  UNL d   1      -2.858  -2.462   0.553  0.00  0.00    -0.042 A 
ATOM      5  C5  UNL d   1      -3.026  -1.166   0.077  0.00  0.00     0.033 A 
ATOM      6  C6  UNL d   1      -2.007  -0.224   0.242  0.00  0.00    -0.057 A 
ENDROOT
BRANCH   1   7
ATOM      7  N   UNL d   1       0.136   0.463   1.090  0.00  0.00    -0.732 N 
ATOM      8  C   UNL d   1       0.305   1.530   0.126  0.00  0.00     0.284 C 
ATOM      9  H3  UNL d   1       0.150   0.773   2.059  0.00  0.00     0.395 HD
ENDBRANCH   1   7
TORSDOF 1
ENDMDL
