MODEL 1
REMARK minimizedAffinity 2.08137465
REMARK minimizedRMSD -1
REMARK  1 active torsions:
REMARK  status: ('A' for Active; 'I' for Inactive)
REMARK    1  A    between atoms: N_2  and  C1_3 
ROOT
ATOM      1  C1  UNL d   1       0.957   1.116   0.206  0.00  0.00     0.143 A 
ATOM      2  C2  UNL d   1       2.174   0.775   0.805  0.00  0.00    -0.057 A 
ATOM      3  C3  UNL d   1       3.104   1.756   1.170  0.00  0.00     0.033 A 
ATOM      4  C4  UNL d   1       2.845   3.098   0.914  0.00  0.00    -0.042 A 
ATOM      5  C5  UNL d   1       1.653   3.458   0.296  0.00  0.00     0.033 A 
ATOM      6  C6  UNL d   1       0.725   2.475  -0.060  0.00  0.00    -0.057 A 
ENDROOT
BRANCH   1   7
ATOM      7  N   UNL d   1       0.035   0.181  -0.269  0.00  0.00    -0.732 N 
ATOM      8  C   UNL d   1      -0.986   0.569  -1.219  0.00  0.00     0.284 C 
ATOM      9  H3  UNL d   1       0.462  -0.722  -0.464  0.00  0.00     0.395 HD
ENDBRANCH   1   7
TORSDOF 1
ENDMDL
