MODEL 1
REMARK minimizedAffinity -2.83913398
REMARK minimizedRMSD -1
REMARK  1 active torsions:
REMARK  status: ('A' for Active; 'I' for Inactive)
REMARK    1  A    between atoms: N_2  and  C1_3 
ROOT
ATOM      1  C1  UNL d   1      -0.551   0.311   0.129  0.00  0.00     0.143 A 
ATOM      2  C2  UNL d   1      -0.224   0.297  -1.232  0.00  0.00    -0.057 A 
ATOM      3  C3  UNL d   1      -1.155  -0.104  -2.198  0.00  0.00     0.033 A 
ATOM      4  C4  UNL d   1      -2.424  -0.528  -1.816  0.00  0.00    -0.042 A 
ATOM      5  C5  UNL d   1      -2.762  -0.547  -0.467  0.00  0.00     0.033 A 
ATOM      6  C6  UNL d   1      -1.830  -0.138   0.492  0.00  0.00    -0.057 A 
ENDROOT
BRANCH   1   7
ATOM      7  N   UNL d   1       0.362   0.605   1.145  0.00  0.00    -0.732 N 
ATOM      8  C   UNL d   1       1.626   1.240   0.839  0.00  0.00     0.284 C 
ATOM      9  H3  UNL d   1      -0.091   0.963   1.982  0.00  0.00     0.395 HD
ENDBRANCH   1   7
TORSDOF 1
ENDMDL
