MODEL 1
REMARK minimizedAffinity -3.6462543
REMARK minimizedRMSD -1
REMARK  1 active torsions:
REMARK  status: ('A' for Active; 'I' for Inactive)
REMARK    1  A    between atoms: N_2  and  C1_3 
ROOT
ATOM      1  C1  UNL d   1      -0.437   0.106   0.285  0.00  0.00     0.143 A 
ATOM      2  C2  UNL d   1      -0.750   0.231  -1.073  0.00  0.00    -0.057 A 
ATOM      3  C3  UNL d   1      -2.030  -0.072  -1.554  0.00  0.00     0.033 A 
ATOM      4  C4  UNL d   1      -3.014  -0.535  -0.686  0.00  0.00    -0.042 A 
ATOM      5  C5  UNL d   1      -2.717  -0.691   0.663  0.00  0.00     0.033 A 
ATOM      6  C6  UNL d   1      -1.440  -0.380   1.138  0.00  0.00    -0.057 A 
ENDROOT
BRANCH   1   7
ATOM      7  N   UNL d   1       0.844   0.297   0.808  0.00  0.00    -0.732 N 
ATOM      8  C   UNL d   1       1.974   0.517  -0.069  0.00  0.00     0.284 C 
ATOM      9  H3  UNL d   1       0.841   0.887   1.637  0.00  0.00     0.395 HD
ENDBRANCH   1   7
TORSDOF 1
ENDMDL
