MODEL 1
REMARK minimizedAffinity -2.54239631
REMARK minimizedRMSD -1
REMARK  1 active torsions:
REMARK  status: ('A' for Active; 'I' for Inactive)
REMARK    1  A    between atoms: N_2  and  C1_3 
ROOT
ATOM      1  C1  UNL d   1      -0.022  -0.083   0.060  0.00  0.00     0.143 A 
ATOM      2  C2  UNL d   1      -0.761  -0.126  -1.127  0.00  0.00    -0.057 A 
ATOM      3  C3  UNL d   1      -2.075  -0.607  -1.148  0.00  0.00     0.033 A 
ATOM      4  C4  UNL d   1      -2.666  -1.083   0.018  0.00  0.00    -0.042 A 
ATOM      5  C5  UNL d   1      -1.942  -1.074   1.205  0.00  0.00     0.033 A 
ATOM      6  C6  UNL d   1      -0.632  -0.586   1.220  0.00  0.00    -0.057 A 
ENDROOT
BRANCH   1   7
ATOM      7  N   UNL d   1       1.322   0.292   0.127  0.00  0.00    -0.732 N 
ATOM      8  C   UNL d   1       1.733   1.420   0.935  0.00  0.00     0.284 C 
ATOM      9  H3  UNL d   1       1.947  -0.509   0.183  0.00  0.00     0.395 HD
ENDBRANCH   1   7
TORSDOF 1
ENDMDL
