MODEL 1
REMARK minimizedAffinity -4.05496359
REMARK minimizedRMSD -1
REMARK  1 active torsions:
REMARK  status: ('A' for Active; 'I' for Inactive)
REMARK    1  A    between atoms: N_2  and  C1_3 
ROOT
ATOM      1  C1  UNL d   1       0.293  -0.007  -0.103  0.00  0.00     0.143 A 
ATOM      2  C2  UNL d   1      -0.093   0.780  -1.194  0.00  0.00    -0.057 A 
ATOM      3  C3  UNL d   1      -1.377   0.683  -1.741  0.00  0.00     0.033 A 
ATOM      4  C4  UNL d   1      -2.293  -0.228  -1.224  0.00  0.00    -0.042 A 
ATOM      5  C5  UNL d   1      -1.923  -1.038  -0.156  0.00  0.00     0.033 A 
ATOM      6  C6  UNL d   1      -0.641  -0.931   0.390  0.00  0.00    -0.057 A 
ENDROOT
BRANCH   1   7
ATOM      7  N   UNL d   1       1.587  -0.026   0.423  0.00  0.00    -0.732 N 
ATOM      8  C   UNL d   1       2.271   1.208   0.744  0.00  0.00     0.284 C 
ATOM      9  H3  UNL d   1       1.715  -0.764   1.112  0.00  0.00     0.395 HD
ENDBRANCH   1   7
TORSDOF 1
ENDMDL
