MODEL 1
REMARK minimizedAffinity -1.17100978
REMARK minimizedRMSD -1
REMARK  1 active torsions:
REMARK  status: ('A' for Active; 'I' for Inactive)
REMARK    1  A    between atoms: N_2  and  C1_3 
ROOT
ATOM      1  C1  UNL d   1      -1.434  -0.670  -0.522  0.00  0.00     0.143 A 
ATOM      2  C2  UNL d   1      -0.933  -1.210   0.667  0.00  0.00    -0.057 A 
ATOM      3  C3  UNL d   1       0.272  -0.757   1.218  0.00  0.00     0.033 A 
ATOM      4  C4  UNL d   1       1.013   0.228   0.572  0.00  0.00    -0.042 A 
ATOM      5  C5  UNL d   1       0.546   0.761  -0.624  0.00  0.00     0.033 A 
ATOM      6  C6  UNL d   1      -0.661   0.309  -1.166  0.00  0.00    -0.057 A 
ENDROOT
BRANCH   1   7
ATOM      7  N   UNL d   1      -2.575  -1.147  -1.172  0.00  0.00    -0.732 N 
ATOM      8  C   UNL d   1      -2.461  -1.922  -2.389  0.00  0.00     0.284 C 
ATOM      9  H3  UNL d   1      -3.276  -1.495  -0.522  0.00  0.00     0.395 HD
ENDBRANCH   1   7
TORSDOF 1
ENDMDL
