MODEL 1
REMARK minimizedAffinity -5.0209918
REMARK minimizedRMSD -1
REMARK  1 active torsions:
REMARK  status: ('A' for Active; 'I' for Inactive)
REMARK    1  A    between atoms: N_2  and  C1_3 
ROOT
ATOM      1  C1  UNL d   1      -1.959  -0.932   0.144  0.00  0.00     0.143 A 
ATOM      2  C2  UNL d   1      -0.792  -0.654   0.863  0.00  0.00    -0.057 A 
ATOM      3  C3  UNL d   1       0.231   0.128   0.312  0.00  0.00     0.033 A 
ATOM      4  C4  UNL d   1       0.116   0.622  -0.983  0.00  0.00    -0.042 A 
ATOM      5  C5  UNL d   1      -1.025   0.338  -1.725  0.00  0.00     0.033 A 
ATOM      6  C6  UNL d   1      -2.046  -0.438  -1.167  0.00  0.00    -0.057 A 
ENDROOT
BRANCH   1   7
ATOM      7  N   UNL d   1      -2.969  -1.784   0.600  0.00  0.00    -0.732 N 
ATOM      8  C   UNL d   1      -2.641  -2.997   1.318  0.00  0.00     0.284 C 
ATOM      9  H3  UNL d   1      -3.763  -1.276   0.983  0.00  0.00     0.395 HD
ENDBRANCH   1   7
TORSDOF 1
ENDMDL
