MODEL 1
REMARK minimizedAffinity 20.1582985
REMARK minimizedRMSD -1
REMARK  0 active torsions:
REMARK  status: ('A' for Active; 'I' for Inactive)
ROOT
ATOM      1  C1  DEN d   1       3.444   1.441  -2.292  0.00  0.00     0.130 A 
ATOM      2  C2  DEN d   1       2.227   1.476  -1.485  0.00  0.00    -0.031 A 
ATOM      3  C3  DEN d   1       1.586   2.791  -1.682  0.00  0.00     0.027 A 
ATOM      4  C4  DEN d   1       2.353   4.765  -3.155  0.00  0.00     0.027 A 
ATOM      5  C5  DEN d   1       3.332   5.209  -4.017  0.00  0.00    -0.003 A 
ATOM      6  C6  DEN d   1       4.425   4.447  -4.334  0.00  0.00     0.001 A 
ATOM      7  C7  DEN d   1       4.543   3.182  -3.822  0.00  0.00     0.017 A 
ATOM      8  C8  DEN d   1       3.564   2.731  -2.947  0.00  0.00    -0.094 A 
ATOM      9  C9  DEN d   1       2.460   3.511  -2.648  0.00  0.00    -0.072 A 
ENDROOT
TORSDOF 0
ENDMDL
