MODEL 1
REMARK minimizedAffinity 11.4554281
REMARK minimizedRMSD -1
REMARK  0 active torsions:
REMARK  status: ('A' for Active; 'I' for Inactive)
ROOT
ATOM      1  C1  DEN d   1      -4.557  -4.057  -6.000  0.00  0.00     0.130 A 
ATOM      2  C2  DEN d   1      -5.778  -3.256  -5.960  0.00  0.00    -0.031 A 
ATOM      3  C3  DEN d   1      -5.389  -1.832  -5.943  0.00  0.00     0.027 A 
ATOM      4  C4  DEN d   1      -3.029  -0.793  -5.977  0.00  0.00     0.027 A 
ATOM      5  C5  DEN d   1      -1.680  -1.072  -5.998  0.00  0.00    -0.003 A 
ATOM      6  C6  DEN d   1      -1.199  -2.354  -5.987  0.00  0.00     0.001 A 
ATOM      7  C7  DEN d   1      -2.075  -3.408  -6.000  0.00  0.00     0.017 A 
ATOM      8  C8  DEN d   1      -3.436  -3.135  -5.971  0.00  0.00    -0.094 A 
ATOM      9  C9  DEN d   1      -3.903  -1.831  -5.994  0.00  0.00    -0.072 A 
ENDROOT
TORSDOF 0
ENDMDL
