MODEL 1
REMARK minimizedAffinity 17.1311359
REMARK minimizedRMSD -1
REMARK  0 active torsions:
REMARK  status: ('A' for Active; 'I' for Inactive)
ROOT
ATOM      1  C1  DEN d   1       5.488   0.132   3.799  0.00  0.00     0.130 A 
ATOM      2  C2  DEN d   1       5.419   0.058   2.342  0.00  0.00    -0.031 A 
ATOM      3  C3  DEN d   1       5.557  -1.359   1.950  0.00  0.00     0.027 A 
ATOM      4  C4  DEN d   1       5.866  -3.435   3.449  0.00  0.00     0.027 A 
ATOM      5  C5  DEN d   1       5.995  -3.871   4.749  0.00  0.00    -0.003 A 
ATOM      6  C6  DEN d   1       5.999  -3.008   5.813  0.00  0.00     0.001 A 
ATOM      7  C7  DEN d   1       5.825  -1.666   5.598  0.00  0.00     0.017 A 
ATOM      8  C8  DEN d   1       5.701  -1.218   4.290  0.00  0.00    -0.094 A 
ATOM      9  C9  DEN d   1       5.688  -2.107   3.229  0.00  0.00    -0.072 A 
ENDROOT
TORSDOF 0
ENDMDL
