MODEL 1
REMARK minimizedAffinity 13.6119003
REMARK minimizedRMSD -1
REMARK  0 active torsions:
REMARK  status: ('A' for Active; 'I' for Inactive)
ROOT
ATOM      1  C1  DEN d   1      -5.091   0.152   5.014  0.00  0.00     0.130 A 
ATOM      2  C2  DEN d   1      -4.667  -0.838   6.000  0.00  0.00    -0.031 A 
ATOM      3  C3  DEN d   1      -3.322  -1.314   5.619  0.00  0.00     0.027 A 
ATOM      4  C4  DEN d   1      -1.861  -0.614   3.612  0.00  0.00     0.027 A 
ATOM      5  C5  DEN d   1      -1.801   0.186   2.493  0.00  0.00    -0.003 A 
ATOM      6  C6  DEN d   1      -2.838   1.000   2.120  0.00  0.00     0.001 A 
ATOM      7  C7  DEN d   1      -3.963   1.065   2.898  0.00  0.00     0.017 A 
ATOM      8  C8  DEN d   1      -4.035   0.255   4.024  0.00  0.00    -0.094 A 
ATOM      9  C9  DEN d   1      -2.971  -0.551   4.391  0.00  0.00    -0.072 A 
ENDROOT
TORSDOF 0
ENDMDL
