MODEL 1
REMARK minimizedAffinity 0.582747281
REMARK minimizedRMSD -1
REMARK  0 active torsions:
REMARK  status: ('A' for Active; 'I' for Inactive)
ROOT
ATOM      1  C1  DEN d   1      -1.217   1.752   3.387  0.00  0.00     0.130 A 
ATOM      2  C2  DEN d   1      -0.177   1.107   2.590  0.00  0.00    -0.031 A 
ATOM      3  C3  DEN d   1      -0.823   0.482   1.418  0.00  0.00     0.027 A 
ATOM      4  C4  DEN d   1      -3.317   0.455   0.761  0.00  0.00     0.027 A 
ATOM      5  C5  DEN d   1      -4.580   0.859   1.133  0.00  0.00    -0.003 A 
ATOM      6  C6  DEN d   1      -4.813   1.553   2.291  0.00  0.00     0.001 A 
ATOM      7  C7  DEN d   1      -3.762   1.905   3.095  0.00  0.00     0.017 A 
ATOM      8  C8  DEN d   1      -2.486   1.495   2.730  0.00  0.00    -0.094 A 
ATOM      9  C9  DEN d   1      -2.269   0.804   1.550  0.00  0.00    -0.072 A 
ENDROOT
TORSDOF 0
ENDMDL
