MODEL 1
REMARK minimizedAffinity 16.7238197
REMARK minimizedRMSD -1
REMARK  0 active torsions:
REMARK  status: ('A' for Active; 'I' for Inactive)
ROOT
ATOM      1  C1  DEN d   1       1.934   1.482   1.910  0.00  0.00     0.130 A 
ATOM      2  C2  DEN d   1       1.167   0.964   3.039  0.00  0.00    -0.031 A 
ATOM      3  C3  DEN d   1       2.021   0.008   3.772  0.00  0.00     0.027 A 
ATOM      4  C4  DEN d   1       4.447  -0.712   3.274  0.00  0.00     0.027 A 
ATOM      5  C5  DEN d   1       5.512  -0.551   2.414  0.00  0.00    -0.003 A 
ATOM      6  C6  DEN d   1       5.447   0.265   1.316  0.00  0.00     0.001 A 
ATOM      7  C7  DEN d   1       4.309   0.988   1.074  0.00  0.00     0.017 A 
ATOM      8  C8  DEN d   1       3.229   0.826   1.932  0.00  0.00    -0.094 A 
ATOM      9  C9  DEN d   1       3.318   0.005   3.043  0.00  0.00    -0.072 A 
ENDROOT
TORSDOF 0
ENDMDL
