MODEL 1
REMARK minimizedAffinity 12.5955553
REMARK minimizedRMSD -1
REMARK  0 active torsions:
REMARK  status: ('A' for Active; 'I' for Inactive)
ROOT
ATOM      1  C1  DEN d   1      -4.156   0.360   4.244  0.00  0.00     0.130 A 
ATOM      2  C2  DEN d   1      -5.500   0.740   3.818  0.00  0.00    -0.031 A 
ATOM      3  C3  DEN d   1      -5.485   0.899   2.350  0.00  0.00     0.027 A 
ATOM      4  C4  DEN d   1      -3.524   0.590   0.704  0.00  0.00     0.027 A 
ATOM      5  C5  DEN d   1      -2.186   0.281   0.597  0.00  0.00    -0.003 A 
ATOM      6  C6  DEN d   1      -1.409   0.012   1.693  0.00  0.00     0.001 A 
ATOM      7  C7  DEN d   1      -1.975   0.003   2.940  0.00  0.00     0.017 A 
ATOM      8  C8  DEN d   1      -3.322   0.321   3.057  0.00  0.00    -0.094 A 
ATOM      9  C9  DEN d   1      -4.093   0.577   1.936  0.00  0.00    -0.072 A 
ENDROOT
TORSDOF 0
ENDMDL
