MODEL 1
REMARK minimizedAffinity 0.0237192996
REMARK minimizedRMSD -1
REMARK  0 active torsions:
REMARK  status: ('A' for Active; 'I' for Inactive)
ROOT
ATOM      1  C1  DEN d   1      -2.542   0.177   3.042  0.00  0.00     0.130 A 
ATOM      2  C2  DEN d   1      -2.336   0.218   1.597  0.00  0.00    -0.031 A 
ATOM      3  C3  DEN d   1      -3.424   1.021   1.004  0.00  0.00     0.027 A 
ATOM      4  C4  DEN d   1      -5.394   2.203   2.177  0.00  0.00     0.027 A 
ATOM      5  C5  DEN d   1      -5.996   2.444   3.392  0.00  0.00    -0.003 A 
ATOM      6  C6  DEN d   1      -5.512   1.921   4.563  0.00  0.00     0.001 A 
ATOM      7  C7  DEN d   1      -4.368   1.169   4.548  0.00  0.00     0.017 A 
ATOM      8  C8  DEN d   1      -3.759   0.916   3.326  0.00  0.00    -0.094 A 
ATOM      9  C9  DEN d   1      -4.257   1.463   2.155  0.00  0.00    -0.072 A 
ENDROOT
TORSDOF 0
ENDMDL
