MODEL 1
REMARK minimizedAffinity 6.23818445
REMARK minimizedRMSD -1
REMARK  0 active torsions:
REMARK  status: ('A' for Active; 'I' for Inactive)
ROOT
ATOM      1  C1  DEN d   1      -3.526  -1.930   0.643  0.00  0.00     0.130 A 
ATOM      2  C2  DEN d   1      -4.907  -1.543   0.366  0.00  0.00    -0.031 A 
ATOM      3  C3  DEN d   1      -5.079  -0.137   0.784  0.00  0.00     0.027 A 
ATOM      4  C4  DEN d   1      -3.351   1.471   1.821  0.00  0.00     0.027 A 
ATOM      5  C5  DEN d   1      -2.049   1.592   2.256  0.00  0.00    -0.003 A 
ATOM      6  C6  DEN d   1      -1.166   0.547   2.215  0.00  0.00     0.001 A 
ATOM      7  C7  DEN d   1      -1.559  -0.654   1.687  0.00  0.00     0.017 A 
ATOM      8  C8  DEN d   1      -2.872  -0.786   1.254  0.00  0.00    -0.094 A 
ATOM      9  C9  DEN d   1      -3.747   0.286   1.292  0.00  0.00    -0.072 A 
ENDROOT
TORSDOF 0
ENDMDL
