MODEL 1
REMARK minimizedAffinity 10.527667
REMARK minimizedRMSD -1
REMARK  0 active torsions:
REMARK  status: ('A' for Active; 'I' for Inactive)
ROOT
ATOM      1  C1  DEN d   1      -1.609  -0.541   1.737  0.00  0.00     0.130 A 
ATOM      2  C2  DEN d   1      -2.486   0.625   1.799  0.00  0.00    -0.031 A 
ATOM      3  C3  DEN d   1      -3.780   0.256   1.191  0.00  0.00     0.027 A 
ATOM      4  C4  DEN d   1      -4.509  -1.997   0.169  0.00  0.00     0.027 A 
ATOM      5  C5  DEN d   1      -4.104  -3.282  -0.121  0.00  0.00    -0.003 A 
ATOM      6  C6  DEN d   1      -2.839  -3.728   0.154  0.00  0.00     0.001 A 
ATOM      7  C7  DEN d   1      -1.946  -2.897   0.779  0.00  0.00     0.017 A 
ATOM      8  C8  DEN d   1      -2.345  -1.599   1.068  0.00  0.00    -0.094 A 
ATOM      9  C9  DEN d   1      -3.632  -1.170   0.793  0.00  0.00    -0.072 A 
ENDROOT
TORSDOF 0
ENDMDL
