MODEL 1
REMARK minimizedAffinity 12.3712254
REMARK minimizedRMSD -1
REMARK  0 active torsions:
REMARK  status: ('A' for Active; 'I' for Inactive)
ROOT
ATOM      1  C1  DEN d   1      -2.426   1.911   2.473  0.00  0.00     0.130 A 
ATOM      2  C2  DEN d   1      -2.740   0.672   1.768  0.00  0.00    -0.031 A 
ATOM      3  C3  DEN d   1      -1.551  -0.201   1.826  0.00  0.00     0.027 A 
ATOM      4  C4  DEN d   1       0.734   0.243   2.939  0.00  0.00     0.027 A 
ATOM      5  C5  DEN d   1       1.478   1.159   3.648  0.00  0.00    -0.003 A 
ATOM      6  C6  DEN d   1       0.989   2.394   3.983  0.00  0.00     0.001 A 
ATOM      7  C7  DEN d   1      -0.297   2.729   3.648  0.00  0.00     0.017 A 
ATOM      8  C8  DEN d   1      -1.050   1.813   2.926  0.00  0.00    -0.094 A 
ATOM      9  C9  DEN d   1      -0.542   0.565   2.607  0.00  0.00    -0.072 A 
ENDROOT
TORSDOF 0
ENDMDL
