MODEL 1
REMARK minimizedAffinity 0.131427094
REMARK minimizedRMSD -1
REMARK  0 active torsions:
REMARK  status: ('A' for Active; 'I' for Inactive)
ROOT
ATOM      1  N1  IND d   1       0.793  -0.665  -1.820  0.00  0.00    -0.196 N 
ATOM      2  C2  IND d   1       0.936  -1.157  -0.552  0.00  0.00     0.054 A 
ATOM      3  C3  IND d   1      -0.195  -1.787  -0.162  0.00  0.00    -0.031 A 
ATOM      4  C4  IND d   1      -2.364  -2.220  -1.479  0.00  0.00     0.051 A 
ATOM      5  C5  IND d   1      -2.980  -1.932  -2.665  0.00  0.00    -0.031 A 
ATOM      6  C6  IND d   1      -2.356  -1.194  -3.650  0.00  0.00     0.015 A 
ATOM      7  C7  IND d   1      -1.083  -0.724  -3.490  0.00  0.00    -0.016 A 
ATOM      8  C8  IND d   1      -0.457  -1.009  -2.285  0.00  0.00    -0.047 A 
ATOM      9  C9  IND d   1      -1.100  -1.721  -1.265  0.00  0.00    -0.096 A 
ATOM     10  HN1 IND d   1       1.385  -0.217  -2.253  0.00  0.00     0.298 HD
ENDROOT
TORSDOF 0
ENDMDL
