MODEL 1
REMARK minimizedAffinity 1.36575651
REMARK minimizedRMSD -1
REMARK  0 active torsions:
REMARK  status: ('A' for Active; 'I' for Inactive)
ROOT
ATOM      1  N1  IND d   1       0.524   1.390   1.773  0.00  0.00    -0.196 N 
ATOM      2  C2  IND d   1      -0.794   1.429   2.133  0.00  0.00     0.054 A 
ATOM      3  C3  IND d   1      -1.500   0.513   1.432  0.00  0.00    -0.031 A 
ATOM      4  C4  IND d   1      -0.677  -1.224  -0.281  0.00  0.00     0.051 A 
ATOM      5  C5  IND d   1       0.439  -1.620  -0.963  0.00  0.00    -0.031 A 
ATOM      6  C6  IND d   1       1.667  -1.022  -0.761  0.00  0.00     0.015 A 
ATOM      7  C7  IND d   1       1.826  -0.010   0.142  0.00  0.00    -0.016 A 
ATOM      8  C8  IND d   1       0.693   0.399   0.831  0.00  0.00    -0.047 A 
ATOM      9  C9  IND d   1      -0.564  -0.174   0.599  0.00  0.00    -0.096 A 
ATOM     10  HN1 IND d   1       1.144   1.899   2.084  0.00  0.00     0.298 HD
ENDROOT
TORSDOF 0
ENDMDL
