MODEL 1
REMARK minimizedAffinity -2.4132297
REMARK minimizedRMSD -1
REMARK  0 active torsions:
REMARK  status: ('A' for Active; 'I' for Inactive)
ROOT
ATOM      1  N1  IND d   1       4.077   1.053   1.151  0.00  0.00    -0.196 N 
ATOM      2  C2  IND d   1       4.703   1.681   2.192  0.00  0.00     0.054 A 
ATOM      3  C3  IND d   1       3.791   2.232   3.024  0.00  0.00    -0.031 A 
ATOM      4  C4  IND d   1       1.220   2.140   2.927  0.00  0.00     0.051 A 
ATOM      5  C5  IND d   1       0.187   1.712   2.142  0.00  0.00    -0.031 A 
ATOM      6  C6  IND d   1       0.401   1.026   0.964  0.00  0.00     0.015 A 
ATOM      7  C7  IND d   1       1.663   0.731   0.531  0.00  0.00    -0.016 A 
ATOM      8  C8  IND d   1       2.715   1.171   1.322  0.00  0.00    -0.047 A 
ATOM      9  C9  IND d   1       2.505   1.904   2.497  0.00  0.00    -0.096 A 
ATOM     10  HN1 IND d   1       4.469   0.652   0.499  0.00  0.00     0.298 HD
ENDROOT
TORSDOF 0
ENDMDL
