MODEL 1
REMARK minimizedAffinity 4.67977619
REMARK minimizedRMSD -1
REMARK  0 active torsions:
REMARK  status: ('A' for Active; 'I' for Inactive)
ROOT
ATOM      1  N1  IND d   1       1.013  -1.105  -0.748  0.00  0.00    -0.196 N 
ATOM      2  C2  IND d   1       2.130  -0.577  -1.334  0.00  0.00     0.054 A 
ATOM      3  C3  IND d   1       2.437   0.614  -0.772  0.00  0.00    -0.031 A 
ATOM      4  C4  IND d   1       1.304   1.838   1.189  0.00  0.00     0.051 A 
ATOM      5  C5  IND d   1       0.225   1.767   2.024  0.00  0.00    -0.031 A 
ATOM      6  C6  IND d   1      -0.663   0.711   1.979  0.00  0.00     0.015 A 
ATOM      7  C7  IND d   1      -0.498  -0.322   1.100  0.00  0.00    -0.016 A 
ATOM      8  C8  IND d   1       0.593  -0.249   0.246  0.00  0.00    -0.047 A 
ATOM      9  C9  IND d   1       1.474   0.840   0.258  0.00  0.00    -0.096 A 
ATOM     10  HN1 IND d   1       0.636  -1.847  -0.965  0.00  0.00     0.298 HD
ENDROOT
TORSDOF 0
ENDMDL
