MODEL 1
REMARK minimizedAffinity 2.55372024
REMARK minimizedRMSD -1
REMARK  0 active torsions:
REMARK  status: ('A' for Active; 'I' for Inactive)
ROOT
ATOM      1  N1  IND d   1      -0.850  -5.038   2.133  0.00  0.00    -0.196 N 
ATOM      2  C2  IND d   1      -0.379  -3.774   2.354  0.00  0.00     0.054 A 
ATOM      3  C3  IND d   1      -0.954  -2.901   1.496  0.00  0.00    -0.031 A 
ATOM      4  C4  IND d   1      -2.767  -3.313  -0.285  0.00  0.00     0.051 A 
ATOM      5  C5  IND d   1      -3.484  -4.312  -0.881  0.00  0.00    -0.031 A 
ATOM      6  C6  IND d   1      -3.359  -5.630  -0.494  0.00  0.00     0.015 A 
ATOM      7  C7  IND d   1      -2.517  -5.999   0.517  0.00  0.00    -0.016 A 
ATOM      8  C8  IND d   1      -1.782  -4.988   1.120  0.00  0.00    -0.047 A 
ATOM      9  C9  IND d   1      -1.873  -3.654   0.702  0.00  0.00    -0.096 A 
ATOM     10  HN1 IND d   1      -0.604  -5.746   2.555  0.00  0.00     0.298 HD
ENDROOT
TORSDOF 0
ENDMDL
