MODEL 1
REMARK minimizedAffinity 8.14234543
REMARK minimizedRMSD -1
REMARK  0 active torsions:
REMARK  status: ('A' for Active; 'I' for Inactive)
ROOT
ATOM      1  N1  IND d   1       1.479   0.618   1.758  0.00  0.00    -0.196 N 
ATOM      2  C2  IND d   1       1.528   1.834   2.380  0.00  0.00     0.054 A 
ATOM      3  C3  IND d   1       0.305   2.411   2.381  0.00  0.00    -0.031 A 
ATOM      4  C4  IND d   1      -1.937   1.495   1.509  0.00  0.00     0.051 A 
ATOM      5  C5  IND d   1      -2.478   0.442   0.827  0.00  0.00    -0.031 A 
ATOM      6  C6  IND d   1      -1.713  -0.630   0.415  0.00  0.00     0.015 A 
ATOM      7  C7  IND d   1      -0.374  -0.693   0.680  0.00  0.00    -0.016 A 
ATOM      8  C8  IND d   1       0.180   0.378   1.366  0.00  0.00    -0.047 A 
ATOM      9  C9  IND d   1      -0.583   1.488   1.750  0.00  0.00    -0.096 A 
ATOM     10  HN1 IND d   1       2.147   0.091   1.632  0.00  0.00     0.298 HD
ENDROOT
TORSDOF 0
ENDMDL
