MODEL 1
REMARK minimizedAffinity 17.3338661
REMARK minimizedRMSD -1
REMARK  0 active torsions:
REMARK  status: ('A' for Active; 'I' for Inactive)
ROOT
ATOM      1  N1  IND d   1       1.171   2.471   2.227  0.00  0.00    -0.196 N 
ATOM      2  C2  IND d   1       1.416   1.473   3.129  0.00  0.00     0.054 A 
ATOM      3  C3  IND d   1       0.282   0.784   3.387  0.00  0.00    -0.031 A 
ATOM      4  C4  IND d   1      -2.066   1.057   2.368  0.00  0.00     0.051 A 
ATOM      5  C5  IND d   1      -2.790   1.857   1.528  0.00  0.00    -0.031 A 
ATOM      6  C6  IND d   1      -2.217   2.922   0.863  0.00  0.00     0.015 A 
ATOM      7  C7  IND d   1      -0.892   3.221   1.004  0.00  0.00    -0.016 A 
ATOM      8  C8  IND d   1      -0.156   2.416   1.862  0.00  0.00    -0.047 A 
ATOM      9  C9  IND d   1      -0.741   1.360   2.573  0.00  0.00    -0.096 A 
ATOM     10  HN1 IND d   1       1.749   3.038   1.937  0.00  0.00     0.298 HD
ENDROOT
TORSDOF 0
ENDMDL
