MODEL 1
REMARK minimizedAffinity 2.565171
REMARK minimizedRMSD -1
REMARK  0 active torsions:
REMARK  status: ('A' for Active; 'I' for Inactive)
ROOT
ATOM      1  N1  IND d   1      -5.182  -3.372  -2.103  0.00  0.00    -0.196 N 
ATOM      2  C2  IND d   1      -5.994  -4.425  -2.422  0.00  0.00     0.054 A 
ATOM      3  C3  IND d   1      -5.416  -5.592  -2.055  0.00  0.00    -0.031 A 
ATOM      4  C4  IND d   1      -3.192  -6.000  -0.825  0.00  0.00     0.051 A 
ATOM      5  C5  IND d   1      -2.085  -5.350  -0.357  0.00  0.00    -0.031 A 
ATOM      6  C6  IND d   1      -1.952  -3.979  -0.446  0.00  0.00     0.015 A 
ATOM      7  C7  IND d   1      -2.932  -3.203  -0.999  0.00  0.00    -0.016 A 
ATOM      8  C8  IND d   1      -4.054  -3.861  -1.482  0.00  0.00    -0.047 A 
ATOM      9  C9  IND d   1      -4.175  -5.255  -1.433  0.00  0.00    -0.096 A 
ATOM     10  HN1 IND d   1      -5.349  -2.544  -2.263  0.00  0.00     0.298 HD
ENDROOT
TORSDOF 0
ENDMDL
