MODEL 1
REMARK minimizedAffinity 4.07969379
REMARK minimizedRMSD -1
REMARK  0 active torsions:
REMARK  status: ('A' for Active; 'I' for Inactive)
ROOT
ATOM      1  N1  IND d   1       1.232   1.713   2.421  0.00  0.00    -0.196 N 
ATOM      2  C2  IND d   1      -0.083   1.387   2.604  0.00  0.00     0.054 A 
ATOM      3  C3  IND d   1      -0.461   0.442   1.714  0.00  0.00    -0.031 A 
ATOM      4  C4  IND d   1       0.939  -0.784  -0.065  0.00  0.00     0.051 A 
ATOM      5  C5  IND d   1       2.182  -0.802  -0.634  0.00  0.00    -0.031 A 
ATOM      6  C6  IND d   1       3.193   0.033  -0.203  0.00  0.00     0.015 A 
ATOM      7  C7  IND d   1       3.001   0.912   0.825  0.00  0.00    -0.016 A 
ATOM      8  C8  IND d   1       1.738   0.938   1.400  0.00  0.00    -0.047 A 
ATOM      9  C9  IND d   1       0.696   0.124   0.939  0.00  0.00    -0.096 A 
ATOM     10  HN1 IND d   1       1.670   2.303   2.868  0.00  0.00     0.298 HD
ENDROOT
TORSDOF 0
ENDMDL
