MODEL 1
REMARK minimizedAffinity -2.65044212
REMARK minimizedRMSD -1
REMARK  0 active torsions:
REMARK  status: ('A' for Active; 'I' for Inactive)
ROOT
ATOM      1  N1  IND d   1       0.801  -0.727  -0.194  0.00  0.00    -0.196 N 
ATOM      2  C2  IND d   1       2.003  -0.421  -0.769  0.00  0.00     0.054 A 
ATOM      3  C3  IND d   1       2.394   0.821  -0.407  0.00  0.00    -0.031 A 
ATOM      4  C4  IND d   1       1.269   2.487   1.201  0.00  0.00     0.051 A 
ATOM      5  C5  IND d   1       0.136   2.670   1.942  0.00  0.00    -0.031 A 
ATOM      6  C6  IND d   1      -0.852   1.710   2.013  0.00  0.00     0.015 A 
ATOM      7  C7  IND d   1      -0.738   0.520   1.351  0.00  0.00    -0.016 A 
ATOM      8  C8  IND d   1       0.408   0.334   0.592  0.00  0.00    -0.047 A 
ATOM      9  C9  IND d   1       1.394   1.322   0.482  0.00  0.00    -0.096 A 
ATOM     10  HN1 IND d   1       0.364  -1.460  -0.305  0.00  0.00     0.298 HD
ENDROOT
TORSDOF 0
ENDMDL
