MODEL 1
REMARK minimizedAffinity 12.4599428
REMARK minimizedRMSD -1
REMARK  0 active torsions:
REMARK  status: ('A' for Active; 'I' for Inactive)
ROOT
ATOM      1  N1  IND d   1       1.352  -1.433  -0.538  0.00  0.00    -0.196 N 
ATOM      2  C2  IND d   1       2.292  -1.508  -1.528  0.00  0.00     0.054 A 
ATOM      3  C3  IND d   1       3.150  -0.467  -1.441  0.00  0.00    -0.031 A 
ATOM      4  C4  IND d   1       3.260   1.421   0.305  0.00  0.00     0.051 A 
ATOM      5  C5  IND d   1       2.592   1.933   1.382  0.00  0.00    -0.031 A 
ATOM      6  C6  IND d   1       1.454   1.335   1.886  0.00  0.00     0.015 A 
ATOM      7  C7  IND d   1       0.947   0.192   1.336  0.00  0.00    -0.016 A 
ATOM      8  C8  IND d   1       1.620  -0.327   0.238  0.00  0.00    -0.047 A 
ATOM      9  C9  IND d   1       2.750   0.299  -0.304  0.00  0.00    -0.096 A 
ATOM     10  HN1 IND d   1       0.703  -1.985  -0.420  0.00  0.00     0.298 HD
ENDROOT
TORSDOF 0
ENDMDL
