MODEL 1
REMARK minimizedAffinity 1.10311007
REMARK minimizedRMSD -1
REMARK  0 active torsions:
REMARK  status: ('A' for Active; 'I' for Inactive)
ROOT
ATOM      1  N1  IND d   1      -4.135   4.069   0.593  0.00  0.00    -0.196 N 
ATOM      2  C2  IND d   1      -4.513   5.110  -0.209  0.00  0.00     0.054 A 
ATOM      3  C3  IND d   1      -5.250   6.000   0.493  0.00  0.00    -0.031 A 
ATOM      4  C4  IND d   1      -5.872   6.000   2.991  0.00  0.00     0.051 A 
ATOM      5  C5  IND d   1      -5.785   5.239   4.123  0.00  0.00    -0.031 A 
ATOM      6  C6  IND d   1      -5.127   4.026   4.137  0.00  0.00     0.015 A 
ATOM      7  C7  IND d   1      -4.520   3.532   3.017  0.00  0.00    -0.016 A 
ATOM      8  C8  IND d   1      -4.613   4.298   1.864  0.00  0.00    -0.047 A 
ATOM      9  C9  IND d   1      -5.315   5.510   1.833  0.00  0.00    -0.096 A 
ATOM     10  HN1 IND d   1      -3.675   3.386   0.345  0.00  0.00     0.298 HD
ENDROOT
TORSDOF 0
ENDMDL
