MODEL 1
REMARK minimizedAffinity -2.18403792
REMARK minimizedRMSD -1
REMARK  0 active torsions:
REMARK  status: ('A' for Active; 'I' for Inactive)
ROOT
ATOM      1  N1  IND d   1       0.578  -1.381  -0.421  0.00  0.00    -0.196 N 
ATOM      2  C2  IND d   1       1.870  -1.210  -0.834  0.00  0.00     0.054 A 
ATOM      3  C3  IND d   1       2.409  -0.116  -0.250  0.00  0.00    -0.031 A 
ATOM      4  C4  IND d   1       1.388   1.478   1.494  0.00  0.00     0.051 A 
ATOM      5  C5  IND d   1       0.222   1.749   2.154  0.00  0.00    -0.031 A 
ATOM      6  C6  IND d   1      -0.907   0.973   1.988  0.00  0.00     0.015 A 
ATOM      7  C7  IND d   1      -0.908  -0.115   1.160  0.00  0.00    -0.016 A 
ATOM      8  C8  IND d   1       0.272  -0.388   0.484  0.00  0.00    -0.047 A 
ATOM      9  C9  IND d   1       1.408   0.420   0.616  0.00  0.00    -0.096 A 
ATOM     10  HN1 IND d   1       0.046  -2.004  -0.682  0.00  0.00     0.298 HD
ENDROOT
TORSDOF 0
ENDMDL
