MODEL 1
REMARK minimizedAffinity 9.97844315
REMARK minimizedRMSD -1
REMARK  0 active torsions:
REMARK  status: ('A' for Active; 'I' for Inactive)
ROOT
ATOM      1  N1  IND d   1       1.386   2.542   1.753  0.00  0.00    -0.196 N 
ATOM      2  C2  IND d   1       0.041   2.509   1.995  0.00  0.00     0.054 A 
ATOM      3  C3  IND d   1      -0.530   1.474   1.337  0.00  0.00    -0.031 A 
ATOM      4  C4  IND d   1       0.569  -0.350  -0.109  0.00  0.00     0.051 A 
ATOM      5  C5  IND d   1       1.769  -0.720  -0.649  0.00  0.00    -0.031 A 
ATOM      6  C6  IND d   1       2.927  -0.008  -0.409  0.00  0.00     0.015 A 
ATOM      7  C7  IND d   1       2.929   1.098   0.393  0.00  0.00    -0.016 A 
ATOM      8  C8  IND d   1       1.711   1.480   0.938  0.00  0.00    -0.047 A 
ATOM      9  C9  IND d   1       0.526   0.787   0.663  0.00  0.00    -0.096 A 
ATOM     10  HN1 IND d   1       1.936   3.127   2.059  0.00  0.00     0.298 HD
ENDROOT
TORSDOF 0
ENDMDL
