MODEL 1
REMARK minimizedAffinity 0.728570819
REMARK minimizedRMSD -1
REMARK  0 active torsions:
REMARK  status: ('A' for Active; 'I' for Inactive)
ROOT
ATOM      1  N1  IND d   1       1.965   0.006  -0.541  0.00  0.00    -0.196 N 
ATOM      2  C2  IND d   1       1.241  -1.144  -0.696  0.00  0.00     0.054 A 
ATOM      3  C3  IND d   1       0.044  -1.033  -0.077  0.00  0.00    -0.031 A 
ATOM      4  C4  IND d   1      -0.976   0.980   1.162  0.00  0.00     0.051 A 
ATOM      5  C5  IND d   1      -0.679   2.241   1.595  0.00  0.00    -0.031 A 
ATOM      6  C6  IND d   1       0.539   2.835   1.331  0.00  0.00     0.015 A 
ATOM      7  C7  IND d   1       1.504   2.191   0.611  0.00  0.00    -0.016 A 
ATOM      8  C8  IND d   1       1.208   0.907   0.175  0.00  0.00    -0.047 A 
ATOM      9  C9  IND d   1      -0.009   0.283   0.476  0.00  0.00    -0.096 A 
ATOM     10  HN1 IND d   1       2.759   0.142  -0.840  0.00  0.00     0.298 HD
ENDROOT
TORSDOF 0
ENDMDL
