MODEL 1
REMARK minimizedAffinity -1.30772448
REMARK minimizedRMSD -1
REMARK  1 active torsions:
REMARK  status: ('A' for Active; 'I' for Inactive)
REMARK    1  A    between atoms: C1_2  and  C2_3 
ROOT
ATOM      1  C2  UNL d   1       3.704  -1.145  -1.539  0.00  0.00    -0.073 A 
ATOM      2  C3  UNL d   1       3.306  -0.016  -2.263  0.00  0.00    -0.002 A 
ATOM      3  C4  UNL d   1       1.962   0.360  -2.301  0.00  0.00     0.004 A 
ATOM      4  C5  UNL d   1       1.006  -0.383  -1.610  0.00  0.00    -0.004 A 
ATOM      5  C6  UNL d   1       1.385  -1.508  -0.871  0.00  0.00    -0.075 A 
ATOM      6  C7  UNL d   1       0.368  -2.320  -0.124  0.00  0.00     0.076 C 
ATOM      7  C8  UNL d   1       2.736  -1.881  -0.840  0.00  0.00     0.001 A 
ENDROOT
BRANCH   1   8
ATOM      8  C1  UNL d   1       5.154  -1.551  -1.490  0.00  0.00     0.053 C 
ATOM      9  C   UNL d   1       5.997  -0.560  -0.704  0.00  0.00     0.018 C 
ENDBRANCH   1   8
TORSDOF 1
ENDMDL
