MODEL 1
REMARK minimizedAffinity 5.9959693
REMARK minimizedRMSD -1
REMARK  1 active torsions:
REMARK  status: ('A' for Active; 'I' for Inactive)
REMARK    1  A    between atoms: C1_2  and  C2_3 
ROOT
ATOM      1  C2  UNL d   1       0.910  -1.683  -1.567  0.00  0.00    -0.073 A 
ATOM      2  C3  UNL d   1       0.444  -1.693  -2.887  0.00  0.00    -0.002 A 
ATOM      3  C4  UNL d   1       0.852  -0.706  -3.786  0.00  0.00     0.004 A 
ATOM      4  C5  UNL d   1       1.735   0.294  -3.377  0.00  0.00    -0.004 A 
ATOM      5  C6  UNL d   1       2.220   0.313  -2.066  0.00  0.00    -0.075 A 
ATOM      6  C7  UNL d   1       3.168   1.384  -1.610  0.00  0.00     0.076 C 
ATOM      7  C8  UNL d   1       1.804  -0.679  -1.168  0.00  0.00     0.001 A 
ENDROOT
BRANCH   1   8
ATOM      8  C1  UNL d   1       0.477  -2.750  -0.595  0.00  0.00     0.053 C 
ATOM      9  C   UNL d   1      -0.435  -2.197   0.489  0.00  0.00     0.018 C 
ENDBRANCH   1   8
TORSDOF 1
ENDMDL
