MODEL 1
REMARK minimizedAffinity 14.8243513
REMARK minimizedRMSD -1
REMARK  1 active torsions:
REMARK  status: ('A' for Active; 'I' for Inactive)
REMARK    1  A    between atoms: C1_2  and  C2_3 
ROOT
ATOM      1  C2  UNL d   1      -0.037  -3.134  -2.480  0.00  0.00    -0.073 A 
ATOM      2  C3  UNL d   1      -0.402  -3.532  -1.189  0.00  0.00    -0.002 A 
ATOM      3  C4  UNL d   1       0.012  -2.793  -0.080  0.00  0.00     0.004 A 
ATOM      4  C5  UNL d   1       0.787  -1.646  -0.251  0.00  0.00    -0.004 A 
ATOM      5  C6  UNL d   1       1.152  -1.226  -1.534  0.00  0.00    -0.075 A 
ATOM      6  C7  UNL d   1       1.988   0.004  -1.734  0.00  0.00     0.076 C 
ATOM      7  C8  UNL d   1       0.735  -1.975  -2.642  0.00  0.00     0.001 A 
ENDROOT
BRANCH   1   8
ATOM      8  C1  UNL d   1      -0.487  -3.926  -3.681  0.00  0.00     0.053 C 
ATOM      9  C   UNL d   1      -0.913  -5.337  -3.307  0.00  0.00     0.018 C 
ENDBRANCH   1   8
TORSDOF 1
ENDMDL
