MODEL 1
REMARK minimizedAffinity 24.6871948
REMARK minimizedRMSD -1
REMARK  1 active torsions:
REMARK  status: ('A' for Active; 'I' for Inactive)
REMARK    1  A    between atoms: C1_2  and  C2_3 
ROOT
ATOM      1  C2  UNL d   1      -3.197   0.873   4.022  0.00  0.00    -0.073 A 
ATOM      2  C3  UNL d   1      -3.096   0.614   5.394  0.00  0.00    -0.002 A 
ATOM      3  C4  UNL d   1      -3.936  -0.322   5.998  0.00  0.00     0.004 A 
ATOM      4  C5  UNL d   1      -4.880  -1.013   5.237  0.00  0.00    -0.004 A 
ATOM      5  C6  UNL d   1      -4.988  -0.776   3.863  0.00  0.00    -0.075 A 
ATOM      6  C7  UNL d   1      -5.999  -1.509   3.031  0.00  0.00     0.076 C 
ATOM      7  C8  UNL d   1      -4.142   0.167   3.264  0.00  0.00     0.001 A 
ENDROOT
BRANCH   1   8
ATOM      8  C1  UNL d   1      -2.287   1.878   3.364  0.00  0.00     0.053 C 
ATOM      9  C   UNL d   1      -0.971   1.255   2.926  0.00  0.00     0.018 C 
ENDBRANCH   1   8
TORSDOF 1
ENDMDL
