MODEL 1
REMARK minimizedAffinity 9.52644634
REMARK minimizedRMSD -1
REMARK  1 active torsions:
REMARK  status: ('A' for Active; 'I' for Inactive)
REMARK    1  A    between atoms: C1_2  and  C2_3 
ROOT
ATOM      1  C2  UNL d   1      -1.405  -2.960  -1.317  0.00  0.00    -0.073 A 
ATOM      2  C3  UNL d   1      -0.429  -2.014  -0.986  0.00  0.00    -0.002 A 
ATOM      3  C4  UNL d   1      -0.156  -1.721   0.351  0.00  0.00     0.004 A 
ATOM      4  C5  UNL d   1      -0.851  -2.375   1.369  0.00  0.00    -0.004 A 
ATOM      5  C6  UNL d   1      -1.822  -3.332   1.057  0.00  0.00    -0.075 A 
ATOM      6  C7  UNL d   1      -2.580  -4.043   2.140  0.00  0.00     0.076 C 
ATOM      7  C8  UNL d   1      -2.092  -3.619  -0.288  0.00  0.00     0.001 A 
ENDROOT
BRANCH   1   8
ATOM      8  C1  UNL d   1      -1.698  -3.285  -2.760  0.00  0.00     0.053 C 
ATOM      9  C   UNL d   1      -0.634  -4.184  -3.369  0.00  0.00     0.018 C 
ENDBRANCH   1   8
TORSDOF 1
ENDMDL
