MODEL 1
REMARK minimizedAffinity 3.77086973
REMARK minimizedRMSD -1
REMARK  1 active torsions:
REMARK  status: ('A' for Active; 'I' for Inactive)
REMARK    1  A    between atoms: C1_2  and  C2_3 
ROOT
ATOM      1  C2  UNL d   1      -0.919  -3.174  -1.130  0.00  0.00    -0.073 A 
ATOM      2  C3  UNL d   1      -0.115  -2.205  -0.519  0.00  0.00    -0.002 A 
ATOM      3  C4  UNL d   1      -0.194  -1.989   0.857  0.00  0.00     0.004 A 
ATOM      4  C5  UNL d   1      -1.072  -2.744   1.637  0.00  0.00    -0.004 A 
ATOM      5  C6  UNL d   1      -1.874  -3.725   1.046  0.00  0.00    -0.075 A 
ATOM      6  C7  UNL d   1      -2.825  -4.543   1.870  0.00  0.00     0.076 C 
ATOM      7  C8  UNL d   1      -1.791  -3.933  -0.337  0.00  0.00     0.001 A 
ENDROOT
BRANCH   1   8
ATOM      8  C1  UNL d   1      -0.832  -3.415  -2.615  0.00  0.00     0.053 C 
ATOM      9  C   UNL d   1      -0.824  -4.897  -2.953  0.00  0.00     0.018 C 
ENDBRANCH   1   8
TORSDOF 1
ENDMDL
