MODEL 1
REMARK minimizedAffinity -4.56483269
REMARK minimizedRMSD -1
REMARK  1 active torsions:
REMARK  status: ('A' for Active; 'I' for Inactive)
REMARK    1  A    between atoms: C1_2  and  C2_3 
ROOT
ATOM      1  C2  UNL d   1       0.095   0.027  -0.062  0.00  0.00    -0.073 A 
ATOM      2  C3  UNL d   1       0.485  -1.230   0.413  0.00  0.00    -0.002 A 
ATOM      3  C4  UNL d   1      -0.149  -1.793   1.521  0.00  0.00     0.004 A 
ATOM      4  C5  UNL d   1      -1.184  -1.109   2.160  0.00  0.00    -0.004 A 
ATOM      5  C6  UNL d   1      -1.596   0.143   1.693  0.00  0.00    -0.075 A 
ATOM      6  C7  UNL d   1      -2.705   0.893   2.370  0.00  0.00     0.076 C 
ATOM      7  C8  UNL d   1      -0.951   0.703   0.581  0.00  0.00     0.001 A 
ENDROOT
BRANCH   1   8
ATOM      8  C1  UNL d   1       0.774   0.636  -1.262  0.00  0.00     0.053 C 
ATOM      9  C   UNL d   1       2.248   0.907  -1.007  0.00  0.00     0.018 C 
ENDBRANCH   1   8
TORSDOF 1
ENDMDL
