MODEL 1
REMARK minimizedAffinity -4.09787369
REMARK minimizedRMSD -1
REMARK  1 active torsions:
REMARK  status: ('A' for Active; 'I' for Inactive)
REMARK    1  A    between atoms: C1_2  and  C2_3 
ROOT
ATOM      1  C2  UNL d   1       1.858   0.788  -1.633  0.00  0.00    -0.073 A 
ATOM      2  C3  UNL d   1       1.452   0.474  -2.935  0.00  0.00    -0.002 A 
ATOM      3  C4  UNL d   1       0.538  -0.557  -3.160  0.00  0.00     0.004 A 
ATOM      4  C5  UNL d   1       0.016  -1.278  -2.087  0.00  0.00    -0.004 A 
ATOM      5  C6  UNL d   1       0.400  -0.972  -0.777  0.00  0.00    -0.075 A 
ATOM      6  C7  UNL d   1      -0.150  -1.740   0.388  0.00  0.00     0.076 C 
ATOM      7  C8  UNL d   1       1.320   0.063  -0.560  0.00  0.00     0.001 A 
ENDROOT
BRANCH   1   8
ATOM      8  C1  UNL d   1       2.839   1.904  -1.385  0.00  0.00     0.053 C 
ATOM      9  C   UNL d   1       4.248   1.383  -1.152  0.00  0.00     0.018 C 
ENDBRANCH   1   8
TORSDOF 1
ENDMDL
