MODEL 1
REMARK minimizedAffinity -1.31892037
REMARK minimizedRMSD -1
REMARK  1 active torsions:
REMARK  status: ('A' for Active; 'I' for Inactive)
REMARK    1  A    between atoms: C1_2  and  C2_3 
ROOT
ATOM      1  C2  UNL d   1       0.435  -1.015  -1.422  0.00  0.00    -0.073 A 
ATOM      2  C3  UNL d   1      -0.123  -1.868  -0.463  0.00  0.00    -0.002 A 
ATOM      3  C4  UNL d   1      -0.326  -1.422   0.844  0.00  0.00     0.004 A 
ATOM      4  C5  UNL d   1       0.020  -0.119   1.203  0.00  0.00    -0.004 A 
ATOM      5  C6  UNL d   1       0.569   0.751   0.256  0.00  0.00    -0.075 A 
ATOM      6  C7  UNL d   1       0.948   2.155   0.626  0.00  0.00     0.076 C 
ATOM      7  C8  UNL d   1       0.771   0.296  -1.054  0.00  0.00     0.001 A 
ENDROOT
BRANCH   1   8
ATOM      8  C1  UNL d   1       0.650  -1.490  -2.836  0.00  0.00     0.053 C 
ATOM      9  C   UNL d   1       0.157  -2.914  -3.040  0.00  0.00     0.018 C 
ENDBRANCH   1   8
TORSDOF 1
ENDMDL
