MODEL 1
REMARK minimizedAffinity -0.490064442
REMARK minimizedRMSD -1
REMARK  1 active torsions:
REMARK  status: ('A' for Active; 'I' for Inactive)
REMARK    1  A    between atoms: C1_2  and  C2_3 
ROOT
ATOM      1  C2  UNL d   1      -5.247   2.033  -5.857  0.00  0.00    -0.073 A 
ATOM      2  C3  UNL d   1      -3.874   2.037  -5.583  0.00  0.00    -0.002 A 
ATOM      3  C4  UNL d   1      -3.186   3.243  -5.446  0.00  0.00     0.004 A 
ATOM      4  C5  UNL d   1      -3.863   4.456  -5.574  0.00  0.00    -0.004 A 
ATOM      5  C6  UNL d   1      -5.237   4.473  -5.836  0.00  0.00    -0.075 A 
ATOM      6  C7  UNL d   1      -5.979   5.769  -5.980  0.00  0.00     0.076 C 
ATOM      7  C8  UNL d   1      -5.920   3.257  -5.975  0.00  0.00     0.001 A 
ENDROOT
BRANCH   1   8
ATOM      8  C1  UNL d   1      -5.995   0.733  -6.000  0.00  0.00     0.053 C 
ATOM      9  C   UNL d   1      -5.303  -0.406  -5.269  0.00  0.00     0.018 C 
ENDBRANCH   1   8
TORSDOF 1
ENDMDL
