MODEL 1
REMARK minimizedAffinity -5.26068306
REMARK minimizedRMSD -1
REMARK  1 active torsions:
REMARK  status: ('A' for Active; 'I' for Inactive)
REMARK    1  A    between atoms: C1_2  and  C2_3 
ROOT
ATOM      1  C2  UNL d   1      -1.521  -1.173   0.552  0.00  0.00    -0.073 A 
ATOM      2  C3  UNL d   1      -1.795  -0.086   1.390  0.00  0.00    -0.002 A 
ATOM      3  C4  UNL d   1      -0.828   0.896   1.609  0.00  0.00     0.004 A 
ATOM      4  C5  UNL d   1       0.418   0.805   0.988  0.00  0.00    -0.004 A 
ATOM      5  C6  UNL d   1       0.707  -0.267   0.138  0.00  0.00    -0.075 A 
ATOM      6  C7  UNL d   1       2.043  -0.380  -0.535  0.00  0.00     0.076 C 
ATOM      7  C8  UNL d   1      -0.269  -1.250  -0.075  0.00  0.00     0.001 A 
ENDROOT
BRANCH   1   8
ATOM      8  C1  UNL d   1      -2.564  -2.232   0.307  0.00  0.00     0.053 C 
ATOM      9  C   UNL d   1      -3.966  -1.648   0.244  0.00  0.00     0.018 C 
ENDBRANCH   1   8
TORSDOF 1
ENDMDL
