MODEL 1
REMARK minimizedAffinity -6.08114433
REMARK minimizedRMSD -1
REMARK  1 active torsions:
REMARK  status: ('A' for Active; 'I' for Inactive)
REMARK    1  A    between atoms: C1_2  and  C2_3 
ROOT
ATOM      1  C2  UNL d   1       0.250  -0.213   0.107  0.00  0.00    -0.073 A 
ATOM      2  C3  UNL d   1       0.868   0.978  -0.291  0.00  0.00    -0.002 A 
ATOM      3  C4  UNL d   1       1.728   0.992  -1.391  0.00  0.00     0.004 A 
ATOM      4  C5  UNL d   1       1.973  -0.181  -2.105  0.00  0.00    -0.004 A 
ATOM      5  C6  UNL d   1       1.356  -1.378  -1.729  0.00  0.00    -0.075 A 
ATOM      6  C7  UNL d   1       1.610  -2.648  -2.487  0.00  0.00     0.076 C 
ATOM      7  C8  UNL d   1       0.496  -1.385  -0.623  0.00  0.00     0.001 A 
ENDROOT
BRANCH   1   8
ATOM      8  C1  UNL d   1      -0.684  -0.232   1.290  0.00  0.00     0.053 C 
ATOM      9  C   UNL d   1      -2.143  -0.270   0.863  0.00  0.00     0.018 C 
ENDBRANCH   1   8
TORSDOF 1
ENDMDL
