MODEL 1
REMARK minimizedAffinity -4.5893898
REMARK minimizedRMSD -1
REMARK  0 active torsions:
REMARK  status: ('A' for Active; 'I' for Inactive)
ROOT
ATOM      1  C2' OXE d   1       1.524   1.337  -0.844  0.00  0.00     0.078 C 
ATOM      2  C1' OXE d   1      -0.198  -0.879  -0.782  0.00  0.00     0.078 C 
ATOM      3  C1  OXE d   1      -0.710   0.425  -0.223  0.00  0.00    -0.078 A 
ATOM      4  C2  OXE d   1       0.156   1.492  -0.215  0.00  0.00    -0.078 A 
ATOM      5  C3  OXE d   1      -0.284   2.732   0.239  0.00  0.00     0.003 A 
ATOM      6  C4  OXE d   1      -1.547   2.865   0.829  0.00  0.00    -0.002 A 
ATOM      7  C5  OXE d   1      -2.430   1.780   0.866  0.00  0.00    -0.002 A 
ATOM      8  C6  OXE d   1      -2.043   0.567   0.307  0.00  0.00     0.003 A 
ENDROOT
TORSDOF 0
ENDMDL
