MODEL 1
REMARK minimizedAffinity 0.108655021
REMARK minimizedRMSD -1
REMARK  0 active torsions:
REMARK  status: ('A' for Active; 'I' for Inactive)
ROOT
ATOM      1  C2' OXE d   1      -0.706   3.201   1.799  0.00  0.00     0.078 C 
ATOM      2  C1' OXE d   1      -2.533   1.073   1.701  0.00  0.00     0.078 C 
ATOM      3  C1  OXE d   1      -1.222   0.909   0.973  0.00  0.00    -0.078 A 
ATOM      4  C2  OXE d   1      -0.354   1.974   0.987  0.00  0.00    -0.078 A 
ATOM      5  C3  OXE d   1       0.892   1.856   0.378  0.00  0.00     0.003 A 
ATOM      6  C4  OXE d   1       1.206   0.721  -0.380  0.00  0.00    -0.002 A 
ATOM      7  C5  OXE d   1       0.319  -0.360  -0.441  0.00  0.00    -0.002 A 
ATOM      8  C6  OXE d   1      -0.879  -0.299   0.263  0.00  0.00     0.003 A 
ENDROOT
TORSDOF 0
ENDMDL
