MODEL 1
REMARK minimizedAffinity -3.83774734
REMARK minimizedRMSD -1
REMARK  0 active torsions:
REMARK  status: ('A' for Active; 'I' for Inactive)
ROOT
ATOM      1  C2' OXE d   1       2.565   0.345   0.192  0.00  0.00     0.078 C 
ATOM      2  C1' OXE d   1       0.363  -1.396   0.199  0.00  0.00     0.078 C 
ATOM      3  C1  OXE d   1       0.093   0.081   0.344  0.00  0.00    -0.078 A 
ATOM      4  C2  OXE d   1       1.179   0.921   0.387  0.00  0.00    -0.078 A 
ATOM      5  C3  OXE d   1       0.984   2.297   0.464  0.00  0.00     0.003 A 
ATOM      6  C4  OXE d   1      -0.301   2.821   0.654  0.00  0.00    -0.002 A 
ATOM      7  C5  OXE d   1      -1.418   1.979   0.654  0.00  0.00    -0.002 A 
ATOM      8  C6  OXE d   1      -1.242   0.614   0.458  0.00  0.00     0.003 A 
ENDROOT
TORSDOF 0
ENDMDL
