MODEL 1
REMARK minimizedAffinity -3.23750329
REMARK minimizedRMSD -1
REMARK  0 active torsions:
REMARK  status: ('A' for Active; 'I' for Inactive)
ROOT
ATOM      1  C2' OXE d   1      -1.735   0.615   0.648  0.00  0.00     0.078 C 
ATOM      2  C1' OXE d   1      -0.751  -2.009   0.818  0.00  0.00     0.078 C 
ATOM      3  C1  OXE d   1       0.194  -0.933   0.344  0.00  0.00    -0.078 A 
ATOM      4  C2  OXE d   1      -0.309   0.340   0.219  0.00  0.00    -0.078 A 
ATOM      5  C3  OXE d   1       0.534   1.380  -0.161  0.00  0.00     0.003 A 
ATOM      6  C4  OXE d   1       1.848   1.116  -0.565  0.00  0.00    -0.002 A 
ATOM      7  C5  OXE d   1       2.369  -0.180  -0.483  0.00  0.00    -0.002 A 
ATOM      8  C6  OXE d   1       1.569  -1.206   0.009  0.00  0.00     0.003 A 
ENDROOT
TORSDOF 0
ENDMDL
