MODEL 1
REMARK minimizedAffinity -5.05939102
REMARK minimizedRMSD -1
REMARK  0 active torsions:
REMARK  status: ('A' for Active; 'I' for Inactive)
ROOT
ATOM      1  C2' OXE d   1       0.523   3.189  -0.445  0.00  0.00     0.078 C 
ATOM      2  C1' OXE d   1       2.643   1.357  -0.625  0.00  0.00     0.078 C 
ATOM      3  C1  OXE d   1       1.288   0.828  -0.224  0.00  0.00    -0.078 A 
ATOM      4  C2  OXE d   1       0.268   1.739  -0.094  0.00  0.00    -0.078 A 
ATOM      5  C3  OXE d   1      -1.014   1.297   0.220  0.00  0.00     0.003 A 
ATOM      6  C4  OXE d   1      -1.240  -0.044   0.554  0.00  0.00    -0.002 A 
ATOM      7  C5  OXE d   1      -0.205  -0.981   0.466  0.00  0.00    -0.002 A 
ATOM      8  C6  OXE d   1       1.052  -0.570   0.038  0.00  0.00     0.003 A 
ENDROOT
TORSDOF 0
ENDMDL
