MODEL 1
REMARK minimizedAffinity -1.39406538
REMARK minimizedRMSD -1
REMARK  0 active torsions:
REMARK  status: ('A' for Active; 'I' for Inactive)
ROOT
ATOM      1  C2' OXE d   1       1.791   0.141  -0.387  0.00  0.00     0.078 C 
ATOM      2  C1' OXE d   1      -0.376  -1.041   0.949  0.00  0.00     0.078 C 
ATOM      3  C1  OXE d   1      -0.468   0.428   0.622  0.00  0.00    -0.078 A 
ATOM      4  C2  OXE d   1       0.617   1.009   0.010  0.00  0.00    -0.078 A 
ATOM      5  C3  OXE d   1       0.562   2.349  -0.363  0.00  0.00     0.003 A 
ATOM      6  C4  OXE d   1      -0.523   3.147   0.017  0.00  0.00    -0.002 A 
ATOM      7  C5  OXE d   1      -1.622   2.585   0.676  0.00  0.00    -0.002 A 
ATOM      8  C6  OXE d   1      -1.628   1.221   0.948  0.00  0.00     0.003 A 
ENDROOT
TORSDOF 0
ENDMDL
