MODEL 1
REMARK minimizedAffinity -3.31079698
REMARK minimizedRMSD -1
REMARK  0 active torsions:
REMARK  status: ('A' for Active; 'I' for Inactive)
ROOT
ATOM      1  C2' OXE d   1       0.187   3.074  -0.298  0.00  0.00     0.078 C 
ATOM      2  C1' OXE d   1      -1.813   2.121   1.426  0.00  0.00     0.078 C 
ATOM      3  C1  OXE d   1      -0.945   1.106   0.726  0.00  0.00    -0.078 A 
ATOM      4  C2  OXE d   1       0.000   1.580  -0.152  0.00  0.00    -0.078 A 
ATOM      5  C3  OXE d   1       0.864   0.689  -0.783  0.00  0.00     0.003 A 
ATOM      6  C4  OXE d   1       0.678  -0.693  -0.650  0.00  0.00    -0.002 A 
ATOM      7  C5  OXE d   1      -0.305  -1.198   0.208  0.00  0.00    -0.002 A 
ATOM      8  C6  OXE d   1      -1.095  -0.313   0.935  0.00  0.00     0.003 A 
ENDROOT
TORSDOF 0
ENDMDL
