MODEL 1
REMARK minimizedAffinity -1.93540192
REMARK minimizedRMSD -1
REMARK  0 active torsions:
REMARK  status: ('A' for Active; 'I' for Inactive)
ROOT
ATOM      1  C2' OXE d   1      -1.741   0.427   1.707  0.00  0.00     0.078 C 
ATOM      2  C1' OXE d   1      -0.026  -0.629  -0.248  0.00  0.00     0.078 C 
ATOM      3  C1  OXE d   1      -0.003   0.862  -0.024  0.00  0.00    -0.078 A 
ATOM      4  C2  OXE d   1      -0.879   1.375   0.902  0.00  0.00    -0.078 A 
ATOM      5  C3  OXE d   1      -0.861   2.738   1.187  0.00  0.00     0.003 A 
ATOM      6  C4  OXE d   1      -0.068   3.609   0.430  0.00  0.00    -0.002 A 
ATOM      7  C5  OXE d   1       0.803   3.112  -0.545  0.00  0.00    -0.002 A 
ATOM      8  C6  OXE d   1       0.878   1.739  -0.754  0.00  0.00     0.003 A 
ENDROOT
TORSDOF 0
ENDMDL
