MODEL 1
REMARK minimizedAffinity 0.232306376
REMARK minimizedRMSD -1
REMARK  0 active torsions:
REMARK  status: ('A' for Active; 'I' for Inactive)
ROOT
ATOM      1  C2' OXE d   1       2.346   4.395  -3.733  0.00  0.00     0.078 C 
ATOM      2  C1' OXE d   1       2.101   2.757  -6.000  0.00  0.00     0.078 C 
ATOM      3  C1  OXE d   1       3.482   2.973  -5.434  0.00  0.00    -0.078 A 
ATOM      4  C2  OXE d   1       3.599   3.813  -4.353  0.00  0.00    -0.078 A 
ATOM      5  C3  OXE d   1       4.843   4.004  -3.758  0.00  0.00     0.003 A 
ATOM      6  C4  OXE d   1       5.997   3.470  -4.344  0.00  0.00    -0.002 A 
ATOM      7  C5  OXE d   1       5.906   2.644  -5.469  0.00  0.00    -0.002 A 
ATOM      8  C6  OXE d   1       4.654   2.352  -6.000  0.00  0.00     0.003 A 
ENDROOT
TORSDOF 0
ENDMDL
