MODEL 1
REMARK minimizedAffinity 8.82549286
REMARK minimizedRMSD -1
REMARK  0 active torsions:
REMARK  status: ('A' for Active; 'I' for Inactive)
ROOT
ATOM      1  C2' OXE d   1       2.697   1.377  -4.878  0.00  0.00     0.078 C 
ATOM      2  C1' OXE d   1       2.634   3.769  -3.410  0.00  0.00     0.078 C 
ATOM      3  C1  OXE d   1       3.812   3.534  -4.323  0.00  0.00    -0.078 A 
ATOM      4  C2  OXE d   1       3.857   2.340  -5.002  0.00  0.00    -0.078 A 
ATOM      5  C3  OXE d   1       4.893   2.096  -5.899  0.00  0.00     0.003 A 
ATOM      6  C4  OXE d   1       5.968   2.988  -6.000  0.00  0.00    -0.002 A 
ATOM      7  C5  OXE d   1       5.961   4.192  -5.287  0.00  0.00    -0.002 A 
ATOM      8  C6  OXE d   1       4.872   4.499  -4.478  0.00  0.00     0.003 A 
ENDROOT
TORSDOF 0
ENDMDL
