MODEL 1
REMARK minimizedAffinity -3.35431194
REMARK minimizedRMSD -1
REMARK  0 active torsions:
REMARK  status: ('A' for Active; 'I' for Inactive)
ROOT
ATOM      1  C2' OXE d   1      -0.384   3.117   0.401  0.00  0.00     0.078 C 
ATOM      2  C1' OXE d   1      -2.331   1.217   1.093  0.00  0.00     0.078 C 
ATOM      3  C1  OXE d   1      -1.055   0.718   0.462  0.00  0.00    -0.078 A 
ATOM      4  C2  OXE d   1      -0.128   1.659   0.083  0.00  0.00    -0.078 A 
ATOM      5  C3  OXE d   1       1.090   1.250  -0.454  0.00  0.00     0.003 A 
ATOM      6  C4  OXE d   1       1.314  -0.099  -0.753  0.00  0.00    -0.002 A 
ATOM      7  C5  OXE d   1       0.366  -1.070  -0.412  0.00  0.00    -0.002 A 
ATOM      8  C6  OXE d   1      -0.803  -0.683   0.233  0.00  0.00     0.003 A 
ENDROOT
TORSDOF 0
ENDMDL
