MODEL 1
REMARK minimizedAffinity -2.44488049
REMARK minimizedRMSD -1
REMARK  0 active torsions:
REMARK  status: ('A' for Active; 'I' for Inactive)
ROOT
ATOM      1  C2' OXE d   1      -1.686  -4.632  -3.108  0.00  0.00     0.078 C 
ATOM      2  C1' OXE d   1      -2.757  -4.291  -0.535  0.00  0.00     0.078 C 
ATOM      3  C1  OXE d   1      -1.509  -3.521  -0.885  0.00  0.00    -0.078 A 
ATOM      4  C2  OXE d   1      -0.965  -3.729  -2.130  0.00  0.00    -0.078 A 
ATOM      5  C3  OXE d   1       0.155  -3.003  -2.523  0.00  0.00     0.003 A 
ATOM      6  C4  OXE d   1       0.822  -2.177  -1.610  0.00  0.00    -0.002 A 
ATOM      7  C5  OXE d   1       0.307  -1.981  -0.324  0.00  0.00    -0.002 A 
ATOM      8  C6  OXE d   1      -0.878  -2.611   0.039  0.00  0.00     0.003 A 
ENDROOT
TORSDOF 0
ENDMDL
