MODEL 1
REMARK minimizedAffinity -2.81045341
REMARK minimizedRMSD -1
REMARK  0 active torsions:
REMARK  status: ('A' for Active; 'I' for Inactive)
ROOT
ATOM      1  C2' OXE d   1       1.562  -1.836   0.955  0.00  0.00     0.078 C 
ATOM      2  C1' OXE d   1      -0.239   0.066  -0.053  0.00  0.00     0.078 C 
ATOM      3  C1  OXE d   1      -0.169  -1.272  -0.745  0.00  0.00    -0.078 A 
ATOM      4  C2  OXE d   1       0.748  -2.180  -0.274  0.00  0.00    -0.078 A 
ATOM      5  C3  OXE d   1       0.816  -3.449  -0.841  0.00  0.00     0.003 A 
ATOM      6  C4  OXE d   1       0.067  -3.756  -1.983  0.00  0.00    -0.002 A 
ATOM      7  C5  OXE d   1      -0.845  -2.831  -2.504  0.00  0.00    -0.002 A 
ATOM      8  C6  OXE d   1      -1.005  -1.603  -1.872  0.00  0.00     0.003 A 
ENDROOT
TORSDOF 0
ENDMDL
