MODEL 1
REMARK minimizedAffinity -3.01748681
REMARK minimizedRMSD -1
REMARK  0 active torsions:
REMARK  status: ('A' for Active; 'I' for Inactive)
ROOT
ATOM      1  C2' OXE d   1      -2.064  -0.136   1.071  0.00  0.00     0.078 C 
ATOM      2  C1' OXE d   1      -0.026  -1.734  -0.012  0.00  0.00     0.078 C 
ATOM      3  C1  OXE d   1       0.129  -0.236  -0.105  0.00  0.00    -0.078 A 
ATOM      4  C2  OXE d   1      -0.895   0.537   0.386  0.00  0.00    -0.078 A 
ATOM      5  C3  OXE d   1      -0.778   1.924   0.374  0.00  0.00     0.003 A 
ATOM      6  C4  OXE d   1       0.302   2.539  -0.271  0.00  0.00    -0.002 A 
ATOM      7  C5  OXE d   1       1.337   1.769  -0.813  0.00  0.00    -0.002 A 
ATOM      8  C6  OXE d   1       1.286   0.384  -0.701  0.00  0.00     0.003 A 
ENDROOT
TORSDOF 0
ENDMDL
