MODEL 1
REMARK minimizedAffinity -2.80578756
REMARK minimizedRMSD -1
REMARK  0 active torsions:
REMARK  status: ('A' for Active; 'I' for Inactive)
ROOT
ATOM      1  C2' OXE d   1      -0.749  -1.408   0.002  0.00  0.00     0.078 C 
ATOM      2  C1' OXE d   1       1.306   0.447   0.467  0.00  0.00     0.078 C 
ATOM      3  C1  OXE d   1      -0.118   0.923   0.613  0.00  0.00    -0.078 A 
ATOM      4  C2  OXE d   1      -1.118   0.021   0.338  0.00  0.00    -0.078 A 
ATOM      5  C3  OXE d   1      -2.448   0.392   0.510  0.00  0.00     0.003 A 
ATOM      6  C4  OXE d   1      -2.780   1.719   0.811  0.00  0.00    -0.002 A 
ATOM      7  C5  OXE d   1      -1.778   2.664   1.056  0.00  0.00    -0.002 A 
ATOM      8  C6  OXE d   1      -0.445   2.272   1.003  0.00  0.00     0.003 A 
ENDROOT
TORSDOF 0
ENDMDL
