MODEL 1
REMARK minimizedAffinity -3.30436611
REMARK minimizedRMSD -1
REMARK  0 active torsions:
REMARK  status: ('A' for Active; 'I' for Inactive)
ROOT
ATOM      1  C2' OXE d   1      -1.000   2.559   0.331  0.00  0.00     0.078 C 
ATOM      2  C1' OXE d   1       1.760   2.058   0.431  0.00  0.00     0.078 C 
ATOM      3  C1  OXE d   1       0.846   0.900   0.118  0.00  0.00    -0.078 A 
ATOM      4  C2  OXE d   1      -0.507   1.144   0.118  0.00  0.00    -0.078 A 
ATOM      5  C3  OXE d   1      -1.391   0.123  -0.218  0.00  0.00     0.003 A 
ATOM      6  C4  OXE d   1      -0.927  -1.185  -0.404  0.00  0.00    -0.002 A 
ATOM      7  C5  OXE d   1       0.443  -1.463  -0.368  0.00  0.00    -0.002 A 
ATOM      8  C6  OXE d   1       1.344  -0.426  -0.151  0.00  0.00     0.003 A 
ENDROOT
TORSDOF 0
ENDMDL
