MODEL 1
REMARK minimizedAffinity -1.92099023
REMARK minimizedRMSD -1
REMARK  0 active torsions:
REMARK  status: ('A' for Active; 'I' for Inactive)
ROOT
ATOM      1  C2' OXE d   1      -0.375  -0.341   0.422  0.00  0.00     0.078 C 
ATOM      2  C1' OXE d   1       1.736  -2.171   0.704  0.00  0.00     0.078 C 
ATOM      3  C1  OXE d   1       0.732  -2.418  -0.394  0.00  0.00    -0.078 A 
ATOM      4  C2  OXE d   1      -0.323  -1.544  -0.496  0.00  0.00    -0.078 A 
ATOM      5  C3  OXE d   1      -1.247  -1.695  -1.526  0.00  0.00     0.003 A 
ATOM      6  C4  OXE d   1      -1.198  -2.816  -2.364  0.00  0.00    -0.002 A 
ATOM      7  C5  OXE d   1      -0.153  -3.740  -2.252  0.00  0.00    -0.002 A 
ATOM      8  C6  OXE d   1       0.841  -3.533  -1.302  0.00  0.00     0.003 A 
ENDROOT
TORSDOF 0
ENDMDL
