MODEL 1
REMARK minimizedAffinity -3.86151552
REMARK minimizedRMSD -1
REMARK  0 active torsions:
REMARK  status: ('A' for Active; 'I' for Inactive)
ROOT
ATOM      1  C2' OXE d   1       2.950   1.574  -0.411  0.00  0.00     0.078 C 
ATOM      2  C1' OXE d   1       0.481   2.908  -0.327  0.00  0.00     0.078 C 
ATOM      3  C1  OXE d   1       0.480   1.412  -0.130  0.00  0.00    -0.078 A 
ATOM      4  C2  OXE d   1       1.687   0.762  -0.219  0.00  0.00    -0.078 A 
ATOM      5  C3  OXE d   1       1.750  -0.610   0.009  0.00  0.00     0.003 A 
ATOM      6  C4  OXE d   1       0.577  -1.355   0.176  0.00  0.00    -0.002 A 
ATOM      7  C5  OXE d   1      -0.667  -0.717   0.230  0.00  0.00    -0.002 A 
ATOM      8  C6  OXE d   1      -0.729   0.667   0.122  0.00  0.00     0.003 A 
ENDROOT
TORSDOF 0
ENDMDL
