MODEL 1
REMARK minimizedAffinity -3.80284071
REMARK minimizedRMSD -1
REMARK  0 active torsions:
REMARK  status: ('A' for Active; 'I' for Inactive)
ROOT
ATOM      1  C2' OXE d   1       2.573   1.493  -0.786  0.00  0.00     0.078 C 
ATOM      2  C1' OXE d   1       0.466   3.299  -0.365  0.00  0.00     0.078 C 
ATOM      3  C1  OXE d   1       0.204   1.838  -0.098  0.00  0.00    -0.078 A 
ATOM      4  C2  OXE d   1       1.226   0.956  -0.351  0.00  0.00    -0.078 A 
ATOM      5  C3  OXE d   1       1.055  -0.396  -0.069  0.00  0.00     0.003 A 
ATOM      6  C4  OXE d   1      -0.196  -0.886   0.323  0.00  0.00    -0.002 A 
ATOM      7  C5  OXE d   1      -1.263  -0.009   0.549  0.00  0.00    -0.002 A 
ATOM      8  C6  OXE d   1      -1.068   1.358   0.385  0.00  0.00     0.003 A 
ENDROOT
TORSDOF 0
ENDMDL
