MODEL 1
REMARK minimizedAffinity -0.562063098
REMARK minimizedRMSD -1
REMARK  1 active torsions:
REMARK  status: ('A' for Active; 'I' for Inactive)
REMARK    1  A    between atoms: C3_4  and  O_7 
ROOT
ATOM      1  C   UNL d   1      -1.475  -0.640  -0.781  0.00  0.00    -0.033 A 
ATOM      2  C1  UNL d   1      -0.159  -0.262  -0.506  0.00  0.00     0.039 A 
ATOM      3  C2  UNL d   1       0.318  -0.289   0.806  0.00  0.00    -0.080 A 
ATOM      4  C3  UNL d   1      -0.530  -0.696   1.833  0.00  0.00     0.150 A 
ATOM      5  C4  UNL d   1      -1.841  -1.077   1.566  0.00  0.00    -0.007 A 
ATOM      6  C5  UNL d   1      -2.316  -1.048   0.255  0.00  0.00     0.039 A 
ENDROOT
BRANCH   4   7
ATOM      7  O   UNL d   1      -0.111  -0.734   3.129  0.00  0.00    -0.526 OA
ATOM      8  H5  UNL d   1       0.807  -0.417   3.166  0.00  0.00     0.418 HD
ENDBRANCH   4   7
TORSDOF 1
ENDMDL
