MODEL 1
REMARK minimizedAffinity -2.8293314
REMARK minimizedRMSD -1
REMARK  1 active torsions:
REMARK  status: ('A' for Active; 'I' for Inactive)
REMARK    1  A    between atoms: C3_4  and  O_7 
ROOT
ATOM      1  C   UNL d   1      -0.007   0.229  -1.419  0.00  0.00    -0.033 A 
ATOM      2  C1  UNL d   1       1.090  -0.574  -1.740  0.00  0.00     0.039 A 
ATOM      3  C2  UNL d   1       1.929  -1.048  -0.730  0.00  0.00    -0.080 A 
ATOM      4  C3  UNL d   1       1.661  -0.714   0.594  0.00  0.00     0.150 A 
ATOM      5  C4  UNL d   1       0.568   0.082   0.921  0.00  0.00    -0.007 A 
ATOM      6  C5  UNL d   1      -0.269   0.555  -0.088  0.00  0.00     0.039 A 
ENDROOT
BRANCH   4   7
ATOM      7  O   UNL d   1       2.455  -1.150   1.614  0.00  0.00    -0.526 OA
ATOM      8  H5  UNL d   1       3.186  -1.665   1.235  0.00  0.00     0.418 HD
ENDBRANCH   4   7
TORSDOF 1
ENDMDL
