MODEL 1
REMARK minimizedAffinity -3.21276116
REMARK minimizedRMSD -1
REMARK  1 active torsions:
REMARK  status: ('A' for Active; 'I' for Inactive)
REMARK    1  A    between atoms: C3_4  and  O_7 
ROOT
ATOM      1  C   UNL d   1      -0.601   0.990  -0.766  0.00  0.00    -0.033 A 
ATOM      2  C1  UNL d   1      -0.394   0.207  -1.903  0.00  0.00     0.039 A 
ATOM      3  C2  UNL d   1       0.620  -0.752  -1.917  0.00  0.00    -0.080 A 
ATOM      4  C3  UNL d   1       1.419  -0.919  -0.789  0.00  0.00     0.150 A 
ATOM      5  C4  UNL d   1       1.217  -0.144   0.348  0.00  0.00    -0.007 A 
ATOM      6  C5  UNL d   1       0.204   0.813   0.361  0.00  0.00     0.039 A 
ENDROOT
BRANCH   4   7
ATOM      7  O   UNL d   1       2.425  -1.839  -0.758  0.00  0.00    -0.526 OA
ATOM      8  H5  UNL d   1       2.466  -2.279  -1.623  0.00  0.00     0.418 HD
ENDBRANCH   4   7
TORSDOF 1
ENDMDL
