MODEL 1
REMARK minimizedAffinity -3.27184033
REMARK minimizedRMSD -1
REMARK  1 active torsions:
REMARK  status: ('A' for Active; 'I' for Inactive)
REMARK    1  A    between atoms: C3_4  and  O_7 
ROOT
ATOM      1  C   UNL d   1       0.489  -0.875   0.665  0.00  0.00    -0.033 A 
ATOM      2  C1  UNL d   1      -0.807  -0.689   0.180  0.00  0.00     0.039 A 
ATOM      3  C2  UNL d   1      -1.142   0.491  -0.486  0.00  0.00    -0.080 A 
ATOM      4  C3  UNL d   1      -0.173   1.475  -0.662  0.00  0.00     0.150 A 
ATOM      5  C4  UNL d   1       1.121   1.295  -0.185  0.00  0.00    -0.007 A 
ATOM      6  C5  UNL d   1       1.454   0.116   0.482  0.00  0.00     0.039 A 
ENDROOT
BRANCH   4   7
ATOM      7  O   UNL d   1      -0.454   2.645  -1.302  0.00  0.00    -0.526 OA
ATOM      8  H5  UNL d   1      -1.393   2.642  -1.552  0.00  0.00     0.418 HD
ENDBRANCH   4   7
TORSDOF 1
ENDMDL
