MODEL 1
REMARK minimizedAffinity -4.41189289
REMARK minimizedRMSD -1
REMARK  1 active torsions:
REMARK  status: ('A' for Active; 'I' for Inactive)
REMARK    1  A    between atoms: C3_4  and  O_7 
ROOT
ATOM      1  C   UNL d   1      -0.118  -0.369  -0.488  0.00  0.00    -0.033 A 
ATOM      2  C1  UNL d   1      -0.986  -0.142   0.582  0.00  0.00     0.039 A 
ATOM      3  C2  UNL d   1      -0.491  -0.100   1.887  0.00  0.00    -0.080 A 
ATOM      4  C3  UNL d   1       0.871  -0.285   2.108  0.00  0.00     0.150 A 
ATOM      5  C4  UNL d   1       1.741  -0.507   1.046  0.00  0.00    -0.007 A 
ATOM      6  C5  UNL d   1       1.246  -0.550  -0.256  0.00  0.00     0.039 A 
ENDROOT
BRANCH   4   7
ATOM      7  O   UNL d   1       1.399  -0.257   3.364  0.00  0.00    -0.526 OA
ATOM      8  H5  UNL d   1       0.676  -0.123   3.999  0.00  0.00     0.418 HD
ENDBRANCH   4   7
TORSDOF 1
ENDMDL
