MODEL 1
REMARK minimizedAffinity -1.36405957
REMARK minimizedRMSD -1
REMARK  1 active torsions:
REMARK  status: ('A' for Active; 'I' for Inactive)
REMARK    1  A    between atoms: C3_4  and  O_7 
ROOT
ATOM      1  C   UNL d   1       0.059   0.399  -0.977  0.00  0.00    -0.033 A 
ATOM      2  C1  UNL d   1      -1.171   0.199  -0.347  0.00  0.00     0.039 A 
ATOM      3  C2  UNL d   1      -1.225  -0.435   0.896  0.00  0.00    -0.080 A 
ATOM      4  C3  UNL d   1      -0.044  -0.863   1.497  0.00  0.00     0.150 A 
ATOM      5  C4  UNL d   1       1.185  -0.663   0.877  0.00  0.00    -0.007 A 
ATOM      6  C5  UNL d   1       1.237  -0.030  -0.365  0.00  0.00     0.039 A 
ENDROOT
BRANCH   4   7
ATOM      7  O   UNL d   1      -0.047  -1.491   2.707  0.00  0.00    -0.526 OA
ATOM      8  H5  UNL d   1      -0.968  -1.586   3.002  0.00  0.00     0.418 HD
ENDBRANCH   4   7
TORSDOF 1
ENDMDL
