MODEL 1
REMARK minimizedAffinity 9.42395592
REMARK minimizedRMSD -1
REMARK  0 active torsions:
REMARK  status: ('A' for Active; 'I' for Inactive)
ROOT
ATOM      1  C   UNL d   1      -0.693   0.430  -6.000  0.00  0.00     0.077 C 
ATOM      2  C1  UNL d   1       0.677   0.422  -5.388  0.00  0.00    -0.074 A 
ATOM      3  C2  UNL d   1       0.971  -0.400  -4.296  0.00  0.00    -0.005 A 
ATOM      4  C3  UNL d   1       2.252  -0.404  -3.743  0.00  0.00     0.006 A 
ATOM      5  C4  UNL d   1       3.250   0.413  -4.277  0.00  0.00    -0.005 A 
ATOM      6  C5  UNL d   1       2.974   1.241  -5.370  0.00  0.00    -0.074 A 
ATOM      7  C6  UNL d   1       4.037   2.118  -5.962  0.00  0.00     0.077 C 
ATOM      8  C7  UNL d   1       1.687   1.234  -5.924  0.00  0.00    -0.001 A 
ENDROOT
TORSDOF 0
ENDMDL
