MODEL 1
REMARK minimizedAffinity 9.1909771
REMARK minimizedRMSD -1
REMARK  0 active torsions:
REMARK  status: ('A' for Active; 'I' for Inactive)
ROOT
ATOM      1  C   UNL d   1       3.034   0.092   3.245  0.00  0.00     0.077 C 
ATOM      2  C1  UNL d   1       1.549   0.299   3.219  0.00  0.00    -0.074 A 
ATOM      3  C2  UNL d   1       0.997   1.475   2.700  0.00  0.00    -0.005 A 
ATOM      4  C3  UNL d   1      -0.387   1.650   2.674  0.00  0.00     0.006 A 
ATOM      5  C4  UNL d   1      -1.231   0.653   3.165  0.00  0.00    -0.005 A 
ATOM      6  C5  UNL d   1      -0.697  -0.529   3.687  0.00  0.00    -0.074 A 
ATOM      7  C6  UNL d   1      -1.590  -1.615   4.210  0.00  0.00     0.077 C 
ATOM      8  C7  UNL d   1       0.694  -0.701   3.704  0.00  0.00    -0.001 A 
ENDROOT
TORSDOF 0
ENDMDL
