MODEL 1
REMARK minimizedAffinity 2.46014333
REMARK minimizedRMSD -1
REMARK  0 active torsions:
REMARK  status: ('A' for Active; 'I' for Inactive)
ROOT
ATOM      1  C   UNL d   1       1.828  -0.636  -3.129  0.00  0.00     0.077 C 
ATOM      2  C1  UNL d   1       0.600  -1.013  -3.904  0.00  0.00    -0.074 A 
ATOM      3  C2  UNL d   1      -0.317  -0.041  -4.315  0.00  0.00    -0.005 A 
ATOM      4  C3  UNL d   1      -1.449  -0.407  -5.044  0.00  0.00     0.006 A 
ATOM      5  C4  UNL d   1      -1.674  -1.745  -5.368  0.00  0.00    -0.005 A 
ATOM      6  C5  UNL d   1      -0.768  -2.731  -4.966  0.00  0.00    -0.074 A 
ATOM      7  C6  UNL d   1      -0.990  -4.172  -5.315  0.00  0.00     0.077 C 
ATOM      8  C7  UNL d   1       0.371  -2.355  -4.240  0.00  0.00    -0.001 A 
ENDROOT
TORSDOF 0
ENDMDL
