MODEL 1
REMARK minimizedAffinity 12.0172825
REMARK minimizedRMSD -1
REMARK  0 active torsions:
REMARK  status: ('A' for Active; 'I' for Inactive)
ROOT
ATOM      1  C   UNL d   1      -3.702  -2.573  -5.199  0.00  0.00     0.077 C 
ATOM      2  C1  UNL d   1      -4.498  -2.672  -3.932  0.00  0.00    -0.074 A 
ATOM      3  C2  UNL d   1      -5.025  -1.528  -3.323  0.00  0.00    -0.005 A 
ATOM      4  C3  UNL d   1      -5.771  -1.637  -2.149  0.00  0.00     0.006 A 
ATOM      5  C4  UNL d   1      -5.997  -2.888  -1.573  0.00  0.00    -0.005 A 
ATOM      6  C5  UNL d   1      -5.478  -4.042  -2.168  0.00  0.00    -0.074 A 
ATOM      7  C6  UNL d   1      -5.719  -5.395  -1.568  0.00  0.00     0.077 C 
ATOM      8  C7  UNL d   1      -4.735  -3.925  -3.351  0.00  0.00    -0.001 A 
ENDROOT
TORSDOF 0
ENDMDL
