MODEL 1
REMARK minimizedAffinity 7.11204338
REMARK minimizedRMSD -1
REMARK  0 active torsions:
REMARK  status: ('A' for Active; 'I' for Inactive)
ROOT
ATOM      1  C   UNL d   1      -5.999  -1.402  -2.676  0.00  0.00     0.077 C 
ATOM      2  C1  UNL d   1      -5.437  -2.295  -1.610  0.00  0.00    -0.074 A 
ATOM      3  C2  UNL d   1      -5.031  -1.775  -0.377  0.00  0.00    -0.005 A 
ATOM      4  C3  UNL d   1      -4.519  -2.619   0.608  0.00  0.00     0.006 A 
ATOM      5  C4  UNL d   1      -4.408  -3.989   0.371  0.00  0.00    -0.005 A 
ATOM      6  C5  UNL d   1      -4.810  -4.528  -0.855  0.00  0.00    -0.074 A 
ATOM      7  C6  UNL d   1      -4.707  -6.000  -1.123  0.00  0.00     0.077 C 
ATOM      8  C7  UNL d   1      -5.330  -3.674  -1.838  0.00  0.00    -0.001 A 
ENDROOT
TORSDOF 0
ENDMDL
