MODEL 1
REMARK minimizedAffinity 7.29271269
REMARK minimizedRMSD -1
REMARK  0 active torsions:
REMARK  status: ('A' for Active; 'I' for Inactive)
ROOT
ATOM      1  C   UNL d   1       3.375   4.502  -3.888  0.00  0.00     0.077 C 
ATOM      2  C1  UNL d   1       2.768   3.332  -3.171  0.00  0.00    -0.074 A 
ATOM      3  C2  UNL d   1       2.224   3.477  -1.891  0.00  0.00    -0.005 A 
ATOM      4  C3  UNL d   1       1.655   2.383  -1.240  0.00  0.00     0.006 A 
ATOM      5  C4  UNL d   1       1.623   1.134  -1.863  0.00  0.00    -0.005 A 
ATOM      6  C5  UNL d   1       2.162   0.970  -3.143  0.00  0.00    -0.074 A 
ATOM      7  C6  UNL d   1       2.127  -0.363  -3.830  0.00  0.00     0.077 C 
ATOM      8  C7  UNL d   1       2.726   2.077  -3.793  0.00  0.00    -0.001 A 
ENDROOT
TORSDOF 0
ENDMDL
