MODEL 1
REMARK minimizedAffinity 11.9777555
REMARK minimizedRMSD -1
REMARK  0 active torsions:
REMARK  status: ('A' for Active; 'I' for Inactive)
ROOT
ATOM      1  C   UNL d   1      -1.107  -2.299  -5.333  0.00  0.00     0.077 C 
ATOM      2  C1  UNL d   1      -0.038  -1.564  -4.580  0.00  0.00    -0.074 A 
ATOM      3  C2  UNL d   1      -0.260  -1.109  -3.277  0.00  0.00    -0.005 A 
ATOM      4  C3  UNL d   1       0.747  -0.436  -2.585  0.00  0.00     0.006 A 
ATOM      5  C4  UNL d   1       1.985  -0.212  -3.189  0.00  0.00    -0.005 A 
ATOM      6  C5  UNL d   1       2.226  -0.661  -4.492  0.00  0.00    -0.074 A 
ATOM      7  C6  UNL d   1       3.554  -0.437  -5.152  0.00  0.00     0.077 C 
ATOM      8  C7  UNL d   1       1.211  -1.342  -5.177  0.00  0.00    -0.001 A 
ENDROOT
TORSDOF 0
ENDMDL
