MODEL 1
REMARK minimizedAffinity 9.43413734
REMARK minimizedRMSD -1
REMARK  0 active torsions:
REMARK  status: ('A' for Active; 'I' for Inactive)
ROOT
ATOM      1  C   UNL d   1      -4.970  -3.389  -5.372  0.00  0.00     0.077 C 
ATOM      2  C1  UNL d   1      -3.618  -4.002  -5.584  0.00  0.00    -0.074 A 
ATOM      3  C2  UNL d   1      -3.466  -5.388  -5.697  0.00  0.00    -0.005 A 
ATOM      4  C3  UNL d   1      -2.203  -5.942  -5.904  0.00  0.00     0.006 A 
ATOM      5  C4  UNL d   1      -1.081  -5.119  -6.000  0.00  0.00    -0.005 A 
ATOM      6  C5  UNL d   1      -1.213  -3.731  -5.890  0.00  0.00    -0.074 A 
ATOM      7  C6  UNL d   1      -0.019  -2.830  -6.000  0.00  0.00     0.077 C 
ATOM      8  C7  UNL d   1      -2.487  -3.180  -5.689  0.00  0.00    -0.001 A 
ENDROOT
TORSDOF 0
ENDMDL
