MODEL 1
REMARK minimizedAffinity 14.6981497
REMARK minimizedRMSD -1
REMARK  0 active torsions:
REMARK  status: ('A' for Active; 'I' for Inactive)
ROOT
ATOM      1  C   UNL d   1       3.394   1.548  -5.989  0.00  0.00     0.077 C 
ATOM      2  C1  UNL d   1       3.494   2.952  -5.471  0.00  0.00    -0.074 A 
ATOM      3  C2  UNL d   1       4.697   3.442  -4.952  0.00  0.00    -0.005 A 
ATOM      4  C3  UNL d   1       4.778   4.753  -4.482  0.00  0.00     0.006 A 
ATOM      5  C4  UNL d   1       3.659   5.585  -4.526  0.00  0.00    -0.005 A 
ATOM      6  C5  UNL d   1       2.449   5.113  -5.043  0.00  0.00    -0.074 A 
ATOM      7  C6  UNL d   1       1.239   5.998  -5.107  0.00  0.00     0.077 C 
ATOM      8  C7  UNL d   1       2.377   3.797  -5.519  0.00  0.00    -0.001 A 
ENDROOT
TORSDOF 0
ENDMDL
