MODEL 1
REMARK minimizedAffinity 14.4519978
REMARK minimizedRMSD -1
REMARK  0 active torsions:
REMARK  status: ('A' for Active; 'I' for Inactive)
ROOT
ATOM      1  C   UNL d   1       0.740   0.753  -1.483  0.00  0.00     0.077 C 
ATOM      2  C1  UNL d   1       1.199  -0.064  -2.654  0.00  0.00    -0.074 A 
ATOM      3  C2  UNL d   1       0.998  -1.447  -2.688  0.00  0.00    -0.005 A 
ATOM      4  C3  UNL d   1       1.422  -2.193  -3.789  0.00  0.00     0.006 A 
ATOM      5  C4  UNL d   1       2.050  -1.563  -4.864  0.00  0.00    -0.005 A 
ATOM      6  C5  UNL d   1       2.259  -0.181  -4.848  0.00  0.00    -0.074 A 
ATOM      7  C6  UNL d   1       2.923   0.513  -6.000  0.00  0.00     0.077 C 
ATOM      8  C7  UNL d   1       1.824   0.562  -3.742  0.00  0.00    -0.001 A 
ENDROOT
TORSDOF 0
ENDMDL
