MODEL 1
REMARK minimizedAffinity 12.7982235
REMARK minimizedRMSD -1
REMARK  0 active torsions:
REMARK  status: ('A' for Active; 'I' for Inactive)
ROOT
ATOM      1  C   UNL d   1      -3.980  -4.496  -6.000  0.00  0.00     0.077 C 
ATOM      2  C1  UNL d   1      -2.681  -3.746  -5.992  0.00  0.00    -0.074 A 
ATOM      3  C2  UNL d   1      -1.459  -4.426  -5.997  0.00  0.00    -0.005 A 
ATOM      4  C3  UNL d   1      -0.259  -3.715  -5.999  0.00  0.00     0.006 A 
ATOM      5  C4  UNL d   1      -0.269  -2.320  -5.996  0.00  0.00    -0.005 A 
ATOM      6  C5  UNL d   1      -1.481  -1.623  -5.991  0.00  0.00    -0.074 A 
ATOM      7  C6  UNL d   1      -1.509  -0.123  -5.996  0.00  0.00     0.077 C 
ATOM      8  C7  UNL d   1      -2.683  -2.344  -5.996  0.00  0.00    -0.001 A 
ENDROOT
TORSDOF 0
ENDMDL
