MODEL 1
REMARK minimizedAffinity 12.9551601
REMARK minimizedRMSD -1
REMARK  0 active torsions:
REMARK  status: ('A' for Active; 'I' for Inactive)
ROOT
ATOM      1  C   UNL d   1       1.890   2.578  -1.640  0.00  0.00     0.077 C 
ATOM      2  C1  UNL d   1       2.675   3.371  -2.642  0.00  0.00    -0.074 A 
ATOM      3  C2  UNL d   1       2.199   4.595  -3.121  0.00  0.00    -0.005 A 
ATOM      4  C3  UNL d   1       2.945   5.326  -4.046  0.00  0.00     0.006 A 
ATOM      5  C4  UNL d   1       4.172   4.841  -4.499  0.00  0.00    -0.005 A 
ATOM      6  C5  UNL d   1       4.665   3.619  -4.030  0.00  0.00    -0.074 A 
ATOM      7  C6  UNL d   1       5.987   3.088  -4.499  0.00  0.00     0.077 C 
ATOM      8  C7  UNL d   1       3.913   2.894  -3.096  0.00  0.00    -0.001 A 
ENDROOT
TORSDOF 0
ENDMDL
