MODEL 1
REMARK minimizedAffinity 12.4178715
REMARK minimizedRMSD -1
REMARK  0 active torsions:
REMARK  status: ('A' for Active; 'I' for Inactive)
ROOT
ATOM      1  C   UNL d   1       5.865   4.604  -4.324  0.00  0.00     0.077 C 
ATOM      2  C1  UNL d   1       4.430   4.187  -4.202  0.00  0.00    -0.074 A 
ATOM      3  C2  UNL d   1       3.560   4.276  -5.294  0.00  0.00    -0.005 A 
ATOM      4  C3  UNL d   1       2.230   3.875  -5.168  0.00  0.00     0.006 A 
ATOM      5  C4  UNL d   1       1.757   3.382  -3.952  0.00  0.00    -0.005 A 
ATOM      6  C5  UNL d   1       2.612   3.285  -2.849  0.00  0.00    -0.074 A 
ATOM      7  C6  UNL d   1       2.122   2.748  -1.537  0.00  0.00     0.077 C 
ATOM      8  C7  UNL d   1       3.949   3.683  -2.986  0.00  0.00    -0.001 A 
ENDROOT
TORSDOF 0
ENDMDL
