MODEL 1
REMARK minimizedAffinity 10.6397686
REMARK minimizedRMSD -1
REMARK  0 active torsions:
REMARK  status: ('A' for Active; 'I' for Inactive)
ROOT
ATOM      1  C   UNL d   1       4.187   3.576  -4.409  0.00  0.00     0.077 C 
ATOM      2  C1  UNL d   1       3.211   2.760  -3.616  0.00  0.00    -0.074 A 
ATOM      3  C2  UNL d   1       2.540   3.308  -2.518  0.00  0.00    -0.005 A 
ATOM      4  C3  UNL d   1       1.627   2.539  -1.796  0.00  0.00     0.006 A 
ATOM      5  C4  UNL d   1       1.378   1.216  -2.163  0.00  0.00    -0.005 A 
ATOM      6  C5  UNL d   1       2.039   0.651  -3.258  0.00  0.00    -0.074 A 
ATOM      7  C6  UNL d   1       1.775  -0.766  -3.672  0.00  0.00     0.077 C 
ATOM      8  C7  UNL d   1       2.949   1.432  -3.983  0.00  0.00    -0.001 A 
ENDROOT
TORSDOF 0
ENDMDL
