MODEL 1
REMARK minimizedAffinity 11.3585825
REMARK minimizedRMSD -1
REMARK  0 active torsions:
REMARK  status: ('A' for Active; 'I' for Inactive)
ROOT
ATOM      1  C   UNL d   1       1.052  -1.487  -3.404  0.00  0.00     0.077 C 
ATOM      2  C1  UNL d   1       2.010  -0.764  -4.303  0.00  0.00    -0.074 A 
ATOM      3  C2  UNL d   1       3.184  -1.381  -4.748  0.00  0.00    -0.005 A 
ATOM      4  C3  UNL d   1       4.061  -0.699  -5.591  0.00  0.00     0.006 A 
ATOM      5  C4  UNL d   1       3.774   0.605  -5.998  0.00  0.00    -0.005 A 
ATOM      6  C5  UNL d   1       2.604   1.238  -5.564  0.00  0.00    -0.074 A 
ATOM      7  C6  UNL d   1       2.276   2.635  -6.000  0.00  0.00     0.077 C 
ATOM      8  C7  UNL d   1       1.725   0.543  -4.722  0.00  0.00    -0.001 A 
ENDROOT
TORSDOF 0
ENDMDL
