MODEL 1
REMARK minimizedAffinity 4.09870911
REMARK minimizedRMSD -1
REMARK  0 active torsions:
REMARK  status: ('A' for Active; 'I' for Inactive)
ROOT
ATOM      1  C   UNL d   1       5.817   3.694  -4.252  0.00  0.00     0.077 C 
ATOM      2  C1  UNL d   1       4.419   4.002  -3.803  0.00  0.00    -0.074 A 
ATOM      3  C2  UNL d   1       3.674   5.015  -4.414  0.00  0.00    -0.005 A 
ATOM      4  C3  UNL d   1       2.373   5.284  -3.991  0.00  0.00     0.006 A 
ATOM      5  C4  UNL d   1       1.804   4.543  -2.955  0.00  0.00    -0.005 A 
ATOM      6  C5  UNL d   1       2.533   3.526  -2.332  0.00  0.00    -0.074 A 
ATOM      7  C6  UNL d   1       1.933   2.714  -1.223  0.00  0.00     0.077 C 
ATOM      8  C7  UNL d   1       3.838   3.257  -2.767  0.00  0.00    -0.001 A 
ENDROOT
TORSDOF 0
ENDMDL
