MODEL 1
REMARK minimizedAffinity 2.40930438
REMARK minimizedRMSD -1
REMARK  0 active torsions:
REMARK  status: ('A' for Active; 'I' for Inactive)
ROOT
ATOM      1  C   UNL d   1      -0.244   1.002  -1.599  0.00  0.00     0.077 C 
ATOM      2  C1  UNL d   1       0.419   0.158  -2.647  0.00  0.00    -0.074 A 
ATOM      3  C2  UNL d   1       1.741   0.399  -3.033  0.00  0.00    -0.005 A 
ATOM      4  C3  UNL d   1       2.348  -0.401  -4.002  0.00  0.00     0.006 A 
ATOM      5  C4  UNL d   1       1.639  -1.447  -4.594  0.00  0.00    -0.005 A 
ATOM      6  C5  UNL d   1       0.316  -1.703  -4.220  0.00  0.00    -0.074 A 
ATOM      7  C6  UNL d   1      -0.457  -2.830  -4.839  0.00  0.00     0.077 C 
ATOM      8  C7  UNL d   1      -0.284  -0.900  -3.240  0.00  0.00    -0.001 A 
ENDROOT
TORSDOF 0
ENDMDL
