MODEL 1
REMARK minimizedAffinity 11.8228989
REMARK minimizedRMSD -1
REMARK  0 active torsions:
REMARK  status: ('A' for Active; 'I' for Inactive)
ROOT
ATOM      1  C   UNL d   1       5.216   0.280   2.340  0.00  0.00     0.077 C 
ATOM      2  C1  UNL d   1       5.495  -0.502   3.589  0.00  0.00    -0.074 A 
ATOM      3  C2  UNL d   1       5.620   0.140   4.826  0.00  0.00    -0.005 A 
ATOM      4  C3  UNL d   1       5.869  -0.601   5.981  0.00  0.00     0.006 A 
ATOM      5  C4  UNL d   1       5.996  -1.989   5.911  0.00  0.00    -0.005 A 
ATOM      6  C5  UNL d   1       5.874  -2.648   4.684  0.00  0.00    -0.074 A 
ATOM      7  C6  UNL d   1       5.998  -4.140   4.594  0.00  0.00     0.077 C 
ATOM      8  C7  UNL d   1       5.616  -1.897   3.529  0.00  0.00    -0.001 A 
ENDROOT
TORSDOF 0
ENDMDL
