MODEL 1
REMARK minimizedAffinity 7.20684767
REMARK minimizedRMSD -1
REMARK  0 active torsions:
REMARK  status: ('A' for Active; 'I' for Inactive)
ROOT
ATOM      1  C   UNL d   1      -4.463   0.741  -3.154  0.00  0.00     0.077 C 
ATOM      2  C1  UNL d   1      -3.749   1.615  -4.141  0.00  0.00    -0.074 A 
ATOM      3  C2  UNL d   1      -2.637   1.144  -4.846  0.00  0.00    -0.005 A 
ATOM      4  C3  UNL d   1      -1.989   1.965  -5.768  0.00  0.00     0.006 A 
ATOM      5  C4  UNL d   1      -2.446   3.264  -5.995  0.00  0.00    -0.005 A 
ATOM      6  C5  UNL d   1      -3.557   3.752  -5.300  0.00  0.00    -0.074 A 
ATOM      7  C6  UNL d   1      -4.067   5.142  -5.539  0.00  0.00     0.077 C 
ATOM      8  C7  UNL d   1      -4.207   2.919  -4.380  0.00  0.00    -0.001 A 
ENDROOT
TORSDOF 0
ENDMDL
