MODEL 1
REMARK minimizedAffinity 11.2725582
REMARK minimizedRMSD -1
REMARK  0 active torsions:
REMARK  status: ('A' for Active; 'I' for Inactive)
ROOT
ATOM      1  C   UNL d   1       0.856   2.028   0.837  0.00  0.00     0.077 C 
ATOM      2  C1  UNL d   1       0.525   3.284   0.088  0.00  0.00    -0.074 A 
ATOM      3  C2  UNL d   1      -0.796   3.732  -0.016  0.00  0.00    -0.005 A 
ATOM      4  C3  UNL d   1      -1.088   4.908  -0.708  0.00  0.00     0.006 A 
ATOM      5  C4  UNL d   1      -0.063   5.645  -1.303  0.00  0.00    -0.005 A 
ATOM      6  C5  UNL d   1       1.264   5.213  -1.209  0.00  0.00    -0.074 A 
ATOM      7  C6  UNL d   1       2.378   6.000  -1.834  0.00  0.00     0.077 C 
ATOM      8  C7  UNL d   1       1.549   4.035  -0.506  0.00  0.00    -0.001 A 
ENDROOT
TORSDOF 0
ENDMDL
