MODEL 1
REMARK minimizedAffinity 15.6160488
REMARK minimizedRMSD -1
REMARK  0 active torsions:
REMARK  status: ('A' for Active; 'I' for Inactive)
ROOT
ATOM      1  C   UNL d   1       0.655   1.713   0.845  0.00  0.00     0.077 C 
ATOM      2  C1  UNL d   1       0.369   3.004   0.136  0.00  0.00    -0.074 A 
ATOM      3  C2  UNL d   1      -0.941   3.365  -0.197  0.00  0.00    -0.005 A 
ATOM      4  C3  UNL d   1      -1.193   4.573  -0.848  0.00  0.00     0.006 A 
ATOM      5  C4  UNL d   1      -0.140   5.430  -1.171  0.00  0.00    -0.005 A 
ATOM      6  C5  UNL d   1       1.175   5.086  -0.845  0.00  0.00    -0.074 A 
ATOM      7  C6  UNL d   1       2.317   6.000  -1.176  0.00  0.00     0.077 C 
ATOM      8  C7  UNL d   1       1.420   3.874  -0.185  0.00  0.00    -0.001 A 
ENDROOT
TORSDOF 0
ENDMDL
