MODEL 1
REMARK minimizedAffinity 7.30744982
REMARK minimizedRMSD -1
REMARK  0 active torsions:
REMARK  status: ('A' for Active; 'I' for Inactive)
ROOT
ATOM      1  C   UNL d   1      -2.298   3.233  -6.000  0.00  0.00     0.077 C 
ATOM      2  C1  UNL d   1      -3.591   2.819  -5.362  0.00  0.00    -0.074 A 
ATOM      3  C2  UNL d   1      -4.804   3.387  -5.763  0.00  0.00    -0.005 A 
ATOM      4  C3  UNL d   1      -6.000   2.985  -5.167  0.00  0.00     0.006 A 
ATOM      5  C4  UNL d   1      -5.994   2.013  -4.166  0.00  0.00    -0.005 A 
ATOM      6  C5  UNL d   1      -4.790   1.432  -3.754  0.00  0.00    -0.074 A 
ATOM      7  C6  UNL d   1      -4.767   0.379  -2.686  0.00  0.00     0.077 C 
ATOM      8  C7  UNL d   1      -3.594   1.837  -4.362  0.00  0.00    -0.001 A 
ENDROOT
TORSDOF 0
ENDMDL
