MODEL 1
REMARK minimizedAffinity 12.9625244
REMARK minimizedRMSD -1
REMARK  0 active torsions:
REMARK  status: ('A' for Active; 'I' for Inactive)
ROOT
ATOM      1  C   UNL d   1       5.999  -3.796   4.951  0.00  0.00     0.077 C 
ATOM      2  C1  UNL d   1       5.427  -2.986   3.827  0.00  0.00    -0.074 A 
ATOM      3  C2  UNL d   1       5.750  -3.274   2.496  0.00  0.00    -0.005 A 
ATOM      4  C3  UNL d   1       5.203  -2.517   1.460  0.00  0.00     0.006 A 
ATOM      5  C4  UNL d   1       4.329  -1.466   1.743  0.00  0.00    -0.005 A 
ATOM      6  C5  UNL d   1       3.994  -1.164   3.067  0.00  0.00    -0.074 A 
ATOM      7  C6  UNL d   1       3.049  -0.045   3.388  0.00  0.00     0.077 C 
ATOM      8  C7  UNL d   1       4.543  -1.934   4.102  0.00  0.00    -0.001 A 
ENDROOT
TORSDOF 0
ENDMDL
