MODEL 1
REMARK minimizedAffinity 11.1336594
REMARK minimizedRMSD -1
REMARK  0 active torsions:
REMARK  status: ('A' for Active; 'I' for Inactive)
ROOT
ATOM      1  C   UNL d   1      -1.506  -2.439  -1.029  0.00  0.00     0.077 C 
ATOM      2  C1  UNL d   1      -1.522  -2.961   0.377  0.00  0.00    -0.074 A 
ATOM      3  C2  UNL d   1      -2.163  -2.253   1.399  0.00  0.00    -0.005 A 
ATOM      4  C3  UNL d   1      -2.178  -2.756   2.700  0.00  0.00     0.006 A 
ATOM      5  C4  UNL d   1      -1.552  -3.968   2.992  0.00  0.00    -0.005 A 
ATOM      6  C5  UNL d   1      -0.907  -4.690   1.984  0.00  0.00    -0.074 A 
ATOM      7  C6  UNL d   1      -0.238  -6.000   2.279  0.00  0.00     0.077 C 
ATOM      8  C7  UNL d   1      -0.902  -4.182   0.677  0.00  0.00    -0.001 A 
ENDROOT
TORSDOF 0
ENDMDL
