MODEL 1
REMARK minimizedAffinity 3.3792963
REMARK minimizedRMSD -1
REMARK  0 active torsions:
REMARK  status: ('A' for Active; 'I' for Inactive)
ROOT
ATOM      1  C   UNL d   1      -2.107  -2.907   4.021  0.00  0.00     0.077 C 
ATOM      2  C1  UNL d   1      -1.514  -3.356   2.719  0.00  0.00    -0.074 A 
ATOM      3  C2  UNL d   1      -0.938  -4.624   2.590  0.00  0.00    -0.005 A 
ATOM      4  C3  UNL d   1      -0.398  -5.030   1.370  0.00  0.00     0.006 A 
ATOM      5  C4  UNL d   1      -0.429  -4.175   0.268  0.00  0.00    -0.005 A 
ATOM      6  C5  UNL d   1      -1.002  -2.904   0.377  0.00  0.00    -0.074 A 
ATOM      7  C6  UNL d   1      -1.052  -1.976  -0.800  0.00  0.00     0.077 C 
ATOM      8  C7  UNL d   1      -1.548  -2.505   1.605  0.00  0.00    -0.001 A 
ENDROOT
TORSDOF 0
ENDMDL
