MODEL 1
REMARK minimizedAffinity 4.17114067
REMARK minimizedRMSD -1
REMARK  0 active torsions:
REMARK  status: ('A' for Active; 'I' for Inactive)
ROOT
ATOM      1  C   UNL d   1      -0.375  -6.000   1.234  0.00  0.00     0.077 C 
ATOM      2  C1  UNL d   1      -1.036  -4.680   1.498  0.00  0.00    -0.074 A 
ATOM      3  C2  UNL d   1      -1.528  -4.364   2.769  0.00  0.00    -0.005 A 
ATOM      4  C3  UNL d   1      -2.132  -3.128   3.002  0.00  0.00     0.006 A 
ATOM      5  C4  UNL d   1      -2.250  -2.198   1.969  0.00  0.00    -0.005 A 
ATOM      6  C5  UNL d   1      -1.764  -2.496   0.692  0.00  0.00    -0.074 A 
ATOM      7  C6  UNL d   1      -1.874  -1.503  -0.427  0.00  0.00     0.077 C 
ATOM      8  C7  UNL d   1      -1.152  -3.737   0.467  0.00  0.00    -0.001 A 
ENDROOT
TORSDOF 0
ENDMDL
