MODEL 1
REMARK minimizedAffinity 12.5769882
REMARK minimizedRMSD -1
REMARK  0 active torsions:
REMARK  status: ('A' for Active; 'I' for Inactive)
ROOT
ATOM      1  C   UNL d   1      -0.882  -1.362  -2.039  0.00  0.00     0.077 C 
ATOM      2  C1  UNL d   1      -1.277  -1.948  -0.717  0.00  0.00    -0.074 A 
ATOM      3  C2  UNL d   1      -2.220  -1.313   0.098  0.00  0.00    -0.005 A 
ATOM      4  C3  UNL d   1      -2.585  -1.875   1.321  0.00  0.00     0.006 A 
ATOM      5  C4  UNL d   1      -2.012  -3.076   1.741  0.00  0.00    -0.005 A 
ATOM      6  C5  UNL d   1      -1.068  -3.726   0.939  0.00  0.00    -0.074 A 
ATOM      7  C6  UNL d   1      -0.450  -5.023   1.371  0.00  0.00     0.077 C 
ATOM      8  C7  UNL d   1      -0.712  -3.159  -0.292  0.00  0.00    -0.001 A 
ENDROOT
TORSDOF 0
ENDMDL
