MODEL 1
REMARK minimizedAffinity 10.7315416
REMARK minimizedRMSD -1
REMARK  0 active torsions:
REMARK  status: ('A' for Active; 'I' for Inactive)
ROOT
ATOM      1  C   UNL d   1      -4.488   3.611  -6.000  0.00  0.00     0.077 C 
ATOM      2  C1  UNL d   1      -3.033   3.393  -5.711  0.00  0.00    -0.074 A 
ATOM      3  C2  UNL d   1      -2.087   4.382  -5.999  0.00  0.00    -0.005 A 
ATOM      4  C3  UNL d   1      -0.738   4.169  -5.716  0.00  0.00     0.006 A 
ATOM      5  C4  UNL d   1      -0.322   2.967  -5.142  0.00  0.00    -0.005 A 
ATOM      6  C5  UNL d   1      -1.253   1.967  -4.847  0.00  0.00    -0.074 A 
ATOM      7  C6  UNL d   1      -0.824   0.673  -4.221  0.00  0.00     0.077 C 
ATOM      8  C7  UNL d   1      -2.608   2.191  -5.128  0.00  0.00    -0.001 A 
ENDROOT
TORSDOF 0
ENDMDL
