MODEL 1
REMARK minimizedAffinity 9.25288486
REMARK minimizedRMSD -1
REMARK  0 active torsions:
REMARK  status: ('A' for Active; 'I' for Inactive)
ROOT
ATOM      1  C   UNL d   1      -0.146  -1.713  -2.034  0.00  0.00     0.077 C 
ATOM      2  C1  UNL d   1      -0.725  -2.339  -0.801  0.00  0.00    -0.074 A 
ATOM      3  C2  UNL d   1      -1.726  -1.693  -0.069  0.00  0.00    -0.005 A 
ATOM      4  C3  UNL d   1      -2.262  -2.292   1.071  0.00  0.00     0.006 A 
ATOM      5  C4  UNL d   1      -1.802  -3.541   1.491  0.00  0.00    -0.005 A 
ATOM      6  C5  UNL d   1      -0.802  -4.202   0.772  0.00  0.00    -0.074 A 
ATOM      7  C6  UNL d   1      -0.303  -5.549   1.203  0.00  0.00     0.077 C 
ATOM      8  C7  UNL d   1      -0.274  -3.597  -0.377  0.00  0.00    -0.001 A 
ENDROOT
TORSDOF 0
ENDMDL
