MODEL 1
REMARK minimizedAffinity 5.18540907
REMARK minimizedRMSD -1
REMARK  0 active torsions:
REMARK  status: ('A' for Active; 'I' for Inactive)
ROOT
ATOM      1  C   UNL d   1      -0.957  -1.837  -3.732  0.00  0.00     0.077 C 
ATOM      2  C1  UNL d   1      -1.633  -1.823  -2.393  0.00  0.00    -0.074 A 
ATOM      3  C2  UNL d   1      -2.804  -1.086  -2.186  0.00  0.00    -0.005 A 
ATOM      4  C3  UNL d   1      -3.426  -1.090  -0.938  0.00  0.00     0.006 A 
ATOM      5  C4  UNL d   1      -2.885  -1.830   0.114  0.00  0.00    -0.005 A 
ATOM      6  C5  UNL d   1      -1.716  -2.574  -0.074  0.00  0.00    -0.074 A 
ATOM      7  C6  UNL d   1      -1.127  -3.382   1.044  0.00  0.00     0.077 C 
ATOM      8  C7  UNL d   1      -1.100  -2.570  -1.333  0.00  0.00    -0.001 A 
ENDROOT
TORSDOF 0
ENDMDL
