MODEL 1
REMARK minimizedAffinity 12.3269033
REMARK minimizedRMSD -1
REMARK  0 active torsions:
REMARK  status: ('A' for Active; 'I' for Inactive)
ROOT
ATOM      1  C   UNL d   1      -3.554   1.188   5.996  0.00  0.00     0.077 C 
ATOM      2  C1  UNL d   1      -2.823   0.001   5.443  0.00  0.00    -0.074 A 
ATOM      3  C2  UNL d   1      -3.375  -0.767   4.413  0.00  0.00    -0.005 A 
ATOM      4  C3  UNL d   1      -2.679  -1.863   3.902  0.00  0.00     0.006 A 
ATOM      5  C4  UNL d   1      -1.426  -2.200   4.414  0.00  0.00    -0.005 A 
ATOM      6  C5  UNL d   1      -0.857  -1.442   5.443  0.00  0.00    -0.074 A 
ATOM      7  C6  UNL d   1       0.494  -1.785   5.998  0.00  0.00     0.077 C 
ATOM      8  C7  UNL d   1      -1.560  -0.339   5.947  0.00  0.00    -0.001 A 
ENDROOT
TORSDOF 0
ENDMDL
