MODEL 1
REMARK minimizedAffinity 15.1924887
REMARK minimizedRMSD -1
REMARK  0 active torsions:
REMARK  status: ('A' for Active; 'I' for Inactive)
ROOT
ATOM      1  C   UNL d   1      -1.741  -1.701  -0.361  0.00  0.00     0.077 C 
ATOM      2  C1  UNL d   1      -0.722  -1.352  -1.405  0.00  0.00    -0.074 A 
ATOM      3  C2  UNL d   1      -0.879  -1.769  -2.730  0.00  0.00    -0.005 A 
ATOM      4  C3  UNL d   1       0.072  -1.428  -3.692  0.00  0.00     0.006 A 
ATOM      5  C4  UNL d   1       1.188  -0.669  -3.338  0.00  0.00    -0.005 A 
ATOM      6  C5  UNL d   1       1.361  -0.242  -2.018  0.00  0.00    -0.074 A 
ATOM      7  C6  UNL d   1       2.550   0.583  -1.623  0.00  0.00     0.077 C 
ATOM      8  C7  UNL d   1       0.398  -0.583  -1.059  0.00  0.00    -0.001 A 
ENDROOT
TORSDOF 0
ENDMDL
