MODEL 1
REMARK minimizedAffinity 10.1404858
REMARK minimizedRMSD -1
REMARK  0 active torsions:
REMARK  status: ('A' for Active; 'I' for Inactive)
ROOT
ATOM      1  C   UNL d   1      -0.709  -6.000  -1.376  0.00  0.00     0.077 C 
ATOM      2  C1  UNL d   1      -0.685  -4.519  -1.614  0.00  0.00    -0.074 A 
ATOM      3  C2  UNL d   1      -0.691  -3.619  -0.544  0.00  0.00    -0.005 A 
ATOM      4  C3  UNL d   1      -0.658  -2.245  -0.780  0.00  0.00     0.006 A 
ATOM      5  C4  UNL d   1      -0.618  -1.758  -2.087  0.00  0.00    -0.005 A 
ATOM      6  C5  UNL d   1      -0.611  -2.642  -3.170  0.00  0.00    -0.074 A 
ATOM      7  C6  UNL d   1      -0.558  -2.135  -4.581  0.00  0.00     0.077 C 
ATOM      8  C7  UNL d   1      -0.637  -4.022  -2.924  0.00  0.00    -0.001 A 
ENDROOT
TORSDOF 0
ENDMDL
