MODEL 1
REMARK minimizedAffinity 15.0924006
REMARK minimizedRMSD -1
REMARK  0 active torsions:
REMARK  status: ('A' for Active; 'I' for Inactive)
ROOT
ATOM      1  C   UNL d   1      -4.497   0.783   6.000  0.00  0.00     0.077 C 
ATOM      2  C1  UNL d   1      -3.950  -0.589   5.740  0.00  0.00    -0.074 A 
ATOM      3  C2  UNL d   1      -4.723  -1.729   5.984  0.00  0.00    -0.005 A 
ATOM      4  C3  UNL d   1      -4.204  -2.998   5.728  0.00  0.00     0.006 A 
ATOM      5  C4  UNL d   1      -2.909  -3.140   5.228  0.00  0.00    -0.005 A 
ATOM      6  C5  UNL d   1      -2.122  -2.011   4.977  0.00  0.00    -0.074 A 
ATOM      7  C6  UNL d   1      -0.732  -2.146   4.430  0.00  0.00     0.077 C 
ATOM      8  C7  UNL d   1      -2.653  -0.739   5.230  0.00  0.00    -0.001 A 
ENDROOT
TORSDOF 0
ENDMDL
