MODEL 1
REMARK minimizedAffinity 10.3484936
REMARK minimizedRMSD -1
REMARK  0 active torsions:
REMARK  status: ('A' for Active; 'I' for Inactive)
ROOT
ATOM      1  C   UNL d   1      -1.104  -2.388  -3.647  0.00  0.00     0.077 C 
ATOM      2  C1  UNL d   1      -1.159  -2.444  -2.149  0.00  0.00    -0.074 A 
ATOM      3  C2  UNL d   1      -1.597  -1.344  -1.404  0.00  0.00    -0.005 A 
ATOM      4  C3  UNL d   1      -1.652  -1.414  -0.012  0.00  0.00     0.006 A 
ATOM      5  C4  UNL d   1      -1.270  -2.582   0.648  0.00  0.00    -0.005 A 
ATOM      6  C5  UNL d   1      -0.830  -3.693  -0.080  0.00  0.00    -0.074 A 
ATOM      7  C6  UNL d   1      -0.425  -4.959   0.614  0.00  0.00     0.077 C 
ATOM      8  C7  UNL d   1      -0.785  -3.617  -1.479  0.00  0.00    -0.001 A 
ENDROOT
TORSDOF 0
ENDMDL
