MODEL 1
REMARK minimizedAffinity 14.6738911
REMARK minimizedRMSD -1
REMARK  0 active torsions:
REMARK  status: ('A' for Active; 'I' for Inactive)
ROOT
ATOM      1  C   UNL d   1      -1.569  -1.083   0.514  0.00  0.00     0.077 C 
ATOM      2  C1  UNL d   1      -1.651  -0.814   1.987  0.00  0.00    -0.074 A 
ATOM      3  C2  UNL d   1      -1.741   0.494   2.475  0.00  0.00    -0.005 A 
ATOM      4  C3  UNL d   1      -1.826   0.728   3.847  0.00  0.00     0.006 A 
ATOM      5  C4  UNL d   1      -1.822  -0.340   4.744  0.00  0.00    -0.005 A 
ATOM      6  C5  UNL d   1      -1.733  -1.655   4.275  0.00  0.00    -0.074 A 
ATOM      7  C6  UNL d   1      -1.737  -2.815   5.225  0.00  0.00     0.077 C 
ATOM      8  C7  UNL d   1      -1.655  -1.883   2.894  0.00  0.00    -0.001 A 
ENDROOT
TORSDOF 0
ENDMDL
