MODEL 1
REMARK minimizedAffinity 5.65345192
REMARK minimizedRMSD -1
REMARK  0 active torsions:
REMARK  status: ('A' for Active; 'I' for Inactive)
ROOT
ATOM      1  C   UNL d   1      -5.999   5.120  -6.000  0.00  0.00     0.077 C 
ATOM      2  C1  UNL d   1      -4.706   5.081  -5.241  0.00  0.00    -0.074 A 
ATOM      3  C2  UNL d   1      -4.446   5.997  -4.216  0.00  0.00    -0.005 A 
ATOM      4  C3  UNL d   1      -3.244   5.943  -3.512  0.00  0.00     0.006 A 
ATOM      5  C4  UNL d   1      -2.290   4.973  -3.825  0.00  0.00    -0.005 A 
ATOM      6  C5  UNL d   1      -2.532   4.048  -4.846  0.00  0.00    -0.074 A 
ATOM      7  C6  UNL d   1      -1.522   2.994  -5.188  0.00  0.00     0.077 C 
ATOM      8  C7  UNL d   1      -3.746   4.105  -5.544  0.00  0.00    -0.001 A 
ENDROOT
TORSDOF 0
ENDMDL
