MODEL 1
REMARK minimizedAffinity 21.7763348
REMARK minimizedRMSD -1
REMARK  0 active torsions:
REMARK  status: ('A' for Active; 'I' for Inactive)
ROOT
ATOM      1  C   UNL d   1       1.773  -0.045  -1.950  0.00  0.00     0.077 C 
ATOM      2  C1  UNL d   1       2.839   0.967  -1.649  0.00  0.00    -0.074 A 
ATOM      3  C2  UNL d   1       3.925   1.144  -2.512  0.00  0.00    -0.005 A 
ATOM      4  C3  UNL d   1       4.904   2.095  -2.224  0.00  0.00     0.006 A 
ATOM      5  C4  UNL d   1       4.807   2.877  -1.072  0.00  0.00    -0.005 A 
ATOM      6  C5  UNL d   1       3.728   2.714  -0.198  0.00  0.00    -0.074 A 
ATOM      7  C6  UNL d   1       3.604   3.552   1.039  0.00  0.00     0.077 C 
ATOM      8  C7  UNL d   1       2.745   1.761  -0.498  0.00  0.00    -0.001 A 
ENDROOT
TORSDOF 0
ENDMDL
