MODEL 1
REMARK minimizedAffinity 8.09582615
REMARK minimizedRMSD -1
REMARK  0 active torsions:
REMARK  status: ('A' for Active; 'I' for Inactive)
ROOT
ATOM      1  C   UNL d   1      -0.875  -1.642   5.522  0.00  0.00     0.077 C 
ATOM      2  C1  UNL d   1      -2.268  -1.109   5.682  0.00  0.00    -0.074 A 
ATOM      3  C2  UNL d   1      -3.359  -1.976   5.808  0.00  0.00    -0.005 A 
ATOM      4  C3  UNL d   1      -4.648  -1.465   5.966  0.00  0.00     0.006 A 
ATOM      5  C4  UNL d   1      -4.858  -0.086   6.000  0.00  0.00    -0.005 A 
ATOM      6  C5  UNL d   1      -3.779   0.795   5.877  0.00  0.00    -0.074 A 
ATOM      7  C6  UNL d   1      -3.987   2.280   5.921  0.00  0.00     0.077 C 
ATOM      8  C7  UNL d   1      -2.487   0.275   5.725  0.00  0.00    -0.001 A 
ENDROOT
TORSDOF 0
ENDMDL
