MODEL 1
REMARK minimizedAffinity 9.91396713
REMARK minimizedRMSD -1
REMARK  0 active torsions:
REMARK  status: ('A' for Active; 'I' for Inactive)
ROOT
ATOM      1  C   UNL d   1       5.998   0.391   3.098  0.00  0.00     0.077 C 
ATOM      2  C1  UNL d   1       5.299   1.329   2.159  0.00  0.00    -0.074 A 
ATOM      3  C2  UNL d   1       4.024   1.823   2.453  0.00  0.00    -0.005 A 
ATOM      4  C3  UNL d   1       3.391   2.702   1.574  0.00  0.00     0.006 A 
ATOM      5  C4  UNL d   1       4.025   3.096   0.395  0.00  0.00    -0.005 A 
ATOM      6  C5  UNL d   1       5.300   2.613   0.085  0.00  0.00    -0.074 A 
ATOM      7  C6  UNL d   1       6.000   3.034  -1.173  0.00  0.00     0.077 C 
ATOM      8  C7  UNL d   1       5.933   1.736   0.976  0.00  0.00    -0.001 A 
ENDROOT
TORSDOF 0
ENDMDL
