MODEL 1
REMARK minimizedAffinity 7.80168486
REMARK minimizedRMSD -1
REMARK  0 active torsions:
REMARK  status: ('A' for Active; 'I' for Inactive)
ROOT
ATOM      1  C   UNL d   1      -5.990   5.958   2.039  0.00  0.00     0.077 C 
ATOM      2  C1  UNL d   1      -5.350   5.281   0.864  0.00  0.00    -0.074 A 
ATOM      3  C2  UNL d   1      -4.775   4.012   0.991  0.00  0.00    -0.005 A 
ATOM      4  C3  UNL d   1      -4.192   3.390  -0.113  0.00  0.00     0.006 A 
ATOM      5  C4  UNL d   1      -4.178   4.030  -1.353  0.00  0.00    -0.005 A 
ATOM      6  C5  UNL d   1      -4.748   5.299  -1.500  0.00  0.00    -0.074 A 
ATOM      7  C6  UNL d   1      -4.750   5.996  -2.827  0.00  0.00     0.077 C 
ATOM      8  C7  UNL d   1      -5.338   5.914  -0.387  0.00  0.00    -0.001 A 
ENDROOT
TORSDOF 0
ENDMDL
