MODEL 1
REMARK minimizedAffinity -5.81317949
REMARK minimizedRMSD -1
REMARK  1 active torsions:
REMARK  status: ('A' for Active; 'I' for Inactive)
REMARK    1  A    between atoms: C1_2  and  C2_3 
ROOT
ATOM      1  C2  UNL d   1      -0.620   0.261   1.022  0.00  0.00    -0.081 A 
ATOM      2  C3  UNL d   1       0.148   1.318   0.519  0.00  0.00     0.006 A 
ATOM      3  C4  UNL d   1       0.923   1.145  -0.630  0.00  0.00     0.002 A 
ATOM      4  C5  UNL d   1       0.937  -0.083  -1.300  0.00  0.00    -0.080 A 
ATOM      5  C6  UNL d   1       1.741  -0.272  -2.552  0.00  0.00     0.076 C 
ATOM      6  C7  UNL d   1       0.183  -1.144  -0.787  0.00  0.00     0.002 A 
ATOM      7  C8  UNL d   1      -0.591  -0.973   0.362  0.00  0.00     0.006 A 
ENDROOT
BRANCH   1   8
ATOM      8  C1  UNL d   1      -1.507   0.462   2.224  0.00  0.00     0.054 C 
ATOM      9  C   UNL d   1      -2.759   1.248   1.862  0.00  0.00     0.018 C 
ENDBRANCH   1   8
TORSDOF 1
ENDMDL
