MODEL 1
REMARK minimizedAffinity -4.78157759
REMARK minimizedRMSD -1
REMARK  1 active torsions:
REMARK  status: ('A' for Active; 'I' for Inactive)
REMARK    1  A    between atoms: C1_2  and  C2_3 
ROOT
ATOM      1  C2  UNL d   1      -0.710   0.150   0.937  0.00  0.00    -0.081 A 
ATOM      2  C3  UNL d   1       0.038   1.244   0.485  0.00  0.00     0.006 A 
ATOM      3  C4  UNL d   1       0.690   1.195  -0.749  0.00  0.00     0.002 A 
ATOM      4  C5  UNL d   1       0.599   0.056  -1.556  0.00  0.00    -0.080 A 
ATOM      5  C6  UNL d   1       1.269   0.002  -2.897  0.00  0.00     0.076 C 
ATOM      6  C7  UNL d   1      -0.134  -1.044  -1.097  0.00  0.00     0.002 A 
ATOM      7  C8  UNL d   1      -0.786  -0.996   0.138  0.00  0.00     0.006 A 
ENDROOT
BRANCH   1   8
ATOM      8  C1  UNL d   1      -1.467   0.224   2.238  0.00  0.00     0.054 C 
ATOM      9  C   UNL d   1      -2.968   0.314   2.001  0.00  0.00     0.018 C 
ENDBRANCH   1   8
TORSDOF 1
ENDMDL
