MODEL 1
REMARK minimizedAffinity -3.16856933
REMARK minimizedRMSD -1
REMARK  1 active torsions:
REMARK  status: ('A' for Active; 'I' for Inactive)
REMARK    1  A    between atoms: C1_2  and  C2_3 
ROOT
ATOM      1  C2  UNL d   1      -0.174  -0.222   0.568  0.00  0.00    -0.081 A 
ATOM      2  C3  UNL d   1       0.417   0.928   0.032  0.00  0.00     0.006 A 
ATOM      3  C4  UNL d   1       1.146   0.862  -1.158  0.00  0.00     0.002 A 
ATOM      4  C5  UNL d   1       1.289  -0.354  -1.835  0.00  0.00    -0.080 A 
ATOM      5  C6  UNL d   1       2.044  -0.433  -3.129  0.00  0.00     0.076 C 
ATOM      6  C7  UNL d   1       0.714  -1.507  -1.291  0.00  0.00     0.002 A 
ATOM      7  C8  UNL d   1      -0.014  -1.441  -0.101  0.00  0.00     0.006 A 
ENDROOT
BRANCH   1   8
ATOM      8  C1  UNL d   1      -1.015  -0.142   1.816  0.00  0.00     0.054 C 
ATOM      9  C   UNL d   1      -2.423   0.345   1.505  0.00  0.00     0.018 C 
ENDBRANCH   1   8
TORSDOF 1
ENDMDL
