MODEL 1
REMARK minimizedAffinity -4.62605619
REMARK minimizedRMSD -1
REMARK  1 active torsions:
REMARK  status: ('A' for Active; 'I' for Inactive)
REMARK    1  A    between atoms: C1_2  and  C2_3 
ROOT
ATOM      1  C2  UNL d   1      -0.649   0.040   0.494  0.00  0.00    -0.081 A 
ATOM      2  C3  UNL d   1      -0.083   1.174  -0.102  0.00  0.00     0.006 A 
ATOM      3  C4  UNL d   1       0.772   1.045  -1.198  0.00  0.00     0.002 A 
ATOM      4  C5  UNL d   1       1.070  -0.218  -1.722  0.00  0.00    -0.080 A 
ATOM      5  C6  UNL d   1       1.963  -0.368  -2.917  0.00  0.00     0.076 C 
ATOM      6  C7  UNL d   1       0.519  -1.351  -1.115  0.00  0.00     0.002 A 
ATOM      7  C8  UNL d   1      -0.336  -1.223  -0.018  0.00  0.00     0.006 A 
ENDROOT
BRANCH   1   8
ATOM      8  C1  UNL d   1      -1.623   0.180   1.636  0.00  0.00     0.054 C 
ATOM      9  C   UNL d   1      -3.051   0.329   1.131  0.00  0.00     0.018 C 
ENDBRANCH   1   8
TORSDOF 1
ENDMDL
