MODEL 1
REMARK minimizedAffinity -3.58268785
REMARK minimizedRMSD -1
REMARK  1 active torsions:
REMARK  status: ('A' for Active; 'I' for Inactive)
REMARK    1  A    between atoms: C1_2  and  C2_3 
ROOT
ATOM      1  C2  UNL d   1      -0.417   0.212   0.889  0.00  0.00    -0.081 A 
ATOM      2  C3  UNL d   1       0.123   1.359   0.295  0.00  0.00     0.006 A 
ATOM      3  C4  UNL d   1       0.927   1.255  -0.842  0.00  0.00     0.002 A 
ATOM      4  C5  UNL d   1       1.198   0.005  -1.409  0.00  0.00    -0.080 A 
ATOM      5  C6  UNL d   1       2.035  -0.117  -2.647  0.00  0.00     0.076 C 
ATOM      6  C7  UNL d   1       0.673  -1.142  -0.805  0.00  0.00     0.002 A 
ATOM      7  C8  UNL d   1      -0.130  -1.040   0.333  0.00  0.00     0.006 A 
ENDROOT
BRANCH   1   8
ATOM      8  C1  UNL d   1      -1.338   0.325   2.078  0.00  0.00     0.054 C 
ATOM      9  C   UNL d   1      -2.790   0.461   1.642  0.00  0.00     0.018 C 
ENDBRANCH   1   8
TORSDOF 1
ENDMDL
