MODEL 1
REMARK minimizedAffinity -2.5181222
REMARK minimizedRMSD -1
REMARK  1 active torsions:
REMARK  status: ('A' for Active; 'I' for Inactive)
REMARK    1  A    between atoms: C1_2  and  C2_3 
ROOT
ATOM      1  C2  UNL d   1      -0.454   0.073   0.475  0.00  0.00    -0.081 A 
ATOM      2  C3  UNL d   1      -0.409  -1.113  -0.269  0.00  0.00     0.006 A 
ATOM      3  C4  UNL d   1       0.336  -1.182  -1.448  0.00  0.00     0.002 A 
ATOM      4  C5  UNL d   1       1.054  -0.070  -1.899  0.00  0.00    -0.080 A 
ATOM      5  C6  UNL d   1       1.883  -0.139  -3.148  0.00  0.00     0.076 C 
ATOM      6  C7  UNL d   1       0.995   1.120  -1.166  0.00  0.00     0.002 A 
ATOM      7  C8  UNL d   1       0.250   1.190   0.013  0.00  0.00     0.006 A 
ENDROOT
BRANCH   1   8
ATOM      8  C1  UNL d   1      -1.205   0.130   1.781  0.00  0.00     0.054 C 
ATOM      9  C   UNL d   1      -2.649   0.562   1.571  0.00  0.00     0.018 C 
ENDBRANCH   1   8
TORSDOF 1
ENDMDL
