MODEL 1
REMARK minimizedAffinity -3.34848309
REMARK minimizedRMSD -1
REMARK  1 active torsions:
REMARK  status: ('A' for Active; 'I' for Inactive)
REMARK    1  A    between atoms: C1_2  and  C2_3 
ROOT
ATOM      1  C2  UNL d   1      -0.473  -0.573   0.086  0.00  0.00    -0.081 A 
ATOM      2  C3  UNL d   1      -0.679  -1.211  -1.143  0.00  0.00     0.006 A 
ATOM      3  C4  UNL d   1       0.034  -0.812  -2.276  0.00  0.00     0.002 A 
ATOM      4  C5  UNL d   1       0.969   0.225  -2.197  0.00  0.00    -0.080 A 
ATOM      5  C6  UNL d   1       1.762   0.643  -3.399  0.00  0.00     0.076 C 
ATOM      6  C7  UNL d   1       1.162   0.875  -0.973  0.00  0.00     0.002 A 
ATOM      7  C8  UNL d   1       0.449   0.476   0.160  0.00  0.00     0.006 A 
ENDROOT
BRANCH   1   8
ATOM      8  C1  UNL d   1      -1.193  -1.044   1.324  0.00  0.00     0.054 C 
ATOM      9  C   UNL d   1      -2.483  -0.266   1.544  0.00  0.00     0.018 C 
ENDBRANCH   1   8
TORSDOF 1
ENDMDL
