MODEL 1
REMARK minimizedAffinity -2.9992764
REMARK minimizedRMSD -1
REMARK  1 active torsions:
REMARK  status: ('A' for Active; 'I' for Inactive)
REMARK    1  A    between atoms: C1_2  and  C2_3 
ROOT
ATOM      1  C2  UNL d   1      -2.302   2.257   3.977  0.00  0.00    -0.081 A 
ATOM      2  C3  UNL d   1      -1.858   0.978   3.620  0.00  0.00     0.006 A 
ATOM      3  C4  UNL d   1      -2.557   0.224   2.674  0.00  0.00     0.002 A 
ATOM      4  C5  UNL d   1      -3.706   0.740   2.065  0.00  0.00    -0.080 A 
ATOM      5  C6  UNL d   1      -4.449  -0.047   1.026  0.00  0.00     0.076 C 
ATOM      6  C7  UNL d   1      -4.159   2.011   2.434  0.00  0.00     0.002 A 
ATOM      7  C8  UNL d   1      -3.461   2.764   3.380  0.00  0.00     0.006 A 
ENDROOT
BRANCH   1   8
ATOM      8  C1  UNL d   1      -1.514   3.098   4.949  0.00  0.00     0.054 C 
ATOM      9  C   UNL d   1      -2.419   3.724   6.000  0.00  0.00     0.018 C 
ENDBRANCH   1   8
TORSDOF 1
ENDMDL
