MODEL 1
REMARK minimizedAffinity 2.21826816
REMARK minimizedRMSD -1
REMARK  1 active torsions:
REMARK  status: ('A' for Active; 'I' for Inactive)
REMARK    1  A    between atoms: C1_2  and  C2_3 
ROOT
ATOM      1  C2  UNL d   1       1.554   0.321  -1.134  0.00  0.00    -0.081 A 
ATOM      2  C3  UNL d   1       1.024  -0.916  -0.749  0.00  0.00     0.006 A 
ATOM      3  C4  UNL d   1       0.041  -0.988   0.241  0.00  0.00     0.002 A 
ATOM      4  C5  UNL d   1      -0.434   0.176   0.855  0.00  0.00    -0.080 A 
ATOM      5  C6  UNL d   1      -1.511   0.116   1.898  0.00  0.00     0.076 C 
ATOM      6  C7  UNL d   1       0.108   1.411   0.483  0.00  0.00     0.002 A 
ATOM      7  C8  UNL d   1       1.092   1.483  -0.506  0.00  0.00     0.006 A 
ENDROOT
BRANCH   1   8
ATOM      8  C1  UNL d   1       2.568   0.408  -2.247  0.00  0.00     0.054 C 
ATOM      9  C   UNL d   1       3.988   0.443  -1.700  0.00  0.00     0.018 C 
ENDBRANCH   1   8
TORSDOF 1
ENDMDL
