MODEL 1
REMARK minimizedAffinity 0.315736413
REMARK minimizedRMSD -1
REMARK  1 active torsions:
REMARK  status: ('A' for Active; 'I' for Inactive)
REMARK    1  A    between atoms: C1_2  and  C2_3 
ROOT
ATOM      1  C2  UNL d   1      -0.760   0.535   1.371  0.00  0.00    -0.081 A 
ATOM      2  C3  UNL d   1       0.058   1.327   0.556  0.00  0.00     0.006 A 
ATOM      3  C4  UNL d   1       0.690   0.775  -0.561  0.00  0.00     0.002 A 
ATOM      4  C5  UNL d   1       0.509  -0.574  -0.885  0.00  0.00    -0.080 A 
ATOM      5  C6  UNL d   1       1.158  -1.171  -2.098  0.00  0.00     0.076 C 
ATOM      6  C7  UNL d   1      -0.295  -1.369  -0.061  0.00  0.00     0.002 A 
ATOM      7  C8  UNL d   1      -0.927  -0.818   1.056  0.00  0.00     0.006 A 
ENDROOT
BRANCH   1   8
ATOM      8  C1  UNL d   1      -1.495   1.142   2.539  0.00  0.00     0.054 C 
ATOM      9  C   UNL d   1      -3.003   1.074   2.340  0.00  0.00     0.018 C 
ENDBRANCH   1   8
TORSDOF 1
ENDMDL
