MODEL 1
REMARK minimizedAffinity 11.2975178
REMARK minimizedRMSD -1
REMARK  2 active torsions:
REMARK  status: ('A' for Active; 'I' for Inactive)
REMARK    1  A    between atoms: C1_2  and  C2_3 
REMARK    2  A    between atoms: C2_3  and  C3_4 
ROOT
ATOM      1  C3  UNL d   1      -5.242   0.349  -0.602  0.00  0.00    -0.075 A 
ATOM      2  C4  UNL d   1      -5.613   1.690  -0.781  0.00  0.00     0.002 A 
ATOM      3  C5  UNL d   1      -5.994   2.157  -2.039  0.00  0.00     0.002 A 
ATOM      4  C6  UNL d   1      -6.000   1.295  -3.134  0.00  0.00    -0.004 A 
ATOM      5  C7  UNL d   1      -5.617  -0.035  -2.970  0.00  0.00     0.002 A 
ATOM      6  C8  UNL d   1      -5.240  -0.506  -1.712  0.00  0.00     0.002 A 
ENDROOT
BRANCH   1   7
ATOM      7  C2  UNL d   1      -4.857  -0.170   0.763  0.00  0.00     0.056 C 
BRANCH   7   8
ATOM      8  C1  UNL d   1      -3.868  -1.340   0.728  0.00  0.00     0.007 C 
ATOM      9  C   UNL d   1      -2.417  -0.905   0.892  0.00  0.00     0.009 C 
ENDBRANCH   7   8
ENDBRANCH   1   7
TORSDOF 2
ENDMDL
