MODEL 1
REMARK minimizedAffinity 7.00300598
REMARK minimizedRMSD -1
REMARK  2 active torsions:
REMARK  status: ('A' for Active; 'I' for Inactive)
REMARK    1  A    between atoms: C1_2  and  C2_3 
REMARK    2  A    between atoms: C2_3  and  C3_4 
ROOT
ATOM      1  C3  UNL d   1       5.645   4.393  -2.019  0.00  0.00    -0.075 A 
ATOM      2  C4  UNL d   1       5.303   5.681  -1.584  0.00  0.00     0.002 A 
ATOM      3  C5  UNL d   1       5.323   5.998  -0.225  0.00  0.00     0.002 A 
ATOM      4  C6  UNL d   1       5.674   5.031   0.714  0.00  0.00    -0.004 A 
ATOM      5  C7  UNL d   1       6.000   3.743   0.294  0.00  0.00     0.002 A 
ATOM      6  C8  UNL d   1       5.985   3.425  -1.065  0.00  0.00     0.002 A 
ENDROOT
BRANCH   1   7
ATOM      7  C2  UNL d   1       5.654   4.052  -3.490  0.00  0.00     0.056 C 
BRANCH   7   8
ATOM      8  C1  UNL d   1       4.268   3.752  -4.070  0.00  0.00     0.007 C 
ATOM      9  C   UNL d   1       3.365   2.994  -3.106  0.00  0.00     0.009 C 
ENDBRANCH   7   8
ENDBRANCH   1   7
TORSDOF 2
ENDMDL
