MODEL 1
REMARK minimizedAffinity 13.867444
REMARK minimizedRMSD -1
REMARK  2 active torsions:
REMARK  status: ('A' for Active; 'I' for Inactive)
REMARK    1  A    between atoms: C1_2  and  C2_3 
REMARK    2  A    between atoms: C2_3  and  C3_4 
ROOT
ATOM      1  C3  UNL d   1       5.306   3.646  -0.897  0.00  0.00    -0.075 A 
ATOM      2  C4  UNL d   1       4.039   3.051  -0.983  0.00  0.00     0.002 A 
ATOM      3  C5  UNL d   1       3.391   2.596   0.166  0.00  0.00     0.002 A 
ATOM      4  C6  UNL d   1       4.003   2.720   1.411  0.00  0.00    -0.004 A 
ATOM      5  C7  UNL d   1       5.269   3.295   1.506  0.00  0.00     0.002 A 
ATOM      6  C8  UNL d   1       5.918   3.755   0.359  0.00  0.00     0.002 A 
ENDROOT
BRANCH   1   7
ATOM      7  C2  UNL d   1       6.000   4.168  -2.132  0.00  0.00     0.056 C 
BRANCH   7   8
ATOM      8  C1  UNL d   1       5.044   4.628  -3.237  0.00  0.00     0.007 C 
ATOM      9  C   UNL d   1       5.762   5.167  -4.467  0.00  0.00     0.009 C 
ENDBRANCH   7   8
ENDBRANCH   1   7
TORSDOF 2
ENDMDL
