MODEL 1
REMARK minimizedAffinity 4.67670155
REMARK minimizedRMSD -1
REMARK  2 active torsions:
REMARK  status: ('A' for Active; 'I' for Inactive)
REMARK    1  A    between atoms: C1_2  and  C2_3 
REMARK    2  A    between atoms: C2_3  and  C3_4 
ROOT
ATOM      1  C3  UNL d   1       5.049   3.582   1.370  0.00  0.00    -0.075 A 
ATOM      2  C4  UNL d   1       4.437   4.758   1.827  0.00  0.00     0.002 A 
ATOM      3  C5  UNL d   1       4.591   5.955   1.127  0.00  0.00     0.002 A 
ATOM      4  C6  UNL d   1       5.365   5.993  -0.031  0.00  0.00    -0.004 A 
ATOM      5  C7  UNL d   1       5.991   4.834  -0.485  0.00  0.00     0.002 A 
ATOM      6  C8  UNL d   1       5.835   3.635   0.211  0.00  0.00     0.002 A 
ENDROOT
BRANCH   1   7
ATOM      7  C2  UNL d   1       4.861   2.277   2.107  0.00  0.00     0.056 C 
BRANCH   7   8
ATOM      8  C1  UNL d   1       3.897   1.305   1.419  0.00  0.00     0.007 C 
ATOM      9  C   UNL d   1       2.826   2.005   0.594  0.00  0.00     0.009 C 
ENDBRANCH   7   8
ENDBRANCH   1   7
TORSDOF 2
ENDMDL
