MODEL 1
REMARK minimizedAffinity 10.2138052
REMARK minimizedRMSD -1
REMARK  2 active torsions:
REMARK  status: ('A' for Active; 'I' for Inactive)
REMARK    1  A    between atoms: C1_2  and  C2_3 
REMARK    2  A    between atoms: C2_3  and  C3_4 
ROOT
ATOM      1  C3  UNL d   1       5.443   3.496   0.011  0.00  0.00    -0.075 A 
ATOM      2  C4  UNL d   1       5.740   3.384   1.377  0.00  0.00     0.002 A 
ATOM      3  C5  UNL d   1       5.244   2.315   2.124  0.00  0.00     0.002 A 
ATOM      4  C6  UNL d   1       4.439   1.353   1.520  0.00  0.00    -0.004 A 
ATOM      5  C7  UNL d   1       4.124   1.463   0.167  0.00  0.00     0.002 A 
ATOM      6  C8  UNL d   1       4.622   2.529  -0.584  0.00  0.00     0.002 A 
ENDROOT
BRANCH   1   7
ATOM      7  C2  UNL d   1       6.000   4.635  -0.810  0.00  0.00     0.056 C 
BRANCH   7   8
ATOM      8  C1  UNL d   1       4.931   5.485  -1.504  0.00  0.00     0.007 C 
ATOM      9  C   UNL d   1       4.880   5.272  -3.011  0.00  0.00     0.009 C 
ENDBRANCH   7   8
ENDBRANCH   1   7
TORSDOF 2
ENDMDL
