MODEL 1
REMARK minimizedAffinity 19.7645988
REMARK minimizedRMSD -1
REMARK  2 active torsions:
REMARK  status: ('A' for Active; 'I' for Inactive)
REMARK    1  A    between atoms: C1_2  and  C2_3 
REMARK    2  A    between atoms: C2_3  and  C3_4 
ROOT
ATOM      1  C3  UNL d   1      -0.275   5.066  -3.784  0.00  0.00    -0.075 A 
ATOM      2  C4  UNL d   1       0.048   5.362  -5.117  0.00  0.00     0.002 A 
ATOM      3  C5  UNL d   1      -0.933   5.814  -6.000  0.00  0.00     0.002 A 
ATOM      4  C6  UNL d   1      -2.249   5.964  -5.566  0.00  0.00    -0.004 A 
ATOM      5  C7  UNL d   1      -2.584   5.657  -4.250  0.00  0.00     0.002 A 
ATOM      6  C8  UNL d   1      -1.603   5.210  -3.362  0.00  0.00     0.002 A 
ENDROOT
BRANCH   1   7
ATOM      7  C2  UNL d   1       0.788   4.606  -2.816  0.00  0.00     0.056 C 
BRANCH   7   8
ATOM      8  C1  UNL d   1       1.643   3.444  -3.334  0.00  0.00     0.007 C 
ATOM      9  C   UNL d   1       1.932   2.391  -2.272  0.00  0.00     0.009 C 
ENDBRANCH   7   8
ENDBRANCH   1   7
TORSDOF 2
ENDMDL
