MODEL 1
REMARK minimizedAffinity 14.7163572
REMARK minimizedRMSD -1
REMARK  2 active torsions:
REMARK  status: ('A' for Active; 'I' for Inactive)
REMARK    1  A    between atoms: C1_2  and  C2_3 
REMARK    2  A    between atoms: C2_3  and  C3_4 
ROOT
ATOM      1  C3  UNL d   1       3.293  -4.439  -0.060  0.00  0.00    -0.075 A 
ATOM      2  C4  UNL d   1       3.812  -5.721   0.174  0.00  0.00     0.002 A 
ATOM      3  C5  UNL d   1       5.158  -5.995  -0.067  0.00  0.00     0.002 A 
ATOM      4  C6  UNL d   1       6.000  -4.997  -0.554  0.00  0.00    -0.004 A 
ATOM      5  C7  UNL d   1       5.491  -3.724  -0.806  0.00  0.00     0.002 A 
ATOM      6  C8  UNL d   1       4.146  -3.446  -0.562  0.00  0.00     0.002 A 
ENDROOT
BRANCH   1   7
ATOM      7  C2  UNL d   1       1.844  -4.127   0.227  0.00  0.00     0.056 C 
BRANCH   7   8
ATOM      8  C1  UNL d   1       1.518  -3.997   1.718  0.00  0.00     0.007 C 
ATOM      9  C   UNL d   1       0.758  -2.721   2.057  0.00  0.00     0.009 C 
ENDBRANCH   7   8
ENDBRANCH   1   7
TORSDOF 2
ENDMDL
