MODEL 1
REMARK minimizedAffinity 11.6705408
REMARK minimizedRMSD -1
REMARK  2 active torsions:
REMARK  status: ('A' for Active; 'I' for Inactive)
REMARK    1  A    between atoms: C1_2  and  C2_3 
REMARK    2  A    between atoms: C2_3  and  C3_4 
ROOT
ATOM      1  C3  UNL d   1      -5.822   2.628   3.639  0.00  0.00    -0.075 A 
ATOM      2  C4  UNL d   1      -6.000   4.018   3.588  0.00  0.00     0.002 A 
ATOM      3  C5  UNL d   1      -5.808   4.799   4.728  0.00  0.00     0.002 A 
ATOM      4  C6  UNL d   1      -5.446   4.201   5.933  0.00  0.00    -0.004 A 
ATOM      5  C7  UNL d   1      -5.283   2.819   5.999  0.00  0.00     0.002 A 
ATOM      6  C8  UNL d   1      -5.471   2.036   4.859  0.00  0.00     0.002 A 
ENDROOT
BRANCH   1   7
ATOM      7  C2  UNL d   1      -6.000   1.781   2.402  0.00  0.00     0.056 C 
BRANCH   7   8
ATOM      8  C1  UNL d   1      -4.696   1.493   1.650  0.00  0.00     0.007 C 
ATOM      9  C   UNL d   1      -4.908   0.728   0.350  0.00  0.00     0.009 C 
ENDBRANCH   7   8
ENDBRANCH   1   7
TORSDOF 2
ENDMDL
