MODEL 1
REMARK minimizedAffinity 14.1319351
REMARK minimizedRMSD -1
REMARK  2 active torsions:
REMARK  status: ('A' for Active; 'I' for Inactive)
REMARK    1  A    between atoms: C1_2  and  C2_3 
REMARK    2  A    between atoms: C2_3  and  C3_4 
ROOT
ATOM      1  C3  UNL d   1       2.490   1.476  -1.121  0.00  0.00    -0.075 A 
ATOM      2  C4  UNL d   1       3.216   0.294  -1.325  0.00  0.00     0.002 A 
ATOM      3  C5  UNL d   1       3.663  -0.459  -0.239  0.00  0.00     0.002 A 
ATOM      4  C6  UNL d   1       3.400  -0.035   1.062  0.00  0.00    -0.004 A 
ATOM      5  C7  UNL d   1       2.693   1.146   1.276  0.00  0.00     0.002 A 
ATOM      6  C8  UNL d   1       2.241   1.899   0.191  0.00  0.00     0.002 A 
ENDROOT
BRANCH   1   7
ATOM      7  C2  UNL d   1       1.978   2.280  -2.293  0.00  0.00     0.056 C 
BRANCH   7   8
ATOM      8  C1  UNL d   1       2.732   3.594  -2.525  0.00  0.00     0.007 C 
ATOM      9  C   UNL d   1       1.951   4.822  -2.076  0.00  0.00     0.009 C 
ENDBRANCH   7   8
ENDBRANCH   1   7
TORSDOF 2
ENDMDL
