MODEL 1
REMARK minimizedAffinity 10.1647215
REMARK minimizedRMSD -1
REMARK  2 active torsions:
REMARK  status: ('A' for Active; 'I' for Inactive)
REMARK    1  A    between atoms: C1_2  and  C2_3 
REMARK    2  A    between atoms: C2_3  and  C3_4 
ROOT
ATOM      1  C3  UNL d   1      -2.432   0.225   3.233  0.00  0.00    -0.075 A 
ATOM      2  C4  UNL d   1      -3.612   0.282   2.478  0.00  0.00     0.002 A 
ATOM      3  C5  UNL d   1      -3.723  -0.429   1.282  0.00  0.00     0.002 A 
ATOM      4  C6  UNL d   1      -2.654  -1.195   0.822  0.00  0.00    -0.004 A 
ATOM      5  C7  UNL d   1      -1.471  -1.245   1.556  0.00  0.00     0.002 A 
ATOM      6  C8  UNL d   1      -1.359  -0.539   2.755  0.00  0.00     0.002 A 
ENDROOT
BRANCH   1   7
ATOM      7  C2  UNL d   1      -2.317   0.968   4.543  0.00  0.00     0.056 C 
BRANCH   7   8
ATOM      8  C1  UNL d   1      -3.439   0.655   5.538  0.00  0.00     0.007 C 
ATOM      9  C   UNL d   1      -4.197   1.894   5.997  0.00  0.00     0.009 C 
ENDBRANCH   7   8
ENDBRANCH   1   7
TORSDOF 2
ENDMDL
