MODEL 1
REMARK minimizedAffinity 6.36068726
REMARK minimizedRMSD -1
REMARK  2 active torsions:
REMARK  status: ('A' for Active; 'I' for Inactive)
REMARK    1  A    between atoms: C1_2  and  C2_3 
REMARK    2  A    between atoms: C2_3  and  C3_4 
ROOT
ATOM      1  C3  UNL d   1       4.921   4.065  -2.118  0.00  0.00    -0.075 A 
ATOM      2  C4  UNL d   1       3.714   3.362  -2.243  0.00  0.00     0.002 A 
ATOM      3  C5  UNL d   1       3.401   2.698  -3.430  0.00  0.00     0.002 A 
ATOM      4  C6  UNL d   1       4.283   2.737  -4.507  0.00  0.00    -0.004 A 
ATOM      5  C7  UNL d   1       5.478   3.447  -4.399  0.00  0.00     0.002 A 
ATOM      6  C8  UNL d   1       5.796   4.108  -3.212  0.00  0.00     0.002 A 
ENDROOT
BRANCH   1   7
ATOM      7  C2  UNL d   1       5.279   4.761  -0.826  0.00  0.00     0.056 C 
BRANCH   7   8
ATOM      8  C1  UNL d   1       6.000   3.864   0.186  0.00  0.00     0.007 C 
ATOM      9  C   UNL d   1       5.233   3.695   1.491  0.00  0.00     0.009 C 
ENDBRANCH   7   8
ENDBRANCH   1   7
TORSDOF 2
ENDMDL
