MODEL 1
REMARK minimizedAffinity 13.0135622
REMARK minimizedRMSD -1
REMARK  2 active torsions:
REMARK  status: ('A' for Active; 'I' for Inactive)
REMARK    1  A    between atoms: C1_2  and  C2_3 
REMARK    2  A    between atoms: C2_3  and  C3_4 
ROOT
ATOM      1  C3  UNL d   1      -3.707  -2.318   0.570  0.00  0.00    -0.075 A 
ATOM      2  C4  UNL d   1      -2.538  -2.638   1.276  0.00  0.00     0.002 A 
ATOM      3  C5  UNL d   1      -2.348  -3.923   1.785  0.00  0.00     0.002 A 
ATOM      4  C6  UNL d   1      -3.325  -4.899   1.604  0.00  0.00    -0.004 A 
ATOM      5  C7  UNL d   1      -4.497  -4.588   0.919  0.00  0.00     0.002 A 
ATOM      6  C8  UNL d   1      -4.689  -3.305   0.404  0.00  0.00     0.002 A 
ENDROOT
BRANCH   1   7
ATOM      7  C2  UNL d   1      -3.907  -0.938  -0.009  0.00  0.00     0.056 C 
BRANCH   7   8
ATOM      8  C1  UNL d   1      -3.570  -0.832  -1.500  0.00  0.00     0.007 C 
ATOM      9  C   UNL d   1      -4.774  -0.484  -2.365  0.00  0.00     0.009 C 
ENDBRANCH   7   8
ENDBRANCH   1   7
TORSDOF 2
ENDMDL
