MODEL 1
REMARK minimizedAffinity 6.05584574
REMARK minimizedRMSD -1
REMARK  2 active torsions:
REMARK  status: ('A' for Active; 'I' for Inactive)
REMARK    1  A    between atoms: C1_2  and  C2_3 
REMARK    2  A    between atoms: C2_3  and  C3_4 
ROOT
ATOM      1  C3  UNL d   1       2.262   3.156  -3.208  0.00  0.00    -0.075 A 
ATOM      2  C4  UNL d   1       2.614   1.983  -2.524  0.00  0.00     0.002 A 
ATOM      3  C5  UNL d   1       2.389   1.868  -1.152  0.00  0.00     0.002 A 
ATOM      4  C6  UNL d   1       1.819   2.925  -0.446  0.00  0.00    -0.004 A 
ATOM      5  C7  UNL d   1       1.480   4.101  -1.112  0.00  0.00     0.002 A 
ATOM      6  C8  UNL d   1       1.700   4.217  -2.485  0.00  0.00     0.002 A 
ENDROOT
BRANCH   1   7
ATOM      7  C2  UNL d   1       2.476   3.275  -4.698  0.00  0.00     0.056 C 
BRANCH   7   8
ATOM      8  C1  UNL d   1       3.904   2.954  -5.150  0.00  0.00     0.007 C 
ATOM      9  C   UNL d   1       4.914   4.024  -4.759  0.00  0.00     0.009 C 
ENDBRANCH   7   8
ENDBRANCH   1   7
TORSDOF 2
ENDMDL
