MODEL 1
REMARK minimizedAffinity 14.8422537
REMARK minimizedRMSD -1
REMARK  2 active torsions:
REMARK  status: ('A' for Active; 'I' for Inactive)
REMARK    1  A    between atoms: C1_2  and  C2_3 
REMARK    2  A    between atoms: C2_3  and  C3_4 
ROOT
ATOM      1  C3  UNL d   1       4.672  -3.275  -0.555  0.00  0.00    -0.075 A 
ATOM      2  C4  UNL d   1       3.580  -4.154  -0.588  0.00  0.00     0.002 A 
ATOM      3  C5  UNL d   1       3.691  -5.442  -0.065  0.00  0.00     0.002 A 
ATOM      4  C6  UNL d   1       4.896  -5.872   0.487  0.00  0.00    -0.004 A 
ATOM      5  C7  UNL d   1       5.993  -5.013   0.510  0.00  0.00     0.002 A 
ATOM      6  C8  UNL d   1       5.883  -3.722  -0.008  0.00  0.00     0.002 A 
ENDROOT
BRANCH   1   7
ATOM      7  C2  UNL d   1       4.550  -1.869  -1.092  0.00  0.00     0.056 C 
BRANCH   7   8
ATOM      8  C1  UNL d   1       4.153  -0.831  -0.037  0.00  0.00     0.007 C 
ATOM      9  C   UNL d   1       3.481   0.401  -0.630  0.00  0.00     0.009 C 
ENDBRANCH   7   8
ENDBRANCH   1   7
TORSDOF 2
ENDMDL
