MODEL 1
REMARK minimizedAffinity 8.99609089
REMARK minimizedRMSD -1
REMARK  1 active torsions:
REMARK  status: ('A' for Active; 'I' for Inactive)
REMARK    1  A    between atoms: C3_4  and  O_7 
ROOT
ATOM      1  C   UNL d   1       1.704  -1.071   2.786  0.00  0.00    -0.033 A 
ATOM      2  C1  UNL d   1       2.114  -2.122   3.609  0.00  0.00     0.039 A 
ATOM      3  C2  UNL d   1       3.467  -2.451   3.703  0.00  0.00    -0.080 A 
ATOM      4  C3  UNL d   1       4.400  -1.721   2.972  0.00  0.00     0.150 A 
ATOM      5  C4  UNL d   1       4.000  -0.671   2.153  0.00  0.00    -0.007 A 
ATOM      6  C5  UNL d   1       2.647  -0.345   2.059  0.00  0.00     0.039 A 
ENDROOT
BRANCH   4   7
ATOM      7  O   UNL d   1       5.732  -2.008   3.027  0.00  0.00    -0.526 OA
ATOM      8  H5  UNL d   1       5.857  -2.776   3.610  0.00  0.00     0.418 HD
ENDBRANCH   4   7
TORSDOF 1
ENDMDL
