MODEL 1
REMARK minimizedAffinity 0.336088032
REMARK minimizedRMSD -1
REMARK  1 active torsions:
REMARK  status: ('A' for Active; 'I' for Inactive)
REMARK    1  A    between atoms: C3_4  and  O_7 
ROOT
ATOM      1  C   UNL d   1       2.223  -2.071   3.902  0.00  0.00    -0.033 A 
ATOM      2  C1  UNL d   1       3.432  -2.069   3.204  0.00  0.00     0.039 A 
ATOM      3  C2  UNL d   1       4.640  -2.186   3.895  0.00  0.00    -0.080 A 
ATOM      4  C3  UNL d   1       4.625  -2.304   5.282  0.00  0.00     0.150 A 
ATOM      5  C4  UNL d   1       3.424  -2.311   5.983  0.00  0.00    -0.007 A 
ATOM      6  C5  UNL d   1       2.219  -2.193   5.292  0.00  0.00     0.039 A 
ENDROOT
BRANCH   4   7
ATOM      7  O   UNL d   1       5.778  -2.416   6.000  0.00  0.00    -0.526 OA
ATOM      8  H5  UNL d   1       6.530  -2.368   5.385  0.00  0.00     0.418 HD
ENDBRANCH   4   7
TORSDOF 1
ENDMDL
