MODEL 1
REMARK minimizedAffinity 12.5677328
REMARK minimizedRMSD -1
REMARK  1 active torsions:
REMARK  status: ('A' for Active; 'I' for Inactive)
REMARK    1  A    between atoms: C3_4  and  O_7 
ROOT
ATOM      1  C   UNL d   1      -3.284   3.697  -0.249  0.00  0.00    -0.033 A 
ATOM      2  C1  UNL d   1      -2.686   3.017   0.813  0.00  0.00     0.039 A 
ATOM      3  C2  UNL d   1      -3.420   2.735   1.967  0.00  0.00    -0.080 A 
ATOM      4  C3  UNL d   1      -4.751   3.138   2.045  0.00  0.00     0.150 A 
ATOM      5  C4  UNL d   1      -5.355   3.812   0.988  0.00  0.00    -0.007 A 
ATOM      6  C5  UNL d   1      -4.619   4.093  -0.162  0.00  0.00     0.039 A 
ENDROOT
BRANCH   4   7
ATOM      7  O   UNL d   1      -5.507   2.889   3.152  0.00  0.00    -0.526 OA
ATOM      8  H5  UNL d   1      -4.950   2.443   3.811  0.00  0.00     0.418 HD
ENDBRANCH   4   7
TORSDOF 1
ENDMDL
