MODEL 1
REMARK minimizedAffinity 5.89630318
REMARK minimizedRMSD -1
REMARK  1 active torsions:
REMARK  status: ('A' for Active; 'I' for Inactive)
REMARK    1  A    between atoms: C3_4  and  O_7 
ROOT
ATOM      1  C   UNL d   1       2.112  -2.252   3.536  0.00  0.00    -0.033 A 
ATOM      2  C1  UNL d   1       2.648  -3.413   4.096  0.00  0.00     0.039 A 
ATOM      3  C2  UNL d   1       3.839  -3.355   4.822  0.00  0.00    -0.080 A 
ATOM      4  C3  UNL d   1       4.483  -2.131   4.981  0.00  0.00     0.150 A 
ATOM      5  C4  UNL d   1       3.953  -0.970   4.429  0.00  0.00    -0.007 A 
ATOM      6  C5  UNL d   1       2.764  -1.030   3.703  0.00  0.00     0.039 A 
ENDROOT
BRANCH   4   7
ATOM      7  O   UNL d   1       5.651  -2.025   5.677  0.00  0.00    -0.526 OA
ATOM      8  H5  UNL d   1       5.912  -2.912   5.976  0.00  0.00     0.418 HD
ENDBRANCH   4   7
TORSDOF 1
ENDMDL
