MODEL 1
REMARK minimizedAffinity 9.0567112
REMARK minimizedRMSD -1
REMARK  1 active torsions:
REMARK  status: ('A' for Active; 'I' for Inactive)
REMARK    1  A    between atoms: C3_4  and  O_7 
ROOT
ATOM      1  C   UNL d   1       3.551  -5.889  -5.999  0.00  0.00    -0.033 A 
ATOM      2  C1  UNL d   1       4.901  -5.997  -5.660  0.00  0.00     0.039 A 
ATOM      3  C2  UNL d   1       5.334  -5.632  -4.384  0.00  0.00    -0.080 A 
ATOM      4  C3  UNL d   1       4.408  -5.162  -3.457  0.00  0.00     0.150 A 
ATOM      5  C4  UNL d   1       3.060  -5.055  -3.787  0.00  0.00    -0.007 A 
ATOM      6  C5  UNL d   1       2.631  -5.419  -5.062  0.00  0.00     0.039 A 
ENDROOT
BRANCH   4   7
ATOM      7  O   UNL d   1       4.783  -4.789  -2.201  0.00  0.00    -0.526 OA
ATOM      8  H5  UNL d   1       5.747  -4.890  -2.125  0.00  0.00     0.418 HD
ENDBRANCH   4   7
TORSDOF 1
ENDMDL
