MODEL 1
REMARK minimizedAffinity 6.0184207
REMARK minimizedRMSD -1
REMARK  1 active torsions:
REMARK  status: ('A' for Active; 'I' for Inactive)
REMARK    1  A    between atoms: C3_4  and  O_7 
ROOT
ATOM      1  C   UNL d   1       1.438  -1.654   1.612  0.00  0.00    -0.033 A 
ATOM      2  C1  UNL d   1       1.897  -2.929   1.276  0.00  0.00     0.039 A 
ATOM      3  C2  UNL d   1       2.593  -3.692   2.215  0.00  0.00    -0.080 A 
ATOM      4  C3  UNL d   1       2.821  -3.171   3.485  0.00  0.00     0.150 A 
ATOM      5  C4  UNL d   1       2.364  -1.903   3.828  0.00  0.00    -0.007 A 
ATOM      6  C5  UNL d   1       1.670  -1.141   2.888  0.00  0.00     0.039 A 
ENDROOT
BRANCH   4   7
ATOM      7  O   UNL d   1       3.500  -3.877   4.434  0.00  0.00    -0.526 OA
ATOM      8  H5  UNL d   1       3.780  -4.722   4.047  0.00  0.00     0.418 HD
ENDBRANCH   4   7
TORSDOF 1
ENDMDL
