MODEL 1
REMARK minimizedAffinity -3.89174128
REMARK minimizedRMSD -1
REMARK  1 active torsions:
REMARK  status: ('A' for Active; 'I' for Inactive)
REMARK    1  A    between atoms: C1_2  and  C2_3 
ROOT
ATOM      1  C2  UNL d   1       0.400  -0.023   0.014  0.00  0.00    -0.077 A 
ATOM      2  C3  UNL d   1       0.262  -1.220  -0.702  0.00  0.00     0.002 A 
ATOM      3  C4  UNL d   1       0.791  -1.339  -1.989  0.00  0.00     0.002 A 
ATOM      4  C5  UNL d   1       1.466  -0.266  -2.568  0.00  0.00    -0.004 A 
ATOM      5  C6  UNL d   1       1.607   0.930  -1.864  0.00  0.00     0.002 A 
ATOM      6  C7  UNL d   1       1.077   1.050  -0.579  0.00  0.00     0.002 A 
ENDROOT
BRANCH   1   7
ATOM      7  C1  UNL d   1      -0.127   0.090   1.421  0.00  0.00     0.055 C 
ATOM      8  C   UNL d   1      -1.649   0.093   1.443  0.00  0.00     0.019 C 
ENDBRANCH   1   7
TORSDOF 1
ENDMDL
