MODEL 1
REMARK minimizedAffinity -6.14071083
REMARK minimizedRMSD -1
REMARK  1 active torsions:
REMARK  status: ('A' for Active; 'I' for Inactive)
REMARK    1  A    between atoms: C1_2  and  C2_3 
ROOT
ATOM      1  C2  UNL d   1       0.143   0.127  -0.409  0.00  0.00    -0.077 A 
ATOM      2  C3  UNL d   1       0.224  -0.848  -1.414  0.00  0.00     0.002 A 
ATOM      3  C4  UNL d   1       0.987  -0.618  -2.561  0.00  0.00     0.002 A 
ATOM      4  C5  UNL d   1       1.677   0.583  -2.711  0.00  0.00    -0.004 A 
ATOM      5  C6  UNL d   1       1.600   1.559  -1.719  0.00  0.00     0.002 A 
ATOM      6  C7  UNL d   1       0.838   1.332  -0.572  0.00  0.00     0.002 A 
ENDROOT
BRANCH   1   7
ATOM      7  C1  UNL d   1      -0.639  -0.139   0.851  0.00  0.00     0.055 C 
ATOM      8  C   UNL d   1      -2.113   0.193   0.668  0.00  0.00     0.019 C 
ENDBRANCH   1   7
TORSDOF 1
ENDMDL
