MODEL 1
REMARK minimizedAffinity -5.02747679
REMARK minimizedRMSD -1
REMARK  1 active torsions:
REMARK  status: ('A' for Active; 'I' for Inactive)
REMARK    1  A    between atoms: C1_2  and  C2_3 
ROOT
ATOM      1  C2  UNL d   1      -0.342   0.101   0.204  0.00  0.00    -0.077 A 
ATOM      2  C3  UNL d   1      -0.281  -0.944  -0.728  0.00  0.00     0.002 A 
ATOM      3  C4  UNL d   1       0.473  -0.808  -1.895  0.00  0.00     0.002 A 
ATOM      4  C5  UNL d   1       1.176   0.371  -2.138  0.00  0.00    -0.004 A 
ATOM      5  C6  UNL d   1       1.120   1.417  -1.219  0.00  0.00     0.002 A 
ATOM      6  C7  UNL d   1       0.365   1.283  -0.053  0.00  0.00     0.002 A 
ENDROOT
BRANCH   1   7
ATOM      7  C1  UNL d   1      -1.116  -0.063   1.486  0.00  0.00     0.055 C 
ATOM      8  C   UNL d   1      -2.186   1.010   1.628  0.00  0.00     0.019 C 
ENDBRANCH   1   7
TORSDOF 1
ENDMDL
