MODEL 1
REMARK minimizedAffinity -6.12328434
REMARK minimizedRMSD -1
REMARK  1 active torsions:
REMARK  status: ('A' for Active; 'I' for Inactive)
REMARK    1  A    between atoms: C1_2  and  C2_3 
ROOT
ATOM      1  C2  UNL d   1       0.853  -0.137  -1.436  0.00  0.00    -0.077 A 
ATOM      2  C3  UNL d   1       0.684  -1.513  -1.647  0.00  0.00     0.002 A 
ATOM      3  C4  UNL d   1       1.758  -2.300  -2.065  0.00  0.00     0.002 A 
ATOM      4  C5  UNL d   1       3.009  -1.722  -2.271  0.00  0.00    -0.004 A 
ATOM      5  C6  UNL d   1       3.187  -0.355  -2.065  0.00  0.00     0.002 A 
ATOM      6  C7  UNL d   1       2.114   0.434  -1.648  0.00  0.00     0.002 A 
ENDROOT
BRANCH   1   7
ATOM      7  C1  UNL d   1      -0.293   0.705  -0.938  0.00  0.00     0.055 C 
ATOM      8  C   UNL d   1       0.051   1.382   0.381  0.00  0.00     0.019 C 
ENDBRANCH   1   7
TORSDOF 1
ENDMDL
