MODEL 1
REMARK minimizedAffinity -5.10127401
REMARK minimizedRMSD -1
REMARK  1 active torsions:
REMARK  status: ('A' for Active; 'I' for Inactive)
REMARK    1  A    between atoms: C1_2  and  C2_3 
ROOT
ATOM      1  C2  UNL d   1       0.145   0.128   0.022  0.00  0.00    -0.077 A 
ATOM      2  C3  UNL d   1       0.295  -1.073  -0.687  0.00  0.00     0.002 A 
ATOM      3  C4  UNL d   1       1.187  -1.154  -1.758  0.00  0.00     0.002 A 
ATOM      4  C5  UNL d   1       1.938  -0.041  -2.127  0.00  0.00    -0.004 A 
ATOM      5  C6  UNL d   1       1.795   1.159  -1.430  0.00  0.00     0.002 A 
ATOM      6  C7  UNL d   1       0.903   1.242  -0.360  0.00  0.00     0.002 A 
ENDROOT
BRANCH   1   7
ATOM      7  C1  UNL d   1      -0.779   0.203   1.208  0.00  0.00     0.055 C 
ATOM      8  C   UNL d   1      -2.206   0.515   0.780  0.00  0.00     0.019 C 
ENDBRANCH   1   7
TORSDOF 1
ENDMDL
