MODEL 1
REMARK minimizedAffinity -4.87360239
REMARK minimizedRMSD -1
REMARK  1 active torsions:
REMARK  status: ('A' for Active; 'I' for Inactive)
REMARK    1  A    between atoms: C1_2  and  C2_3 
ROOT
ATOM      1  C2  UNL d   1      -0.517   0.370   0.383  0.00  0.00    -0.077 A 
ATOM      2  C3  UNL d   1      -0.907  -0.556  -0.595  0.00  0.00     0.002 A 
ATOM      3  C4  UNL d   1      -0.157  -0.707  -1.763  0.00  0.00     0.002 A 
ATOM      4  C5  UNL d   1       0.988   0.061  -1.963  0.00  0.00    -0.004 A 
ATOM      5  C6  UNL d   1       1.382   0.986  -0.997  0.00  0.00     0.002 A 
ATOM      6  C7  UNL d   1       0.634   1.140   0.171  0.00  0.00     0.002 A 
ENDROOT
BRANCH   1   7
ATOM      7  C1  UNL d   1      -1.297   0.500   1.665  0.00  0.00     0.055 C 
ATOM      8  C   UNL d   1      -2.763   0.146   1.460  0.00  0.00     0.019 C 
ENDBRANCH   1   7
TORSDOF 1
ENDMDL
