MODEL 1
REMARK minimizedAffinity -3.37921286
REMARK minimizedRMSD -1
REMARK  1 active torsions:
REMARK  status: ('A' for Active; 'I' for Inactive)
REMARK    1  A    between atoms: C1_2  and  C2_3 
ROOT
ATOM      1  C2  UNL d   1       0.720   0.603  -0.695  0.00  0.00    -0.077 A 
ATOM      2  C3  UNL d   1       0.345  -0.741  -0.836  0.00  0.00     0.002 A 
ATOM      3  C4  UNL d   1      -0.422  -1.367   0.148  0.00  0.00     0.002 A 
ATOM      4  C5  UNL d   1      -0.824  -0.657   1.277  0.00  0.00    -0.004 A 
ATOM      5  C6  UNL d   1      -0.455   0.679   1.428  0.00  0.00     0.002 A 
ATOM      6  C7  UNL d   1       0.312   1.306   0.445  0.00  0.00     0.002 A 
ENDROOT
BRANCH   1   7
ATOM      7  C1  UNL d   1       1.505   1.294  -1.779  0.00  0.00     0.055 C 
ATOM      8  C   UNL d   1       1.528   0.470  -3.058  0.00  0.00     0.019 C 
ENDBRANCH   1   7
TORSDOF 1
ENDMDL
