MODEL 1
REMARK minimizedAffinity -2.47468615
REMARK minimizedRMSD -1
REMARK  1 active torsions:
REMARK  status: ('A' for Active; 'I' for Inactive)
REMARK    1  A    between atoms: C1_2  and  C2_3 
ROOT
ATOM      1  C2  UNL d   1       0.428  -0.148  -0.950  0.00  0.00    -0.077 A 
ATOM      2  C3  UNL d   1       0.878   1.122  -0.562  0.00  0.00     0.002 A 
ATOM      3  C4  UNL d   1       0.407   1.709   0.614  0.00  0.00     0.002 A 
ATOM      4  C5  UNL d   1      -0.512   1.033   1.413  0.00  0.00    -0.004 A 
ATOM      5  C6  UNL d   1      -0.968  -0.229   1.035  0.00  0.00     0.002 A 
ATOM      6  C7  UNL d   1      -0.499  -0.817  -0.141  0.00  0.00     0.002 A 
ENDROOT
BRANCH   1   7
ATOM      7  C1  UNL d   1       0.971  -0.803  -2.192  0.00  0.00     0.055 C 
ATOM      8  C   UNL d   1      -0.151  -1.302  -3.091  0.00  0.00     0.019 C 
ENDBRANCH   1   7
TORSDOF 1
ENDMDL
