MODEL 1
REMARK minimizedAffinity -1.99252057
REMARK minimizedRMSD -1
REMARK  1 active torsions:
REMARK  status: ('A' for Active; 'I' for Inactive)
REMARK    1  A    between atoms: C1_2  and  C2_3 
ROOT
ATOM      1  C2  UNL d   1      -1.190   0.104   0.906  0.00  0.00    -0.077 A 
ATOM      2  C3  UNL d   1      -2.070  -0.858   0.389  0.00  0.00     0.002 A 
ATOM      3  C4  UNL d   1      -3.413  -0.864   0.771  0.00  0.00     0.002 A 
ATOM      4  C5  UNL d   1      -3.889   0.091   1.667  0.00  0.00    -0.004 A 
ATOM      5  C6  UNL d   1      -3.021   1.050   2.188  0.00  0.00     0.002 A 
ATOM      6  C7  UNL d   1      -1.678   1.057   1.809  0.00  0.00     0.002 A 
ENDROOT
BRANCH   1   7
ATOM      7  C1  UNL d   1       0.248   0.142   0.458  0.00  0.00     0.055 C 
ATOM      8  C   UNL d   1       0.627   1.519  -0.067  0.00  0.00     0.019 C 
ENDBRANCH   1   7
TORSDOF 1
ENDMDL
