MODEL 1
REMARK minimizedAffinity -4.57684517
REMARK minimizedRMSD -1
REMARK  1 active torsions:
REMARK  status: ('A' for Active; 'I' for Inactive)
REMARK    1  A    between atoms: C1_2  and  C2_3 
ROOT
ATOM      1  C2  UNL d   1       1.152   0.275  -1.505  0.00  0.00    -0.077 A 
ATOM      2  C3  UNL d   1       0.506  -0.832  -0.937  0.00  0.00     0.002 A 
ATOM      3  C4  UNL d   1       0.881  -2.129  -1.296  0.00  0.00     0.002 A 
ATOM      4  C5  UNL d   1       1.904  -2.330  -2.219  0.00  0.00    -0.004 A 
ATOM      5  C6  UNL d   1       2.551  -1.235  -2.791  0.00  0.00     0.002 A 
ATOM      6  C7  UNL d   1       2.178   0.061  -2.435  0.00  0.00     0.002 A 
ENDROOT
BRANCH   1   7
ATOM      7  C1  UNL d   1       0.784   1.673  -1.083  0.00  0.00     0.055 C 
ATOM      8  C   UNL d   1       0.667   1.782   0.430  0.00  0.00     0.019 C 
ENDBRANCH   1   7
TORSDOF 1
ENDMDL
