MODEL 1
REMARK minimizedAffinity -4.4919281
REMARK minimizedRMSD -1
REMARK  0 active torsions:
REMARK  status: ('A' for Active; 'I' for Inactive)
ROOT
ATOM      1  C1  BNZ d   1       0.825  -1.124  -0.152  0.00  0.00     0.000 A 
ATOM      2  C2  BNZ d   1      -0.287  -1.900   0.040  0.00  0.00     0.000 A 
ATOM      3  C3  BNZ d   1      -1.485  -1.334   0.375  0.00  0.00     0.000 A 
ATOM      4  C4  BNZ d   1      -1.561  -0.000   0.556  0.00  0.00     0.000 A 
ATOM      5  C5  BNZ d   1      -0.447   0.794   0.375  0.00  0.00     0.000 A 
ATOM      6  C6  BNZ d   1       0.749   0.226   0.000  0.00  0.00     0.000 A 
ENDROOT
TORSDOF 0
ENDMDL
