MODEL 1
REMARK minimizedAffinity -3.49056339
REMARK minimizedRMSD -1
REMARK  0 active torsions:
REMARK  status: ('A' for Active; 'I' for Inactive)
ROOT
ATOM      1  C1  BNZ d   1      -1.499   0.297   0.206  0.00  0.00     0.000 A 
ATOM      2  C2  BNZ d   1      -0.597   1.278  -0.109  0.00  0.00     0.000 A 
ATOM      3  C3  BNZ d   1       0.708   0.970  -0.374  0.00  0.00     0.000 A 
ATOM      4  C4  BNZ d   1       1.118  -0.312  -0.285  0.00  0.00     0.000 A 
ATOM      5  C5  BNZ d   1       0.222  -1.311   0.041  0.00  0.00     0.000 A 
ATOM      6  C6  BNZ d   1      -1.099  -1.002   0.269  0.00  0.00     0.000 A 
ENDROOT
TORSDOF 0
ENDMDL
