MODEL 1
REMARK minimizedAffinity -3.57559037
REMARK minimizedRMSD -1
REMARK  0 active torsions:
REMARK  status: ('A' for Active; 'I' for Inactive)
ROOT
ATOM      1  C1  BNZ d   1      -1.886   0.590   1.203  0.00  0.00     0.000 A 
ATOM      2  C2  BNZ d   1      -0.854   1.393   0.796  0.00  0.00     0.000 A 
ATOM      3  C3  BNZ d   1       0.279   0.854   0.254  0.00  0.00     0.000 A 
ATOM      4  C4  BNZ d   1       0.396  -0.486   0.156  0.00  0.00     0.000 A 
ATOM      5  C5  BNZ d   1      -0.632  -1.309   0.571  0.00  0.00     0.000 A 
ATOM      6  C6  BNZ d   1      -1.788  -0.762   1.080  0.00  0.00     0.000 A 
ENDROOT
TORSDOF 0
ENDMDL
