MODEL 1
REMARK minimizedAffinity -4.8145647
REMARK minimizedRMSD -1
REMARK  0 active torsions:
REMARK  status: ('A' for Active; 'I' for Inactive)
ROOT
ATOM      1  C1  BNZ d   1       0.696  -0.440  -0.018  0.00  0.00     0.000 A 
ATOM      2  C2  BNZ d   1       0.760  -1.773   0.292  0.00  0.00     0.000 A 
ATOM      3  C3  BNZ d   1      -0.240  -2.375   1.002  0.00  0.00     0.000 A 
ATOM      4  C4  BNZ d   1      -1.283  -1.637   1.435  0.00  0.00     0.000 A 
ATOM      5  C5  BNZ d   1      -1.357  -0.290   1.139  0.00  0.00     0.000 A 
ATOM      6  C6  BNZ d   1      -0.367   0.304   0.390  0.00  0.00     0.000 A 
ENDROOT
TORSDOF 0
ENDMDL
