MODEL 1
REMARK minimizedAffinity -3.45497012
REMARK minimizedRMSD -1
REMARK  0 active torsions:
REMARK  status: ('A' for Active; 'I' for Inactive)
ROOT
ATOM      1  C1  BNZ d   1      -2.521  -1.460   1.720  0.00  0.00     0.000 A 
ATOM      2  C2  BNZ d   1      -2.172  -0.559   0.750  0.00  0.00     0.000 A 
ATOM      3  C3  BNZ d   1      -0.892  -0.506   0.273  0.00  0.00     0.000 A 
ATOM      4  C4  BNZ d   1       0.045  -1.325   0.794  0.00  0.00     0.000 A 
ATOM      5  C5  BNZ d   1      -0.290  -2.232   1.779  0.00  0.00     0.000 A 
ATOM      6  C6  BNZ d   1      -1.588  -2.310   2.230  0.00  0.00     0.000 A 
ENDROOT
TORSDOF 0
ENDMDL
