MODEL 1
REMARK minimizedAffinity -3.79722404
REMARK minimizedRMSD -1
REMARK  0 active torsions:
REMARK  status: ('A' for Active; 'I' for Inactive)
ROOT
ATOM      1  C1  BNZ d   1       1.115  -1.842  -0.869  0.00  0.00     0.000 A 
ATOM      2  C2  BNZ d   1       1.121  -0.507  -1.178  0.00  0.00     0.000 A 
ATOM      3  C3  BNZ d   1       0.485   0.399  -0.376  0.00  0.00     0.000 A 
ATOM      4  C4  BNZ d   1      -0.188  -0.033   0.710  0.00  0.00     0.000 A 
ATOM      5  C5  BNZ d   1      -0.211  -1.377   1.029  0.00  0.00     0.000 A 
ATOM      6  C6  BNZ d   1       0.463  -2.282   0.241  0.00  0.00     0.000 A 
ENDROOT
TORSDOF 0
ENDMDL
