MODEL 1
REMARK minimizedAffinity -3.68904471
REMARK minimizedRMSD -1
REMARK  0 active torsions:
REMARK  status: ('A' for Active; 'I' for Inactive)
ROOT
ATOM      1  C1  BNZ d   1       1.205  -0.265  -0.292  0.00  0.00     0.000 A 
ATOM      2  C2  BNZ d   1       1.311  -1.576   0.090  0.00  0.00     0.000 A 
ATOM      3  C3  BNZ d   1       0.247  -2.233   0.642  0.00  0.00     0.000 A 
ATOM      4  C4  BNZ d   1      -0.908  -1.569   0.847  0.00  0.00     0.000 A 
ATOM      5  C5  BNZ d   1      -1.029  -0.244   0.476  0.00  0.00     0.000 A 
ATOM      6  C6  BNZ d   1       0.033   0.403  -0.114  0.00  0.00     0.000 A 
ENDROOT
TORSDOF 0
ENDMDL
