MODEL 1
REMARK minimizedAffinity -4.24386263
REMARK minimizedRMSD -1
REMARK  0 active torsions:
REMARK  status: ('A' for Active; 'I' for Inactive)
ROOT
ATOM      1  C1  BNZ d   1       1.079  -1.080   0.524  0.00  0.00     0.000 A 
ATOM      2  C2  BNZ d   1       0.196  -2.047   0.925  0.00  0.00     0.000 A 
ATOM      3  C3  BNZ d   1      -1.128  -1.758   1.099  0.00  0.00     0.000 A 
ATOM      4  C4  BNZ d   1      -1.561  -0.494   0.911  0.00  0.00     0.000 A 
ATOM      5  C5  BNZ d   1      -0.682   0.494   0.516  0.00  0.00     0.000 A 
ATOM      6  C6  BNZ d   1       0.644   0.191   0.304  0.00  0.00     0.000 A 
ENDROOT
TORSDOF 0
ENDMDL
