MODEL 1
REMARK minimizedAffinity -3.94185281
REMARK minimizedRMSD -1
REMARK  0 active torsions:
REMARK  status: ('A' for Active; 'I' for Inactive)
ROOT
ATOM      1  C1  BNZ d   1       0.474   2.541  -3.306  0.00  0.00     0.000 A 
ATOM      2  C2  BNZ d   1       1.561   2.223  -4.076  0.00  0.00     0.000 A 
ATOM      3  C3  BNZ d   1       2.700   1.725  -3.507  0.00  0.00     0.000 A 
ATOM      4  C4  BNZ d   1       2.765   1.583  -2.168  0.00  0.00     0.000 A 
ATOM      5  C5  BNZ d   1       1.680   1.908  -1.377  0.00  0.00     0.000 A 
ATOM      6  C6  BNZ d   1       0.522   2.372  -1.957  0.00  0.00     0.000 A 
ENDROOT
TORSDOF 0
ENDMDL
