MODEL 1
REMARK minimizedAffinity -3.93493462
REMARK minimizedRMSD -1
REMARK  0 active torsions:
REMARK  status: ('A' for Active; 'I' for Inactive)
ROOT
ATOM      1  C1  BNZ d   1      -2.424  -0.626   1.959  0.00  0.00     0.000 A 
ATOM      2  C2  BNZ d   1      -1.834   0.404   1.274  0.00  0.00     0.000 A 
ATOM      3  C3  BNZ d   1      -0.725   0.188   0.506  0.00  0.00     0.000 A 
ATOM      4  C4  BNZ d   1      -0.183  -1.046   0.454  0.00  0.00     0.000 A 
ATOM      5  C5  BNZ d   1      -0.760  -2.092   1.147  0.00  0.00     0.000 A 
ATOM      6  C6  BNZ d   1      -1.900  -1.879   1.888  0.00  0.00     0.000 A 
ENDROOT
TORSDOF 0
ENDMDL
