MODEL 1
REMARK minimizedAffinity -4.24749756
REMARK minimizedRMSD -1
REMARK  0 active torsions:
REMARK  status: ('A' for Active; 'I' for Inactive)
ROOT
ATOM      1  C1  BNZ d   1       1.069  -1.083   0.355  0.00  0.00     0.000 A 
ATOM      2  C2  BNZ d   1       0.738   0.226   0.126  0.00  0.00     0.000 A 
ATOM      3  C3  BNZ d   1      -0.540   0.670   0.322  0.00  0.00     0.000 A 
ATOM      4  C4  BNZ d   1      -1.493  -0.203   0.708  0.00  0.00     0.000 A 
ATOM      5  C5  BNZ d   1      -1.177  -1.528   0.934  0.00  0.00     0.000 A 
ATOM      6  C6  BNZ d   1       0.119  -1.963   0.773  0.00  0.00     0.000 A 
ENDROOT
TORSDOF 0
ENDMDL
