MODEL 1
REMARK minimizedAffinity -3.09813929
REMARK minimizedRMSD -1
REMARK  0 active torsions:
REMARK  status: ('A' for Active; 'I' for Inactive)
ROOT
ATOM      1  C1  BNZ d   1       0.872   0.149   0.305  0.00  0.00     0.000 A 
ATOM      2  C2  BNZ d   1      -0.084  -0.823   0.433  0.00  0.00     0.000 A 
ATOM      3  C3  BNZ d   1      -1.412  -0.501   0.443  0.00  0.00     0.000 A 
ATOM      4  C4  BNZ d   1      -1.781   0.793   0.367  0.00  0.00     0.000 A 
ATOM      5  C5  BNZ d   1      -0.829   1.786   0.248  0.00  0.00     0.000 A 
ATOM      6  C6  BNZ d   1       0.505   1.455   0.198  0.00  0.00     0.000 A 
ENDROOT
TORSDOF 0
ENDMDL
