MODEL 1
REMARK minimizedAffinity -5.30011559
REMARK minimizedRMSD -1
REMARK  0 active torsions:
REMARK  status: ('A' for Active; 'I' for Inactive)
ROOT
ATOM      1  C1  BNZ d   1      -0.754  -1.446   0.158  0.00  0.00     0.000 A 
ATOM      2  C2  BNZ d   1      -1.281  -2.488   0.873  0.00  0.00     0.000 A 
ATOM      3  C3  BNZ d   1      -2.373  -2.305   1.675  0.00  0.00     0.000 A 
ATOM      4  C4  BNZ d   1      -2.911  -1.074   1.792  0.00  0.00     0.000 A 
ATOM      5  C5  BNZ d   1      -2.385  -0.011   1.085  0.00  0.00     0.000 A 
ATOM      6  C6  BNZ d   1      -1.310  -0.207   0.249  0.00  0.00     0.000 A 
ENDROOT
TORSDOF 0
ENDMDL
