MODEL 1
REMARK minimizedAffinity -4.86109495
REMARK minimizedRMSD -1
REMARK  0 active torsions:
REMARK  status: ('A' for Active; 'I' for Inactive)
ROOT
ATOM      1  C1  BNZ d   1      -0.854  -0.294   0.364  0.00  0.00     0.000 A 
ATOM      2  C2  BNZ d   1      -1.958  -0.231   1.172  0.00  0.00     0.000 A 
ATOM      3  C3  BNZ d   1      -2.370  -1.324   1.881  0.00  0.00     0.000 A 
ATOM      4  C4  BNZ d   1      -1.703  -2.489   1.751  0.00  0.00     0.000 A 
ATOM      5  C5  BNZ d   1      -0.593  -2.571   0.933  0.00  0.00     0.000 A 
ATOM      6  C6  BNZ d   1      -0.158  -1.458   0.251  0.00  0.00     0.000 A 
ENDROOT
TORSDOF 0
ENDMDL
