MODEL 1
REMARK minimizedAffinity -4.99497652
REMARK minimizedRMSD -1
REMARK  0 active torsions:
REMARK  status: ('A' for Active; 'I' for Inactive)
ROOT
ATOM      1  C1  BNZ d   1       0.409  -1.103   0.407  0.00  0.00     0.000 A 
ATOM      2  C2  BNZ d   1      -0.193  -2.231   0.896  0.00  0.00     0.000 A 
ATOM      3  C3  BNZ d   1      -1.506  -2.217   1.274  0.00  0.00     0.000 A 
ATOM      4  C4  BNZ d   1      -2.205  -1.065   1.200  0.00  0.00     0.000 A 
ATOM      5  C5  BNZ d   1      -1.610   0.083   0.718  0.00  0.00     0.000 A 
ATOM      6  C6  BNZ d   1      -0.299   0.055   0.302  0.00  0.00     0.000 A 
ENDROOT
TORSDOF 0
ENDMDL
