MODEL 1
REMARK minimizedAffinity -4.34526682
REMARK minimizedRMSD -1
REMARK  0 active torsions:
REMARK  status: ('A' for Active; 'I' for Inactive)
ROOT
ATOM      1  C1  BNZ d   1      -1.593   0.018   0.193  0.00  0.00     0.000 A 
ATOM      2  C2  BNZ d   1      -0.515   0.843   0.015  0.00  0.00     0.000 A 
ATOM      3  C3  BNZ d   1       0.758   0.344   0.028  0.00  0.00     0.000 A 
ATOM      4  C4  BNZ d   1       0.952  -0.970   0.258  0.00  0.00     0.000 A 
ATOM      5  C5  BNZ d   1      -0.124  -1.813   0.448  0.00  0.00     0.000 A 
ATOM      6  C6  BNZ d   1      -1.406  -1.314   0.396  0.00  0.00     0.000 A 
ENDROOT
TORSDOF 0
ENDMDL
