MODEL 1
REMARK minimizedAffinity -3.85637546
REMARK minimizedRMSD -1
REMARK  0 active torsions:
REMARK  status: ('A' for Active; 'I' for Inactive)
ROOT
ATOM      1  C1  DEN d   1      -1.859   1.870   0.011  0.00  0.00     0.130 A 
ATOM      2  C2  DEN d   1      -2.183   2.205   1.395  0.00  0.00    -0.031 A 
ATOM      3  C3  DEN d   1      -1.352   1.360   2.276  0.00  0.00     0.027 A 
ATOM      4  C4  DEN d   1       0.400  -0.421   1.634  0.00  0.00     0.027 A 
ATOM      5  C5  DEN d   1       1.013  -1.064   0.582  0.00  0.00    -0.003 A 
ATOM      6  C6  DEN d   1       0.690  -0.801  -0.723  0.00  0.00     0.001 A 
ATOM      7  C7  DEN d   1      -0.240   0.162  -1.011  0.00  0.00     0.017 A 
ATOM      8  C8  DEN d   1      -0.868   0.810   0.045  0.00  0.00    -0.094 A 
ATOM      9  C9  DEN d   1      -0.518   0.539   1.357  0.00  0.00    -0.072 A 
ENDROOT
TORSDOF 0
ENDMDL
