MODEL 1
REMARK minimizedAffinity -4.99879789
REMARK minimizedRMSD -1
REMARK  0 active torsions:
REMARK  status: ('A' for Active; 'I' for Inactive)
ROOT
ATOM      1  C1  DEN d   1      -1.762  -0.405   0.353  0.00  0.00     0.130 A 
ATOM      2  C2  DEN d   1      -1.078   0.730   0.966  0.00  0.00    -0.031 A 
ATOM      3  C3  DEN d   1       0.333   0.702   0.532  0.00  0.00     0.027 A 
ATOM      4  C4  DEN d   1       1.519  -0.977  -1.026  0.00  0.00     0.027 A 
ATOM      5  C5  DEN d   1       1.353  -2.117  -1.781  0.00  0.00    -0.003 A 
ATOM      6  C6  DEN d   1       0.157  -2.780  -1.850  0.00  0.00     0.001 A 
ATOM      7  C7  DEN d   1      -0.934  -2.282  -1.188  0.00  0.00     0.017 A 
ATOM      8  C8  DEN d   1      -0.774  -1.138  -0.418  0.00  0.00    -0.094 A 
ATOM      9  C9  DEN d   1       0.441  -0.475  -0.371  0.00  0.00    -0.072 A 
ENDROOT
TORSDOF 0
ENDMDL
