MODEL 1
REMARK minimizedAffinity -4.80229425
REMARK minimizedRMSD -1
REMARK  0 active torsions:
REMARK  status: ('A' for Active; 'I' for Inactive)
ROOT
ATOM      1  C1  DEN d   1       0.379  -0.038  -0.927  0.00  0.00     0.130 A 
ATOM      2  C2  DEN d   1       1.173  -0.793   0.038  0.00  0.00    -0.031 A 
ATOM      3  C3  DEN d   1       0.648  -0.502   1.388  0.00  0.00     0.027 A 
ATOM      4  C4  DEN d   1      -1.311   1.030   2.071  0.00  0.00     0.027 A 
ATOM      5  C5  DEN d   1      -2.280   1.890   1.603  0.00  0.00    -0.003 A 
ATOM      6  C6  DEN d   1      -2.408   2.191   0.273  0.00  0.00     0.001 A 
ATOM      7  C7  DEN d   1      -1.581   1.593  -0.641  0.00  0.00     0.017 A 
ATOM      8  C8  DEN d   1      -0.597   0.731  -0.176  0.00  0.00    -0.094 A 
ATOM      9  C9  DEN d   1      -0.492   0.429   1.172  0.00  0.00    -0.072 A 
ENDROOT
TORSDOF 0
ENDMDL
