MODEL 1
REMARK minimizedAffinity -6.55642605
REMARK minimizedRMSD -1
REMARK  0 active torsions:
REMARK  status: ('A' for Active; 'I' for Inactive)
ROOT
ATOM      1  C1  DEN d   1       0.788   0.434  -0.527  0.00  0.00     0.130 A 
ATOM      2  C2  DEN d   1       0.570  -0.902   0.021  0.00  0.00    -0.031 A 
ATOM      3  C3  DEN d   1      -0.524  -0.817   1.009  0.00  0.00     0.027 A 
ATOM      4  C4  DEN d   1      -1.898   1.241   1.737  0.00  0.00     0.027 A 
ATOM      5  C5  DEN d   1      -2.069   2.597   1.558  0.00  0.00    -0.003 A 
ATOM      6  C6  DEN d   1      -1.284   3.326   0.705  0.00  0.00     0.001 A 
ATOM      7  C7  DEN d   1      -0.320   2.695  -0.037  0.00  0.00     0.017 A 
ATOM      8  C8  DEN d   1      -0.137   1.331   0.143  0.00  0.00    -0.094 A 
ATOM      9  C9  DEN d   1      -0.949   0.609   1.001  0.00  0.00    -0.072 A 
ENDROOT
TORSDOF 0
ENDMDL
