MODEL 1
REMARK minimizedAffinity -2.64877391
REMARK minimizedRMSD -1
REMARK  0 active torsions:
REMARK  status: ('A' for Active; 'I' for Inactive)
ROOT
ATOM      1  C1  DEN d   1       0.473   1.449  -0.946  0.00  0.00     0.130 A 
ATOM      2  C2  DEN d   1       1.136   0.150  -1.022  0.00  0.00    -0.031 A 
ATOM      3  C3  DEN d   1       0.565  -0.717   0.028  0.00  0.00     0.027 A 
ATOM      4  C4  DEN d   1      -1.276  -0.179   1.752  0.00  0.00     0.027 A 
ATOM      5  C5  DEN d   1      -2.131   0.797   2.214  0.00  0.00    -0.003 A 
ATOM      6  C6  DEN d   1      -2.154   2.059   1.681  0.00  0.00     0.001 A 
ATOM      7  C7  DEN d   1      -1.337   2.365   0.625  0.00  0.00     0.017 A 
ATOM      8  C8  DEN d   1      -0.467   1.388   0.159  0.00  0.00    -0.094 A 
ATOM      9  C9  DEN d   1      -0.467   0.115   0.703  0.00  0.00    -0.072 A 
ENDROOT
TORSDOF 0
ENDMDL
