MODEL 1
REMARK minimizedAffinity -3.19838881
REMARK minimizedRMSD -1
REMARK  0 active torsions:
REMARK  status: ('A' for Active; 'I' for Inactive)
ROOT
ATOM      1  C1  DEN d   1      -1.190   0.631   2.405  0.00  0.00     0.130 A 
ATOM      2  C2  DEN d   1      -1.379   2.076   2.494  0.00  0.00    -0.031 A 
ATOM      3  C3  DEN d   1      -0.690   2.698   1.346  0.00  0.00     0.027 A 
ATOM      4  C4  DEN d   1       0.639   1.570  -0.555  0.00  0.00     0.027 A 
ATOM      5  C5  DEN d   1       1.083   0.364  -1.052  0.00  0.00    -0.003 A 
ATOM      6  C6  DEN d   1       0.832  -0.824  -0.418  0.00  0.00     0.001 A 
ATOM      7  C7  DEN d   1       0.078  -0.837   0.725  0.00  0.00     0.017 A 
ATOM      8  C8  DEN d   1      -0.367   0.375   1.236  0.00  0.00    -0.094 A 
ATOM      9  C9  DEN d   1      -0.113   1.564   0.575  0.00  0.00    -0.072 A 
ENDROOT
TORSDOF 0
ENDMDL
