MODEL 1
REMARK minimizedAffinity -5.16664839
REMARK minimizedRMSD -1
REMARK  0 active torsions:
REMARK  status: ('A' for Active; 'I' for Inactive)
ROOT
ATOM      1  C1  DEN d   1      -0.861   2.703  -0.108  0.00  0.00     0.130 A 
ATOM      2  C2  DEN d   1      -1.775   2.923   1.009  0.00  0.00    -0.031 A 
ATOM      3  C3  DEN d   1      -1.662   1.770   1.926  0.00  0.00     0.027 A 
ATOM      4  C4  DEN d   1      -0.165  -0.320   1.726  0.00  0.00     0.027 A 
ATOM      5  C5  DEN d   1       0.773  -0.958   0.945  0.00  0.00    -0.003 A 
ATOM      6  C6  DEN d   1       1.204  -0.442  -0.248  0.00  0.00     0.001 A 
ATOM      7  C7  DEN d   1       0.728   0.770  -0.674  0.00  0.00     0.017 A 
ATOM      8  C8  DEN d   1      -0.223   1.416   0.104  0.00  0.00    -0.094 A 
ATOM      9  C9  DEN d   1      -0.636   0.884   1.314  0.00  0.00    -0.072 A 
ENDROOT
TORSDOF 0
ENDMDL
