MODEL 1
REMARK minimizedAffinity -6.67701387
REMARK minimizedRMSD -1
REMARK  0 active torsions:
REMARK  status: ('A' for Active; 'I' for Inactive)
ROOT
ATOM      1  C1  DEN d   1       0.876   0.240  -0.707  0.00  0.00     0.130 A 
ATOM      2  C2  DEN d   1       1.064   0.994  -1.943  0.00  0.00    -0.031 A 
ATOM      3  C3  DEN d   1       0.306   2.256  -1.828  0.00  0.00     0.027 A 
ATOM      4  C4  DEN d   1      -1.130   3.112   0.136  0.00  0.00     0.027 A 
ATOM      5  C5  DEN d   1      -1.599   2.816   1.397  0.00  0.00    -0.003 A 
ATOM      6  C6  DEN d   1      -1.306   1.635   2.026  0.00  0.00     0.001 A 
ATOM      7  C7  DEN d   1      -0.485   0.725   1.413  0.00  0.00     0.017 A 
ATOM      8  C8  DEN d   1      -0.014   1.014   0.139  0.00  0.00    -0.094 A 
ATOM      9  C9  DEN d   1      -0.312   2.219  -0.475  0.00  0.00    -0.072 A 
ENDROOT
TORSDOF 0
ENDMDL
