MODEL 1
REMARK minimizedAffinity -6.68010378
REMARK minimizedRMSD -1
REMARK  0 active torsions:
REMARK  status: ('A' for Active; 'I' for Inactive)
ROOT
ATOM      1  C1  DEN d   1       0.492   0.092  -0.734  0.00  0.00     0.130 A 
ATOM      2  C2  DEN d   1       0.219  -1.049   0.136  0.00  0.00    -0.031 A 
ATOM      3  C3  DEN d   1      -0.702  -0.601   1.200  0.00  0.00     0.027 A 
ATOM      4  C4  DEN d   1      -1.730   1.734   1.579  0.00  0.00     0.027 A 
ATOM      5  C5  DEN d   1      -1.783   3.027   1.108  0.00  0.00    -0.003 A 
ATOM      6  C6  DEN d   1      -1.062   3.437   0.019  0.00  0.00     0.001 A 
ATOM      7  C7  DEN d   1      -0.289   2.535  -0.663  0.00  0.00     0.017 A 
ATOM      8  C8  DEN d   1      -0.224   1.231  -0.190  0.00  0.00    -0.094 A 
ATOM      9  C9  DEN d   1      -0.971   0.832   0.906  0.00  0.00    -0.072 A 
ENDROOT
TORSDOF 0
ENDMDL
