MODEL 1
REMARK minimizedAffinity -6.65746641
REMARK minimizedRMSD -1
REMARK  0 active torsions:
REMARK  status: ('A' for Active; 'I' for Inactive)
ROOT
ATOM      1  C1  DEN d   1      -1.034   3.602   0.667  0.00  0.00     0.130 A 
ATOM      2  C2  DEN d   1      -0.241   4.073  -0.465  0.00  0.00    -0.031 A 
ATOM      3  C3  DEN d   1       0.460   2.910  -1.046  0.00  0.00     0.027 A 
ATOM      4  C4  DEN d   1       0.389   0.439  -0.310  0.00  0.00     0.027 A 
ATOM      5  C5  DEN d   1      -0.135  -0.444   0.608  0.00  0.00    -0.003 A 
ATOM      6  C6  DEN d   1      -0.962  -0.039   1.622  0.00  0.00     0.001 A 
ATOM      7  C7  DEN d   1      -1.325   1.279   1.715  0.00  0.00     0.017 A 
ATOM      8  C8  DEN d   1      -0.795   2.176   0.798  0.00  0.00    -0.094 A 
ATOM      9  C9  DEN d   1       0.030   1.745  -0.227  0.00  0.00    -0.072 A 
ENDROOT
TORSDOF 0
ENDMDL
