MODEL 1
REMARK minimizedAffinity -3.38441586
REMARK minimizedRMSD -1
REMARK  0 active torsions:
REMARK  status: ('A' for Active; 'I' for Inactive)
ROOT
ATOM      1  C1  DEN d   1      -0.140  -2.598  -2.220  0.00  0.00     0.130 A 
ATOM      2  C2  DEN d   1       1.095  -3.304  -2.549  0.00  0.00    -0.031 A 
ATOM      3  C3  DEN d   1       2.189  -2.700  -1.762  0.00  0.00     0.027 A 
ATOM      4  C4  DEN d   1       2.090  -0.755  -0.072  0.00  0.00     0.027 A 
ATOM      5  C5  DEN d   1       1.264   0.169   0.530  0.00  0.00    -0.003 A 
ATOM      6  C6  DEN d   1      -0.071   0.257   0.234  0.00  0.00     0.001 A 
ATOM      7  C7  DEN d   1      -0.628  -0.624  -0.655  0.00  0.00     0.017 A 
ATOM      8  C8  DEN d   1       0.200  -1.553  -1.271  0.00  0.00    -0.094 A 
ATOM      9  C9  DEN d   1       1.544  -1.634  -0.949  0.00  0.00    -0.072 A 
ENDROOT
TORSDOF 0
ENDMDL
