MODEL 1
REMARK minimizedAffinity -4.75198078
REMARK minimizedRMSD -1
REMARK  0 active torsions:
REMARK  status: ('A' for Active; 'I' for Inactive)
ROOT
ATOM      1  C1  DEN d   1      -1.306   2.293   1.297  0.00  0.00     0.130 A 
ATOM      2  C2  DEN d   1      -1.796   1.328   2.278  0.00  0.00    -0.031 A 
ATOM      3  C3  DEN d   1      -1.153   0.028   1.999  0.00  0.00     0.027 A 
ATOM      4  C4  DEN d   1       0.547  -0.580   0.156  0.00  0.00     0.027 A 
ATOM      5  C5  DEN d   1       1.254  -0.096  -0.922  0.00  0.00    -0.003 A 
ATOM      6  C6  DEN d   1       1.134   1.198  -1.353  0.00  0.00     0.001 A 
ATOM      7  C7  DEN d   1       0.320   2.067  -0.675  0.00  0.00     0.017 A 
ATOM      8  C8  DEN d   1      -0.403   1.584   0.408  0.00  0.00    -0.094 A 
ATOM      9  C9  DEN d   1      -0.258   0.276   0.837  0.00  0.00    -0.072 A 
ENDROOT
TORSDOF 0
ENDMDL
