MODEL 1
REMARK minimizedAffinity -4.74083805
REMARK minimizedRMSD -1
REMARK  0 active torsions:
REMARK  status: ('A' for Active; 'I' for Inactive)
ROOT
ATOM      1  C1  DEN d   1      -1.115   2.091   0.068  0.00  0.00     0.130 A 
ATOM      2  C2  DEN d   1      -1.771   2.332   1.350  0.00  0.00    -0.031 A 
ATOM      3  C3  DEN d   1      -1.593   1.129   2.188  0.00  0.00     0.027 A 
ATOM      4  C4  DEN d   1      -0.368  -1.071   1.628  0.00  0.00     0.027 A 
ATOM      5  C5  DEN d   1       0.337  -1.747   0.657  0.00  0.00    -0.003 A 
ATOM      6  C6  DEN d   1       0.575  -1.210  -0.580  0.00  0.00     0.001 A 
ATOM      7  C7  DEN d   1       0.144   0.059  -0.864  0.00  0.00     0.017 A 
ATOM      8  C8  DEN d   1      -0.573   0.745   0.108  0.00  0.00    -0.094 A 
ATOM      9  C9  DEN d   1      -0.793   0.189   1.357  0.00  0.00    -0.072 A 
ENDROOT
TORSDOF 0
ENDMDL
