MODEL 1
REMARK minimizedAffinity -3.96467185
REMARK minimizedRMSD -1
REMARK  0 active torsions:
REMARK  status: ('A' for Active; 'I' for Inactive)
ROOT
ATOM      1  C1  DEN d   1      -1.374   2.728   1.215  0.00  0.00     0.130 A 
ATOM      2  C2  DEN d   1      -0.798   3.463   0.093  0.00  0.00    -0.031 A 
ATOM      3  C3  DEN d   1      -0.010   2.514  -0.719  0.00  0.00     0.027 A 
ATOM      4  C4  DEN d   1       0.366  -0.011  -0.350  0.00  0.00     0.027 A 
ATOM      5  C5  DEN d   1       0.089  -1.079   0.474  0.00  0.00    -0.003 A 
ATOM      6  C6  DEN d   1      -0.662  -0.947   1.612  0.00  0.00     0.001 A 
ATOM      7  C7  DEN d   1      -1.199   0.272   1.933  0.00  0.00     0.017 A 
ATOM      8  C8  DEN d   1      -0.917   1.355   1.111  0.00  0.00    -0.094 A 
ATOM      9  C9  DEN d   1      -0.166   1.198  -0.042  0.00  0.00    -0.072 A 
ENDROOT
TORSDOF 0
ENDMDL
