MODEL 1
REMARK minimizedAffinity -5.78491497
REMARK minimizedRMSD -1
REMARK  0 active torsions:
REMARK  status: ('A' for Active; 'I' for Inactive)
ROOT
ATOM      1  C1  DEN d   1      -0.588   4.110  -0.440  0.00  0.00     0.130 A 
ATOM      2  C2  DEN d   1       0.400   3.734  -1.447  0.00  0.00    -0.031 A 
ATOM      3  C3  DEN d   1       0.605   2.274  -1.362  0.00  0.00     0.027 A 
ATOM      4  C4  DEN d   1      -0.511   0.568   0.218  0.00  0.00     0.027 A 
ATOM      5  C5  DEN d   1      -1.407   0.415   1.252  0.00  0.00    -0.003 A 
ATOM      6  C6  DEN d   1      -2.063   1.479   1.813  0.00  0.00     0.001 A 
ATOM      7  C7  DEN d   1      -1.866   2.739   1.312  0.00  0.00     0.017 A 
ATOM      8  C8  DEN d   1      -0.957   2.902   0.274  0.00  0.00    -0.094 A 
ATOM      9  C9  DEN d   1      -0.314   1.812  -0.287  0.00  0.00    -0.072 A 
ENDROOT
TORSDOF 0
ENDMDL
