MODEL 1
REMARK minimizedAffinity -1.92923129
REMARK minimizedRMSD -1
REMARK  0 active torsions:
REMARK  status: ('A' for Active; 'I' for Inactive)
ROOT
ATOM      1  C1  DEN d   1      -1.989   0.822   0.485  0.00  0.00     0.130 A 
ATOM      2  C2  DEN d   1      -2.043   1.387   1.830  0.00  0.00    -0.031 A 
ATOM      3  C3  DEN d   1      -0.745   1.132   2.485  0.00  0.00     0.027 A 
ATOM      4  C4  DEN d   1       1.335  -0.074   1.550  0.00  0.00     0.027 A 
ATOM      5  C5  DEN d   1       1.853  -0.735   0.459  0.00  0.00    -0.003 A 
ATOM      6  C6  DEN d   1       1.121  -0.952  -0.679  0.00  0.00     0.001 A 
ATOM      7  C7  DEN d   1      -0.155  -0.463  -0.768  0.00  0.00     0.017 A 
ATOM      8  C8  DEN d   1      -0.687   0.198   0.331  0.00  0.00    -0.094 A 
ATOM      9  C9  DEN d   1       0.073   0.418   1.468  0.00  0.00    -0.072 A 
ENDROOT
TORSDOF 0
ENDMDL
