MODEL 1
REMARK minimizedAffinity -1.92031264
REMARK minimizedRMSD -1
REMARK  0 active torsions:
REMARK  status: ('A' for Active; 'I' for Inactive)
ROOT
ATOM      1  C1  DEN d   1       0.729  -0.186   1.617  0.00  0.00     0.130 A 
ATOM      2  C2  DEN d   1       0.985  -0.939   0.393  0.00  0.00    -0.031 A 
ATOM      3  C3  DEN d   1      -0.032  -0.549  -0.605  0.00  0.00     0.027 A 
ATOM      4  C4  DEN d   1      -1.964   1.143  -0.375  0.00  0.00     0.027 A 
ATOM      5  C5  DEN d   1      -2.591   2.022   0.481  0.00  0.00    -0.003 A 
ATOM      6  C6  DEN d   1      -2.179   2.200   1.775  0.00  0.00     0.001 A 
ATOM      7  C7  DEN d   1      -1.082   1.522   2.238  0.00  0.00     0.017 A 
ATOM      8  C8  DEN d   1      -0.450   0.629   1.383  0.00  0.00    -0.094 A 
ATOM      9  C9  DEN d   1      -0.874   0.472   0.074  0.00  0.00    -0.072 A 
ENDROOT
TORSDOF 0
ENDMDL
