MODEL 1
REMARK minimizedAffinity -0.664129019
REMARK minimizedRMSD -1
REMARK  1 active torsions:
REMARK  status: ('A' for Active; 'I' for Inactive)
REMARK    1  A    between atoms: C1_2  and  C2_3 
ROOT
ATOM      1  C2  UNL d   1       2.395  -2.434   3.690  0.00  0.00    -0.081 A 
ATOM      2  C3  UNL d   1       3.531  -2.991   3.089  0.00  0.00     0.006 A 
ATOM      3  C4  UNL d   1       4.701  -3.181   3.829  0.00  0.00     0.002 A 
ATOM      4  C5  UNL d   1       4.752  -2.827   5.181  0.00  0.00    -0.080 A 
ATOM      5  C6  UNL d   1       5.992  -3.054   5.994  0.00  0.00     0.076 C 
ATOM      6  C7  UNL d   1       3.623  -2.255   5.776  0.00  0.00     0.002 A 
ATOM      7  C8  UNL d   1       2.453  -2.063   5.037  0.00  0.00     0.006 A 
ENDROOT
BRANCH   1   8
ATOM      8  C1  UNL d   1       1.112  -2.287   2.912  0.00  0.00     0.054 C 
ATOM      9  C   UNL d   1       0.470  -3.641   2.644  0.00  0.00     0.018 C 
ENDBRANCH   1   8
TORSDOF 1
ENDMDL
