MODEL 1
REMARK minimizedAffinity 4.26604557
REMARK minimizedRMSD -1
REMARK  1 active torsions:
REMARK  status: ('A' for Active; 'I' for Inactive)
REMARK    1  A    between atoms: C1_2  and  C2_3 
ROOT
ATOM      1  C2  UNL d   1       5.053  -3.606   5.297  0.00  0.00    -0.081 A 
ATOM      2  C3  UNL d   1       4.556  -2.481   5.968  0.00  0.00     0.006 A 
ATOM      3  C4  UNL d   1       3.651  -1.624   5.338  0.00  0.00     0.002 A 
ATOM      4  C5  UNL d   1       3.222  -1.880   4.031  0.00  0.00    -0.080 A 
ATOM      5  C6  UNL d   1       2.228  -0.984   3.354  0.00  0.00     0.076 C 
ATOM      6  C7  UNL d   1       3.732  -2.993   3.355  0.00  0.00     0.002 A 
ATOM      7  C8  UNL d   1       4.637  -3.851   3.984  0.00  0.00     0.006 A 
ENDROOT
BRANCH   1   8
ATOM      8  C1  UNL d   1       5.979  -4.568   5.996  0.00  0.00     0.054 C 
ATOM      9  C   UNL d   1       5.417  -5.982   5.988  0.00  0.00     0.018 C 
ENDBRANCH   1   8
TORSDOF 1
ENDMDL
