MODEL 1
REMARK minimizedAffinity -2.3875711
REMARK minimizedRMSD -1
REMARK  1 active torsions:
REMARK  status: ('A' for Active; 'I' for Inactive)
REMARK    1  A    between atoms: C1_2  and  C2_3 
ROOT
ATOM      1  C2  UNL d   1       4.007  -2.235   5.328  0.00  0.00    -0.081 A 
ATOM      2  C3  UNL d   1       3.637  -2.665   4.048  0.00  0.00     0.006 A 
ATOM      3  C4  UNL d   1       4.280  -3.753   3.453  0.00  0.00     0.002 A 
ATOM      4  C5  UNL d   1       5.298  -4.433   4.130  0.00  0.00    -0.080 A 
ATOM      5  C6  UNL d   1       5.976  -5.621   3.515  0.00  0.00     0.076 C 
ATOM      6  C7  UNL d   1       5.680  -3.992   5.402  0.00  0.00     0.002 A 
ATOM      7  C8  UNL d   1       5.037  -2.905   5.997  0.00  0.00     0.006 A 
ENDROOT
BRANCH   1   8
ATOM      8  C1  UNL d   1       3.271  -1.103   5.999  0.00  0.00     0.054 C 
ATOM      9  C   UNL d   1       1.768  -1.343   5.999  0.00  0.00     0.018 C 
ENDBRANCH   1   8
TORSDOF 1
ENDMDL
