MODEL 1
REMARK minimizedAffinity 14.8473911
REMARK minimizedRMSD -1
REMARK  1 active torsions:
REMARK  status: ('A' for Active; 'I' for Inactive)
REMARK    1  A    between atoms: C1_2  and  C2_3 
ROOT
ATOM      1  C2  UNL d   1       2.891   4.988  -1.177  0.00  0.00    -0.081 A 
ATOM      2  C3  UNL d   1       4.180   5.405  -0.821  0.00  0.00     0.006 A 
ATOM      3  C4  UNL d   1       5.190   5.482  -1.783  0.00  0.00     0.002 A 
ATOM      4  C5  UNL d   1       4.926   5.152  -3.117  0.00  0.00    -0.080 A 
ATOM      5  C6  UNL d   1       5.994   5.260  -4.165  0.00  0.00     0.076 C 
ATOM      6  C7  UNL d   1       3.644   4.719  -3.469  0.00  0.00     0.002 A 
ATOM      7  C8  UNL d   1       2.634   4.641  -2.508  0.00  0.00     0.006 A 
ENDROOT
BRANCH   1   8
ATOM      8  C1  UNL d   1       1.783   4.965  -0.155  0.00  0.00     0.054 C 
ATOM      9  C   UNL d   1       2.256   5.509   1.186  0.00  0.00     0.018 C 
ENDBRANCH   1   8
TORSDOF 1
ENDMDL
