MODEL 1
REMARK minimizedAffinity 13.3145733
REMARK minimizedRMSD -1
REMARK  1 active torsions:
REMARK  status: ('A' for Active; 'I' for Inactive)
REMARK    1  A    between atoms: C1_2  and  C2_3 
ROOT
ATOM      1  C2  UNL d   1      -4.415  -4.907  -2.028  0.00  0.00    -0.081 A 
ATOM      2  C3  UNL d   1      -4.663  -5.161  -0.673  0.00  0.00     0.006 A 
ATOM      3  C4  UNL d   1      -4.560  -4.135   0.270  0.00  0.00     0.002 A 
ATOM      4  C5  UNL d   1      -4.215  -2.839  -0.127  0.00  0.00    -0.080 A 
ATOM      5  C6  UNL d   1      -4.131  -1.722   0.871  0.00  0.00     0.076 C 
ATOM      6  C7  UNL d   1      -3.951  -2.589  -1.478  0.00  0.00     0.002 A 
ATOM      7  C8  UNL d   1      -4.053  -3.614  -2.421  0.00  0.00     0.006 A 
ENDROOT
BRANCH   1   8
ATOM      8  C1  UNL d   1      -4.588  -5.996  -3.056  0.00  0.00     0.054 C 
ATOM      9  C   UNL d   1      -5.999  -5.998  -3.627  0.00  0.00     0.018 C 
ENDBRANCH   1   8
TORSDOF 1
ENDMDL
