MODEL 1
REMARK minimizedAffinity 3.31914616
REMARK minimizedRMSD -1
REMARK  1 active torsions:
REMARK  status: ('A' for Active; 'I' for Inactive)
REMARK    1  A    between atoms: C1_2  and  C2_3 
ROOT
ATOM      1  C2  UNL d   1       5.162  -4.163   4.143  0.00  0.00    -0.081 A 
ATOM      2  C3  UNL d   1       5.370  -3.715   5.454  0.00  0.00     0.006 A 
ATOM      3  C4  UNL d   1       4.555  -2.720   6.000  0.00  0.00     0.002 A 
ATOM      4  C5  UNL d   1       3.515  -2.162   5.248  0.00  0.00    -0.080 A 
ATOM      5  C6  UNL d   1       2.614  -1.115   5.833  0.00  0.00     0.076 C 
ATOM      6  C7  UNL d   1       3.319  -2.597   3.933  0.00  0.00     0.002 A 
ATOM      7  C8  UNL d   1       4.133  -3.591   3.386  0.00  0.00     0.006 A 
ENDROOT
BRANCH   1   8
ATOM      8  C1  UNL d   1       5.997  -5.281   3.574  0.00  0.00     0.054 C 
ATOM      9  C   UNL d   1       5.999  -5.251   2.052  0.00  0.00     0.018 C 
ENDBRANCH   1   8
TORSDOF 1
ENDMDL
