MODEL 1
REMARK minimizedAffinity 5.33961058
REMARK minimizedRMSD -1
REMARK  1 active torsions:
REMARK  status: ('A' for Active; 'I' for Inactive)
REMARK    1  A    between atoms: C1_2  and  C2_3 
ROOT
ATOM      1  C2  UNL d   1       5.200  -3.493   5.172  0.00  0.00    -0.081 A 
ATOM      2  C3  UNL d   1       4.615  -2.367   5.764  0.00  0.00     0.006 A 
ATOM      3  C4  UNL d   1       3.825  -1.499   5.007  0.00  0.00     0.002 A 
ATOM      4  C5  UNL d   1       3.601  -1.745   3.649  0.00  0.00    -0.080 A 
ATOM      5  C6  UNL d   1       2.730  -0.837   2.832  0.00  0.00     0.076 C 
ATOM      6  C7  UNL d   1       4.200  -2.860   3.053  0.00  0.00     0.002 A 
ATOM      7  C8  UNL d   1       4.990  -3.728   3.809  0.00  0.00     0.006 A 
ENDROOT
BRANCH   1   8
ATOM      8  C1  UNL d   1       6.000  -4.466   6.000  0.00  0.00     0.054 C 
ATOM      9  C   UNL d   1       5.360  -5.848   6.000  0.00  0.00     0.018 C 
ENDBRANCH   1   8
TORSDOF 1
ENDMDL
