MODEL 1
REMARK minimizedAffinity -1.12700272
REMARK minimizedRMSD -1
REMARK  1 active torsions:
REMARK  status: ('A' for Active; 'I' for Inactive)
REMARK    1  A    between atoms: C1_2  and  C2_3 
ROOT
ATOM      1  C2  UNL d   1       3.804  -2.293   4.041  0.00  0.00    -0.081 A 
ATOM      2  C3  UNL d   1       4.150  -3.451   3.334  0.00  0.00     0.006 A 
ATOM      3  C4  UNL d   1       4.871  -4.472   3.958  0.00  0.00     0.002 A 
ATOM      4  C5  UNL d   1       5.251  -4.355   5.299  0.00  0.00    -0.080 A 
ATOM      5  C6  UNL d   1       5.999  -5.457   5.989  0.00  0.00     0.076 C 
ATOM      6  C7  UNL d   1       4.921  -3.191   6.000  0.00  0.00     0.002 A 
ATOM      7  C8  UNL d   1       4.201  -2.169   5.377  0.00  0.00     0.006 A 
ENDROOT
BRANCH   1   8
ATOM      8  C1  UNL d   1       2.971  -1.218   3.390  0.00  0.00     0.054 C 
ATOM      9  C   UNL d   1       3.123  -1.240   1.876  0.00  0.00     0.018 C 
ENDBRANCH   1   8
TORSDOF 1
ENDMDL
