MODEL 1
REMARK minimizedAffinity 2.50364637
REMARK minimizedRMSD -1
REMARK  1 active torsions:
REMARK  status: ('A' for Active; 'I' for Inactive)
REMARK    1  A    between atoms: C1_2  and  C2_3 
ROOT
ATOM      1  C2  UNL d   1       4.639   4.915  -2.837  0.00  0.00    -0.081 A 
ATOM      2  C3  UNL d   1       5.830   4.188  -2.952  0.00  0.00     0.006 A 
ATOM      3  C4  UNL d   1       5.987   3.241  -3.967  0.00  0.00     0.002 A 
ATOM      4  C5  UNL d   1       4.959   3.011  -4.887  0.00  0.00    -0.080 A 
ATOM      5  C6  UNL d   1       5.125   2.019  -6.000  0.00  0.00     0.076 C 
ATOM      6  C7  UNL d   1       3.762   3.725  -4.762  0.00  0.00     0.002 A 
ATOM      7  C8  UNL d   1       3.605   4.671  -3.747  0.00  0.00     0.006 A 
ENDROOT
BRANCH   1   8
ATOM      8  C1  UNL d   1       4.491   5.983  -1.783  0.00  0.00     0.054 C 
ATOM      9  C   UNL d   1       5.646   5.945  -0.792  0.00  0.00     0.018 C 
ENDBRANCH   1   8
TORSDOF 1
ENDMDL
