MODEL 1
REMARK minimizedAffinity 4.63318968
REMARK minimizedRMSD -1
REMARK  1 active torsions:
REMARK  status: ('A' for Active; 'I' for Inactive)
REMARK    1  A    between atoms: C1_2  and  C2_3 
ROOT
ATOM      1  C2  UNL d   1       5.434   5.381  -2.274  0.00  0.00    -0.081 A 
ATOM      2  C3  UNL d   1       6.000   4.213  -2.800  0.00  0.00     0.006 A 
ATOM      3  C4  UNL d   1       5.527   3.675  -3.999  0.00  0.00     0.002 A 
ATOM      4  C5  UNL d   1       4.487   4.300  -4.696  0.00  0.00    -0.080 A 
ATOM      5  C6  UNL d   1       3.990   3.749  -6.000  0.00  0.00     0.076 C 
ATOM      6  C7  UNL d   1       3.910   5.457  -4.162  0.00  0.00     0.002 A 
ATOM      7  C8  UNL d   1       4.382   5.995  -2.962  0.00  0.00     0.006 A 
ENDROOT
BRANCH   1   8
ATOM      8  C1  UNL d   1       5.985   5.999  -1.015  0.00  0.00     0.054 C 
ATOM      9  C   UNL d   1       5.095   5.701   0.184  0.00  0.00     0.018 C 
ENDBRANCH   1   8
TORSDOF 1
ENDMDL
