MODEL 1
REMARK minimizedAffinity 7.53490639
REMARK minimizedRMSD -1
REMARK  1 active torsions:
REMARK  status: ('A' for Active; 'I' for Inactive)
REMARK    1  A    between atoms: C1_2  and  C2_3 
ROOT
ATOM      1  C2  UNL d   1       4.693  -3.036   5.114  0.00  0.00    -0.081 A 
ATOM      2  C3  UNL d   1       3.551  -3.424   4.402  0.00  0.00     0.006 A 
ATOM      3  C4  UNL d   1       2.376  -2.672   4.485  0.00  0.00     0.002 A 
ATOM      4  C5  UNL d   1       2.326  -1.518   5.273  0.00  0.00    -0.080 A 
ATOM      5  C6  UNL d   1       1.080  -0.686   5.347  0.00  0.00     0.076 C 
ATOM      6  C7  UNL d   1       3.461  -1.140   5.998  0.00  0.00     0.002 A 
ATOM      7  C8  UNL d   1       4.636  -1.891   5.916  0.00  0.00     0.006 A 
ENDROOT
BRANCH   1   8
ATOM      8  C1  UNL d   1       5.981  -3.807   4.976  0.00  0.00     0.054 C 
ATOM      9  C   UNL d   1       5.989  -5.035   5.876  0.00  0.00     0.018 C 
ENDBRANCH   1   8
TORSDOF 1
ENDMDL
