MODEL 1
REMARK minimizedAffinity 11.5160332
REMARK minimizedRMSD -1
REMARK  1 active torsions:
REMARK  status: ('A' for Active; 'I' for Inactive)
REMARK    1  A    between atoms: C1_2  and  C2_3 
ROOT
ATOM      1  C2  UNL d   1       4.698   3.984  -4.557  0.00  0.00    -0.081 A 
ATOM      2  C3  UNL d   1       4.479   5.347  -4.792  0.00  0.00     0.006 A 
ATOM      3  C4  UNL d   1       3.389   6.000  -4.211  0.00  0.00     0.002 A 
ATOM      4  C5  UNL d   1       2.505   5.303  -3.380  0.00  0.00    -0.080 A 
ATOM      5  C6  UNL d   1       1.349   5.999  -2.726  0.00  0.00     0.076 C 
ATOM      6  C7  UNL d   1       2.714   3.938  -3.159  0.00  0.00     0.002 A 
ATOM      7  C8  UNL d   1       3.803   3.284  -3.740  0.00  0.00     0.006 A 
ENDROOT
BRANCH   1   8
ATOM      8  C1  UNL d   1       5.908   3.292  -5.129  0.00  0.00     0.054 C 
ATOM      9  C   UNL d   1       5.511   2.089  -5.973  0.00  0.00     0.018 C 
ENDBRANCH   1   8
TORSDOF 1
ENDMDL
