MODEL 1
REMARK minimizedAffinity 0.936391413
REMARK minimizedRMSD -1
REMARK  1 active torsions:
REMARK  status: ('A' for Active; 'I' for Inactive)
REMARK    1  A    between atoms: C1_2  and  C2_3 
ROOT
ATOM      1  C2  UNL d   1       3.227  -1.553   5.894  0.00  0.00    -0.081 A 
ATOM      2  C3  UNL d   1       2.753  -2.870   5.934  0.00  0.00     0.006 A 
ATOM      3  C4  UNL d   1       3.646  -3.944   5.948  0.00  0.00     0.002 A 
ATOM      4  C5  UNL d   1       5.027  -3.719   5.932  0.00  0.00    -0.080 A 
ATOM      5  C6  UNL d   1       5.996  -4.863   5.978  0.00  0.00     0.076 C 
ATOM      6  C7  UNL d   1       5.500  -2.404   5.875  0.00  0.00     0.002 A 
ATOM      7  C8  UNL d   1       4.608  -1.330   5.859  0.00  0.00     0.006 A 
ENDROOT
BRANCH   1   8
ATOM      8  C1  UNL d   1       2.268  -0.391   5.944  0.00  0.00     0.054 C 
ATOM      9  C   UNL d   1       0.823  -0.868   5.985  0.00  0.00     0.018 C 
ENDBRANCH   1   8
TORSDOF 1
ENDMDL
