MODEL 1
REMARK minimizedAffinity 6.5282321
REMARK minimizedRMSD -1
REMARK  1 active torsions:
REMARK  status: ('A' for Active; 'I' for Inactive)
REMARK    1  A    between atoms: C1_2  and  C2_3 
ROOT
ATOM      1  C2  UNL d   1       5.071   4.678  -4.376  0.00  0.00    -0.081 A 
ATOM      2  C3  UNL d   1       6.000   5.541  -3.783  0.00  0.00     0.006 A 
ATOM      3  C4  UNL d   1       5.820   5.981  -2.469  0.00  0.00     0.002 A 
ATOM      4  C5  UNL d   1       4.714   5.558  -1.724  0.00  0.00    -0.080 A 
ATOM      5  C6  UNL d   1       4.525   5.998  -0.303  0.00  0.00     0.076 C 
ATOM      6  C7  UNL d   1       3.776   4.709  -2.322  0.00  0.00     0.002 A 
ATOM      7  C8  UNL d   1       3.955   4.270  -3.636  0.00  0.00     0.006 A 
ENDROOT
BRANCH   1   8
ATOM      8  C1  UNL d   1       5.296   4.151  -5.770  0.00  0.00     0.054 C 
ATOM      9  C   UNL d   1       5.238   2.630  -5.803  0.00  0.00     0.018 C 
ENDBRANCH   1   8
TORSDOF 1
ENDMDL
