MODEL 1
REMARK minimizedAffinity -1.48728609
REMARK minimizedRMSD -1
REMARK  1 active torsions:
REMARK  status: ('A' for Active; 'I' for Inactive)
REMARK    1  A    between atoms: C1_2  and  C2_3 
ROOT
ATOM      1  C2  UNL d   1       5.057  -3.721   4.229  0.00  0.00    -0.081 A 
ATOM      2  C3  UNL d   1       5.168  -3.223   5.533  0.00  0.00     0.006 A 
ATOM      3  C4  UNL d   1       4.276  -2.256   6.000  0.00  0.00     0.002 A 
ATOM      4  C5  UNL d   1       3.253  -1.776   5.175  0.00  0.00    -0.080 A 
ATOM      5  C6  UNL d   1       2.269  -0.760   5.674  0.00  0.00     0.076 C 
ATOM      6  C7  UNL d   1       3.153  -2.261   3.866  0.00  0.00     0.002 A 
ATOM      7  C8  UNL d   1       4.045  -3.227   3.398  0.00  0.00     0.006 A 
ENDROOT
BRANCH   1   8
ATOM      8  C1  UNL d   1       5.978  -4.811   3.743  0.00  0.00     0.054 C 
ATOM      9  C   UNL d   1       6.000  -4.881   2.223  0.00  0.00     0.018 C 
ENDBRANCH   1   8
TORSDOF 1
ENDMDL
