MODEL 1
REMARK minimizedAffinity 10.2482986
REMARK minimizedRMSD -1
REMARK  1 active torsions:
REMARK  status: ('A' for Active; 'I' for Inactive)
REMARK    1  A    between atoms: C1_2  and  C2_3 
ROOT
ATOM      1  C2  UNL d   1       4.844  -3.444   4.916  0.00  0.00    -0.081 A 
ATOM      2  C3  UNL d   1       3.941  -3.390   3.847  0.00  0.00     0.006 A 
ATOM      3  C4  UNL d   1       2.908  -2.451   3.839  0.00  0.00     0.002 A 
ATOM      4  C5  UNL d   1       2.763  -1.546   4.897  0.00  0.00    -0.080 A 
ATOM      5  C6  UNL d   1       1.676  -0.512   4.887  0.00  0.00     0.076 C 
ATOM      6  C7  UNL d   1       3.654  -1.611   5.973  0.00  0.00     0.002 A 
ATOM      7  C8  UNL d   1       4.688  -2.551   5.981  0.00  0.00     0.006 A 
ENDROOT
BRANCH   1   8
ATOM      8  C1  UNL d   1       5.998  -4.413   4.896  0.00  0.00     0.054 C 
ATOM      9  C   UNL d   1       5.815  -5.514   5.930  0.00  0.00     0.018 C 
ENDBRANCH   1   8
TORSDOF 1
ENDMDL
