MODEL 1
REMARK minimizedAffinity 18.8654938
REMARK minimizedRMSD -1
REMARK  1 active torsions:
REMARK  status: ('A' for Active; 'I' for Inactive)
REMARK    1  A    between atoms: C1_2  and  C2_3 
ROOT
ATOM      1  C2  UNL d   1       2.509  -0.749   1.452  0.00  0.00    -0.081 A 
ATOM      2  C3  UNL d   1       3.567   0.110   1.130  0.00  0.00     0.006 A 
ATOM      3  C4  UNL d   1       3.977   0.263  -0.196  0.00  0.00     0.002 A 
ATOM      4  C5  UNL d   1       3.332  -0.435  -1.223  0.00  0.00    -0.080 A 
ATOM      5  C6  UNL d   1       3.742  -0.257  -2.655  0.00  0.00     0.076 C 
ATOM      6  C7  UNL d   1       2.287  -1.307  -0.900  0.00  0.00     0.002 A 
ATOM      7  C8  UNL d   1       1.877  -1.461   0.427  0.00  0.00     0.006 A 
ENDROOT
BRANCH   1   8
ATOM      8  C1  UNL d   1       2.023  -0.867   2.874  0.00  0.00     0.054 C 
ATOM      9  C   UNL d   1       2.393  -2.214   3.476  0.00  0.00     0.018 C 
ENDBRANCH   1   8
TORSDOF 1
ENDMDL
