MODEL 1
REMARK minimizedAffinity 1.51721108
REMARK minimizedRMSD -1
REMARK  1 active torsions:
REMARK  status: ('A' for Active; 'I' for Inactive)
REMARK    1  A    between atoms: C1_2  and  C2_3 
ROOT
ATOM      1  C2  UNL d   1       2.716  -1.988   3.475  0.00  0.00    -0.081 A 
ATOM      2  C3  UNL d   1       1.544  -2.747   3.584  0.00  0.00     0.006 A 
ATOM      3  C4  UNL d   1       1.512  -3.887   4.390  0.00  0.00     0.002 A 
ATOM      4  C5  UNL d   1       2.647  -4.283   5.106  0.00  0.00    -0.080 A 
ATOM      5  C6  UNL d   1       2.617  -5.487   5.999  0.00  0.00     0.076 C 
ATOM      6  C7  UNL d   1       3.823  -3.534   4.984  0.00  0.00     0.002 A 
ATOM      7  C8  UNL d   1       3.856  -2.394   4.177  0.00  0.00     0.006 A 
ENDROOT
BRANCH   1   8
ATOM      8  C1  UNL d   1       2.735  -0.721   2.658  0.00  0.00     0.054 C 
ATOM      9  C   UNL d   1       1.548  -0.658   1.707  0.00  0.00     0.018 C 
ENDBRANCH   1   8
TORSDOF 1
ENDMDL
