MODEL 1
REMARK minimizedAffinity 3.91055179
REMARK minimizedRMSD -1
REMARK  1 active torsions:
REMARK  status: ('A' for Active; 'I' for Inactive)
REMARK    1  A    between atoms: C1_2  and  C2_3 
ROOT
ATOM      1  C2  UNL d   1       3.536  -3.749   4.933  0.00  0.00    -0.081 A 
ATOM      2  C3  UNL d   1       3.609  -4.918   5.700  0.00  0.00     0.006 A 
ATOM      3  C4  UNL d   1       2.453  -5.642   5.999  0.00  0.00     0.002 A 
ATOM      4  C5  UNL d   1       1.206  -5.215   5.530  0.00  0.00    -0.080 A 
ATOM      5  C6  UNL d   1      -0.039  -5.999   5.819  0.00  0.00     0.076 C 
ATOM      6  C7  UNL d   1       1.131  -4.037   4.778  0.00  0.00     0.002 A 
ATOM      7  C8  UNL d   1       2.286  -3.312   4.479  0.00  0.00     0.006 A 
ENDROOT
BRANCH   1   8
ATOM      8  C1  UNL d   1       4.789  -3.001   4.554  0.00  0.00     0.054 C 
ATOM      9  C   UNL d   1       6.000  -3.923   4.538  0.00  0.00     0.018 C 
ENDBRANCH   1   8
TORSDOF 1
ENDMDL
