MODEL 1
REMARK minimizedAffinity -4.79521799
REMARK minimizedRMSD -1
REMARK  0 active torsions:
REMARK  status: ('A' for Active; 'I' for Inactive)
ROOT
ATOM      1  N1  IND d   1      -0.875   2.620   0.743  0.00  0.00    -0.196 N 
ATOM      2  C2  IND d   1       0.311   3.098   0.258  0.00  0.00     0.054 A 
ATOM      3  C3  IND d   1       1.098   2.076  -0.147  0.00  0.00    -0.031 A 
ATOM      4  C4  IND d   1       0.602  -0.449  -0.202  0.00  0.00     0.051 A 
ATOM      5  C5  IND d   1      -0.335  -1.371   0.172  0.00  0.00    -0.031 A 
ATOM      6  C6  IND d   1      -1.525  -1.002   0.764  0.00  0.00     0.015 A 
ATOM      7  C7  IND d   1      -1.829   0.310   0.996  0.00  0.00    -0.016 A 
ATOM      8  C8  IND d   1      -0.876   1.248   0.624  0.00  0.00    -0.047 A 
ATOM      9  C9  IND d   1       0.351   0.876   0.062  0.00  0.00    -0.096 A 
ATOM     10  HN1 IND d   1      -1.512   3.097   1.068  0.00  0.00     0.298 HD
ENDROOT
TORSDOF 0
ENDMDL
