MODEL 1
REMARK minimizedAffinity -4.58984041
REMARK minimizedRMSD -1
REMARK  0 active torsions:
REMARK  status: ('A' for Active; 'I' for Inactive)
ROOT
ATOM      1  N1  IND d   1       1.944   0.341   0.638  0.00  0.00    -0.196 N 
ATOM      2  C2  IND d   1       1.771  -1.007   0.487  0.00  0.00     0.054 A 
ATOM      3  C3  IND d   1       0.466  -1.293   0.277  0.00  0.00    -0.031 A 
ATOM      4  C4  IND d   1      -1.541   0.301   0.043  0.00  0.00     0.051 A 
ATOM      5  C5  IND d   1      -1.887   1.620   0.141  0.00  0.00    -0.031 A 
ATOM      6  C6  IND d   1      -0.954   2.600   0.413  0.00  0.00     0.015 A 
ATOM      7  C7  IND d   1       0.367   2.297   0.586  0.00  0.00    -0.016 A 
ATOM      8  C8  IND d   1       0.721   0.958   0.494  0.00  0.00    -0.047 A 
ATOM      9  C9  IND d   1      -0.228  -0.045   0.261  0.00  0.00    -0.096 A 
ATOM     10  HN1 IND d   1       2.690   0.736   0.796  0.00  0.00     0.298 HD
ENDROOT
TORSDOF 0
ENDMDL
