MODEL 1
REMARK minimizedAffinity -0.257568181
REMARK minimizedRMSD -1
REMARK  0 active torsions:
REMARK  status: ('A' for Active; 'I' for Inactive)
ROOT
ATOM      1  N1  IND d   1       2.408  -1.408   0.344  0.00  0.00    -0.196 N 
ATOM      2  C2  IND d   1       1.502  -2.418   0.178  0.00  0.00     0.054 A 
ATOM      3  C3  IND d   1       0.270  -1.912  -0.056  0.00  0.00    -0.031 A 
ATOM      4  C4  IND d   1      -0.468   0.541  -0.312  0.00  0.00     0.051 A 
ATOM      5  C5  IND d   1      -0.003   1.822  -0.208  0.00  0.00    -0.031 A 
ATOM      6  C6  IND d   1       1.316   2.098   0.088  0.00  0.00     0.015 A 
ATOM      7  C7  IND d   1       2.226   1.098   0.281  0.00  0.00    -0.016 A 
ATOM      8  C8  IND d   1       1.757  -0.204   0.184  0.00  0.00    -0.047 A 
ATOM      9  C9  IND d   1       0.410  -0.490  -0.074  0.00  0.00    -0.096 A 
ATOM     10  HN1 IND d   1       3.244  -1.507   0.518  0.00  0.00     0.298 HD
ENDROOT
TORSDOF 0
ENDMDL
