MODEL 1
REMARK minimizedAffinity -3.74574161
REMARK minimizedRMSD -1
REMARK  0 active torsions:
REMARK  status: ('A' for Active; 'I' for Inactive)
ROOT
ATOM      1  N1  IND d   1      -1.282  -1.200   0.216  0.00  0.00    -0.196 N 
ATOM      2  C2  IND d   1      -0.154  -1.906  -0.095  0.00  0.00     0.054 A 
ATOM      3  C3  IND d   1       0.884  -1.066  -0.309  0.00  0.00    -0.031 A 
ATOM      4  C4  IND d   1       0.980   1.498  -0.103  0.00  0.00     0.051 A 
ATOM      5  C5  IND d   1       0.191   2.591   0.120  0.00  0.00    -0.031 A 
ATOM      6  C6  IND d   1      -1.156   2.474   0.395  0.00  0.00     0.015 A 
ATOM      7  C7  IND d   1      -1.764   1.253   0.468  0.00  0.00    -0.016 A 
ATOM      8  C8  IND d   1      -0.968   0.141   0.235  0.00  0.00    -0.047 A 
ATOM      9  C9  IND d   1       0.391   0.256  -0.086  0.00  0.00    -0.096 A 
ATOM     10  HN1 IND d   1      -2.057  -1.536   0.372  0.00  0.00     0.298 HD
ENDROOT
TORSDOF 0
ENDMDL
