MODEL 1
REMARK minimizedAffinity -5.7467432
REMARK minimizedRMSD -1
REMARK  0 active torsions:
REMARK  status: ('A' for Active; 'I' for Inactive)
ROOT
ATOM      1  N1  IND d   1       2.141  -0.214   0.831  0.00  0.00    -0.196 N 
ATOM      2  C2  IND d   1       1.075  -1.059   0.699  0.00  0.00     0.054 A 
ATOM      3  C3  IND d   1      -0.060  -0.355   0.493  0.00  0.00    -0.031 A 
ATOM      4  C4  IND d   1      -0.385   2.186   0.237  0.00  0.00     0.051 A 
ATOM      5  C5  IND d   1       0.289   3.371   0.317  0.00  0.00    -0.031 A 
ATOM      6  C6  IND d   1       1.644   3.424   0.576  0.00  0.00     0.015 A 
ATOM      7  C7  IND d   1       2.379   2.286   0.753  0.00  0.00    -0.016 A 
ATOM      8  C8  IND d   1       1.696   1.080   0.679  0.00  0.00    -0.047 A 
ATOM      9  C9  IND d   1       0.314   1.023   0.459  0.00  0.00    -0.096 A 
ATOM     10  HN1 IND d   1       2.954  -0.452   0.985  0.00  0.00     0.298 HD
ENDROOT
TORSDOF 0
ENDMDL
