MODEL 1
REMARK minimizedAffinity -1.2322228
REMARK minimizedRMSD -1
REMARK  0 active torsions:
REMARK  status: ('A' for Active; 'I' for Inactive)
ROOT
ATOM      1  N1  IND d   1       0.182  -2.588  -2.242  0.00  0.00    -0.196 N 
ATOM      2  C2  IND d   1      -0.623  -3.623  -1.858  0.00  0.00     0.054 A 
ATOM      3  C3  IND d   1      -1.111  -3.404  -0.617  0.00  0.00    -0.031 A 
ATOM      4  C4  IND d   1      -0.801  -1.367   0.927  0.00  0.00     0.051 A 
ATOM      5  C5  IND d   1      -0.122  -0.185   1.027  0.00  0.00    -0.031 A 
ATOM      6  C6  IND d   1       0.708   0.267   0.022  0.00  0.00     0.015 A 
ATOM      7  C7  IND d   1       0.881  -0.444  -1.132  0.00  0.00    -0.016 A 
ATOM      8  C8  IND d   1       0.199  -1.648  -1.235  0.00  0.00    -0.047 A 
ATOM      9  C9  IND d   1      -0.611  -2.132  -0.200  0.00  0.00    -0.096 A 
ATOM     10  HN1 IND d   1       0.607  -2.532  -2.987  0.00  0.00     0.298 HD
ENDROOT
TORSDOF 0
ENDMDL
