MODEL 1
REMARK minimizedAffinity -3.61014414
REMARK minimizedRMSD -1
REMARK  0 active torsions:
REMARK  status: ('A' for Active; 'I' for Inactive)
ROOT
ATOM      1  N1  IND d   1       2.620   1.446   1.195  0.00  0.00    -0.196 N 
ATOM      2  C2  IND d   1       2.834   2.691   1.716  0.00  0.00     0.054 A 
ATOM      3  C3  IND d   1       1.669   3.371   1.804  0.00  0.00    -0.031 A 
ATOM      4  C4  IND d   1      -0.722   2.597   1.245  0.00  0.00     0.051 A 
ATOM      5  C5  IND d   1      -1.417   1.552   0.704  0.00  0.00    -0.031 A 
ATOM      6  C6  IND d   1      -0.790   0.393   0.294  0.00  0.00     0.015 A 
ATOM      7  C7  IND d   1       0.561   0.232   0.420  0.00  0.00    -0.016 A 
ATOM      8  C8  IND d   1       1.271   1.294   0.962  0.00  0.00    -0.047 A 
ATOM      9  C9  IND d   1       0.645   2.489   1.341  0.00  0.00    -0.096 A 
ATOM     10  HN1 IND d   1       3.226   0.856   1.039  0.00  0.00     0.298 HD
ENDROOT
TORSDOF 0
ENDMDL
