MODEL 1
REMARK minimizedAffinity -5.14052057
REMARK minimizedRMSD -1
REMARK  0 active torsions:
REMARK  status: ('A' for Active; 'I' for Inactive)
ROOT
ATOM      1  N1  IND d   1       0.709  -0.702   0.011  0.00  0.00    -0.196 N 
ATOM      2  C2  IND d   1      -0.345  -1.208   0.720  0.00  0.00     0.054 A 
ATOM      3  C3  IND d   1      -1.218  -0.224   1.030  0.00  0.00    -0.031 A 
ATOM      4  C4  IND d   1      -1.168   2.269   0.391  0.00  0.00     0.051 A 
ATOM      5  C5  IND d   1      -0.385   3.209  -0.220  0.00  0.00    -0.031 A 
ATOM      6  C6  IND d   1       0.825   2.886  -0.799  0.00  0.00     0.015 A 
ATOM      7  C7  IND d   1       1.295   1.603  -0.799  0.00  0.00    -0.016 A 
ATOM      8  C8  IND d   1       0.506   0.648  -0.173  0.00  0.00    -0.047 A 
ATOM      9  C9  IND d   1      -0.703   0.977   0.453  0.00  0.00    -0.096 A 
ATOM     10  HN1 IND d   1       1.385  -1.152  -0.271  0.00  0.00     0.298 HD
ENDROOT
TORSDOF 0
ENDMDL
