MODEL 1
REMARK minimizedAffinity -5.19641781
REMARK minimizedRMSD -1
REMARK  0 active torsions:
REMARK  status: ('A' for Active; 'I' for Inactive)
ROOT
ATOM      1  N1  IND d   1      -1.363   0.953   0.244  0.00  0.00    -0.196 N 
ATOM      2  C2  IND d   1      -1.017   2.250  -0.014  0.00  0.00     0.054 A 
ATOM      3  C3  IND d   1       0.328   2.387  -0.018  0.00  0.00    -0.031 A 
ATOM      4  C4  IND d   1       2.154   0.595   0.274  0.00  0.00     0.051 A 
ATOM      5  C5  IND d   1       2.328  -0.728   0.569  0.00  0.00    -0.031 A 
ATOM      6  C6  IND d   1       1.259  -1.576   0.772  0.00  0.00     0.015 A 
ATOM      7  C7  IND d   1      -0.030  -1.133   0.676  0.00  0.00    -0.016 A 
ATOM      8  C8  IND d   1      -0.210   0.212   0.384  0.00  0.00    -0.047 A 
ATOM      9  C9  IND d   1       0.871   1.087   0.219  0.00  0.00    -0.096 A 
ATOM     10  HN1 IND d   1      -2.165   0.651   0.308  0.00  0.00     0.298 HD
ENDROOT
TORSDOF 0
ENDMDL
