MODEL 1
REMARK minimizedAffinity -4.69059515
REMARK minimizedRMSD -1
REMARK  0 active torsions:
REMARK  status: ('A' for Active; 'I' for Inactive)
ROOT
ATOM      1  N1  IND d   1       1.032  -1.210  -0.554  0.00  0.00    -0.196 N 
ATOM      2  C2  IND d   1       0.111  -2.204  -0.375  0.00  0.00     0.054 A 
ATOM      3  C3  IND d   1      -1.093  -1.678  -0.057  0.00  0.00    -0.031 A 
ATOM      4  C4  IND d   1      -1.803   0.790   0.124  0.00  0.00     0.051 A 
ATOM      5  C5  IND d   1      -1.302   2.061   0.082  0.00  0.00    -0.031 A 
ATOM      6  C6  IND d   1       0.029   2.311  -0.182  0.00  0.00     0.015 A 
ATOM      7  C7  IND d   1       0.910   1.296  -0.426  0.00  0.00    -0.016 A 
ATOM      8  C8  IND d   1       0.406   0.004  -0.378  0.00  0.00    -0.047 A 
ATOM      9  C9  IND d   1      -0.935  -0.258  -0.069  0.00  0.00    -0.096 A 
ATOM     10  HN1 IND d   1       1.862  -1.325  -0.745  0.00  0.00     0.298 HD
ENDROOT
TORSDOF 0
ENDMDL
