MODEL 1
REMARK minimizedAffinity -1.75799739
REMARK minimizedRMSD -1
REMARK  0 active torsions:
REMARK  status: ('A' for Active; 'I' for Inactive)
ROOT
ATOM      1  N1  IND d   1       1.247   2.345  -0.020  0.00  0.00    -0.196 N 
ATOM      2  C2  IND d   1       0.304   3.299   0.243  0.00  0.00     0.054 A 
ATOM      3  C3  IND d   1      -0.895   2.722   0.480  0.00  0.00    -0.031 A 
ATOM      4  C4  IND d   1      -1.516   0.226   0.587  0.00  0.00     0.051 A 
ATOM      5  C5  IND d   1      -1.000  -1.022   0.380  0.00  0.00    -0.031 A 
ATOM      6  C6  IND d   1       0.319  -1.216   0.025  0.00  0.00     0.015 A 
ATOM      7  C7  IND d   1       1.178  -0.164  -0.126  0.00  0.00    -0.016 A 
ATOM      8  C8  IND d   1       0.655   1.105   0.076  0.00  0.00    -0.047 A 
ATOM      9  C9  IND d   1      -0.693   1.311   0.395  0.00  0.00    -0.096 A 
ATOM     10  HN1 IND d   1       2.072   2.495  -0.214  0.00  0.00     0.298 HD
ENDROOT
TORSDOF 0
ENDMDL
