MODEL 1
REMARK minimizedAffinity -3.8638165
REMARK minimizedRMSD -1
REMARK  0 active torsions:
REMARK  status: ('A' for Active; 'I' for Inactive)
ROOT
ATOM      1  N1  IND d   1       1.157  -0.389  -0.831  0.00  0.00    -0.196 N 
ATOM      2  C2  IND d   1       0.383  -1.479  -0.544  0.00  0.00     0.054 A 
ATOM      3  C3  IND d   1      -0.745  -1.099   0.096  0.00  0.00    -0.031 A 
ATOM      4  C4  IND d   1      -1.573   1.266   0.686  0.00  0.00     0.051 A 
ATOM      5  C5  IND d   1      -1.193   2.579   0.658  0.00  0.00    -0.031 A 
ATOM      6  C6  IND d   1       0.013   2.978   0.119  0.00  0.00     0.015 A 
ATOM      7  C7  IND d   1       0.883   2.076  -0.425  0.00  0.00    -0.016 A 
ATOM      8  C8  IND d   1       0.503   0.741  -0.392  0.00  0.00    -0.047 A 
ATOM      9  C9  IND d   1      -0.700   0.326   0.192  0.00  0.00    -0.096 A 
ATOM     10  HN1 IND d   1       1.924  -0.407  -1.220  0.00  0.00     0.298 HD
ENDROOT
TORSDOF 0
ENDMDL
