MODEL 1
REMARK minimizedAffinity -5.52836466
REMARK minimizedRMSD -1
REMARK  0 active torsions:
REMARK  status: ('A' for Active; 'I' for Inactive)
ROOT
ATOM      1  N1  IND d   1       1.094  -0.517  -1.041  0.00  0.00    -0.196 N 
ATOM      2  C2  IND d   1       0.333  -1.648  -0.942  0.00  0.00     0.054 A 
ATOM      3  C3  IND d   1      -0.853  -1.366  -0.357  0.00  0.00    -0.031 A 
ATOM      4  C4  IND d   1      -1.795   0.899   0.423  0.00  0.00     0.051 A 
ATOM      5  C5  IND d   1      -1.453   2.214   0.573  0.00  0.00    -0.031 A 
ATOM      6  C6  IND d   1      -0.221   2.696   0.182  0.00  0.00     0.015 A 
ATOM      7  C7  IND d   1       0.716   1.879  -0.387  0.00  0.00    -0.016 A 
ATOM      8  C8  IND d   1       0.375   0.542  -0.534  0.00  0.00    -0.047 A 
ATOM      9  C9  IND d   1      -0.859   0.039  -0.100  0.00  0.00    -0.096 A 
ATOM     10  HN1 IND d   1       1.889  -0.475  -1.366  0.00  0.00     0.298 HD
ENDROOT
TORSDOF 0
ENDMDL
