MODEL 1
REMARK minimizedAffinity -3.78757167
REMARK minimizedRMSD -1
REMARK  0 active torsions:
REMARK  status: ('A' for Active; 'I' for Inactive)
ROOT
ATOM      1  N1  IND d   1       1.220  -0.829   0.253  0.00  0.00    -0.196 N 
ATOM      2  C2  IND d   1      -0.003  -1.404   0.048  0.00  0.00     0.054 A 
ATOM      3  C3  IND d   1      -0.974  -0.462   0.056  0.00  0.00    -0.031 A 
ATOM      4  C4  IND d   1      -0.770   2.094   0.287  0.00  0.00     0.051 A 
ATOM      5  C5  IND d   1       0.139   3.084   0.531  0.00  0.00    -0.031 A 
ATOM      6  C6  IND d   1       1.483   2.816   0.695  0.00  0.00     0.015 A 
ATOM      7  C7  IND d   1       1.971   1.543   0.610  0.00  0.00    -0.016 A 
ATOM      8  C8  IND d   1       1.049   0.533   0.370  0.00  0.00    -0.047 A 
ATOM      9  C9  IND d   1      -0.321   0.795   0.245  0.00  0.00    -0.096 A 
ATOM     10  HN1 IND d   1       1.969  -1.247   0.301  0.00  0.00     0.298 HD
ENDROOT
TORSDOF 0
ENDMDL
