MODEL 1
REMARK minimizedAffinity -4.14999294
REMARK minimizedRMSD -1
REMARK  0 active torsions:
REMARK  status: ('A' for Active; 'I' for Inactive)
ROOT
ATOM      1  N1  IND d   1      -0.009  -1.097   0.455  0.00  0.00    -0.196 N 
ATOM      2  C2  IND d   1       1.330  -1.354   0.359  0.00  0.00     0.054 A 
ATOM      3  C3  IND d   1       2.019  -0.204   0.182  0.00  0.00    -0.031 A 
ATOM      4  C4  IND d   1       1.161   2.222   0.121  0.00  0.00     0.051 A 
ATOM      5  C5  IND d   1       0.009   2.958   0.130  0.00  0.00    -0.031 A 
ATOM      6  C6  IND d   1      -1.232   2.368   0.253  0.00  0.00     0.015 A 
ATOM      7  C7  IND d   1      -1.368   1.015   0.384  0.00  0.00    -0.016 A 
ATOM      8  C8  IND d   1      -0.201   0.264   0.368  0.00  0.00    -0.047 A 
ATOM      9  C9  IND d   1       1.059   0.853   0.201  0.00  0.00    -0.096 A 
ATOM     10  HN1 IND d   1      -0.627  -1.687   0.554  0.00  0.00     0.298 HD
ENDROOT
TORSDOF 0
ENDMDL
