MODEL 1
REMARK minimizedAffinity -3.28815985
REMARK minimizedRMSD -1
REMARK  0 active torsions:
REMARK  status: ('A' for Active; 'I' for Inactive)
ROOT
ATOM      1  N1  IND d   1      -0.825  -0.113   1.178  0.00  0.00    -0.196 N 
ATOM      2  C2  IND d   1      -0.550  -1.196   0.390  0.00  0.00     0.054 A 
ATOM      3  C3  IND d   1       0.288  -0.848  -0.612  0.00  0.00    -0.031 A 
ATOM      4  C4  IND d   1       1.412   1.418  -1.091  0.00  0.00     0.051 A 
ATOM      5  C5  IND d   1       1.439   2.718  -0.669  0.00  0.00    -0.031 A 
ATOM      6  C6  IND d   1       0.700   3.148   0.414  0.00  0.00     0.015 A 
ATOM      7  C7  IND d   1      -0.089   2.288   1.125  0.00  0.00    -0.016 A 
ATOM      8  C8  IND d   1      -0.124   0.970   0.695  0.00  0.00    -0.047 A 
ATOM      9  C9  IND d   1       0.591   0.536  -0.429  0.00  0.00    -0.096 A 
ATOM     10  HN1 IND d   1      -1.349  -0.109   1.860  0.00  0.00     0.298 HD
ENDROOT
TORSDOF 0
ENDMDL
