MODEL 1
REMARK minimizedAffinity -2.50829291
REMARK minimizedRMSD -1
REMARK  0 active torsions:
REMARK  status: ('A' for Active; 'I' for Inactive)
ROOT
ATOM      1  N1  IND d   1      -0.020  -0.731  -0.272  0.00  0.00    -0.196 N 
ATOM      2  C2  IND d   1      -0.778  -1.082   0.811  0.00  0.00     0.054 A 
ATOM      3  C3  IND d   1      -1.217   0.023   1.454  0.00  0.00    -0.031 A 
ATOM      4  C4  IND d   1      -0.899   2.505   0.849  0.00  0.00     0.051 A 
ATOM      5  C5  IND d   1      -0.251   3.324  -0.033  0.00  0.00    -0.031 A 
ATOM      6  C6  IND d   1       0.521   2.823  -1.061  0.00  0.00     0.015 A 
ATOM      7  C7  IND d   1       0.665   1.478  -1.254  0.00  0.00    -0.016 A 
ATOM      8  C8  IND d   1       0.014   0.643  -0.357  0.00  0.00    -0.047 A 
ATOM      9  C9  IND d   1      -0.736   1.146   0.714  0.00  0.00    -0.096 A 
ATOM     10  HN1 IND d   1       0.371  -1.278  -0.809  0.00  0.00     0.298 HD
ENDROOT
TORSDOF 0
ENDMDL
