MODEL 1
REMARK minimizedAffinity -5.04447269
REMARK minimizedRMSD -1
REMARK  0 active torsions:
REMARK  status: ('A' for Active; 'I' for Inactive)
ROOT
ATOM      1  N1  IND d   1      -2.412   2.264   0.344  0.00  0.00    -0.196 N 
ATOM      2  C2  IND d   1      -3.047   1.092   0.645  0.00  0.00     0.054 A 
ATOM      3  C3  IND d   1      -2.170   0.064   0.630  0.00  0.00    -0.031 A 
ATOM      4  C4  IND d   1       0.374   0.090   0.238  0.00  0.00     0.051 A 
ATOM      5  C5  IND d   1       1.402   0.921  -0.110  0.00  0.00    -0.031 A 
ATOM      6  C6  IND d   1       1.208   2.270  -0.326  0.00  0.00     0.015 A 
ATOM      7  C7  IND d   1      -0.025   2.843  -0.190  0.00  0.00    -0.016 A 
ATOM      8  C8  IND d   1      -1.073   2.001   0.156  0.00  0.00    -0.047 A 
ATOM      9  C9  IND d   1      -0.889   0.624   0.335  0.00  0.00    -0.096 A 
ATOM     10  HN1 IND d   1      -2.785   3.036   0.283  0.00  0.00     0.298 HD
ENDROOT
TORSDOF 0
ENDMDL
