MODEL 1
REMARK minimizedAffinity -3.94021106
REMARK minimizedRMSD -1
REMARK  0 active torsions:
REMARK  status: ('A' for Active; 'I' for Inactive)
ROOT
ATOM      1  N1  IND d   1       1.363  -0.744   0.293  0.00  0.00    -0.196 N 
ATOM      2  C2  IND d   1       0.457  -1.759   0.160  0.00  0.00     0.054 A 
ATOM      3  C3  IND d   1      -0.804  -1.278   0.249  0.00  0.00    -0.031 A 
ATOM      4  C4  IND d   1      -1.614   1.151   0.511  0.00  0.00     0.051 A 
ATOM      5  C5  IND d   1      -1.156   2.424   0.711  0.00  0.00    -0.031 A 
ATOM      6  C6  IND d   1       0.192   2.711   0.780  0.00  0.00     0.015 A 
ATOM      7  C7  IND d   1       1.137   1.734   0.641  0.00  0.00    -0.016 A 
ATOM      8  C8  IND d   1       0.676   0.440   0.445  0.00  0.00    -0.047 A 
ATOM      9  C9  IND d   1      -0.691   0.136   0.416  0.00  0.00    -0.096 A 
ATOM     10  HN1 IND d   1       2.218  -0.831   0.284  0.00  0.00     0.298 HD
ENDROOT
TORSDOF 0
ENDMDL
