MODEL 1
REMARK minimizedAffinity -3.58536458
REMARK minimizedRMSD -1
REMARK  0 active torsions:
REMARK  status: ('A' for Active; 'I' for Inactive)
ROOT
ATOM      1  N1  IND d   1       2.683   0.572   1.196  0.00  0.00    -0.196 N 
ATOM      2  C2  IND d   1       3.178   1.748   1.687  0.00  0.00     0.054 A 
ATOM      3  C3  IND d   1       2.228   2.709   1.652  0.00  0.00    -0.031 A 
ATOM      4  C4  IND d   1      -0.237   2.547   0.926  0.00  0.00     0.051 A 
ATOM      5  C5  IND d   1      -1.141   1.688   0.369  0.00  0.00    -0.031 A 
ATOM      6  C6  IND d   1      -0.812   0.385   0.056  0.00  0.00     0.015 A 
ATOM      7  C7  IND d   1       0.437  -0.112   0.299  0.00  0.00    -0.016 A 
ATOM      8  C8  IND d   1       1.361   0.760   0.858  0.00  0.00    -0.047 A 
ATOM      9  C9  IND d   1       1.044   2.095   1.139  0.00  0.00    -0.096 A 
ATOM     10  HN1 IND d   1       3.123  -0.162   1.113  0.00  0.00     0.298 HD
ENDROOT
TORSDOF 0
ENDMDL
