MODEL 1
REMARK minimizedAffinity 1.23978722
REMARK minimizedRMSD -1
REMARK  0 active torsions:
REMARK  status: ('A' for Active; 'I' for Inactive)
ROOT
ATOM      1  C   UNL d   1      -5.997   2.452  -3.121  0.00  0.00     0.020 A 
ATOM      2  C1  UNL d   1      -5.302   2.463  -1.913  0.00  0.00     0.020 A 
ATOM      3  C2  UNL d   1      -3.982   2.917  -1.871  0.00  0.00     0.034 A 
ATOM      4  C3  UNL d   1      -3.353   3.361  -3.040  0.00  0.00     0.017 A 
ATOM      5  C4  UNL d   1      -4.052   3.350  -4.252  0.00  0.00     0.017 A 
ATOM      6  C5  UNL d   1      -5.373   2.894  -4.288  0.00  0.00     0.034 A 
ATOM      7 Cl   UNL d   1      -3.343   3.883  -5.736  0.00  0.00    -0.070 Cl
ATOM      8 Cl1  UNL d   1      -1.719   3.909  -2.915  0.00  0.00    -0.070 Cl
ENDROOT
TORSDOF 0
ENDMDL
