MODEL 1
REMARK minimizedAffinity -0.546886623
REMARK minimizedRMSD -1
REMARK  0 active torsions:
REMARK  status: ('A' for Active; 'I' for Inactive)
ROOT
ATOM      1  C   UNL d   1       1.272  -1.821   0.703  0.00  0.00     0.020 A 
ATOM      2  C1  UNL d   1       0.588  -0.696   1.161  0.00  0.00     0.020 A 
ATOM      3  C2  UNL d   1       0.855   0.557   0.606  0.00  0.00     0.034 A 
ATOM      4  C3  UNL d   1       1.809   0.689  -0.410  0.00  0.00     0.017 A 
ATOM      5  C4  UNL d   1       2.495  -0.441  -0.869  0.00  0.00     0.017 A 
ATOM      6  C5  UNL d   1       2.224  -1.694  -0.310  0.00  0.00     0.034 A 
ATOM      7 Cl   UNL d   1       3.686  -0.358  -2.119  0.00  0.00    -0.070 Cl
ATOM      8 Cl1  UNL d   1       2.088   2.269  -1.050  0.00  0.00    -0.070 Cl
ENDROOT
TORSDOF 0
ENDMDL
