MODEL 1
REMARK minimizedAffinity 5.29835129
REMARK minimizedRMSD -1
REMARK  0 active torsions:
REMARK  status: ('A' for Active; 'I' for Inactive)
ROOT
ATOM      1  C   UNL d   1       0.540  -1.150   1.109  0.00  0.00     0.020 A 
ATOM      2  C1  UNL d   1       0.748   0.227   1.170  0.00  0.00     0.020 A 
ATOM      3  C2  UNL d   1       1.531   0.859   0.202  0.00  0.00     0.034 A 
ATOM      4  C3  UNL d   1       2.109   0.113  -0.832  0.00  0.00     0.017 A 
ATOM      5  C4  UNL d   1       1.899  -1.270  -0.892  0.00  0.00     0.017 A 
ATOM      6  C5  UNL d   1       1.114  -1.897   0.080  0.00  0.00     0.034 A 
ATOM      7 Cl   UNL d   1       2.579  -2.257  -2.138  0.00  0.00    -0.070 Cl
ATOM      8 Cl1  UNL d   1       3.065   0.959  -1.996  0.00  0.00    -0.070 Cl
ENDROOT
TORSDOF 0
ENDMDL
