MODEL 1
REMARK minimizedAffinity 6.53395653
REMARK minimizedRMSD -1
REMARK  0 active torsions:
REMARK  status: ('A' for Active; 'I' for Inactive)
ROOT
ATOM      1  C   UNL d   1       3.456  -1.155  -1.219  0.00  0.00     0.020 A 
ATOM      2  C1  UNL d   1       2.796  -2.351  -1.497  0.00  0.00     0.020 A 
ATOM      3  C2  UNL d   1       1.826  -2.834  -0.616  0.00  0.00     0.034 A 
ATOM      4  C3  UNL d   1       1.514  -2.121   0.547  0.00  0.00     0.017 A 
ATOM      5  C4  UNL d   1       2.177  -0.921   0.825  0.00  0.00     0.017 A 
ATOM      6  C5  UNL d   1       3.147  -0.442  -0.061  0.00  0.00     0.034 A 
ATOM      7 Cl   UNL d   1       1.846   0.015   2.240  0.00  0.00    -0.070 Cl
ATOM      8 Cl1  UNL d   1       0.304  -2.777   1.591  0.00  0.00    -0.070 Cl
ENDROOT
TORSDOF 0
ENDMDL
