MODEL 1
REMARK minimizedAffinity 7.34294701
REMARK minimizedRMSD -1
REMARK  0 active torsions:
REMARK  status: ('A' for Active; 'I' for Inactive)
ROOT
ATOM      1  C   UNL d   1      -3.180   0.012   2.020  0.00  0.00     0.020 A 
ATOM      2  C1  UNL d   1      -1.837   0.293   2.266  0.00  0.00     0.020 A 
ATOM      3  C2  UNL d   1      -0.882  -0.721   2.166  0.00  0.00     0.034 A 
ATOM      4  C3  UNL d   1      -1.269  -2.021   1.819  0.00  0.00     0.017 A 
ATOM      5  C4  UNL d   1      -2.617  -2.302   1.571  0.00  0.00     0.017 A 
ATOM      6  C5  UNL d   1      -3.569  -1.282   1.673  0.00  0.00     0.034 A 
ATOM      7 Cl   UNL d   1      -3.171  -3.880   1.137  0.00  0.00    -0.070 Cl
ATOM      8 Cl1  UNL d   1      -0.034  -3.226   1.713  0.00  0.00    -0.070 Cl
ENDROOT
TORSDOF 0
ENDMDL
