MODEL 1
REMARK minimizedAffinity 0.333608031
REMARK minimizedRMSD -1
REMARK  0 active torsions:
REMARK  status: ('A' for Active; 'I' for Inactive)
ROOT
ATOM      1  C   UNL d   1       0.973  -0.732   0.866  0.00  0.00     0.020 A 
ATOM      2  C1  UNL d   1       1.505   0.557   0.873  0.00  0.00     0.020 A 
ATOM      3  C2  UNL d   1       2.290   0.994  -0.195  0.00  0.00     0.034 A 
ATOM      4  C3  UNL d   1       2.546   0.143  -1.276  0.00  0.00     0.017 A 
ATOM      5  C4  UNL d   1       2.011  -1.151  -1.283  0.00  0.00     0.017 A 
ATOM      6  C5  UNL d   1       1.226  -1.584  -0.210  0.00  0.00     0.034 A 
ATOM      7 Cl   UNL d   1       2.283  -2.259  -2.582  0.00  0.00    -0.070 Cl
ATOM      8 Cl1  UNL d   1       3.524   0.751  -2.564  0.00  0.00    -0.070 Cl
ENDROOT
TORSDOF 0
ENDMDL
