MODEL 1
REMARK minimizedAffinity -2.57994103
REMARK minimizedRMSD -1
REMARK  0 active torsions:
REMARK  status: ('A' for Active; 'I' for Inactive)
ROOT
ATOM      1  C   UNL d   1      -4.226   3.334  -2.301  0.00  0.00     0.020 A 
ATOM      2  C1  UNL d   1      -3.802   2.279  -3.108  0.00  0.00     0.020 A 
ATOM      3  C2  UNL d   1      -2.504   2.273  -3.624  0.00  0.00     0.034 A 
ATOM      4  C3  UNL d   1      -1.625   3.323  -3.332  0.00  0.00     0.017 A 
ATOM      5  C4  UNL d   1      -2.052   4.381  -2.522  0.00  0.00     0.017 A 
ATOM      6  C5  UNL d   1      -3.353   4.383  -2.009  0.00  0.00     0.034 A 
ATOM      7 Cl   UNL d   1      -1.026   5.712  -2.119  0.00  0.00    -0.070 Cl
ATOM      8 Cl1  UNL d   1      -0.035   3.249  -4.003  0.00  0.00    -0.070 Cl
ENDROOT
TORSDOF 0
ENDMDL
