MODEL 1
REMARK minimizedAffinity 6.09491348
REMARK minimizedRMSD -1
REMARK  0 active torsions:
REMARK  status: ('A' for Active; 'I' for Inactive)
ROOT
ATOM      1  C   UNL d   1       2.110  -2.539  -0.185  0.00  0.00     0.020 A 
ATOM      2  C1  UNL d   1       2.727  -1.814  -1.203  0.00  0.00     0.020 A 
ATOM      3  C2  UNL d   1       2.658  -0.419  -1.209  0.00  0.00     0.034 A 
ATOM      4  C3  UNL d   1       1.969   0.255  -0.194  0.00  0.00     0.017 A 
ATOM      5  C4  UNL d   1       1.350  -0.473   0.828  0.00  0.00     0.017 A 
ATOM      6  C5  UNL d   1       1.422  -1.870   0.829  0.00  0.00     0.034 A 
ATOM      7 Cl   UNL d   1       0.482   0.288   2.114  0.00  0.00    -0.070 Cl
ATOM      8 Cl1  UNL d   1       1.924   1.981  -0.263  0.00  0.00    -0.070 Cl
ENDROOT
TORSDOF 0
ENDMDL
