MODEL 1
REMARK minimizedAffinity -0.469221711
REMARK minimizedRMSD -1
REMARK  0 active torsions:
REMARK  status: ('A' for Active; 'I' for Inactive)
ROOT
ATOM      1  C   UNL d   1       0.789   0.146   1.078  0.00  0.00     0.020 A 
ATOM      2  C1  UNL d   1       1.061  -1.214   0.937  0.00  0.00     0.020 A 
ATOM      3  C2  UNL d   1       2.004  -1.645   0.002  0.00  0.00     0.034 A 
ATOM      4  C3  UNL d   1       2.679  -0.714  -0.797  0.00  0.00     0.017 A 
ATOM      5  C4  UNL d   1       2.405   0.651  -0.655  0.00  0.00     0.017 A 
ATOM      6  C5  UNL d   1       1.460   1.077   0.284  0.00  0.00     0.034 A 
ATOM      7 Cl   UNL d   1       3.198   1.859  -1.604  0.00  0.00    -0.070 Cl
ATOM      8 Cl1  UNL d   1       3.832  -1.317  -1.933  0.00  0.00    -0.070 Cl
ENDROOT
TORSDOF 0
ENDMDL
