MODEL 1
REMARK minimizedAffinity 5.06332636
REMARK minimizedRMSD -1
REMARK  0 active torsions:
REMARK  status: ('A' for Active; 'I' for Inactive)
ROOT
ATOM      1  C   UNL d   1      -2.080   5.813  -2.247  0.00  0.00     0.020 A 
ATOM      2  C1  UNL d   1      -0.746   5.999  -1.886  0.00  0.00     0.020 A 
ATOM      3  C2  UNL d   1       0.199   5.011  -2.171  0.00  0.00     0.034 A 
ATOM      4  C3  UNL d   1      -0.188   3.832  -2.817  0.00  0.00     0.017 A 
ATOM      5  C4  UNL d   1      -1.527   3.646  -3.179  0.00  0.00     0.017 A 
ATOM      6  C5  UNL d   1      -2.469   4.638  -2.892  0.00  0.00     0.034 A 
ATOM      7 Cl   UNL d   1      -2.081   2.217  -3.980  0.00  0.00    -0.070 Cl
ATOM      8 Cl1  UNL d   1       1.033   2.653  -3.138  0.00  0.00    -0.070 Cl
ENDROOT
TORSDOF 0
ENDMDL
