MODEL 1
REMARK minimizedAffinity -0.0844881535
REMARK minimizedRMSD -1
REMARK  0 active torsions:
REMARK  status: ('A' for Active; 'I' for Inactive)
ROOT
ATOM      1  C   UNL d   1       2.855  -0.259  -1.782  0.00  0.00     0.020 A 
ATOM      2  C1  UNL d   1       2.743  -1.598  -1.409  0.00  0.00     0.020 A 
ATOM      3  C2  UNL d   1       1.967  -1.951  -0.303  0.00  0.00     0.034 A 
ATOM      4  C3  UNL d   1       1.300  -0.965   0.433  0.00  0.00     0.017 A 
ATOM      5  C4  UNL d   1       1.414   0.378   0.058  0.00  0.00     0.017 A 
ATOM      6  C5  UNL d   1       2.192   0.727  -1.050  0.00  0.00     0.034 A 
ATOM      7 Cl   UNL d   1       0.621   1.651   0.917  0.00  0.00    -0.070 Cl
ATOM      8 Cl1  UNL d   1       0.358  -1.475   1.789  0.00  0.00    -0.070 Cl
ENDROOT
TORSDOF 0
ENDMDL
