MODEL 1
REMARK minimizedAffinity -0.556611359
REMARK minimizedRMSD -1
REMARK  0 active torsions:
REMARK  status: ('A' for Active; 'I' for Inactive)
ROOT
ATOM      1  C   UNL d   1       0.429  -2.361   1.723  0.00  0.00     0.020 A 
ATOM      2  C1  UNL d   1      -0.125  -1.181   2.219  0.00  0.00     0.020 A 
ATOM      3  C2  UNL d   1       0.234   0.047   1.659  0.00  0.00     0.034 A 
ATOM      4  C3  UNL d   1       1.149   0.098   0.601  0.00  0.00     0.017 A 
ATOM      5  C4  UNL d   1       1.704  -1.087   0.105  0.00  0.00     0.017 A 
ATOM      6  C5  UNL d   1       1.341  -2.314   0.669  0.00  0.00     0.034 A 
ATOM      7 Cl   UNL d   1       2.839  -1.104  -1.199  0.00  0.00    -0.070 Cl
ATOM      8 Cl1  UNL d   1       1.547   1.652  -0.043  0.00  0.00    -0.070 Cl
ENDROOT
TORSDOF 0
ENDMDL
