MODEL 1
REMARK minimizedAffinity -2.63273883
REMARK minimizedRMSD -1
REMARK  0 active torsions:
REMARK  status: ('A' for Active; 'I' for Inactive)
ROOT
ATOM      1  C   UNL d   1       3.304  -0.018  -1.910  0.00  0.00     0.020 A 
ATOM      2  C1  UNL d   1       3.177  -1.354  -1.531  0.00  0.00     0.020 A 
ATOM      3  C2  UNL d   1       2.220  -1.723  -0.583  0.00  0.00     0.034 A 
ATOM      4  C3  UNL d   1       1.386  -0.755  -0.011  0.00  0.00     0.017 A 
ATOM      5  C4  UNL d   1       1.514   0.585  -0.392  0.00  0.00     0.017 A 
ATOM      6  C5  UNL d   1       2.474   0.949  -1.342  0.00  0.00     0.034 A 
ATOM      7 Cl   UNL d   1       0.522   1.836   0.270  0.00  0.00    -0.070 Cl
ATOM      8 Cl1  UNL d   1       0.225  -1.283   1.155  0.00  0.00    -0.070 Cl
ENDROOT
TORSDOF 0
ENDMDL
