MODEL 1
REMARK minimizedAffinity -1.6324178
REMARK minimizedRMSD -1
REMARK  0 active torsions:
REMARK  status: ('A' for Active; 'I' for Inactive)
ROOT
ATOM      1  C   UNL d   1       0.577  -2.737   0.624  0.00  0.00     0.020 A 
ATOM      2  C1  UNL d   1       0.020  -1.592   1.192  0.00  0.00     0.020 A 
ATOM      3  C2  UNL d   1       0.574  -0.339   0.924  0.00  0.00     0.034 A 
ATOM      4  C3  UNL d   1       1.690  -0.227   0.087  0.00  0.00     0.017 A 
ATOM      5  C4  UNL d   1       2.250  -1.377  -0.483  0.00  0.00     0.017 A 
ATOM      6  C5  UNL d   1       1.690  -2.630  -0.211  0.00  0.00     0.034 A 
ATOM      7 Cl   UNL d   1       3.627  -1.319  -1.526  0.00  0.00    -0.070 Cl
ATOM      8 Cl1  UNL d   1       2.324   1.354  -0.201  0.00  0.00    -0.070 Cl
ENDROOT
TORSDOF 0
ENDMDL
