MODEL 1
REMARK minimizedAffinity -2.60468483
REMARK minimizedRMSD -1
REMARK  0 active torsions:
REMARK  status: ('A' for Active; 'I' for Inactive)
ROOT
ATOM      1  C   UNL d   1       0.154  -2.075   1.895  0.00  0.00     0.020 A 
ATOM      2  C1  UNL d   1      -0.259  -0.770   2.159  0.00  0.00     0.020 A 
ATOM      3  C2  UNL d   1       0.263   0.291   1.416  0.00  0.00     0.034 A 
ATOM      4  C3  UNL d   1       1.201   0.049   0.405  0.00  0.00     0.017 A 
ATOM      5  C4  UNL d   1       1.614  -1.262   0.141  0.00  0.00     0.017 A 
ATOM      6  C5  UNL d   1       1.088  -2.321   0.888  0.00  0.00     0.034 A 
ATOM      7 Cl   UNL d   1       2.767  -1.639  -1.090  0.00  0.00    -0.070 Cl
ATOM      8 Cl1  UNL d   1       1.804   1.409  -0.474  0.00  0.00    -0.070 Cl
ENDROOT
TORSDOF 0
ENDMDL
