MODEL 1
REMARK minimizedAffinity 1.11863697
REMARK minimizedRMSD -1
REMARK  0 active torsions:
REMARK  status: ('A' for Active; 'I' for Inactive)
ROOT
ATOM      1  C   UNL d   1       1.955  -2.287  -0.668  0.00  0.00     0.020 A 
ATOM      2  C1  UNL d   1       1.407  -1.285   0.133  0.00  0.00     0.020 A 
ATOM      3  C2  UNL d   1       1.858   0.031   0.011  0.00  0.00     0.034 A 
ATOM      4  C3  UNL d   1       2.860   0.349  -0.913  0.00  0.00     0.017 A 
ATOM      5  C4  UNL d   1       3.410  -0.657  -1.716  0.00  0.00     0.017 A 
ATOM      6  C5  UNL d   1       2.954  -1.973  -1.590  0.00  0.00     0.034 A 
ATOM      7 Cl   UNL d   1       4.649  -0.342  -2.878  0.00  0.00    -0.070 Cl
ATOM      8 Cl1  UNL d   1       3.370   1.997  -1.010  0.00  0.00    -0.070 Cl
ENDROOT
TORSDOF 0
ENDMDL
