MODEL 1
REMARK minimizedAffinity -0.520151198
REMARK minimizedRMSD -1
REMARK  0 active torsions:
REMARK  status: ('A' for Active; 'I' for Inactive)
ROOT
ATOM      1  C   UNL d   1       0.933  -0.168   0.431  0.00  0.00     0.020 A 
ATOM      2  C1  UNL d   1       1.322  -1.505   0.350  0.00  0.00     0.020 A 
ATOM      3  C2  UNL d   1       2.377  -1.875  -0.487  0.00  0.00     0.034 A 
ATOM      4  C3  UNL d   1       3.046  -0.908  -1.246  0.00  0.00     0.017 A 
ATOM      5  C4  UNL d   1       2.655   0.433  -1.163  0.00  0.00     0.017 A 
ATOM      6  C5  UNL d   1       1.598   0.799  -0.324  0.00  0.00     0.034 A 
ATOM      7 Cl   UNL d   1       3.433   1.683  -2.069  0.00  0.00    -0.070 Cl
ATOM      8 Cl1  UNL d   1       4.342  -1.437  -2.259  0.00  0.00    -0.070 Cl
ENDROOT
TORSDOF 0
ENDMDL
