MODEL 1
REMARK minimizedAffinity -1.03443086
REMARK minimizedRMSD -1
REMARK  0 active torsions:
REMARK  status: ('A' for Active; 'I' for Inactive)
ROOT
ATOM      1  C   UNL d   1       3.076  -0.009  -1.486  0.00  0.00     0.020 A 
ATOM      2  C1  UNL d   1       2.439  -1.207  -1.164  0.00  0.00     0.020 A 
ATOM      3  C2  UNL d   1       1.532  -1.253  -0.103  0.00  0.00     0.034 A 
ATOM      4  C3  UNL d   1       1.260  -0.098   0.640  0.00  0.00     0.017 A 
ATOM      5  C4  UNL d   1       1.899   1.104   0.316  0.00  0.00     0.017 A 
ATOM      6  C5  UNL d   1       2.806   1.144  -0.747  0.00  0.00     0.034 A 
ATOM      7 Cl   UNL d   1       1.614   2.569   1.187  0.00  0.00    -0.070 Cl
ATOM      8 Cl1  UNL d   1       0.127  -0.228   1.939  0.00  0.00    -0.070 Cl
ENDROOT
TORSDOF 0
ENDMDL
