MODEL 1
REMARK minimizedAffinity -5.19993591
REMARK minimizedRMSD -1
REMARK  0 active torsions:
REMARK  status: ('A' for Active; 'I' for Inactive)
ROOT
ATOM      1  C   UNL d   1       0.216   3.070   0.073  0.00  0.00     0.078 C 
ATOM      2  C1  UNL d   1      -0.054   1.600   0.192  0.00  0.00    -0.077 A 
ATOM      3  C2  UNL d   1       0.904   0.657  -0.197  0.00  0.00    -0.001 A 
ATOM      4  C3  UNL d   1       0.635  -0.709  -0.090  0.00  0.00     0.003 A 
ATOM      5  C4  UNL d   1      -0.593  -1.143   0.406  0.00  0.00    -0.005 A 
ATOM      6  C5  UNL d   1      -1.554  -0.212   0.793  0.00  0.00     0.003 A 
ATOM      7  C6  UNL d   1      -1.287   1.154   0.687  0.00  0.00    -0.001 A 
ENDROOT
TORSDOF 0
ENDMDL
