MODEL 1
REMARK minimizedAffinity -4.78534698
REMARK minimizedRMSD -1
REMARK  0 active torsions:
REMARK  status: ('A' for Active; 'I' for Inactive)
ROOT
ATOM      1  C   UNL d   1       0.334  -1.530   0.171  0.00  0.00     0.078 C 
ATOM      2  C1  UNL d   1      -0.043  -0.078   0.192  0.00  0.00    -0.077 A 
ATOM      3  C2  UNL d   1       0.897   0.915  -0.113  0.00  0.00    -0.001 A 
ATOM      4  C3  UNL d   1       0.535   2.262  -0.080  0.00  0.00     0.003 A 
ATOM      5  C4  UNL d   1      -0.766   2.630   0.259  0.00  0.00    -0.005 A 
ATOM      6  C5  UNL d   1      -1.707   1.649   0.565  0.00  0.00     0.003 A 
ATOM      7  C6  UNL d   1      -1.347   0.301   0.533  0.00  0.00    -0.001 A 
ENDROOT
TORSDOF 0
ENDMDL
