MODEL 1
REMARK minimizedAffinity -5.23196316
REMARK minimizedRMSD -1
REMARK  0 active torsions:
REMARK  status: ('A' for Active; 'I' for Inactive)
ROOT
ATOM      1  C   UNL d   1      -0.365  -1.138   0.382  0.00  0.00     0.078 C 
ATOM      2  C1  UNL d   1      -0.179   0.322   0.098  0.00  0.00    -0.077 A 
ATOM      3  C2  UNL d   1       0.992   0.796  -0.508  0.00  0.00    -0.001 A 
ATOM      4  C3  UNL d   1       1.156   2.159  -0.757  0.00  0.00     0.003 A 
ATOM      5  C4  UNL d   1       0.154   3.060  -0.404  0.00  0.00    -0.005 A 
ATOM      6  C5  UNL d   1      -1.014   2.599   0.201  0.00  0.00     0.003 A 
ATOM      7  C6  UNL d   1      -1.179   1.236   0.451  0.00  0.00    -0.001 A 
ENDROOT
TORSDOF 0
ENDMDL
