MODEL 1
REMARK minimizedAffinity -4.82683325
REMARK minimizedRMSD -1
REMARK  0 active torsions:
REMARK  status: ('A' for Active; 'I' for Inactive)
ROOT
ATOM      1  C   UNL d   1      -0.030   3.101  -0.239  0.00  0.00     0.078 C 
ATOM      2  C1  UNL d   1      -0.229   1.616  -0.188  0.00  0.00    -0.077 A 
ATOM      3  C2  UNL d   1       0.832   0.737  -0.436  0.00  0.00    -0.001 A 
ATOM      4  C3  UNL d   1       0.630  -0.643  -0.395  0.00  0.00     0.003 A 
ATOM      5  C4  UNL d   1      -0.633  -1.157  -0.107  0.00  0.00    -0.005 A 
ATOM      6  C5  UNL d   1      -1.696  -0.290   0.138  0.00  0.00     0.003 A 
ATOM      7  C6  UNL d   1      -1.496   1.090   0.097  0.00  0.00    -0.001 A 
ENDROOT
TORSDOF 0
ENDMDL
