MODEL 1
REMARK minimizedAffinity -4.94243097
REMARK minimizedRMSD -1
REMARK  0 active torsions:
REMARK  status: ('A' for Active; 'I' for Inactive)
ROOT
ATOM      1  C   UNL d   1      -0.881   1.720  -0.272  0.00  0.00     0.078 C 
ATOM      2  C1  UNL d   1       0.168   0.704   0.071  0.00  0.00    -0.077 A 
ATOM      3  C2  UNL d   1      -0.183  -0.606   0.419  0.00  0.00    -0.001 A 
ATOM      4  C3  UNL d   1       0.803  -1.538   0.745  0.00  0.00     0.003 A 
ATOM      5  C4  UNL d   1       2.147  -1.170   0.727  0.00  0.00    -0.005 A 
ATOM      6  C5  UNL d   1       2.506   0.131   0.384  0.00  0.00     0.003 A 
ATOM      7  C6  UNL d   1       1.521   1.065   0.057  0.00  0.00    -0.001 A 
ENDROOT
TORSDOF 0
ENDMDL
