MODEL 1
REMARK minimizedAffinity -4.88628769
REMARK minimizedRMSD -1
REMARK  0 active torsions:
REMARK  status: ('A' for Active; 'I' for Inactive)
ROOT
ATOM      1  C   UNL d   1      -0.002  -1.447  -0.182  0.00  0.00     0.078 C 
ATOM      2  C1  UNL d   1      -0.139   0.040  -0.042  0.00  0.00    -0.077 A 
ATOM      3  C2  UNL d   1      -1.304   0.610   0.485  0.00  0.00    -0.001 A 
ATOM      4  C3  UNL d   1      -1.422   1.996   0.600  0.00  0.00     0.003 A 
ATOM      5  C4  UNL d   1      -0.379   2.823   0.188  0.00  0.00    -0.005 A 
ATOM      6  C5  UNL d   1       0.783   2.265  -0.339  0.00  0.00     0.003 A 
ATOM      7  C6  UNL d   1       0.903   0.879  -0.455  0.00  0.00    -0.001 A 
ENDROOT
TORSDOF 0
ENDMDL
