MODEL 1
REMARK minimizedAffinity -3.42577982
REMARK minimizedRMSD -1
REMARK  0 active torsions:
REMARK  status: ('A' for Active; 'I' for Inactive)
ROOT
ATOM      1  C   UNL d   1       0.003   3.311   0.135  0.00  0.00     0.078 C 
ATOM      2  C1  UNL d   1      -0.056   1.813   0.164  0.00  0.00    -0.077 A 
ATOM      3  C2  UNL d   1      -1.259   1.144   0.419  0.00  0.00    -0.001 A 
ATOM      4  C3  UNL d   1      -1.298  -0.251   0.453  0.00  0.00     0.003 A 
ATOM      5  C4  UNL d   1      -0.137  -0.989   0.232  0.00  0.00    -0.005 A 
ATOM      6  C5  UNL d   1       1.066  -0.332  -0.021  0.00  0.00     0.003 A 
ATOM      7  C6  UNL d   1       1.106   1.063  -0.055  0.00  0.00    -0.001 A 
ENDROOT
TORSDOF 0
ENDMDL
