MODEL 1
REMARK minimizedAffinity -5.67683458
REMARK minimizedRMSD -1
REMARK  0 active torsions:
REMARK  status: ('A' for Active; 'I' for Inactive)
ROOT
ATOM      1  C   UNL d   1      -0.365  -1.689  -0.461  0.00  0.00     0.078 C 
ATOM      2  C1  UNL d   1      -0.335  -0.201  -0.281  0.00  0.00    -0.077 A 
ATOM      3  C2  UNL d   1      -1.466   0.495   0.163  0.00  0.00    -0.001 A 
ATOM      4  C3  UNL d   1      -1.426   1.882   0.317  0.00  0.00     0.003 A 
ATOM      5  C4  UNL d   1      -0.258   2.585   0.028  0.00  0.00    -0.005 A 
ATOM      6  C5  UNL d   1       0.872   1.901  -0.416  0.00  0.00     0.003 A 
ATOM      7  C6  UNL d   1       0.834   0.514  -0.570  0.00  0.00    -0.001 A 
ENDROOT
TORSDOF 0
ENDMDL
