MODEL 1
REMARK minimizedAffinity -3.69931555
REMARK minimizedRMSD -1
REMARK  0 active torsions:
REMARK  status: ('A' for Active; 'I' for Inactive)
ROOT
ATOM      1  C   UNL d   1      -0.002  -1.097  -0.717  0.00  0.00     0.078 C 
ATOM      2  C1  UNL d   1       0.256   0.329  -0.332  0.00  0.00    -0.077 A 
ATOM      3  C2  UNL d   1       1.179   1.111  -1.036  0.00  0.00    -0.001 A 
ATOM      4  C3  UNL d   1       1.417   2.434  -0.660  0.00  0.00     0.003 A 
ATOM      5  C4  UNL d   1       0.736   2.986   0.423  0.00  0.00    -0.005 A 
ATOM      6  C5  UNL d   1      -0.183   2.215   1.131  0.00  0.00     0.003 A 
ATOM      7  C6  UNL d   1      -0.422   0.892   0.757  0.00  0.00    -0.001 A 
ENDROOT
TORSDOF 0
ENDMDL
