MODEL 1
REMARK minimizedAffinity -5.34517574
REMARK minimizedRMSD -1
REMARK  0 active torsions:
REMARK  status: ('A' for Active; 'I' for Inactive)
ROOT
ATOM      1  C   UNL d   1       0.262  -1.435  -0.054  0.00  0.00     0.078 C 
ATOM      2  C1  UNL d   1       0.092   0.047   0.098  0.00  0.00    -0.077 A 
ATOM      3  C2  UNL d   1      -1.119   0.593   0.539  0.00  0.00    -0.001 A 
ATOM      4  C3  UNL d   1      -1.266   1.975   0.666  0.00  0.00     0.003 A 
ATOM      5  C4  UNL d   1      -0.205   2.823   0.353  0.00  0.00    -0.005 A 
ATOM      6  C5  UNL d   1       1.003   2.289  -0.089  0.00  0.00     0.003 A 
ATOM      7  C6  UNL d   1       1.152   0.907  -0.217  0.00  0.00    -0.001 A 
ENDROOT
TORSDOF 0
ENDMDL
