MODEL 1
REMARK minimizedAffinity -5.72427511
REMARK minimizedRMSD -1
REMARK  0 active torsions:
REMARK  status: ('A' for Active; 'I' for Inactive)
ROOT
ATOM      1  C   UNL d   1      -3.179   1.041   0.589  0.00  0.00     0.078 C 
ATOM      2  C1  UNL d   1      -1.708   1.180   0.332  0.00  0.00    -0.077 A 
ATOM      3  C2  UNL d   1      -1.152   2.415  -0.026  0.00  0.00    -0.001 A 
ATOM      4  C3  UNL d   1       0.217   2.528  -0.272  0.00  0.00     0.003 A 
ATOM      5  C4  UNL d   1       1.042   1.410  -0.163  0.00  0.00    -0.005 A 
ATOM      6  C5  UNL d   1       0.498   0.177   0.191  0.00  0.00     0.003 A 
ATOM      7  C6  UNL d   1      -0.871   0.062   0.437  0.00  0.00    -0.001 A 
ENDROOT
TORSDOF 0
ENDMDL
