MODEL 1
REMARK minimizedAffinity -4.62149048
REMARK minimizedRMSD -1
REMARK  0 active torsions:
REMARK  status: ('A' for Active; 'I' for Inactive)
ROOT
ATOM      1  C   UNL d   1      -0.373  -1.536   0.017  0.00  0.00     0.078 C 
ATOM      2  C1  UNL d   1      -0.215  -0.071   0.296  0.00  0.00    -0.077 A 
ATOM      3  C2  UNL d   1      -1.333   0.752   0.480  0.00  0.00    -0.001 A 
ATOM      4  C3  UNL d   1      -1.171   2.116   0.730  0.00  0.00     0.003 A 
ATOM      5  C4  UNL d   1       0.106   2.669   0.796  0.00  0.00    -0.005 A 
ATOM      6  C5  UNL d   1       1.224   1.857   0.612  0.00  0.00     0.003 A 
ATOM      7  C6  UNL d   1       1.065   0.493   0.362  0.00  0.00    -0.001 A 
ENDROOT
TORSDOF 0
ENDMDL
