MODEL 1
REMARK minimizedAffinity 2.14230227
REMARK minimizedRMSD -1
REMARK  0 active torsions:
REMARK  status: ('A' for Active; 'I' for Inactive)
ROOT
ATOM      1  C   UNL d   1      -4.060  -2.645  -1.106  0.00  0.00     0.124 A 
ATOM      2  C1  UNL d   1      -4.069  -1.261  -1.011  0.00  0.00     0.062 A 
ATOM      3  C2  UNL d   1      -2.897  -0.572  -0.711  0.00  0.00     0.162 A 
ATOM      4  C3  UNL d   1      -1.706  -1.267  -0.504  0.00  0.00    -0.034 A 
ATOM      5  C4  UNL d   1      -1.705  -2.660  -0.601  0.00  0.00     0.162 A 
ATOM      6  C5  UNL d   1      -2.878  -3.344  -0.901  0.00  0.00     0.062 A 
ATOM      7  F   UNL d   1      -2.868  -4.681  -0.993  0.00  0.00    -0.097 F 
ATOM      8  F1  UNL d   1      -0.577  -3.360  -0.408  0.00  0.00    -0.096 F 
ATOM      9  I   UNL d   1       0.049  -0.242  -0.055  0.00  0.00    -0.060 I 
ATOM     10  F2  UNL d   1      -2.935   0.766  -0.625  0.00  0.00    -0.096 F 
ATOM     11  F3  UNL d   1      -5.209  -0.584  -1.208  0.00  0.00    -0.097 F 
ATOM     12  F4  UNL d   1      -5.189  -3.305  -1.395  0.00  0.00    -0.092 F 
ENDROOT
TORSDOF 0
ENDMDL
