MODEL 1
REMARK minimizedAffinity 6.34027576
REMARK minimizedRMSD -1
REMARK  0 active torsions:
REMARK  status: ('A' for Active; 'I' for Inactive)
ROOT
ATOM      1  C   UNL d   1       0.326   0.721   2.449  0.00  0.00     0.124 A 
ATOM      2  C1  UNL d   1       0.751   0.401   1.167  0.00  0.00     0.062 A 
ATOM      3  C2  UNL d   1      -0.049  -0.380   0.338  0.00  0.00     0.162 A 
ATOM      4  C3  UNL d   1      -1.284  -0.846   0.789  0.00  0.00    -0.034 A 
ATOM      5  C4  UNL d   1      -1.704  -0.521   2.080  0.00  0.00     0.162 A 
ATOM      6  C5  UNL d   1      -0.901   0.260   2.904  0.00  0.00     0.062 A 
ATOM      7  F   UNL d   1      -1.313   0.567   4.142  0.00  0.00    -0.097 F 
ATOM      8  F1  UNL d   1      -2.886  -0.953   2.545  0.00  0.00    -0.096 F 
ATOM      9  I   UNL d   1      -2.484  -2.014  -0.447  0.00  0.00    -0.060 I 
ATOM     10  F2  UNL d   1       0.387  -0.673  -0.896  0.00  0.00    -0.096 F 
ATOM     11  F3  UNL d   1       1.937   0.845   0.725  0.00  0.00    -0.097 F 
ATOM     12  F4  UNL d   1       1.099   1.472   3.244  0.00  0.00    -0.092 F 
ENDROOT
TORSDOF 0
ENDMDL
