MODEL 1
REMARK minimizedAffinity 4.0577507
REMARK minimizedRMSD -1
REMARK  0 active torsions:
REMARK  status: ('A' for Active; 'I' for Inactive)
ROOT
ATOM      1  C   UNL d   1      -2.961  -2.953  -1.380  0.00  0.00     0.124 A 
ATOM      2  C1  UNL d   1      -3.277  -1.673  -0.944  0.00  0.00     0.062 A 
ATOM      3  C2  UNL d   1      -2.285  -0.844  -0.430  0.00  0.00     0.162 A 
ATOM      4  C3  UNL d   1      -0.965  -1.290  -0.351  0.00  0.00    -0.034 A 
ATOM      5  C4  UNL d   1      -0.656  -2.579  -0.791  0.00  0.00     0.162 A 
ATOM      6  C5  UNL d   1      -1.651  -3.404  -1.303  0.00  0.00     0.062 A 
ATOM      7  F   UNL d   1      -1.344  -4.640  -1.724  0.00  0.00    -0.097 F 
ATOM      8  F1  UNL d   1       0.602  -3.040  -0.729  0.00  0.00    -0.096 F 
ATOM      9  I   UNL d   1       0.522  -0.053   0.416  0.00  0.00    -0.060 I 
ATOM     10  F2  UNL d   1      -2.618   0.388  -0.016  0.00  0.00    -0.096 F 
ATOM     11  F3  UNL d   1      -4.542  -1.235  -1.016  0.00  0.00    -0.097 F 
ATOM     12  F4  UNL d   1      -3.919  -3.749  -1.872  0.00  0.00    -0.092 F 
ENDROOT
TORSDOF 0
ENDMDL
