MODEL 1
REMARK minimizedAffinity -0.48365289
REMARK minimizedRMSD -1
REMARK  0 active torsions:
REMARK  status: ('A' for Active; 'I' for Inactive)
ROOT
ATOM      1  C   UNL d   1       0.737   0.481   1.907  0.00  0.00     0.124 A 
ATOM      2  C1  UNL d   1      -0.541   0.937   2.199  0.00  0.00     0.062 A 
ATOM      3  C2  UNL d   1      -1.644   0.390   1.551  0.00  0.00     0.162 A 
ATOM      4  C3  UNL d   1      -1.475  -0.621   0.604  0.00  0.00    -0.034 A 
ATOM      5  C4  UNL d   1      -0.186  -1.074   0.315  0.00  0.00     0.162 A 
ATOM      6  C5  UNL d   1       0.913  -0.524   0.966  0.00  0.00     0.062 A 
ATOM      7  F   UNL d   1       2.147  -0.966   0.683  0.00  0.00    -0.097 F 
ATOM      8  F1  UNL d   1       0.012  -2.044  -0.589  0.00  0.00    -0.096 F 
ATOM      9  I   UNL d   1      -3.122  -1.442  -0.367  0.00  0.00    -0.060 I 
ATOM     10  F2  UNL d   1      -2.868   0.850   1.852  0.00  0.00    -0.096 F 
ATOM     11  F3  UNL d   1      -0.713   1.908   3.107  0.00  0.00    -0.097 F 
ATOM     12  F4  UNL d   1       1.797   1.010   2.531  0.00  0.00    -0.092 F 
ENDROOT
TORSDOF 0
ENDMDL
