MODEL 1
REMARK minimizedAffinity -1.45485854
REMARK minimizedRMSD -1
REMARK  0 active torsions:
REMARK  status: ('A' for Active; 'I' for Inactive)
ROOT
ATOM      1  C   UNL d   1       0.886   0.794   2.816  0.00  0.00     0.124 A 
ATOM      2  C1  UNL d   1      -0.485   0.962   2.951  0.00  0.00     0.062 A 
ATOM      3  C2  UNL d   1      -1.356   0.367   2.042  0.00  0.00     0.162 A 
ATOM      4  C3  UNL d   1      -0.858  -0.403   0.991  0.00  0.00    -0.034 A 
ATOM      5  C4  UNL d   1       0.523  -0.566   0.862  0.00  0.00     0.162 A 
ATOM      6  C5  UNL d   1       1.389   0.031   1.772  0.00  0.00     0.062 A 
ATOM      7  F   UNL d   1       2.713  -0.132   1.641  0.00  0.00    -0.097 F 
ATOM      8  F1  UNL d   1       1.036  -1.299  -0.137  0.00  0.00    -0.096 F 
ATOM      9  I   UNL d   1      -2.156  -1.294  -0.370  0.00  0.00    -0.060 I 
ATOM     10  F2  UNL d   1      -2.676   0.546   2.197  0.00  0.00    -0.096 F 
ATOM     11  F3  UNL d   1      -0.974   1.700   3.958  0.00  0.00    -0.097 F 
ATOM     12  F4  UNL d   1       1.721   1.369   3.692  0.00  0.00    -0.092 F 
ENDROOT
TORSDOF 0
ENDMDL
