MODEL 1
REMARK minimizedAffinity 7.68005276
REMARK minimizedRMSD -1
REMARK  0 active torsions:
REMARK  status: ('A' for Active; 'I' for Inactive)
ROOT
ATOM      1  C   UNL d   1       1.549  -0.886   4.876  0.00  0.00     0.124 A 
ATOM      2  C1  UNL d   1       1.832   0.470   4.792  0.00  0.00     0.062 A 
ATOM      3  C2  UNL d   1       3.102   0.942   5.113  0.00  0.00     0.162 A 
ATOM      4  C3  UNL d   1       4.100   0.055   5.519  0.00  0.00    -0.034 A 
ATOM      5  C4  UNL d   1       3.808  -1.307   5.601  0.00  0.00     0.162 A 
ATOM      6  C5  UNL d   1       2.537  -1.773   5.280  0.00  0.00     0.062 A 
ATOM      7  F   UNL d   1       2.266  -3.084   5.361  0.00  0.00    -0.097 F 
ATOM      8  F1  UNL d   1       4.743  -2.187   5.988  0.00  0.00    -0.096 F 
ATOM      9  I   UNL d   1       6.000   0.756   6.000  0.00  0.00    -0.060 I 
ATOM     10  F2  UNL d   1       3.347   2.257   5.024  0.00  0.00    -0.096 F 
ATOM     11  F3  UNL d   1       0.880   1.330   4.403  0.00  0.00    -0.097 F 
ATOM     12  F4  UNL d   1       0.327  -1.337   4.567  0.00  0.00    -0.092 F 
ENDROOT
TORSDOF 0
ENDMDL
