MODEL 1
REMARK minimizedAffinity 4.58072042
REMARK minimizedRMSD -1
REMARK  1 active torsions:
REMARK  status: ('A' for Active; 'I' for Inactive)
REMARK    1  A    between atoms: C1_2  and  C2_3 
ROOT
ATOM      1  C2  UNL d   1       1.784  -2.074   3.003  0.00  0.00    -0.073 A 
ATOM      2  C3  UNL d   1       1.128  -3.234   2.575  0.00  0.00    -0.002 A 
ATOM      3  C4  UNL d   1       1.544  -4.486   3.027  0.00  0.00     0.004 A 
ATOM      4  C5  UNL d   1       2.614  -4.592   3.915  0.00  0.00    -0.004 A 
ATOM      5  C6  UNL d   1       3.275  -3.444   4.364  0.00  0.00    -0.075 A 
ATOM      6  C7  UNL d   1       4.429  -3.540   5.317  0.00  0.00     0.076 C 
ATOM      7  C8  UNL d   1       2.853  -2.189   3.903  0.00  0.00     0.001 A 
ENDROOT
BRANCH   1   8
ATOM      8  C1  UNL d   1       1.334  -0.718   2.522  0.00  0.00     0.053 C 
ATOM      9  C   UNL d   1       2.169  -0.222   1.353  0.00  0.00     0.018 C 
ENDBRANCH   1   8
TORSDOF 1
ENDMDL
