MODEL 1
REMARK minimizedAffinity 13.2296591
REMARK minimizedRMSD -1
REMARK  1 active torsions:
REMARK  status: ('A' for Active; 'I' for Inactive)
REMARK    1  A    between atoms: C1_2  and  C2_3 
ROOT
ATOM      1  C2  UNL d   1       2.544   0.568   1.820  0.00  0.00    -0.073 A 
ATOM      2  C3  UNL d   1       2.343   1.242   3.030  0.00  0.00    -0.002 A 
ATOM      3  C4  UNL d   1       2.304   2.637   3.062  0.00  0.00     0.004 A 
ATOM      4  C5  UNL d   1       2.458   3.370   1.886  0.00  0.00    -0.004 A 
ATOM      5  C6  UNL d   1       2.648   2.715   0.665  0.00  0.00    -0.075 A 
ATOM      6  C7  UNL d   1       2.818   3.489  -0.609  0.00  0.00     0.076 C 
ATOM      7  C8  UNL d   1       2.689   1.314   0.642  0.00  0.00     0.001 A 
ENDROOT
BRANCH   1   8
ATOM      8  C1  UNL d   1       2.581  -0.938   1.780  0.00  0.00     0.053 C 
ATOM      9  C   UNL d   1       1.745  -1.558   2.888  0.00  0.00     0.018 C 
ENDBRANCH   1   8
TORSDOF 1
ENDMDL
