MODEL 1
REMARK minimizedAffinity -1.78123331
REMARK minimizedRMSD -1
REMARK  1 active torsions:
REMARK  status: ('A' for Active; 'I' for Inactive)
REMARK    1  A    between atoms: C1_2  and  C2_3 
ROOT
ATOM      1  C2  UNL d   1       2.017  -5.991  -3.686  0.00  0.00    -0.073 A 
ATOM      2  C3  UNL d   1       3.400  -5.999  -3.896  0.00  0.00    -0.002 A 
ATOM      3  C4  UNL d   1       4.278  -5.998  -2.811  0.00  0.00     0.004 A 
ATOM      4  C5  UNL d   1       3.782  -5.996  -1.507  0.00  0.00    -0.004 A 
ATOM      5  C6  UNL d   1       2.402  -6.000  -1.277  0.00  0.00    -0.075 A 
ATOM      6  C7  UNL d   1       1.853  -5.995   0.119  0.00  0.00     0.076 C 
ATOM      7  C8  UNL d   1       1.528  -5.998  -2.372  0.00  0.00     0.001 A 
ENDROOT
BRANCH   1   8
ATOM      8  C1  UNL d   1       1.065  -5.999  -4.855  0.00  0.00     0.053 C 
ATOM      9  C   UNL d   1       1.534  -5.086  -5.977  0.00  0.00     0.018 C 
ENDBRANCH   1   8
TORSDOF 1
ENDMDL
