MODEL 1
REMARK minimizedAffinity 7.66771364
REMARK minimizedRMSD -1
REMARK  1 active torsions:
REMARK  status: ('A' for Active; 'I' for Inactive)
REMARK    1  A    between atoms: C1_2  and  C2_3 
ROOT
ATOM      1  C2  UNL d   1       3.230  -2.993   3.890  0.00  0.00    -0.073 A 
ATOM      2  C3  UNL d   1       1.950  -3.558   3.851  0.00  0.00    -0.002 A 
ATOM      3  C4  UNL d   1       0.933  -2.950   3.114  0.00  0.00     0.004 A 
ATOM      4  C5  UNL d   1       1.187  -1.776   2.404  0.00  0.00    -0.004 A 
ATOM      5  C6  UNL d   1       2.462  -1.203   2.421  0.00  0.00    -0.075 A 
ATOM      6  C7  UNL d   1       2.750   0.061   1.664  0.00  0.00     0.076 C 
ATOM      7  C8  UNL d   1       3.477  -1.818   3.166  0.00  0.00     0.001 A 
ENDROOT
BRANCH   1   8
ATOM      8  C1  UNL d   1       4.333  -3.649   4.679  0.00  0.00     0.053 C 
ATOM      9  C   UNL d   1       4.719  -2.837   5.905  0.00  0.00     0.018 C 
ENDBRANCH   1   8
TORSDOF 1
ENDMDL
