MODEL 1
REMARK minimizedAffinity 5.0286355
REMARK minimizedRMSD -1
REMARK  1 active torsions:
REMARK  status: ('A' for Active; 'I' for Inactive)
REMARK    1  A    between atoms: C1_2  and  C2_3 
ROOT
ATOM      1  C2  UNL d   1       2.109  -2.402   3.277  0.00  0.00    -0.073 A 
ATOM      2  C3  UNL d   1       2.298  -3.252   2.181  0.00  0.00    -0.002 A 
ATOM      3  C4  UNL d   1       2.135  -4.630   2.322  0.00  0.00     0.004 A 
ATOM      4  C5  UNL d   1       1.775  -5.173   3.555  0.00  0.00    -0.004 A 
ATOM      5  C6  UNL d   1       1.570  -4.339   4.660  0.00  0.00    -0.075 A 
ATOM      6  C7  UNL d   1       1.186  -4.907   5.994  0.00  0.00     0.076 C 
ATOM      7  C8  UNL d   1       1.738  -2.956   4.511  0.00  0.00     0.001 A 
ENDROOT
BRANCH   1   8
ATOM      8  C1  UNL d   1       2.277  -0.912   3.129  0.00  0.00     0.053 C 
ATOM      9  C   UNL d   1       3.151  -0.553   1.938  0.00  0.00     0.018 C 
ENDBRANCH   1   8
TORSDOF 1
ENDMDL
