MODEL 1
REMARK minimizedAffinity 10.6120605
REMARK minimizedRMSD -1
REMARK  1 active torsions:
REMARK  status: ('A' for Active; 'I' for Inactive)
REMARK    1  A    between atoms: C1_2  and  C2_3 
ROOT
ATOM      1  C2  UNL d   1       2.362  -1.808   2.997  0.00  0.00    -0.073 A 
ATOM      2  C3  UNL d   1       1.348  -2.258   2.143  0.00  0.00    -0.002 A 
ATOM      3  C4  UNL d   1       1.069  -3.622   2.039  0.00  0.00     0.004 A 
ATOM      4  C5  UNL d   1       1.793  -4.546   2.791  0.00  0.00    -0.004 A 
ATOM      5  C6  UNL d   1       2.802  -4.115   3.658  0.00  0.00    -0.075 A 
ATOM      6  C7  UNL d   1       3.592  -5.097   4.472  0.00  0.00     0.076 C 
ATOM      7  C8  UNL d   1       3.079  -2.744   3.755  0.00  0.00     0.001 A 
ENDROOT
BRANCH   1   8
ATOM      8  C1  UNL d   1       2.663  -0.336   3.118  0.00  0.00     0.053 C 
ATOM      9  C   UNL d   1       3.130   0.260   1.800  0.00  0.00     0.018 C 
ENDBRANCH   1   8
TORSDOF 1
ENDMDL
