MODEL 1
REMARK minimizedAffinity 12.9969473
REMARK minimizedRMSD -1
REMARK  1 active torsions:
REMARK  status: ('A' for Active; 'I' for Inactive)
REMARK    1  A    between atoms: C1_2  and  C2_3 
ROOT
ATOM      1  C2  UNL d   1       1.201  -4.791   4.111  0.00  0.00    -0.073 A 
ATOM      2  C3  UNL d   1       0.669  -3.723   3.379  0.00  0.00    -0.002 A 
ATOM      3  C4  UNL d   1       1.470  -2.630   3.043  0.00  0.00     0.004 A 
ATOM      4  C5  UNL d   1       2.811  -2.598   3.428  0.00  0.00    -0.004 A 
ATOM      5  C6  UNL d   1       3.364  -3.661   4.149  0.00  0.00    -0.075 A 
ATOM      6  C7  UNL d   1       4.803  -3.641   4.572  0.00  0.00     0.076 C 
ATOM      7  C8  UNL d   1       2.552  -4.753   4.485  0.00  0.00     0.001 A 
ENDROOT
BRANCH   1   8
ATOM      8  C1  UNL d   1       0.342  -5.975   4.471  0.00  0.00     0.053 C 
ATOM      9  C   UNL d   1      -0.004  -5.999   5.951  0.00  0.00     0.018 C 
ENDBRANCH   1   8
TORSDOF 1
ENDMDL
