MODEL 1
REMARK minimizedAffinity 6.38189459
REMARK minimizedRMSD -1
REMARK  1 active torsions:
REMARK  status: ('A' for Active; 'I' for Inactive)
REMARK    1  A    between atoms: C1_2  and  C2_3 
ROOT
ATOM      1  C2  UNL d   1       2.810   1.217   1.615  0.00  0.00    -0.073 A 
ATOM      2  C3  UNL d   1       2.695   1.957   2.798  0.00  0.00    -0.002 A 
ATOM      3  C4  UNL d   1       2.246   1.347   3.970  0.00  0.00     0.004 A 
ATOM      4  C5  UNL d   1       1.914  -0.007   3.974  0.00  0.00    -0.004 A 
ATOM      5  C6  UNL d   1       2.032  -0.766   2.806  0.00  0.00    -0.075 A 
ATOM      6  C7  UNL d   1       1.677  -2.224   2.793  0.00  0.00     0.076 C 
ATOM      7  C8  UNL d   1       2.482  -0.147   1.632  0.00  0.00     0.001 A 
ENDROOT
BRANCH   1   8
ATOM      8  C1  UNL d   1       3.300   1.869   0.348  0.00  0.00     0.053 C 
ATOM      9  C   UNL d   1       2.377   2.986  -0.112  0.00  0.00     0.018 C 
ENDBRANCH   1   8
TORSDOF 1
ENDMDL
