MODEL 1
REMARK minimizedAffinity 14.2443361
REMARK minimizedRMSD -1
REMARK  2 active torsions:
REMARK  status: ('A' for Active; 'I' for Inactive)
REMARK    1  A    between atoms: C2'_3  and  C1'_4 
REMARK    2  A    between atoms: C1'_4  and  C1_5 
ROOT
ATOM      1  C1  I4B d   1       3.982   0.165   0.752  0.00  0.00    -0.075 A 
ATOM      2  C2  I4B d   1       2.845  -0.604   0.750  0.00  0.00     0.003 A 
ATOM      3  C3  I4B d   1       1.570   0.009   0.690  0.00  0.00     0.002 A 
ATOM      4  C4  I4B d   1       1.478   1.386   0.685  0.00  0.00    -0.004 A 
ATOM      5  C5  I4B d   1       2.632   2.163   0.664  0.00  0.00     0.002 A 
ATOM      6  C6  I4B d   1       3.893   1.549   0.685  0.00  0.00     0.003 A 
ENDROOT
BRANCH   1   7
ATOM      7  C1' I4B d   1       5.311  -0.514   0.849  0.00  0.00     0.060 C 
BRANCH   7   8
ATOM      8  C2' I4B d   1       5.994  -0.025   2.110  0.00  0.00    -0.013 C 
ATOM      9  C4' I4B d   1       6.000   1.480   2.178  0.00  0.00     0.013 C 
ATOM     10  C3' I4B d   1       5.277  -0.618   3.285  0.00  0.00     0.013 C 
ENDBRANCH   7   8
ENDBRANCH   1   7
TORSDOF 2
ENDMDL
