MODEL 1
REMARK minimizedAffinity 10.5447464
REMARK minimizedRMSD -1
REMARK  2 active torsions:
REMARK  status: ('A' for Active; 'I' for Inactive)
REMARK    1  A    between atoms: C2'_3  and  C1'_4 
REMARK    2  A    between atoms: C1'_4  and  C1_5 
ROOT
ATOM      1  C1  I4B d   1       3.998   1.790  -1.660  0.00  0.00    -0.075 A 
ATOM      2  C2  I4B d   1       3.514   2.888  -2.327  0.00  0.00     0.003 A 
ATOM      3  C3  I4B d   1       3.603   2.962  -3.738  0.00  0.00     0.002 A 
ATOM      4  C4  I4B d   1       4.224   1.945  -4.434  0.00  0.00    -0.004 A 
ATOM      5  C5  I4B d   1       4.694   0.822  -3.759  0.00  0.00     0.002 A 
ATOM      6  C6  I4B d   1       4.569   0.738  -2.364  0.00  0.00     0.003 A 
ENDROOT
BRANCH   1   7
ATOM      7  C1' I4B d   1       3.917   1.760  -0.167  0.00  0.00     0.060 C 
BRANCH   7   8
ATOM      8  C2' I4B d   1       3.667   0.327   0.258  0.00  0.00    -0.013 C 
ATOM      9  C4' I4B d   1       4.794  -0.193   1.112  0.00  0.00     0.013 C 
ATOM     10  C3' I4B d   1       2.364   0.285   0.999  0.00  0.00     0.013 C 
ENDBRANCH   7   8
ENDBRANCH   1   7
TORSDOF 2
ENDMDL
