MODEL 1
REMARK minimizedAffinity 20.9327183
REMARK minimizedRMSD -1
REMARK  2 active torsions:
REMARK  status: ('A' for Active; 'I' for Inactive)
REMARK    1  A    between atoms: C2'_3  and  C1'_4 
REMARK    2  A    between atoms: C1'_4  and  C1_5 
ROOT
ATOM      1  C1  I4B d   1      -2.054  -2.791  -1.955  0.00  0.00    -0.075 A 
ATOM      2  C2  I4B d   1      -2.562  -1.830  -2.793  0.00  0.00     0.003 A 
ATOM      3  C3  I4B d   1      -2.501  -2.005  -4.197  0.00  0.00     0.002 A 
ATOM      4  C4  I4B d   1      -1.883  -3.123  -4.717  0.00  0.00    -0.004 A 
ATOM      5  C5  I4B d   1      -1.389  -4.107  -3.865  0.00  0.00     0.002 A 
ATOM      6  C6  I4B d   1      -1.486  -3.946  -2.475  0.00  0.00     0.003 A 
ENDROOT
BRANCH   1   7
ATOM      7  C1' I4B d   1      -2.105  -2.559  -0.478  0.00  0.00     0.060 C 
BRANCH   7   8
ATOM      8  C2' I4B d   1      -0.890  -3.219   0.141  0.00  0.00    -0.013 C 
ATOM      9  C4' I4B d   1       0.292  -2.285   0.151  0.00  0.00     0.013 C 
ATOM     10  C3' I4B d   1      -1.253  -3.649   1.531  0.00  0.00     0.013 C 
ENDBRANCH   7   8
ENDBRANCH   1   7
TORSDOF 2
ENDMDL
