MODEL 1
REMARK minimizedAffinity 5.98582506
REMARK minimizedRMSD -1
REMARK  2 active torsions:
REMARK  status: ('A' for Active; 'I' for Inactive)
REMARK    1  A    between atoms: C2'_3  and  C1'_4 
REMARK    2  A    between atoms: C1'_4  and  C1_5 
ROOT
ATOM      1  C1  I4B d   1       0.999  -0.270   0.926  0.00  0.00    -0.075 A 
ATOM      2  C2  I4B d   1       1.020   1.096   1.058  0.00  0.00     0.003 A 
ATOM      3  C3  I4B d   1       2.203   1.821   0.776  0.00  0.00     0.002 A 
ATOM      4  C4  I4B d   1       3.348   1.140   0.416  0.00  0.00    -0.004 A 
ATOM      5  C5  I4B d   1       3.318  -0.243   0.261  0.00  0.00     0.002 A 
ATOM      6  C6  I4B d   1       2.133  -0.952   0.506  0.00  0.00     0.003 A 
ENDROOT
BRANCH   1   7
ATOM      7  C1' I4B d   1      -0.258  -1.007   1.264  0.00  0.00     0.060 C 
BRANCH   7   8
ATOM      8  C2' I4B d   1      -0.369  -2.194   0.329  0.00  0.00    -0.013 C 
ATOM      9  C4' I4B d   1      -0.772  -3.439   1.075  0.00  0.00     0.013 C 
ATOM     10  C3' I4B d   1      -1.368  -1.853  -0.736  0.00  0.00     0.013 C 
ENDBRANCH   7   8
ENDBRANCH   1   7
TORSDOF 2
ENDMDL
