MODEL 1
REMARK minimizedAffinity 7.97043705
REMARK minimizedRMSD -1
REMARK  2 active torsions:
REMARK  status: ('A' for Active; 'I' for Inactive)
REMARK    1  A    between atoms: C2'_3  and  C1'_4 
REMARK    2  A    between atoms: C1'_4  and  C1_5 
ROOT
ATOM      1  C1  I4B d   1       2.182   0.825   1.523  0.00  0.00    -0.075 A 
ATOM      2  C2  I4B d   1       3.229   0.070   1.991  0.00  0.00     0.003 A 
ATOM      3  C3  I4B d   1       4.159  -0.498   1.087  0.00  0.00     0.002 A 
ATOM      4  C4  I4B d   1       3.978  -0.329  -0.270  0.00  0.00    -0.004 A 
ATOM      5  C5  I4B d   1       2.929   0.456  -0.743  0.00  0.00     0.002 A 
ATOM      6  C6  I4B d   1       2.033   1.046   0.160  0.00  0.00     0.003 A 
ENDROOT
BRANCH   1   7
ATOM      7  C1' I4B d   1       1.200   1.382   2.503  0.00  0.00     0.060 C 
BRANCH   7   8
ATOM      8  C2' I4B d   1       1.096   0.412   3.662  0.00  0.00    -0.013 C 
ATOM      9  C4' I4B d   1       0.839   1.136   4.958  0.00  0.00     0.013 C 
ATOM     10  C3' I4B d   1      -0.005  -0.559   3.357  0.00  0.00     0.013 C 
ENDBRANCH   7   8
ENDBRANCH   1   7
TORSDOF 2
ENDMDL
