MODEL 1
REMARK minimizedAffinity 4.20325184
REMARK minimizedRMSD -1
REMARK  2 active torsions:
REMARK  status: ('A' for Active; 'I' for Inactive)
REMARK    1  A    between atoms: C2'_3  and  C1'_4 
REMARK    2  A    between atoms: C1'_4  and  C1_5 
ROOT
ATOM      1  C1  I4B d   1       2.811  -0.347   1.566  0.00  0.00    -0.075 A 
ATOM      2  C2  I4B d   1       2.268   0.841   1.144  0.00  0.00     0.003 A 
ATOM      3  C3  I4B d   1       1.435   1.590   2.010  0.00  0.00     0.002 A 
ATOM      4  C4  I4B d   1       1.134   1.094   3.262  0.00  0.00    -0.004 A 
ATOM      5  C5  I4B d   1       1.704  -0.099   3.696  0.00  0.00     0.002 A 
ATOM      6  C6  I4B d   1       2.558  -0.819   2.847  0.00  0.00     0.003 A 
ENDROOT
BRANCH   1   7
ATOM      7  C1' I4B d   1       3.659  -1.130   0.614  0.00  0.00     0.060 C 
BRANCH   7   8
ATOM      8  C2' I4B d   1       5.088  -0.645   0.755  0.00  0.00    -0.013 C 
ATOM      9  C4' I4B d   1       5.394  -0.257   2.177  0.00  0.00     0.013 C 
ATOM     10  C3' I4B d   1       5.997  -1.742   0.285  0.00  0.00     0.013 C 
ENDBRANCH   7   8
ENDBRANCH   1   7
TORSDOF 2
ENDMDL
