MODEL 1
REMARK minimizedAffinity 9.86102676
REMARK minimizedRMSD -1
REMARK  2 active torsions:
REMARK  status: ('A' for Active; 'I' for Inactive)
REMARK    1  A    between atoms: C2'_3  and  C1'_4 
REMARK    2  A    between atoms: C1'_4  and  C1_5 
ROOT
ATOM      1  C1  I4B d   1       3.440   0.572   1.037  0.00  0.00    -0.075 A 
ATOM      2  C2  I4B d   1       4.352   1.580   0.850  0.00  0.00     0.003 A 
ATOM      3  C3  I4B d   1       3.915   2.919   0.699  0.00  0.00     0.002 A 
ATOM      4  C4  I4B d   1       2.563   3.195   0.689  0.00  0.00    -0.004 A 
ATOM      5  C5  I4B d   1       1.640   2.174   0.902  0.00  0.00     0.002 A 
ATOM      6  C6  I4B d   1       2.081   0.856   1.089  0.00  0.00     0.003 A 
ENDROOT
BRANCH   1   7
ATOM      7  C1' I4B d   1       3.934  -0.834   1.161  0.00  0.00     0.060 C 
BRANCH   7   8
ATOM      8  C2' I4B d   1       5.082  -1.012   0.187  0.00  0.00    -0.013 C 
ATOM      9  C4' I4B d   1       5.999  -2.124   0.624  0.00  0.00     0.013 C 
ATOM     10  C3' I4B d   1       4.501  -1.291  -1.167  0.00  0.00     0.013 C 
ENDBRANCH   7   8
ENDBRANCH   1   7
TORSDOF 2
ENDMDL
