MODEL 1
REMARK minimizedAffinity 11.7913036
REMARK minimizedRMSD -1
REMARK  2 active torsions:
REMARK  status: ('A' for Active; 'I' for Inactive)
REMARK    1  A    between atoms: C2'_3  and  C1'_4 
REMARK    2  A    between atoms: C1'_4  and  C1_5 
ROOT
ATOM      1  C1  I4B d   1      -4.969   3.388   4.122  0.00  0.00    -0.075 A 
ATOM      2  C2  I4B d   1      -5.583   3.700   2.935  0.00  0.00     0.003 A 
ATOM      3  C3  I4B d   1      -6.000   5.028   2.675  0.00  0.00     0.002 A 
ATOM      4  C4  I4B d   1      -5.829   5.996   3.644  0.00  0.00    -0.004 A 
ATOM      5  C5  I4B d   1      -5.186   5.683   4.838  0.00  0.00     0.002 A 
ATOM      6  C6  I4B d   1      -4.742   4.374   5.074  0.00  0.00     0.003 A 
ENDROOT
BRANCH   1   7
ATOM      7  C1' I4B d   1      -4.572   1.969   4.377  0.00  0.00     0.060 C 
BRANCH   7   8
ATOM      8  C2' I4B d   1      -3.887   1.445   3.131  0.00  0.00    -0.013 C 
ATOM      9  C4' I4B d   1      -2.388   1.487   3.274  0.00  0.00     0.013 C 
ATOM     10  C3' I4B d   1      -4.369   0.045   2.891  0.00  0.00     0.013 C 
ENDBRANCH   7   8
ENDBRANCH   1   7
TORSDOF 2
ENDMDL
