MODEL 1
REMARK minimizedAffinity 12.9897699
REMARK minimizedRMSD -1
REMARK  2 active torsions:
REMARK  status: ('A' for Active; 'I' for Inactive)
REMARK    1  A    between atoms: C2'_3  and  C1'_4 
REMARK    2  A    between atoms: C1'_4  and  C1_5 
ROOT
ATOM      1  C1  I4B d   1       3.795   1.942  -2.241  0.00  0.00    -0.075 A 
ATOM      2  C2  I4B d   1       2.759   2.577  -2.880  0.00  0.00     0.003 A 
ATOM      3  C3  I4B d   1       2.665   2.543  -4.292  0.00  0.00     0.002 A 
ATOM      4  C4  I4B d   1       3.650   1.910  -5.024  0.00  0.00    -0.004 A 
ATOM      5  C5  I4B d   1       4.687   1.248  -4.373  0.00  0.00     0.002 A 
ATOM      6  C6  I4B d   1       4.753   1.253  -2.972  0.00  0.00     0.003 A 
ENDROOT
BRANCH   1   7
ATOM      7  C1' I4B d   1       3.881   2.026  -0.749  0.00  0.00     0.060 C 
BRANCH   7   8
ATOM      8  C2' I4B d   1       3.272   0.763  -0.175  0.00  0.00    -0.013 C 
ATOM      9  C4' I4B d   1       4.271   0.007   0.660  0.00  0.00     0.013 C 
ATOM     10  C3' I4B d   1       2.074   1.155   0.638  0.00  0.00     0.013 C 
ENDBRANCH   7   8
ENDBRANCH   1   7
TORSDOF 2
ENDMDL
