MODEL 1
REMARK minimizedAffinity 6.59750462
REMARK minimizedRMSD -1
REMARK  2 active torsions:
REMARK  status: ('A' for Active; 'I' for Inactive)
REMARK    1  A    between atoms: C2'_3  and  C1'_4 
REMARK    2  A    between atoms: C1'_4  and  C1_5 
ROOT
ATOM      1  C1  I4B d   1       2.630   0.857   1.306  0.00  0.00    -0.075 A 
ATOM      2  C2  I4B d   1       3.319   0.483   2.433  0.00  0.00     0.003 A 
ATOM      3  C3  I4B d   1       4.417  -0.406   2.335  0.00  0.00     0.002 A 
ATOM      4  C4  I4B d   1       4.756  -0.933   1.106  0.00  0.00    -0.004 A 
ATOM      5  C5  I4B d   1       4.071  -0.536  -0.039  0.00  0.00     0.002 A 
ATOM      6  C6  I4B d   1       3.009   0.374   0.060  0.00  0.00     0.003 A 
ENDROOT
BRANCH   1   7
ATOM      7  C1' I4B d   1       1.455   1.772   1.450  0.00  0.00     0.060 C 
BRANCH   7   8
ATOM      8  C2' I4B d   1       0.600   1.258   2.590  0.00  0.00    -0.013 C 
ATOM      9  C4' I4B d   1      -0.539   2.199   2.884  0.00  0.00     0.013 C 
ATOM     10  C3' I4B d   1       0.095  -0.103   2.213  0.00  0.00     0.013 C 
ENDBRANCH   7   8
ENDBRANCH   1   7
TORSDOF 2
ENDMDL
