MODEL 1
REMARK minimizedAffinity 3.38864398
REMARK minimizedRMSD -1
REMARK  2 active torsions:
REMARK  status: ('A' for Active; 'I' for Inactive)
REMARK    1  A    between atoms: C2'_3  and  C1'_4 
REMARK    2  A    between atoms: C1'_4  and  C1_5 
ROOT
ATOM      1  C1  I4B d   1      -2.016  -3.209  -2.115  0.00  0.00    -0.075 A 
ATOM      2  C2  I4B d   1      -2.747  -2.278  -1.420  0.00  0.00     0.003 A 
ATOM      3  C3  I4B d   1      -2.397  -1.946  -0.089  0.00  0.00     0.002 A 
ATOM      4  C4  I4B d   1      -1.347  -2.601   0.521  0.00  0.00    -0.004 A 
ATOM      5  C5  I4B d   1      -0.593  -3.528  -0.193  0.00  0.00     0.002 A 
ATOM      6  C6  I4B d   1      -0.922  -3.825  -1.523  0.00  0.00     0.003 A 
ENDROOT
BRANCH   1   7
ATOM      7  C1' I4B d   1      -2.434  -3.560  -3.508  0.00  0.00     0.060 C 
BRANCH   7   8
ATOM      8  C2' I4B d   1      -1.212  -4.064  -4.249  0.00  0.00    -0.013 C 
ATOM      9  C4' I4B d   1      -1.262  -5.558  -4.430  0.00  0.00     0.013 C 
ATOM     10  C3' I4B d   1      -1.149  -3.359  -5.571  0.00  0.00     0.013 C 
ENDBRANCH   7   8
ENDBRANCH   1   7
TORSDOF 2
ENDMDL
