MODEL 1
REMARK minimizedAffinity 4.41425753
REMARK minimizedRMSD -1
REMARK  2 active torsions:
REMARK  status: ('A' for Active; 'I' for Inactive)
REMARK    1  A    between atoms: C2'_3  and  C1'_4 
REMARK    2  A    between atoms: C1'_4  and  C1_5 
ROOT
ATOM      1  C1  I4B d   1       4.592   3.254   2.477  0.00  0.00    -0.075 A 
ATOM      2  C2  I4B d   1       4.013   3.858   3.565  0.00  0.00     0.003 A 
ATOM      3  C3  I4B d   1       4.132   5.257   3.751  0.00  0.00     0.002 A 
ATOM      4  C4  I4B d   1       4.878   6.000   2.858  0.00  0.00    -0.004 A 
ATOM      5  C5  I4B d   1       5.445   5.389   1.743  0.00  0.00     0.002 A 
ATOM      6  C6  I4B d   1       5.291   4.009   1.545  0.00  0.00     0.003 A 
ENDROOT
BRANCH   1   7
ATOM      7  C1' I4B d   1       4.474   1.770   2.329  0.00  0.00     0.060 C 
BRANCH   7   8
ATOM      8  C2' I4B d   1       3.579   1.260   3.441  0.00  0.00    -0.013 C 
ATOM      9  C4' I4B d   1       2.329   0.628   2.888  0.00  0.00     0.013 C 
ATOM     10  C3' I4B d   1       4.368   0.277   4.255  0.00  0.00     0.013 C 
ENDBRANCH   7   8
ENDBRANCH   1   7
TORSDOF 2
ENDMDL
