MODEL 1
REMARK minimizedAffinity 6.3726964
REMARK minimizedRMSD -1
REMARK  2 active torsions:
REMARK  status: ('A' for Active; 'I' for Inactive)
REMARK    1  A    between atoms: C2'_3  and  C1'_4 
REMARK    2  A    between atoms: C1'_4  and  C1_5 
ROOT
ATOM      1  C1  I4B d   1       1.939  -0.178   2.557  0.00  0.00    -0.075 A 
ATOM      2  C2  I4B d   1       0.822   0.596   2.749  0.00  0.00     0.003 A 
ATOM      3  C3  I4B d   1       0.914   2.008   2.689  0.00  0.00     0.002 A 
ATOM      4  C4  I4B d   1       2.143   2.601   2.486  0.00  0.00    -0.004 A 
ATOM      5  C5  I4B d   1       3.271   1.814   2.270  0.00  0.00     0.002 A 
ATOM      6  C6  I4B d   1       3.167   0.416   2.293  0.00  0.00     0.003 A 
ENDROOT
BRANCH   1   7
ATOM      7  C1' I4B d   1       1.813  -1.664   2.660  0.00  0.00     0.060 C 
BRANCH   7   8
ATOM      8  C2' I4B d   1       1.830  -2.034   4.130  0.00  0.00    -0.013 C 
ATOM      9  C4' I4B d   1       0.998  -3.262   4.393  0.00  0.00     0.013 C 
ATOM     10  C3' I4B d   1       3.257  -2.248   4.537  0.00  0.00     0.013 C 
ENDBRANCH   7   8
ENDBRANCH   1   7
TORSDOF 2
ENDMDL
