MODEL 1
REMARK minimizedAffinity 5.70688534
REMARK minimizedRMSD -1
REMARK  2 active torsions:
REMARK  status: ('A' for Active; 'I' for Inactive)
REMARK    1  A    between atoms: C2'_3  and  C1'_4 
REMARK    2  A    between atoms: C1'_4  and  C1_5 
ROOT
ATOM      1  C1  I4B d   1       4.353   3.818   2.239  0.00  0.00    -0.075 A 
ATOM      2  C2  I4B d   1       4.507   2.535   2.702  0.00  0.00     0.003 A 
ATOM      3  C3  I4B d   1       5.312   2.279   3.838  0.00  0.00     0.002 A 
ATOM      4  C4  I4B d   1       5.980   3.322   4.446  0.00  0.00    -0.004 A 
ATOM      5  C5  I4B d   1       5.805   4.625   3.990  0.00  0.00     0.002 A 
ATOM      6  C6  I4B d   1       4.976   4.877   2.886  0.00  0.00     0.003 A 
ENDROOT
BRANCH   1   7
ATOM      7  C1' I4B d   1       3.522   4.048   1.017  0.00  0.00     0.060 C 
BRANCH   7   8
ATOM      8  C2' I4B d   1       4.382   4.763  -0.005  0.00  0.00    -0.013 C 
ATOM      9  C4' I4B d   1       5.037   5.981   0.590  0.00  0.00     0.013 C 
ATOM     10  C3' I4B d   1       5.406   3.790  -0.509  0.00  0.00     0.013 C 
ENDBRANCH   7   8
ENDBRANCH   1   7
TORSDOF 2
ENDMDL
