MODEL 1
REMARK minimizedAffinity 14.7201767
REMARK minimizedRMSD -1
REMARK  2 active torsions:
REMARK  status: ('A' for Active; 'I' for Inactive)
REMARK    1  A    between atoms: C2'_3  and  C1'_4 
REMARK    2  A    between atoms: C1'_4  and  C1_5 
ROOT
ATOM      1  C1  I4B d   1      -0.254   1.243   2.598  0.00  0.00    -0.075 A 
ATOM      2  C2  I4B d   1      -0.854   0.010   2.524  0.00  0.00     0.003 A 
ATOM      3  C3  I4B d   1      -0.122  -1.159   2.846  0.00  0.00     0.002 A 
ATOM      4  C4  I4B d   1       1.211  -1.054   3.186  0.00  0.00    -0.004 A 
ATOM      5  C5  I4B d   1       1.811   0.198   3.283  0.00  0.00     0.002 A 
ATOM      6  C6  I4B d   1       1.071   1.355   2.999  0.00  0.00     0.003 A 
ENDROOT
BRANCH   1   7
ATOM      7  C1' I4B d   1      -1.047   2.453   2.219  0.00  0.00     0.060 C 
BRANCH   7   8
ATOM      8  C2' I4B d   1      -0.123   3.407   1.489  0.00  0.00    -0.013 C 
ATOM      9  C4' I4B d   1       0.510   2.744   0.294  0.00  0.00     0.013 C 
ATOM     10  C3' I4B d   1      -0.924   4.607   1.082  0.00  0.00     0.013 C 
ENDBRANCH   7   8
ENDBRANCH   1   7
TORSDOF 2
ENDMDL
