MODEL 1
REMARK minimizedAffinity 11.9038572
REMARK minimizedRMSD -1
REMARK  2 active torsions:
REMARK  status: ('A' for Active; 'I' for Inactive)
REMARK    1  A    between atoms: C2'_3  and  C1'_4 
REMARK    2  A    between atoms: C1'_4  and  C1_5 
ROOT
ATOM      1  C1  I4B d   1      -1.115   0.345   2.663  0.00  0.00    -0.075 A 
ATOM      2  C2  I4B d   1      -1.634   1.568   2.316  0.00  0.00     0.003 A 
ATOM      3  C3  I4B d   1      -3.018   1.707   2.055  0.00  0.00     0.002 A 
ATOM      4  C4  I4B d   1      -3.834   0.595   2.102  0.00  0.00    -0.004 A 
ATOM      5  C5  I4B d   1      -3.311  -0.640   2.476  0.00  0.00     0.002 A 
ATOM      6  C6  I4B d   1      -1.945  -0.763   2.770  0.00  0.00     0.003 A 
ENDROOT
BRANCH   1   7
ATOM      7  C1' I4B d   1       0.357   0.227   2.899  0.00  0.00     0.060 C 
BRANCH   7   8
ATOM      8  C2' I4B d   1       0.565  -0.647   4.119  0.00  0.00    -0.013 C 
ATOM      9  C4' I4B d   1       1.797  -1.501   3.974  0.00  0.00     0.013 C 
ATOM     10  C3' I4B d   1       0.665   0.248   5.318  0.00  0.00     0.013 C 
ENDBRANCH   7   8
ENDBRANCH   1   7
TORSDOF 2
ENDMDL
