MODEL 1
REMARK minimizedAffinity 6.90506887
REMARK minimizedRMSD -1
REMARK  2 active torsions:
REMARK  status: ('A' for Active; 'I' for Inactive)
REMARK    1  A    between atoms: C2'_3  and  C1'_4 
REMARK    2  A    between atoms: C1'_4  and  C1_5 
ROOT
ATOM      1  C1  I4B d   1       1.439  -0.354   4.973  0.00  0.00    -0.075 A 
ATOM      2  C2  I4B d   1       1.422  -1.676   5.340  0.00  0.00     0.003 A 
ATOM      3  C3  I4B d   1       2.581  -2.280   5.886  0.00  0.00     0.002 A 
ATOM      4  C4  I4B d   1       3.741  -1.542   5.999  0.00  0.00    -0.004 A 
ATOM      5  C5  I4B d   1       3.750  -0.195   5.647  0.00  0.00     0.002 A 
ATOM      6  C6  I4B d   1       2.589   0.406   5.142  0.00  0.00     0.003 A 
ENDROOT
BRANCH   1   7
ATOM      7  C1' I4B d   1       0.207   0.242   4.369  0.00  0.00     0.060 C 
BRANCH   7   8
ATOM      8  C2' I4B d   1       0.338   0.158   2.862  0.00  0.00    -0.013 C 
ATOM      9  C4' I4B d   1       1.129  -1.055   2.450  0.00  0.00     0.013 C 
ATOM     10  C3' I4B d   1      -1.043   0.128   2.278  0.00  0.00     0.013 C 
ENDBRANCH   7   8
ENDBRANCH   1   7
TORSDOF 2
ENDMDL
