MODEL 1
REMARK minimizedAffinity 22.3898067
REMARK minimizedRMSD -1
REMARK  2 active torsions:
REMARK  status: ('A' for Active; 'I' for Inactive)
REMARK    1  A    between atoms: C2'_3  and  C1'_4 
REMARK    2  A    between atoms: C1'_4  and  C1_5 
ROOT
ATOM      1  C1  I4B d   1      -1.101  -2.081  -3.042  0.00  0.00    -0.075 A 
ATOM      2  C2  I4B d   1      -1.794  -2.974  -3.820  0.00  0.00     0.003 A 
ATOM      3  C3  I4B d   1      -2.145  -4.245  -3.306  0.00  0.00     0.002 A 
ATOM      4  C4  I4B d   1      -1.741  -4.599  -2.034  0.00  0.00    -0.004 A 
ATOM      5  C5  I4B d   1      -1.059  -3.684  -1.238  0.00  0.00     0.002 A 
ATOM      6  C6  I4B d   1      -0.747  -2.412  -1.740  0.00  0.00     0.003 A 
ENDROOT
BRANCH   1   7
ATOM      7  C1' I4B d   1      -0.718  -0.759  -3.629  0.00  0.00     0.060 C 
BRANCH   7   8
ATOM      8  C2' I4B d   1       0.434  -0.989  -4.585  0.00  0.00    -0.013 C 
ATOM      9  C4' I4B d   1       0.047  -0.642  -5.999  0.00  0.00     0.013 C 
ATOM     10  C3' I4B d   1       1.594  -0.158  -4.122  0.00  0.00     0.013 C 
ENDBRANCH   7   8
ENDBRANCH   1   7
TORSDOF 2
ENDMDL
