MODEL 1
REMARK minimizedAffinity 19.0504875
REMARK minimizedRMSD -1
REMARK  2 active torsions:
REMARK  status: ('A' for Active; 'I' for Inactive)
REMARK    1  A    between atoms: C2'_3  and  C1'_4 
REMARK    2  A    between atoms: C1'_4  and  C1_5 
ROOT
ATOM      1  C1  I4B d   1      -0.163  -2.333   2.374  0.00  0.00    -0.075 A 
ATOM      2  C2  I4B d   1      -0.630  -1.345   1.544  0.00  0.00     0.003 A 
ATOM      3  C3  I4B d   1      -2.013  -1.252   1.256  0.00  0.00     0.002 A 
ATOM      4  C4  I4B d   1      -2.881  -2.191   1.775  0.00  0.00    -0.004 A 
ATOM      5  C5  I4B d   1      -2.408  -3.178   2.634  0.00  0.00     0.002 A 
ATOM      6  C6  I4B d   1      -1.043  -3.243   2.946  0.00  0.00     0.003 A 
ENDROOT
BRANCH   1   7
ATOM      7  C1' I4B d   1       1.308  -2.423   2.631  0.00  0.00     0.060 C 
BRANCH   7   8
ATOM      8  C2' I4B d   1       1.558  -2.004   4.065  0.00  0.00    -0.013 C 
ATOM      9  C4' I4B d   1       2.559  -2.911   4.731  0.00  0.00     0.013 C 
ATOM     10  C3' I4B d   1       2.037  -0.583   4.056  0.00  0.00     0.013 C 
ENDBRANCH   7   8
ENDBRANCH   1   7
TORSDOF 2
ENDMDL
