MODEL 1
REMARK minimizedAffinity 24.5235157
REMARK minimizedRMSD -1
REMARK  2 active torsions:
REMARK  status: ('A' for Active; 'I' for Inactive)
REMARK    1  A    between atoms: C2'_3  and  C1'_4 
REMARK    2  A    between atoms: C1'_4  and  C1_5 
ROOT
ATOM      1  C1  I4B d   1      -0.694   0.277   2.580  0.00  0.00    -0.075 A 
ATOM      2  C2  I4B d   1      -0.627  -1.094   2.555  0.00  0.00     0.003 A 
ATOM      3  C3  I4B d   1      -1.799  -1.861   2.352  0.00  0.00     0.002 A 
ATOM      4  C4  I4B d   1      -3.017  -1.223   2.230  0.00  0.00    -0.004 A 
ATOM      5  C5  I4B d   1      -3.080   0.167   2.232  0.00  0.00     0.002 A 
ATOM      6  C6  I4B d   1      -1.910   0.923   2.396  0.00  0.00     0.003 A 
ENDROOT
BRANCH   1   7
ATOM      7  C1' I4B d   1       0.559   1.056   2.829  0.00  0.00     0.060 C 
BRANCH   7   8
ATOM      8  C2' I4B d   1       1.417   0.970   1.584  0.00  0.00    -0.013 C 
ATOM      9  C4' I4B d   1       2.791   1.536   1.829  0.00  0.00     0.013 C 
ATOM     10  C3' I4B d   1       1.490  -0.469   1.169  0.00  0.00     0.013 C 
ENDBRANCH   7   8
ENDBRANCH   1   7
TORSDOF 2
ENDMDL
