MODEL 1
REMARK minimizedAffinity 2.31694317
REMARK minimizedRMSD -1
REMARK  0 active torsions:
REMARK  status: ('A' for Active; 'I' for Inactive)
ROOT
ATOM      1  C   UNL d   1       6.000  -2.245   4.840  0.00  0.00     0.020 A 
ATOM      2  C1  UNL d   1       5.181  -2.409   5.957  0.00  0.00     0.020 A 
ATOM      3  C2  UNL d   1       3.928  -1.795   5.999  0.00  0.00     0.034 A 
ATOM      4  C3  UNL d   1       3.489  -1.014   4.924  0.00  0.00     0.017 A 
ATOM      5  C4  UNL d   1       4.312  -0.849   3.804  0.00  0.00     0.017 A 
ATOM      6  C5  UNL d   1       5.566  -1.467   3.766  0.00  0.00     0.034 A 
ATOM      7 Cl   UNL d   1       3.841   0.100   2.439  0.00  0.00    -0.070 Cl
ATOM      8 Cl1  UNL d   1       1.928  -0.284   5.045  0.00  0.00    -0.070 Cl
ENDROOT
TORSDOF 0
ENDMDL
