MODEL 1
REMARK minimizedAffinity 5.5881772
REMARK minimizedRMSD -1
REMARK  0 active torsions:
REMARK  status: ('A' for Active; 'I' for Inactive)
ROOT
ATOM      1  C   UNL d   1       3.897  -2.286   4.022  0.00  0.00     0.020 A 
ATOM      2  C1  UNL d   1       2.688  -2.978   3.989  0.00  0.00     0.020 A 
ATOM      3  C2  UNL d   1       1.640  -2.516   3.189  0.00  0.00     0.034 A 
ATOM      4  C3  UNL d   1       1.800  -1.357   2.421  0.00  0.00     0.017 A 
ATOM      5  C4  UNL d   1       3.014  -0.663   2.455  0.00  0.00     0.017 A 
ATOM      6  C5  UNL d   1       4.060  -1.130   3.256  0.00  0.00     0.034 A 
ATOM      7 Cl   UNL d   1       3.287   0.774   1.534  0.00  0.00    -0.070 Cl
ATOM      8 Cl1  UNL d   1       0.462  -0.843   1.455  0.00  0.00    -0.070 Cl
ENDROOT
TORSDOF 0
ENDMDL
