MODEL 1
REMARK minimizedAffinity 8.23723602
REMARK minimizedRMSD -1
REMARK  0 active torsions:
REMARK  status: ('A' for Active; 'I' for Inactive)
ROOT
ATOM      1  C   UNL d   1       1.225   2.525   2.297  0.00  0.00     0.020 A 
ATOM      2  C1  UNL d   1       2.609   2.358   2.259  0.00  0.00     0.020 A 
ATOM      3  C2  UNL d   1       3.379   3.113   1.372  0.00  0.00     0.034 A 
ATOM      4  C3  UNL d   1       2.767   4.040   0.521  0.00  0.00     0.017 A 
ATOM      5  C4  UNL d   1       1.378   4.208   0.560  0.00  0.00     0.017 A 
ATOM      6  C5  UNL d   1       0.611   3.448   1.450  0.00  0.00     0.034 A 
ATOM      7 Cl   UNL d   1       0.551   5.331  -0.459  0.00  0.00    -0.070 Cl
ATOM      8 Cl1  UNL d   1       3.781   4.940  -0.549  0.00  0.00    -0.070 Cl
ENDROOT
TORSDOF 0
ENDMDL
