MODEL 1
REMARK minimizedAffinity 7.12608624
REMARK minimizedRMSD -1
REMARK  0 active torsions:
REMARK  status: ('A' for Active; 'I' for Inactive)
ROOT
ATOM      1  C   UNL d   1       4.354  -5.951  -4.513  0.00  0.00     0.020 A 
ATOM      2  C1  UNL d   1       2.972  -5.952  -4.330  0.00  0.00     0.020 A 
ATOM      3  C2  UNL d   1       2.438  -5.967  -3.040  0.00  0.00     0.034 A 
ATOM      4  C3  UNL d   1       3.287  -5.982  -1.927  0.00  0.00     0.017 A 
ATOM      5  C4  UNL d   1       4.674  -5.981  -2.112  0.00  0.00     0.017 A 
ATOM      6  C5  UNL d   1       5.203  -5.966  -3.406  0.00  0.00     0.034 A 
ATOM      7 Cl   UNL d   1       5.785  -5.999  -0.788  0.00  0.00    -0.070 Cl
ATOM      8 Cl1  UNL d   1       2.558  -5.999  -0.361  0.00  0.00    -0.070 Cl
ENDROOT
TORSDOF 0
ENDMDL
