MODEL 1
REMARK minimizedAffinity 3.80302787
REMARK minimizedRMSD -1
REMARK  0 active torsions:
REMARK  status: ('A' for Active; 'I' for Inactive)
ROOT
ATOM      1  C   UNL d   1       2.264   0.336   2.710  0.00  0.00     0.020 A 
ATOM      2  C1  UNL d   1       2.946  -0.231   1.634  0.00  0.00     0.020 A 
ATOM      3  C2  UNL d   1       3.154  -1.611   1.588  0.00  0.00     0.034 A 
ATOM      4  C3  UNL d   1       2.680  -2.429   2.620  0.00  0.00     0.017 A 
ATOM      5  C4  UNL d   1       1.995  -1.859   3.699  0.00  0.00     0.017 A 
ATOM      6  C5  UNL d   1       1.789  -0.477   3.740  0.00  0.00     0.034 A 
ATOM      7 Cl   UNL d   1       1.379  -2.804   5.009  0.00  0.00    -0.070 Cl
ATOM      8 Cl1  UNL d   1       2.972  -4.127   2.497  0.00  0.00    -0.070 Cl
ENDROOT
TORSDOF 0
ENDMDL
