MODEL 1
REMARK minimizedAffinity 4.44898462
REMARK minimizedRMSD -1
REMARK  0 active torsions:
REMARK  status: ('A' for Active; 'I' for Inactive)
ROOT
ATOM      1  C   UNL d   1       2.196  -3.684   3.741  0.00  0.00     0.020 A 
ATOM      2  C1  UNL d   1       2.461  -3.549   2.379  0.00  0.00     0.020 A 
ATOM      3  C2  UNL d   1       2.616  -2.279   1.820  0.00  0.00     0.034 A 
ATOM      4  C3  UNL d   1       2.506  -1.138   2.624  0.00  0.00     0.017 A 
ATOM      5  C4  UNL d   1       2.240  -1.274   3.991  0.00  0.00     0.017 A 
ATOM      6  C5  UNL d   1       2.086  -2.549   4.546  0.00  0.00     0.034 A 
ATOM      7 Cl   UNL d   1       2.091   0.087   5.046  0.00  0.00    -0.070 Cl
ATOM      8 Cl1  UNL d   1       2.710   0.402   1.866  0.00  0.00    -0.070 Cl
ENDROOT
TORSDOF 0
ENDMDL
