MODEL 1
REMARK minimizedAffinity 11.1666269
REMARK minimizedRMSD -1
REMARK  0 active torsions:
REMARK  status: ('A' for Active; 'I' for Inactive)
ROOT
ATOM      1  C   UNL d   1      -6.000   3.588   0.879  0.00  0.00     0.020 A 
ATOM      2  C1  UNL d   1      -5.794   2.978   2.116  0.00  0.00     0.020 A 
ATOM      3  C2  UNL d   1      -4.518   2.533   2.471  0.00  0.00     0.034 A 
ATOM      4  C3  UNL d   1      -3.444   2.699   1.589  0.00  0.00     0.017 A 
ATOM      5  C4  UNL d   1      -3.652   3.311   0.348  0.00  0.00     0.017 A 
ATOM      6  C5  UNL d   1      -4.932   3.755  -0.003  0.00  0.00     0.034 A 
ATOM      7 Cl   UNL d   1      -2.377   3.550  -0.794  0.00  0.00    -0.070 Cl
ATOM      8 Cl1  UNL d   1      -1.894   2.126   2.093  0.00  0.00    -0.070 Cl
ENDROOT
TORSDOF 0
ENDMDL
