MODEL 1
REMARK minimizedAffinity 4.00169134
REMARK minimizedRMSD -1
REMARK  0 active torsions:
REMARK  status: ('A' for Active; 'I' for Inactive)
ROOT
ATOM      1  C   UNL d   1       1.552   3.837  -0.651  0.00  0.00     0.020 A 
ATOM      2  C1  UNL d   1       0.792   3.858   0.518  0.00  0.00     0.020 A 
ATOM      3  C2  UNL d   1       0.955   2.854   1.474  0.00  0.00     0.034 A 
ATOM      4  C3  UNL d   1       1.880   1.825   1.264  0.00  0.00     0.017 A 
ATOM      5  C4  UNL d   1       2.643   1.805   0.091  0.00  0.00     0.017 A 
ATOM      6  C5  UNL d   1       2.476   2.813  -0.864  0.00  0.00     0.034 A 
ATOM      7 Cl   UNL d   1       3.805   0.568  -0.239  0.00  0.00    -0.070 Cl
ATOM      8 Cl1  UNL d   1       2.030   0.616   2.490  0.00  0.00    -0.070 Cl
ENDROOT
TORSDOF 0
ENDMDL
