MODEL 1
REMARK minimizedAffinity 7.59894037
REMARK minimizedRMSD -1
REMARK  0 active torsions:
REMARK  status: ('A' for Active; 'I' for Inactive)
ROOT
ATOM      1  C   UNL d   1       2.056  -0.932   2.140  0.00  0.00     0.020 A 
ATOM      2  C1  UNL d   1       1.858  -0.311   3.372  0.00  0.00     0.020 A 
ATOM      3  C2  UNL d   1       2.218  -0.968   4.551  0.00  0.00     0.034 A 
ATOM      4  C3  UNL d   1       2.777  -2.250   4.500  0.00  0.00     0.017 A 
ATOM      5  C4  UNL d   1       2.975  -2.873   3.262  0.00  0.00     0.017 A 
ATOM      6  C5  UNL d   1       2.613  -2.211   2.085  0.00  0.00     0.034 A 
ATOM      7 Cl   UNL d   1       3.659  -4.454   3.119  0.00  0.00    -0.070 Cl
ATOM      8 Cl1  UNL d   1       3.198  -3.003   5.997  0.00  0.00    -0.070 Cl
ENDROOT
TORSDOF 0
ENDMDL
