MODEL 1
REMARK minimizedAffinity 8.68412113
REMARK minimizedRMSD -1
REMARK  0 active torsions:
REMARK  status: ('A' for Active; 'I' for Inactive)
ROOT
ATOM      1  C   UNL d   1      -5.414   3.568   2.603  0.00  0.00     0.020 A 
ATOM      2  C1  UNL d   1      -4.033   3.748   2.655  0.00  0.00     0.020 A 
ATOM      3  C2  UNL d   1      -3.236   3.356   1.578  0.00  0.00     0.034 A 
ATOM      4  C3  UNL d   1      -3.820   2.781   0.443  0.00  0.00     0.017 A 
ATOM      5  C4  UNL d   1      -5.207   2.600   0.392  0.00  0.00     0.017 A 
ATOM      6  C5  UNL d   1      -6.000   2.995   1.473  0.00  0.00     0.034 A 
ATOM      7 Cl   UNL d   1      -6.000   1.898  -0.974  0.00  0.00    -0.070 Cl
ATOM      8 Cl1  UNL d   1      -2.774   2.319  -0.852  0.00  0.00    -0.070 Cl
ENDROOT
TORSDOF 0
ENDMDL
