MODEL 1
REMARK minimizedAffinity 9.52453136
REMARK minimizedRMSD -1
REMARK  0 active torsions:
REMARK  status: ('A' for Active; 'I' for Inactive)
ROOT
ATOM      1  C   UNL d   1      -5.988   2.606   3.002  0.00  0.00     0.020 A 
ATOM      2  C1  UNL d   1      -4.810   2.848   3.708  0.00  0.00     0.020 A 
ATOM      3  C2  UNL d   1      -3.637   3.166   3.022  0.00  0.00     0.034 A 
ATOM      4  C3  UNL d   1      -3.638   3.242   1.624  0.00  0.00     0.017 A 
ATOM      5  C4  UNL d   1      -4.820   2.998   0.916  0.00  0.00     0.017 A 
ATOM      6  C5  UNL d   1      -5.992   2.681   1.609  0.00  0.00     0.034 A 
ATOM      7 Cl   UNL d   1      -4.899   3.073  -0.809  0.00  0.00    -0.070 Cl
ATOM      8 Cl1  UNL d   1      -2.150   3.640   0.840  0.00  0.00    -0.070 Cl
ENDROOT
TORSDOF 0
ENDMDL
