MODEL 1
REMARK minimizedAffinity 4.26181746
REMARK minimizedRMSD -1
REMARK  0 active torsions:
REMARK  status: ('A' for Active; 'I' for Inactive)
ROOT
ATOM      1  C1  BNZ d   1       1.166   4.686   0.496  0.00  0.00     0.000 A 
ATOM      2  C2  BNZ d   1       2.233   4.678   1.355  0.00  0.00     0.000 A 
ATOM      3  C3  BNZ d   1       2.218   3.906   2.483  0.00  0.00     0.000 A 
ATOM      4  C4  BNZ d   1       1.122   3.174   2.771  0.00  0.00     0.000 A 
ATOM      5  C5  BNZ d   1       0.035   3.179   1.920  0.00  0.00     0.000 A 
ATOM      6  C6  BNZ d   1       0.069   3.927   0.765  0.00  0.00     0.000 A 
ENDROOT
TORSDOF 0
ENDMDL
