MODEL 1
REMARK minimizedAffinity 4.34595299
REMARK minimizedRMSD -1
REMARK  0 active torsions:
REMARK  status: ('A' for Active; 'I' for Inactive)
ROOT
ATOM      1  C1  BNZ d   1       2.148   4.870   1.173  0.00  0.00     0.000 A 
ATOM      2  C2  BNZ d   1       1.147   4.741   0.247  0.00  0.00     0.000 A 
ATOM      3  C3  BNZ d   1       0.094   3.897   0.468  0.00  0.00     0.000 A 
ATOM      4  C4  BNZ d   1       0.064   3.156   1.594  0.00  0.00     0.000 A 
ATOM      5  C5  BNZ d   1       1.070   3.268   2.533  0.00  0.00     0.000 A 
ATOM      6  C6  BNZ d   1       2.108   4.146   2.325  0.00  0.00     0.000 A 
ENDROOT
TORSDOF 0
ENDMDL
