MODEL 1
REMARK minimizedAffinity 2.0227592
REMARK minimizedRMSD -1
REMARK  0 active torsions:
REMARK  status: ('A' for Active; 'I' for Inactive)
ROOT
ATOM      1  C1  BNZ d   1      -0.669   5.916   1.183  0.00  0.00     0.000 A 
ATOM      2  C2  BNZ d   1      -0.880   4.709   1.794  0.00  0.00     0.000 A 
ATOM      3  C3  BNZ d   1      -0.365   3.558   1.266  0.00  0.00     0.000 A 
ATOM      4  C4  BNZ d   1       0.326   3.610   0.109  0.00  0.00     0.000 A 
ATOM      5  C5  BNZ d   1       0.540   4.818  -0.523  0.00  0.00     0.000 A 
ATOM      6  C6  BNZ d   1       0.053   5.980   0.031  0.00  0.00     0.000 A 
ENDROOT
TORSDOF 0
ENDMDL
