MODEL 1
REMARK minimizedAffinity 2.03332567
REMARK minimizedRMSD -1
REMARK  0 active torsions:
REMARK  status: ('A' for Active; 'I' for Inactive)
ROOT
ATOM      1  C1  BNZ d   1      -0.027   5.999   0.010  0.00  0.00     0.000 A 
ATOM      2  C2  BNZ d   1      -0.331   5.305   1.151  0.00  0.00     0.000 A 
ATOM      3  C3  BNZ d   1      -0.146   3.952   1.218  0.00  0.00     0.000 A 
ATOM      4  C4  BNZ d   1       0.303   3.290   0.133  0.00  0.00     0.000 A 
ATOM      5  C5  BNZ d   1       0.604   3.974  -1.028  0.00  0.00     0.000 A 
ATOM      6  C6  BNZ d   1       0.454   5.340  -1.079  0.00  0.00     0.000 A 
ENDROOT
TORSDOF 0
ENDMDL
