MODEL 1
REMARK minimizedAffinity 7.29508829
REMARK minimizedRMSD -1
REMARK  0 active torsions:
REMARK  status: ('A' for Active; 'I' for Inactive)
ROOT
ATOM      1  C1  BNZ d   1       0.389   5.854   0.614  0.00  0.00     0.000 A 
ATOM      2  C2  BNZ d   1       0.357   4.602   1.169  0.00  0.00     0.000 A 
ATOM      3  C3  BNZ d   1       0.338   3.487   0.378  0.00  0.00     0.000 A 
ATOM      4  C4  BNZ d   1       0.312   3.625  -0.963  0.00  0.00     0.000 A 
ATOM      5  C5  BNZ d   1       0.334   4.880  -1.537  0.00  0.00     0.000 A 
ATOM      6  C6  BNZ d   1       0.392   6.000  -0.739  0.00  0.00     0.000 A 
ENDROOT
TORSDOF 0
ENDMDL
