MODEL 1
REMARK minimizedAffinity -0.812493265
REMARK minimizedRMSD -1
REMARK  0 active torsions:
REMARK  status: ('A' for Active; 'I' for Inactive)
ROOT
ATOM      1  C1  BNZ d   1      -0.411   6.000   0.880  0.00  0.00     0.000 A 
ATOM      2  C2  BNZ d   1      -0.325   4.841   1.605  0.00  0.00     0.000 A 
ATOM      3  C3  BNZ d   1       0.076   3.675   1.015  0.00  0.00     0.000 A 
ATOM      4  C4  BNZ d   1       0.352   3.660  -0.305  0.00  0.00     0.000 A 
ATOM      5  C5  BNZ d   1       0.261   4.818  -1.051  0.00  0.00     0.000 A 
ATOM      6  C6  BNZ d   1      -0.106   5.998  -0.446  0.00  0.00     0.000 A 
ENDROOT
TORSDOF 0
ENDMDL
