MODEL 1
REMARK minimizedAffinity -1.86163652
REMARK minimizedRMSD -1
REMARK  0 active torsions:
REMARK  status: ('A' for Active; 'I' for Inactive)
ROOT
ATOM      1  C   UNL d   1       0.087   0.240  -6.000  0.00  0.00     0.020 A 
ATOM      2  C1  UNL d   1      -0.480  -0.935  -5.508  0.00  0.00     0.020 A 
ATOM      3  C2  UNL d   1      -0.186  -1.362  -4.211  0.00  0.00     0.034 A 
ATOM      4  C3  UNL d   1       0.677  -0.614  -3.402  0.00  0.00     0.017 A 
ATOM      5  C4  UNL d   1       1.246   0.565  -3.897  0.00  0.00     0.017 A 
ATOM      6  C5  UNL d   1       0.948   0.988  -5.196  0.00  0.00     0.034 A 
ATOM      7 Cl   UNL d   1       2.321   1.541  -2.959  0.00  0.00    -0.070 Cl
ATOM      8 Cl1  UNL d   1       0.996  -1.202  -1.809  0.00  0.00    -0.070 Cl
ENDROOT
TORSDOF 0
ENDMDL
