MODEL 1
REMARK minimizedAffinity -2.95312428
REMARK minimizedRMSD -1
REMARK  0 active torsions:
REMARK  status: ('A' for Active; 'I' for Inactive)
ROOT
ATOM      1  C   UNL d   1      -0.257  -0.543  -1.330  0.00  0.00     0.020 A 
ATOM      2  C1  UNL d   1      -1.432   0.080  -0.909  0.00  0.00     0.020 A 
ATOM      3  C2  UNL d   1      -1.543   0.547   0.402  0.00  0.00     0.034 A 
ATOM      4  C3  UNL d   1      -0.479   0.393   1.297  0.00  0.00     0.017 A 
ATOM      5  C4  UNL d   1       0.700  -0.231   0.874  0.00  0.00     0.017 A 
ATOM      6  C5  UNL d   1       0.806  -0.698  -0.440  0.00  0.00     0.034 A 
ATOM      7 Cl   UNL d   1       2.057  -0.458   1.921  0.00  0.00    -0.070 Cl
ATOM      8 Cl1  UNL d   1      -0.685   0.996   2.903  0.00  0.00    -0.070 Cl
ENDROOT
TORSDOF 0
ENDMDL
