MODEL 1
REMARK minimizedAffinity -3.2736876
REMARK minimizedRMSD -1
REMARK  0 active torsions:
REMARK  status: ('A' for Active; 'I' for Inactive)
ROOT
ATOM      1  C   UNL d   1       1.808   0.544  -4.217  0.00  0.00     0.020 A 
ATOM      2  C1  UNL d   1       1.440   0.398  -5.554  0.00  0.00     0.020 A 
ATOM      3  C2  UNL d   1       0.239  -0.233  -5.883  0.00  0.00     0.034 A 
ATOM      4  C3  UNL d   1      -0.600  -0.720  -4.874  0.00  0.00     0.017 A 
ATOM      5  C4  UNL d   1      -0.230  -0.574  -3.532  0.00  0.00     0.017 A 
ATOM      6  C5  UNL d   1       0.974   0.059  -3.208  0.00  0.00     0.034 A 
ATOM      7 Cl   UNL d   1      -1.212  -1.149  -2.232  0.00  0.00    -0.070 Cl
ATOM      8 Cl1  UNL d   1      -2.071  -1.490  -5.353  0.00  0.00    -0.070 Cl
ENDROOT
TORSDOF 0
ENDMDL
