MODEL 1
REMARK minimizedAffinity -1.45041192
REMARK minimizedRMSD -1
REMARK  0 active torsions:
REMARK  status: ('A' for Active; 'I' for Inactive)
ROOT
ATOM      1  C   UNL d   1      -0.036   0.415  -4.527  0.00  0.00     0.020 A 
ATOM      2  C1  UNL d   1       1.325   0.142  -4.402  0.00  0.00     0.020 A 
ATOM      3  C2  UNL d   1       1.844  -0.276  -3.175  0.00  0.00     0.034 A 
ATOM      4  C3  UNL d   1       1.000  -0.422  -2.067  0.00  0.00     0.017 A 
ATOM      5  C4  UNL d   1      -0.366  -0.148  -2.193  0.00  0.00     0.017 A 
ATOM      6  C5  UNL d   1      -0.880   0.271  -3.425  0.00  0.00     0.034 A 
ATOM      7 Cl   UNL d   1      -1.469  -0.305  -0.872  0.00  0.00    -0.070 Cl
ATOM      8 Cl1  UNL d   1       1.710  -0.944  -0.580  0.00  0.00    -0.070 Cl
ENDROOT
TORSDOF 0
ENDMDL
