MODEL 1
REMARK minimizedAffinity -4.30204868
REMARK minimizedRMSD -1
REMARK  0 active torsions:
REMARK  status: ('A' for Active; 'I' for Inactive)
ROOT
ATOM      1  C   UNL d   1      -1.757   0.962   1.445  0.00  0.00     0.020 A 
ATOM      2  C1  UNL d   1      -2.161   0.417   0.226  0.00  0.00     0.020 A 
ATOM      3  C2  UNL d   1      -1.253  -0.308  -0.549  0.00  0.00     0.034 A 
ATOM      4  C3  UNL d   1       0.062  -0.489  -0.108  0.00  0.00     0.017 A 
ATOM      5  C4  UNL d   1       0.467   0.058   1.115  0.00  0.00     0.017 A 
ATOM      6  C5  UNL d   1      -0.446   0.782   1.888  0.00  0.00     0.034 A 
ATOM      7 Cl   UNL d   1       2.073  -0.125   1.726  0.00  0.00    -0.070 Cl
ATOM      8 Cl1  UNL d   1       1.131  -1.397  -1.119  0.00  0.00    -0.070 Cl
ENDROOT
TORSDOF 0
ENDMDL
