MODEL 1
REMARK minimizedAffinity -4.47129822
REMARK minimizedRMSD -1
REMARK  0 active torsions:
REMARK  status: ('A' for Active; 'I' for Inactive)
ROOT
ATOM      1  C   UNL d   1       1.859  -1.245  -0.639  0.00  0.00     0.020 A 
ATOM      2  C1  UNL d   1       2.298  -0.789   0.604  0.00  0.00     0.020 A 
ATOM      3  C2  UNL d   1       1.387  -0.229   1.503  0.00  0.00     0.034 A 
ATOM      4  C3  UNL d   1       0.034  -0.124   1.161  0.00  0.00     0.017 A 
ATOM      5  C4  UNL d   1      -0.405  -0.582  -0.086  0.00  0.00     0.017 A 
ATOM      6  C5  UNL d   1       0.511  -1.142  -0.983  0.00  0.00     0.034 A 
ATOM      7 Cl   UNL d   1      -2.059  -0.486  -0.579  0.00  0.00    -0.070 Cl
ATOM      8 Cl1  UNL d   1      -1.036   0.579   2.322  0.00  0.00    -0.070 Cl
ENDROOT
TORSDOF 0
ENDMDL
