MODEL 1
REMARK minimizedAffinity -3.64807653
REMARK minimizedRMSD -1
REMARK  0 active torsions:
REMARK  status: ('A' for Active; 'I' for Inactive)
ROOT
ATOM      1  C   UNL d   1      -0.005   0.596   3.371  0.00  0.00     0.020 A 
ATOM      2  C1  UNL d   1       1.181  -0.036   3.003  0.00  0.00     0.020 A 
ATOM      3  C2  UNL d   1       1.372  -0.449   1.682  0.00  0.00     0.034 A 
ATOM      4  C3  UNL d   1       0.375  -0.229   0.725  0.00  0.00     0.017 A 
ATOM      5  C4  UNL d   1      -0.816   0.406   1.096  0.00  0.00     0.017 A 
ATOM      6  C5  UNL d   1      -1.002   0.817   2.419  0.00  0.00     0.034 A 
ATOM      7 Cl   UNL d   1      -2.092   0.712  -0.029  0.00  0.00    -0.070 Cl
ATOM      8 Cl1  UNL d   1       0.678  -0.765  -0.889  0.00  0.00    -0.070 Cl
ENDROOT
TORSDOF 0
ENDMDL
