MODEL 1
REMARK minimizedAffinity -2.70883417
REMARK minimizedRMSD -1
REMARK  0 active torsions:
REMARK  status: ('A' for Active; 'I' for Inactive)
ROOT
ATOM      1  C   UNL d   1      -1.493   0.650   0.050  0.00  0.00     0.020 A 
ATOM      2  C1  UNL d   1      -2.127   0.986   1.245  0.00  0.00     0.020 A 
ATOM      3  C2  UNL d   1      -1.529   0.669   2.467  0.00  0.00     0.034 A 
ATOM      4  C3  UNL d   1      -0.293   0.012   2.495  0.00  0.00     0.017 A 
ATOM      5  C4  UNL d   1       0.343  -0.325   1.295  0.00  0.00     0.017 A 
ATOM      6  C5  UNL d   1      -0.260  -0.004   0.075  0.00  0.00     0.034 A 
ATOM      7 Cl   UNL d   1       1.869  -1.134   1.250  0.00  0.00    -0.070 Cl
ATOM      8 Cl1  UNL d   1       0.389  -0.350   4.041  0.00  0.00    -0.070 Cl
ENDROOT
TORSDOF 0
ENDMDL
