MODEL 1
REMARK minimizedAffinity -1.52918661
REMARK minimizedRMSD -1
REMARK  0 active torsions:
REMARK  status: ('A' for Active; 'I' for Inactive)
ROOT
ATOM      1  C   UNL d   1      -1.338   0.206   1.860  0.00  0.00     0.020 A 
ATOM      2  C1  UNL d   1      -2.022   0.669   0.737  0.00  0.00     0.020 A 
ATOM      3  C2  UNL d   1      -1.481   0.480  -0.537  0.00  0.00     0.034 A 
ATOM      4  C3  UNL d   1      -0.254  -0.174  -0.691  0.00  0.00     0.017 A 
ATOM      5  C4  UNL d   1       0.432  -0.639   0.437  0.00  0.00     0.017 A 
ATOM      6  C5  UNL d   1      -0.114  -0.447   1.711  0.00  0.00     0.034 A 
ATOM      7 Cl   UNL d   1       1.951  -1.455   0.327  0.00  0.00    -0.070 Cl
ATOM      8 Cl1  UNL d   1       0.355  -0.374  -2.295  0.00  0.00    -0.070 Cl
ENDROOT
TORSDOF 0
ENDMDL
