MODEL 1
REMARK minimizedAffinity -2.39675403
REMARK minimizedRMSD -1
REMARK  2 active torsions:
REMARK  status: ('A' for Active; 'I' for Inactive)
REMARK    1  A    between atoms: C1_2  and  C2_3 
REMARK    2  A    between atoms: C2_3  and  C3_4 
ROOT
ATOM      1  C3  UNL d   1      -0.238   0.250   0.210  0.00  0.00    -0.075 A 
ATOM      2  C4  UNL d   1      -0.849  -0.720   1.018  0.00  0.00     0.002 A 
ATOM      3  C5  UNL d   1      -1.115  -1.995   0.516  0.00  0.00     0.002 A 
ATOM      4  C6  UNL d   1      -0.783  -2.312  -0.799  0.00  0.00    -0.004 A 
ATOM      5  C7  UNL d   1      -0.191  -1.351  -1.616  0.00  0.00     0.002 A 
ATOM      6  C8  UNL d   1       0.081  -0.076  -1.115  0.00  0.00     0.002 A 
ENDROOT
BRANCH   1   7
ATOM      7  C2  UNL d   1       0.080   1.621   0.757  0.00  0.00     0.056 C 
BRANCH   7   8
ATOM      8  C1  UNL d   1       0.814   2.532  -0.233  0.00  0.00     0.007 C 
ATOM      9  C   UNL d   1       2.123   3.083   0.316  0.00  0.00     0.009 C 
ENDBRANCH   7   8
ENDBRANCH   1   7
TORSDOF 2
ENDMDL
