MODEL 1
REMARK minimizedAffinity -3.26828384
REMARK minimizedRMSD -1
REMARK  2 active torsions:
REMARK  status: ('A' for Active; 'I' for Inactive)
REMARK    1  A    between atoms: C1_2  and  C2_3 
REMARK    2  A    between atoms: C2_3  and  C3_4 
ROOT
ATOM      1  C3  UNL d   1       0.228   1.190   0.383  0.00  0.00    -0.075 A 
ATOM      2  C4  UNL d   1       0.540  -0.039  -0.216  0.00  0.00     0.002 A 
ATOM      3  C5  UNL d   1      -0.061  -1.217   0.230  0.00  0.00     0.002 A 
ATOM      4  C6  UNL d   1      -0.970  -1.182   1.285  0.00  0.00    -0.004 A 
ATOM      5  C7  UNL d   1      -1.275   0.031   1.898  0.00  0.00     0.002 A 
ATOM      6  C8  UNL d   1      -0.679   1.211   1.451  0.00  0.00     0.002 A 
ENDROOT
BRANCH   1   7
ATOM      7  C2  UNL d   1       0.852   2.472  -0.115  0.00  0.00     0.056 C 
BRANCH   7   8
ATOM      8  C1  UNL d   1       2.336   2.621   0.237  0.00  0.00     0.007 C 
ATOM      9  C   UNL d   1       2.581   3.544   1.424  0.00  0.00     0.009 C 
ENDBRANCH   7   8
ENDBRANCH   1   7
TORSDOF 2
ENDMDL
