MODEL 1
REMARK minimizedAffinity -3.01741982
REMARK minimizedRMSD -1
REMARK  2 active torsions:
REMARK  status: ('A' for Active; 'I' for Inactive)
REMARK    1  A    between atoms: C1_2  and  C2_3 
REMARK    2  A    between atoms: C2_3  and  C3_4 
ROOT
ATOM      1  C3  UNL d   1      -0.006   0.482   0.343  0.00  0.00    -0.075 A 
ATOM      2  C4  UNL d   1      -0.302  -0.325  -0.765  0.00  0.00     0.002 A 
ATOM      3  C5  UNL d   1      -0.800  -1.616  -0.588  0.00  0.00     0.002 A 
ATOM      4  C6  UNL d   1      -0.999  -2.119   0.696  0.00  0.00    -0.004 A 
ATOM      5  C7  UNL d   1      -0.693  -1.332   1.804  0.00  0.00     0.002 A 
ATOM      6  C8  UNL d   1      -0.198  -0.038   1.630  0.00  0.00     0.002 A 
ENDROOT
BRANCH   1   7
ATOM      7  C2  UNL d   1       0.506   1.891   0.158  0.00  0.00     0.056 C 
BRANCH   7   8
ATOM      8  C1  UNL d   1       1.995   2.060   0.478  0.00  0.00     0.007 C 
ATOM      9  C   UNL d   1       2.339   3.439   1.025  0.00  0.00     0.009 C 
ENDBRANCH   7   8
ENDBRANCH   1   7
TORSDOF 2
ENDMDL
