MODEL 1
REMARK minimizedAffinity 2.33423662
REMARK minimizedRMSD -1
REMARK  2 active torsions:
REMARK  status: ('A' for Active; 'I' for Inactive)
REMARK    1  A    between atoms: C1_2  and  C2_3 
REMARK    2  A    between atoms: C2_3  and  C3_4 
ROOT
ATOM      1  C3  UNL d   1      -0.263  -0.439  -1.400  0.00  0.00    -0.075 A 
ATOM      2  C4  UNL d   1      -0.800   0.702  -0.786  0.00  0.00     0.002 A 
ATOM      3  C5  UNL d   1      -1.409   0.612   0.467  0.00  0.00     0.002 A 
ATOM      4  C6  UNL d   1      -1.497  -0.617   1.115  0.00  0.00    -0.004 A 
ATOM      5  C7  UNL d   1      -0.981  -1.760   0.507  0.00  0.00     0.002 A 
ATOM      6  C8  UNL d   1      -0.368  -1.673  -0.744  0.00  0.00     0.002 A 
ENDROOT
BRANCH   1   7
ATOM      7  C2  UNL d   1       0.422  -0.344  -2.742  0.00  0.00     0.056 C 
BRANCH   7   8
ATOM      8  C1  UNL d   1       1.951  -0.284  -2.658  0.00  0.00     0.007 C 
ATOM      9  C   UNL d   1       2.457   0.509  -1.460  0.00  0.00     0.009 C 
ENDBRANCH   7   8
ENDBRANCH   1   7
TORSDOF 2
ENDMDL
