MODEL 1
REMARK minimizedAffinity -2.02213621
REMARK minimizedRMSD -1
REMARK  2 active torsions:
REMARK  status: ('A' for Active; 'I' for Inactive)
REMARK    1  A    between atoms: C1_2  and  C2_3 
REMARK    2  A    between atoms: C2_3  and  C3_4 
ROOT
ATOM      1  C3  UNL d   1       0.113   1.054  -0.262  0.00  0.00    -0.075 A 
ATOM      2  C4  UNL d   1      -0.441  -0.000   0.479  0.00  0.00     0.002 A 
ATOM      3  C5  UNL d   1      -0.570  -1.271  -0.083  0.00  0.00     0.002 A 
ATOM      4  C6  UNL d   1      -0.159  -1.501  -1.394  0.00  0.00    -0.004 A 
ATOM      5  C7  UNL d   1       0.377  -0.457  -2.146  0.00  0.00     0.002 A 
ATOM      6  C8  UNL d   1       0.512   0.814  -1.584  0.00  0.00     0.002 A 
ENDROOT
BRANCH   1   7
ATOM      7  C2  UNL d   1       0.283   2.423   0.350  0.00  0.00     0.056 C 
BRANCH   7   8
ATOM      8  C1  UNL d   1       1.624   3.090   0.025  0.00  0.00     0.007 C 
ATOM      9  C   UNL d   1       2.102   4.040   1.115  0.00  0.00     0.009 C 
ENDBRANCH   7   8
ENDBRANCH   1   7
TORSDOF 2
ENDMDL
