MODEL 1
REMARK minimizedAffinity -4.03584623
REMARK minimizedRMSD -1
REMARK  2 active torsions:
REMARK  status: ('A' for Active; 'I' for Inactive)
REMARK    1  A    between atoms: C1_2  and  C2_3 
REMARK    2  A    between atoms: C2_3  and  C3_4 
ROOT
ATOM      1  C3  UNL d   1       0.052  -1.697  -0.055  0.00  0.00    -0.075 A 
ATOM      2  C4  UNL d   1       0.041  -0.376  -0.529  0.00  0.00     0.002 A 
ATOM      3  C5  UNL d   1      -0.694   0.608   0.134  0.00  0.00     0.002 A 
ATOM      4  C6  UNL d   1      -1.433   0.283   1.269  0.00  0.00    -0.004 A 
ATOM      5  C7  UNL d   1      -1.443  -1.028   1.739  0.00  0.00     0.002 A 
ATOM      6  C8  UNL d   1      -0.705  -2.014   1.081  0.00  0.00     0.002 A 
ENDROOT
BRANCH   1   7
ATOM      7  C2  UNL d   1       0.868  -2.760  -0.750  0.00  0.00     0.056 C 
BRANCH   7   8
ATOM      8  C1  UNL d   1       0.036  -3.738  -1.586  0.00  0.00     0.007 C 
ATOM      9  C   UNL d   1      -1.181  -3.090  -2.233  0.00  0.00     0.009 C 
ENDBRANCH   7   8
ENDBRANCH   1   7
TORSDOF 2
ENDMDL
