MODEL 1
REMARK minimizedAffinity -6.38396406
REMARK minimizedRMSD -1
REMARK  2 active torsions:
REMARK  status: ('A' for Active; 'I' for Inactive)
REMARK    1  A    between atoms: C1_2  and  C2_3 
REMARK    2  A    between atoms: C2_3  and  C3_4 
ROOT
ATOM      1  C3  UNL d   1       0.073  -0.142  -0.021  0.00  0.00    -0.075 A 
ATOM      2  C4  UNL d   1      -0.994  -0.715   0.686  0.00  0.00     0.002 A 
ATOM      3  C5  UNL d   1      -1.047  -2.093   0.895  0.00  0.00     0.002 A 
ATOM      4  C6  UNL d   1      -0.042  -2.916   0.391  0.00  0.00    -0.004 A 
ATOM      5  C7  UNL d   1       1.014  -2.360  -0.327  0.00  0.00     0.002 A 
ATOM      6  C8  UNL d   1       1.072  -0.981  -0.534  0.00  0.00     0.002 A 
ENDROOT
BRANCH   1   7
ATOM      7  C2  UNL d   1       0.152   1.352  -0.225  0.00  0.00     0.056 C 
BRANCH   7   8
ATOM      8  C1  UNL d   1       1.553   1.937  -0.016  0.00  0.00     0.007 C 
ATOM      9  C   UNL d   1       1.571   3.128   0.932  0.00  0.00     0.009 C 
ENDBRANCH   7   8
ENDBRANCH   1   7
TORSDOF 2
ENDMDL
