MODEL 1
REMARK minimizedAffinity -2.05318856
REMARK minimizedRMSD -1
REMARK  2 active torsions:
REMARK  status: ('A' for Active; 'I' for Inactive)
REMARK    1  A    between atoms: C1_2  and  C2_3 
REMARK    2  A    between atoms: C2_3  and  C3_4 
ROOT
ATOM      1  C3  UNL d   1      -0.344  -0.760  -0.152  0.00  0.00    -0.075 A 
ATOM      2  C4  UNL d   1      -0.422   0.623   0.069  0.00  0.00     0.002 A 
ATOM      3  C5  UNL d   1      -0.065   1.522  -0.937  0.00  0.00     0.002 A 
ATOM      4  C6  UNL d   1       0.383   1.051  -2.169  0.00  0.00    -0.004 A 
ATOM      5  C7  UNL d   1       0.480  -0.320  -2.393  0.00  0.00     0.002 A 
ATOM      6  C8  UNL d   1       0.120  -1.222  -1.391  0.00  0.00     0.002 A 
ENDROOT
BRANCH   1   7
ATOM      7  C2  UNL d   1      -0.756  -1.738   0.922  0.00  0.00     0.056 C 
BRANCH   7   8
ATOM      8  C1  UNL d   1      -0.954  -3.171   0.418  0.00  0.00     0.007 C 
ATOM      9  C   UNL d   1      -2.320  -3.403  -0.213  0.00  0.00     0.009 C 
ENDBRANCH   7   8
ENDBRANCH   1   7
TORSDOF 2
ENDMDL
