MODEL 1
REMARK minimizedAffinity -1.83315969
REMARK minimizedRMSD -1
REMARK  2 active torsions:
REMARK  status: ('A' for Active; 'I' for Inactive)
REMARK    1  A    between atoms: C1_2  and  C2_3 
REMARK    2  A    between atoms: C2_3  and  C3_4 
ROOT
ATOM      1  C3  UNL d   1      -0.060   0.631   0.334  0.00  0.00    -0.075 A 
ATOM      2  C4  UNL d   1      -0.519  -0.491   1.038  0.00  0.00     0.002 A 
ATOM      3  C5  UNL d   1      -0.520  -1.751   0.439  0.00  0.00     0.002 A 
ATOM      4  C6  UNL d   1      -0.073  -1.903  -0.872  0.00  0.00    -0.004 A 
ATOM      5  C7  UNL d   1       0.371  -0.792  -1.586  0.00  0.00     0.002 A 
ATOM      6  C8  UNL d   1       0.377   0.469  -0.988  0.00  0.00     0.002 A 
ENDROOT
BRANCH   1   7
ATOM      7  C2  UNL d   1      -0.029   1.993   0.986  0.00  0.00     0.056 C 
BRANCH   7   8
ATOM      8  C1  UNL d   1       1.251   2.789   0.707  0.00  0.00     0.007 C 
ATOM      9  C   UNL d   1       1.644   3.714   1.851  0.00  0.00     0.009 C 
ENDBRANCH   7   8
ENDBRANCH   1   7
TORSDOF 2
ENDMDL
