MODEL 1
REMARK minimizedAffinity -3.99488759
REMARK minimizedRMSD -1
REMARK  1 active torsions:
REMARK  status: ('A' for Active; 'I' for Inactive)
REMARK    1  A    between atoms: N_2  and  C1_3 
ROOT
ATOM      1  C1  UNL d   1      -0.204   1.370  -0.386  0.00  0.00     0.143 A 
ATOM      2  C2  UNL d   1      -0.983   1.271   0.771  0.00  0.00    -0.057 A 
ATOM      3  C3  UNL d   1      -1.596   2.398   1.333  0.00  0.00     0.033 A 
ATOM      4  C4  UNL d   1      -1.416   3.653   0.760  0.00  0.00    -0.042 A 
ATOM      5  C5  UNL d   1      -0.625   3.779  -0.376  0.00  0.00     0.033 A 
ATOM      6  C6  UNL d   1      -0.021   2.649  -0.936  0.00  0.00    -0.057 A 
ENDROOT
BRANCH   1   7
ATOM      7  N   UNL d   1       0.512   0.304  -0.936  0.00  0.00    -0.732 N 
ATOM      8  C   UNL d   1       0.841  -0.854  -0.133  0.00  0.00     0.284 C 
ATOM      9  H3  UNL d   1       0.212   0.081  -1.883  0.00  0.00     0.395 HD
ENDBRANCH   1   7
TORSDOF 1
ENDMDL
