MODEL 1
REMARK minimizedAffinity -5.18420362
REMARK minimizedRMSD -1
REMARK  1 active torsions:
REMARK  status: ('A' for Active; 'I' for Inactive)
REMARK    1  A    between atoms: N_2  and  C1_3 
ROOT
ATOM      1  C1  UNL d   1      -0.762   1.223   0.140  0.00  0.00     0.143 A 
ATOM      2  C2  UNL d   1      -0.280   2.225  -0.709  0.00  0.00    -0.057 A 
ATOM      3  C3  UNL d   1      -0.928   3.462  -0.814  0.00  0.00     0.033 A 
ATOM      4  C4  UNL d   1      -2.090   3.709  -0.090  0.00  0.00    -0.042 A 
ATOM      5  C5  UNL d   1      -2.601   2.718   0.742  0.00  0.00     0.033 A 
ATOM      6  C6  UNL d   1      -1.945   1.488   0.847  0.00  0.00    -0.057 A 
ENDROOT
BRANCH   1   7
ATOM      7  N   UNL d   1      -0.219  -0.062   0.213  0.00  0.00    -0.732 N 
ATOM      8  C   UNL d   1       0.327  -0.700  -0.966  0.00  0.00     0.284 C 
ATOM      9  H3  UNL d   1       0.334  -0.203   1.056  0.00  0.00     0.395 HD
ENDBRANCH   1   7
TORSDOF 1
ENDMDL
