MODEL 1
REMARK minimizedAffinity -5.11955738
REMARK minimizedRMSD -1
REMARK  1 active torsions:
REMARK  status: ('A' for Active; 'I' for Inactive)
REMARK    1  A    between atoms: N_2  and  C1_3 
ROOT
ATOM      1  C1  UNL d   1      -0.692   1.106   0.124  0.00  0.00     0.143 A 
ATOM      2  C2  UNL d   1      -1.613   1.047   1.175  0.00  0.00    -0.057 A 
ATOM      3  C3  UNL d   1      -2.311   2.186   1.594  0.00  0.00     0.033 A 
ATOM      4  C4  UNL d   1      -2.078   3.415   0.985  0.00  0.00    -0.042 A 
ATOM      5  C5  UNL d   1      -1.149   3.502  -0.045  0.00  0.00     0.033 A 
ATOM      6  C6  UNL d   1      -0.460   2.360  -0.464  0.00  0.00    -0.057 A 
ENDROOT
BRANCH   1   7
ATOM      7  N   UNL d   1       0.105   0.030  -0.273  0.00  0.00    -0.732 N 
ATOM      8  C   UNL d   1       0.569  -0.941   0.695  0.00  0.00     0.284 C 
ATOM      9  H3  UNL d   1      -0.200  -0.376  -1.155  0.00  0.00     0.395 HD
ENDBRANCH   1   7
TORSDOF 1
ENDMDL
