MODEL 1
REMARK minimizedAffinity 0.613758445
REMARK minimizedRMSD -1
REMARK  1 active torsions:
REMARK  status: ('A' for Active; 'I' for Inactive)
REMARK    1  A    between atoms: N_2  and  C1_3 
ROOT
ATOM      1  C1  UNL d   1       0.718  -1.381  -0.769  0.00  0.00     0.143 A 
ATOM      2  C2  UNL d   1       0.480  -2.719  -0.438  0.00  0.00    -0.057 A 
ATOM      3  C3  UNL d   1       0.456  -3.718  -1.419  0.00  0.00     0.033 A 
ATOM      4  C4  UNL d   1       0.642  -3.389  -2.758  0.00  0.00    -0.042 A 
ATOM      5  C5  UNL d   1       0.855  -2.062  -3.114  0.00  0.00     0.033 A 
ATOM      6  C6  UNL d   1       0.885  -1.071  -2.128  0.00  0.00    -0.057 A 
ENDROOT
BRANCH   1   7
ATOM      7  N   UNL d   1       0.656  -0.330   0.148  0.00  0.00    -0.732 N 
ATOM      8  C   UNL d   1      -0.280  -0.367   1.251  0.00  0.00     0.284 C 
ATOM      9  H3  UNL d   1       1.578   0.023   0.398  0.00  0.00     0.395 HD
ENDBRANCH   1   7
TORSDOF 1
ENDMDL
