MODEL 1
REMARK minimizedAffinity -2.20864892
REMARK minimizedRMSD -1
REMARK  1 active torsions:
REMARK  status: ('A' for Active; 'I' for Inactive)
REMARK    1  A    between atoms: N_2  and  C1_3 
ROOT
ATOM      1  C1  UNL d   1       0.337  -1.332  -0.724  0.00  0.00     0.143 A 
ATOM      2  C2  UNL d   1      -0.528  -2.429  -0.662  0.00  0.00    -0.057 A 
ATOM      3  C3  UNL d   1      -0.394  -3.510  -1.543  0.00  0.00     0.033 A 
ATOM      4  C4  UNL d   1       0.593  -3.498  -2.523  0.00  0.00    -0.042 A 
ATOM      5  C5  UNL d   1       1.448  -2.406  -2.619  0.00  0.00     0.033 A 
ATOM      6  C6  UNL d   1       1.314  -1.333  -1.732  0.00  0.00    -0.057 A 
ENDROOT
BRANCH   1   7
ATOM      7  N   UNL d   1       0.194  -0.183   0.059  0.00  0.00    -0.732 N 
ATOM      8  C   UNL d   1      -0.557  -0.223   1.296  0.00  0.00     0.284 C 
ATOM      9  H3  UNL d   1       1.052   0.361   0.111  0.00  0.00     0.395 HD
ENDBRANCH   1   7
TORSDOF 1
ENDMDL
