MODEL 1
REMARK minimizedAffinity -3.85309768
REMARK minimizedRMSD -1
REMARK  1 active torsions:
REMARK  status: ('A' for Active; 'I' for Inactive)
REMARK    1  A    between atoms: N_2  and  C1_3 
ROOT
ATOM      1  C1  UNL d   1      -0.120  -0.197   0.205  0.00  0.00     0.143 A 
ATOM      2  C2  UNL d   1       0.066   1.064  -0.372  0.00  0.00    -0.057 A 
ATOM      3  C3  UNL d   1      -0.257   2.236   0.323  0.00  0.00     0.033 A 
ATOM      4  C4  UNL d   1      -0.803   2.166   1.601  0.00  0.00    -0.042 A 
ATOM      5  C5  UNL d   1      -1.020   0.922   2.184  0.00  0.00     0.033 A 
ATOM      6  C6  UNL d   1      -0.689  -0.244   1.488  0.00  0.00    -0.057 A 
ENDROOT
BRANCH   1   7
ATOM      7  N   UNL d   1       0.090  -1.400  -0.472  0.00  0.00    -0.732 N 
ATOM      8  C   UNL d   1       1.189  -1.541  -1.402  0.00  0.00     0.284 C 
ATOM      9  H3  UNL d   1      -0.057  -2.212   0.124  0.00  0.00     0.395 HD
ENDBRANCH   1   7
TORSDOF 1
ENDMDL
