MODEL 1
REMARK minimizedAffinity -2.61607027
REMARK minimizedRMSD -1
REMARK  1 active torsions:
REMARK  status: ('A' for Active; 'I' for Inactive)
REMARK    1  A    between atoms: N_2  and  C1_3 
ROOT
ATOM      1  C1  UNL d   1       0.849  -1.831  -1.021  0.00  0.00     0.143 A 
ATOM      2  C2  UNL d   1       0.870  -3.079  -0.388  0.00  0.00    -0.057 A 
ATOM      3  C3  UNL d   1       0.394  -4.227  -1.032  0.00  0.00     0.033 A 
ATOM      4  C4  UNL d   1      -0.140  -4.143  -2.314  0.00  0.00    -0.042 A 
ATOM      5  C5  UNL d   1      -0.194  -2.909  -2.952  0.00  0.00     0.033 A 
ATOM      6  C6  UNL d   1       0.289  -1.766  -2.306  0.00  0.00    -0.057 A 
ENDROOT
BRANCH   1   7
ATOM      7  N   UNL d   1       1.216  -0.636  -0.397  0.00  0.00    -0.732 N 
ATOM      8  C   UNL d   1       0.653  -0.271   0.886  0.00  0.00     0.284 C 
ATOM      9  H3  UNL d   1       2.211  -0.442  -0.485  0.00  0.00     0.395 HD
ENDBRANCH   1   7
TORSDOF 1
ENDMDL
