MODEL 1
REMARK minimizedAffinity -5.56033945
REMARK minimizedRMSD -1
REMARK  1 active torsions:
REMARK  status: ('A' for Active; 'I' for Inactive)
REMARK    1  A    between atoms: N_2  and  C1_3 
ROOT
ATOM      1  C1  UNL d   1      -0.811   1.278   0.310  0.00  0.00     0.143 A 
ATOM      2  C2  UNL d   1      -0.298   2.391  -0.366  0.00  0.00    -0.057 A 
ATOM      3  C3  UNL d   1      -0.965   3.622  -0.348  0.00  0.00     0.033 A 
ATOM      4  C4  UNL d   1      -2.175   3.755   0.325  0.00  0.00    -0.042 A 
ATOM      5  C5  UNL d   1      -2.715   2.656   0.984  0.00  0.00     0.033 A 
ATOM      6  C6  UNL d   1      -2.041   1.431   0.967  0.00  0.00    -0.057 A 
ENDROOT
BRANCH   1   7
ATOM      7  N   UNL d   1      -0.246   0.002   0.247  0.00  0.00    -0.732 N 
ATOM      8  C   UNL d   1       0.629  -0.364  -0.846  0.00  0.00     0.284 C 
ATOM      9  H3  UNL d   1       0.065  -0.330   1.157  0.00  0.00     0.395 HD
ENDBRANCH   1   7
TORSDOF 1
ENDMDL
