MODEL 1
REMARK minimizedAffinity -5.16778183
REMARK minimizedRMSD -1
REMARK  1 active torsions:
REMARK  status: ('A' for Active; 'I' for Inactive)
REMARK    1  A    between atoms: N_2  and  C1_3 
ROOT
ATOM      1  C1  UNL d   1      -0.097   1.222   0.080  0.00  0.00     0.143 A 
ATOM      2  C2  UNL d   1      -1.282   1.129   0.817  0.00  0.00    -0.057 A 
ATOM      3  C3  UNL d   1      -2.127   2.234   0.978  0.00  0.00     0.033 A 
ATOM      4  C4  UNL d   1      -1.785   3.464   0.426  0.00  0.00    -0.042 A 
ATOM      5  C5  UNL d   1      -0.599   3.587  -0.290  0.00  0.00     0.033 A 
ATOM      6  C6  UNL d   1       0.236   2.478  -0.453  0.00  0.00    -0.057 A 
ENDROOT
BRANCH   1   7
ATOM      7  N   UNL d   1       0.832   0.186  -0.033  0.00  0.00    -0.732 N 
ATOM      8  C   UNL d   1       0.537  -0.985  -0.831  0.00  0.00     0.284 C 
ATOM      9  H3  UNL d   1       1.785   0.528  -0.134  0.00  0.00     0.395 HD
ENDBRANCH   1   7
TORSDOF 1
ENDMDL
