MODEL 1
REMARK minimizedAffinity -5.70782137
REMARK minimizedRMSD -1
REMARK  1 active torsions:
REMARK  status: ('A' for Active; 'I' for Inactive)
REMARK    1  A    between atoms: N_2  and  C1_3 
ROOT
ATOM      1  C1  UNL d   1      -0.181   1.403   0.066  0.00  0.00     0.143 A 
ATOM      2  C2  UNL d   1      -1.270   1.075   0.881  0.00  0.00    -0.057 A 
ATOM      3  C3  UNL d   1      -2.178   2.051   1.308  0.00  0.00     0.033 A 
ATOM      4  C4  UNL d   1      -1.996   3.383   0.951  0.00  0.00    -0.042 A 
ATOM      5  C5  UNL d   1      -0.906   3.737   0.163  0.00  0.00     0.033 A 
ATOM      6  C6  UNL d   1      -0.007   2.756  -0.267  0.00  0.00    -0.057 A 
ENDROOT
BRANCH   1   7
ATOM      7  N   UNL d   1       0.811   0.495  -0.310  0.00  0.00    -0.732 N 
ATOM      8  C   UNL d   1       0.519  -0.920  -0.400  0.00  0.00     0.284 C 
ATOM      9  H3  UNL d   1       1.394   0.848  -1.065  0.00  0.00     0.395 HD
ENDBRANCH   1   7
TORSDOF 1
ENDMDL
