MODEL 1
REMARK minimizedAffinity -1.9185034
REMARK minimizedRMSD -1
REMARK  1 active torsions:
REMARK  status: ('A' for Active; 'I' for Inactive)
REMARK    1  A    between atoms: C3_4  and  O_7 
ROOT
ATOM      1  C   UNL d   1       0.372   0.432  -1.082  0.00  0.00    -0.033 A 
ATOM      2  C1  UNL d   1      -0.057  -0.392  -0.041  0.00  0.00     0.039 A 
ATOM      3  C2  UNL d   1      -0.786   0.146   1.023  0.00  0.00    -0.080 A 
ATOM      4  C3  UNL d   1      -1.078   1.507   1.031  0.00  0.00     0.150 A 
ATOM      5  C4  UNL d   1      -0.657   2.333  -0.005  0.00  0.00    -0.007 A 
ATOM      6  C5  UNL d   1       0.071   1.795  -1.066  0.00  0.00     0.039 A 
ENDROOT
BRANCH   4   7
ATOM      7  O   UNL d   1      -1.782   2.078   2.049  0.00  0.00    -0.526 OA
ATOM      8  H5  UNL d   1      -1.982   1.392   2.708  0.00  0.00     0.418 HD
ENDBRANCH   4   7
TORSDOF 1
ENDMDL
