MODEL 1
REMARK minimizedAffinity 3.73854208
REMARK minimizedRMSD -1
REMARK  1 active torsions:
REMARK  status: ('A' for Active; 'I' for Inactive)
REMARK    1  A    between atoms: C3_4  and  O_7 
ROOT
ATOM      1  C   UNL d   1      -1.023   0.834  -1.493  0.00  0.00    -0.033 A 
ATOM      2  C1  UNL d   1      -0.237   1.624  -0.652  0.00  0.00     0.039 A 
ATOM      3  C2  UNL d   1       0.411   1.050   0.444  0.00  0.00    -0.080 A 
ATOM      4  C3  UNL d   1       0.267  -0.314   0.685  0.00  0.00     0.150 A 
ATOM      5  C4  UNL d   1      -0.510  -1.108  -0.151  0.00  0.00    -0.007 A 
ATOM      6  C5  UNL d   1      -1.158  -0.532  -1.244  0.00  0.00     0.039 A 
ENDROOT
BRANCH   4   7
ATOM      7  O   UNL d   1       0.877  -0.918   1.744  0.00  0.00    -0.526 OA
ATOM      8  H5  UNL d   1       1.357  -0.241   2.250  0.00  0.00     0.418 HD
ENDBRANCH   4   7
TORSDOF 1
ENDMDL
