MODEL 1
REMARK minimizedAffinity -5.21285152
REMARK minimizedRMSD -1
REMARK  1 active torsions:
REMARK  status: ('A' for Active; 'I' for Inactive)
REMARK    1  A    between atoms: C3_4  and  O_7 
ROOT
ATOM      1  C   UNL d   1      -1.909   2.215   1.451  0.00  0.00    -0.033 A 
ATOM      2  C1  UNL d   1      -1.573   0.969   1.984  0.00  0.00     0.039 A 
ATOM      3  C2  UNL d   1      -0.780   0.085   1.250  0.00  0.00    -0.080 A 
ATOM      4  C3  UNL d   1      -0.329   0.458  -0.013  0.00  0.00     0.150 A 
ATOM      5  C4  UNL d   1      -0.657   1.699  -0.548  0.00  0.00    -0.007 A 
ATOM      6  C5  UNL d   1      -1.450   2.581   0.185  0.00  0.00     0.039 A 
ENDROOT
BRANCH   4   7
ATOM      7  O   UNL d   1       0.443  -0.373  -0.768  0.00  0.00    -0.526 OA
ATOM      8  H5  UNL d   1       0.565  -1.206  -0.283  0.00  0.00     0.418 HD
ENDBRANCH   4   7
TORSDOF 1
ENDMDL
