MODEL 1
REMARK minimizedAffinity -4.79320097
REMARK minimizedRMSD -1
REMARK  1 active torsions:
REMARK  status: ('A' for Active; 'I' for Inactive)
REMARK    1  A    between atoms: C3_4  and  O_7 
ROOT
ATOM      1  C   UNL d   1      -1.846   1.717   1.355  0.00  0.00    -0.033 A 
ATOM      2  C1  UNL d   1      -1.309   0.737   2.192  0.00  0.00     0.039 A 
ATOM      3  C2  UNL d   1      -0.351  -0.154   1.703  0.00  0.00    -0.080 A 
ATOM      4  C3  UNL d   1       0.060  -0.053   0.377  0.00  0.00     0.150 A 
ATOM      5  C4  UNL d   1      -0.467   0.923  -0.462  0.00  0.00    -0.007 A 
ATOM      6  C5  UNL d   1      -1.424   1.811   0.029  0.00  0.00     0.039 A 
ENDROOT
BRANCH   4   7
ATOM      7  O   UNL d   1       0.989  -0.904  -0.147  0.00  0.00    -0.526 OA
ATOM      8  H5  UNL d   1       1.243  -1.543   0.540  0.00  0.00     0.418 HD
ENDBRANCH   4   7
TORSDOF 1
ENDMDL
