MODEL 1
REMARK minimizedAffinity -0.0975414217
REMARK minimizedRMSD -1
REMARK  1 active torsions:
REMARK  status: ('A' for Active; 'I' for Inactive)
REMARK    1  A    between atoms: C3_4  and  O_7 
ROOT
ATOM      1  C   UNL d   1       1.352  -0.521  -0.756  0.00  0.00    -0.033 A 
ATOM      2  C1  UNL d   1       0.927   0.747  -1.154  0.00  0.00     0.039 A 
ATOM      3  C2  UNL d   1       0.111   1.508  -0.315  0.00  0.00    -0.080 A 
ATOM      4  C3  UNL d   1      -0.271   0.990   0.920  0.00  0.00     0.150 A 
ATOM      5  C4  UNL d   1       0.152  -0.272   1.325  0.00  0.00    -0.007 A 
ATOM      6  C5  UNL d   1       0.966  -1.030   0.485  0.00  0.00     0.039 A 
ENDROOT
BRANCH   4   7
ATOM      7  O   UNL d   1      -1.070   1.693   1.771  0.00  0.00    -0.526 OA
ATOM      8  H5  UNL d   1      -1.308   2.535   1.346  0.00  0.00     0.418 HD
ENDBRANCH   4   7
TORSDOF 1
ENDMDL
