MODEL 1
REMARK minimizedAffinity -1.86810577
REMARK minimizedRMSD -1
REMARK  1 active torsions:
REMARK  status: ('A' for Active; 'I' for Inactive)
REMARK    1  A    between atoms: C3_4  and  O_7 
ROOT
ATOM      1  C   UNL d   1      -1.364   2.992   1.145  0.00  0.00    -0.033 A 
ATOM      2  C1  UNL d   1      -0.793   3.108  -0.124  0.00  0.00     0.039 A 
ATOM      3  C2  UNL d   1      -0.276   1.980  -0.765  0.00  0.00    -0.080 A 
ATOM      4  C3  UNL d   1      -0.337   0.744  -0.127  0.00  0.00     0.150 A 
ATOM      5  C4  UNL d   1      -0.908   0.621   1.135  0.00  0.00    -0.007 A 
ATOM      6  C5  UNL d   1      -1.423   1.748   1.774  0.00  0.00     0.039 A 
ENDROOT
BRANCH   4   7
ATOM      7  O   UNL d   1       0.158  -0.384  -0.711  0.00  0.00    -0.526 OA
ATOM      8  H5  UNL d   1       0.548  -0.142  -1.567  0.00  0.00     0.418 HD
ENDBRANCH   4   7
TORSDOF 1
ENDMDL
