MODEL 1
REMARK minimizedAffinity -3.49139833
REMARK minimizedRMSD -1
REMARK  1 active torsions:
REMARK  status: ('A' for Active; 'I' for Inactive)
REMARK    1  A    between atoms: C3_4  and  O_7 
ROOT
ATOM      1  C   UNL d   1      -1.486   1.724   1.851  0.00  0.00    -0.033 A 
ATOM      2  C1  UNL d   1      -1.196   0.541   2.534  0.00  0.00     0.039 A 
ATOM      3  C2  UNL d   1      -0.431  -0.453   1.920  0.00  0.00    -0.080 A 
ATOM      4  C3  UNL d   1       0.039  -0.251   0.626  0.00  0.00     0.150 A 
ATOM      5  C4  UNL d   1      -0.242   0.927  -0.059  0.00  0.00    -0.007 A 
ATOM      6  C5  UNL d   1      -1.007   1.917   0.555  0.00  0.00     0.039 A 
ENDROOT
BRANCH   4   7
ATOM      7  O   UNL d   1       0.785  -1.194  -0.017  0.00  0.00    -0.526 OA
ATOM      8  H5  UNL d   1       0.875  -1.965   0.567  0.00  0.00     0.418 HD
ENDBRANCH   4   7
TORSDOF 1
ENDMDL
