MODEL 1
REMARK minimizedAffinity -4.39380074
REMARK minimizedRMSD -1
REMARK  1 active torsions:
REMARK  status: ('A' for Active; 'I' for Inactive)
REMARK    1  A    between atoms: C3_4  and  O_7 
ROOT
ATOM      1  C   UNL d   1       0.365  -0.462   0.510  0.00  0.00    -0.033 A 
ATOM      2  C1  UNL d   1       0.060  -0.352   1.868  0.00  0.00     0.039 A 
ATOM      3  C2  UNL d   1      -0.850   0.612   2.305  0.00  0.00    -0.080 A 
ATOM      4  C3  UNL d   1      -1.448   1.458   1.376  0.00  0.00     0.150 A 
ATOM      5  C4  UNL d   1      -1.152   1.351   0.021  0.00  0.00    -0.007 A 
ATOM      6  C5  UNL d   1      -0.242   0.388  -0.414  0.00  0.00     0.039 A 
ENDROOT
BRANCH   4   7
ATOM      7  O   UNL d   1      -2.339   2.418   1.755  0.00  0.00    -0.526 OA
ATOM      8  H5  UNL d   1      -2.424   2.393   2.723  0.00  0.00     0.418 HD
ENDBRANCH   4   7
TORSDOF 1
ENDMDL
