MODEL 1
REMARK minimizedAffinity -3.74980164
REMARK minimizedRMSD -1
REMARK  1 active torsions:
REMARK  status: ('A' for Active; 'I' for Inactive)
REMARK    1  A    between atoms: C3_4  and  O_7 
ROOT
ATOM      1  C   UNL d   1      -1.528   0.800   0.016  0.00  0.00    -0.033 A 
ATOM      2  C1  UNL d   1      -0.815  -0.073   0.839  0.00  0.00     0.039 A 
ATOM      3  C2  UNL d   1      -0.531   0.285   2.159  0.00  0.00    -0.080 A 
ATOM      4  C3  UNL d   1      -0.966   1.516   2.642  0.00  0.00     0.150 A 
ATOM      5  C4  UNL d   1      -1.681   2.389   1.828  0.00  0.00    -0.007 A 
ATOM      6  C5  UNL d   1      -1.962   2.030   0.510  0.00  0.00     0.039 A 
ENDROOT
BRANCH   4   7
ATOM      7  O   UNL d   1      -0.709   1.911   3.921  0.00  0.00    -0.526 OA
ATOM      8  H5  UNL d   1      -0.183   1.220   4.356  0.00  0.00     0.418 HD
ENDBRANCH   4   7
TORSDOF 1
ENDMDL
