MODEL 1
REMARK minimizedAffinity -4.09677553
REMARK minimizedRMSD -1
REMARK  1 active torsions:
REMARK  status: ('A' for Active; 'I' for Inactive)
REMARK    1  A    between atoms: C3_4  and  O_7 
ROOT
ATOM      1  C   UNL d   1       0.408  -0.297   0.084  0.00  0.00    -0.033 A 
ATOM      2  C1  UNL d   1      -0.179  -0.538   1.328  0.00  0.00     0.039 A 
ATOM      3  C2  UNL d   1      -1.117   0.359   1.844  0.00  0.00    -0.080 A 
ATOM      4  C3  UNL d   1      -1.458   1.490   1.107  0.00  0.00     0.150 A 
ATOM      5  C4  UNL d   1      -0.880   1.734  -0.134  0.00  0.00    -0.007 A 
ATOM      6  C5  UNL d   1       0.057   0.838  -0.647  0.00  0.00     0.039 A 
ENDROOT
BRANCH   4   7
ATOM      7  O   UNL d   1      -2.365   2.396   1.571  0.00  0.00    -0.526 OA
ATOM      8  H5  UNL d   1      -2.659   2.112   2.453  0.00  0.00     0.418 HD
ENDBRANCH   4   7
TORSDOF 1
ENDMDL
