MODEL 1
REMARK minimizedAffinity -1.06811595
REMARK minimizedRMSD -1
REMARK  1 active torsions:
REMARK  status: ('A' for Active; 'I' for Inactive)
REMARK    1  A    between atoms: C3_4  and  O_7 
ROOT
ATOM      1  C   UNL d   1      -5.810   1.627  -4.998  0.00  0.00    -0.033 A 
ATOM      2  C1  UNL d   1      -5.999   0.762  -3.918  0.00  0.00     0.039 A 
ATOM      3  C2  UNL d   1      -6.000   1.260  -2.614  0.00  0.00    -0.080 A 
ATOM      4  C3  UNL d   1      -5.811   2.623  -2.403  0.00  0.00     0.150 A 
ATOM      5  C4  UNL d   1      -5.625   3.491  -3.473  0.00  0.00    -0.007 A 
ATOM      6  C5  UNL d   1      -5.624   2.992  -4.775  0.00  0.00     0.039 A 
ENDROOT
BRANCH   4   7
ATOM      7  O   UNL d   1      -5.799   3.155  -1.147  0.00  0.00    -0.526 OA
ATOM      8  H5  UNL d   1      -5.910   2.433  -0.506  0.00  0.00     0.418 HD
ENDBRANCH   4   7
TORSDOF 1
ENDMDL
