MODEL 1
REMARK minimizedAffinity 0.708913565
REMARK minimizedRMSD -1
REMARK  1 active torsions:
REMARK  status: ('A' for Active; 'I' for Inactive)
REMARK    1  A    between atoms: C3_4  and  O_7 
ROOT
ATOM      1  C   UNL d   1      -5.952   3.312  -3.002  0.00  0.00    -0.033 A 
ATOM      2  C1  UNL d   1      -5.986   2.030  -2.450  0.00  0.00     0.039 A 
ATOM      3  C2  UNL d   1      -6.000   0.909  -3.283  0.00  0.00    -0.080 A 
ATOM      4  C3  UNL d   1      -5.979   1.084  -4.663  0.00  0.00     0.150 A 
ATOM      5  C4  UNL d   1      -5.941   2.358  -5.220  0.00  0.00    -0.007 A 
ATOM      6  C5  UNL d   1      -5.928   3.476  -4.387  0.00  0.00     0.039 A 
ENDROOT
BRANCH   4   7
ATOM      7  O   UNL d   1      -5.996   0.021  -5.517  0.00  0.00    -0.526 OA
ATOM      8  H5  UNL d   1      -6.052  -0.795  -4.991  0.00  0.00     0.418 HD
ENDBRANCH   4   7
TORSDOF 1
ENDMDL
