MODEL 1
REMARK minimizedAffinity -1.46948302
REMARK minimizedRMSD -1
REMARK  1 active torsions:
REMARK  status: ('A' for Active; 'I' for Inactive)
REMARK    1  A    between atoms: C3_4  and  O_7 
ROOT
ATOM      1  C   UNL d   1      -5.995   4.202  -3.159  0.00  0.00    -0.033 A 
ATOM      2  C1  UNL d   1      -5.998   4.194  -4.555  0.00  0.00     0.039 A 
ATOM      3  C2  UNL d   1      -5.998   2.983  -5.249  0.00  0.00    -0.080 A 
ATOM      4  C3  UNL d   1      -5.997   1.787  -4.536  0.00  0.00     0.150 A 
ATOM      5  C4  UNL d   1      -5.998   1.787  -3.145  0.00  0.00    -0.007 A 
ATOM      6  C5  UNL d   1      -5.997   2.998  -2.454  0.00  0.00     0.039 A 
ENDROOT
BRANCH   4   7
ATOM      7  O   UNL d   1      -5.992   0.580  -5.169  0.00  0.00    -0.526 OA
ATOM      8  H5  UNL d   1      -5.962   0.735  -6.127  0.00  0.00     0.418 HD
ENDBRANCH   4   7
TORSDOF 1
ENDMDL
