MODEL 1
REMARK minimizedAffinity 3.96879745
REMARK minimizedRMSD -1
REMARK  1 active torsions:
REMARK  status: ('A' for Active; 'I' for Inactive)
REMARK    1  A    between atoms: C3_4  and  O_7 
ROOT
ATOM      1  C   UNL d   1      -5.998   4.254  -2.996  0.00  0.00    -0.033 A 
ATOM      2  C1  UNL d   1      -6.000   4.255  -4.392  0.00  0.00     0.039 A 
ATOM      3  C2  UNL d   1      -5.999   3.047  -5.092  0.00  0.00    -0.080 A 
ATOM      4  C3  UNL d   1      -5.997   1.847  -4.386  0.00  0.00     0.150 A 
ATOM      5  C4  UNL d   1      -6.000   1.839  -2.995  0.00  0.00    -0.007 A 
ATOM      6  C5  UNL d   1      -6.000   3.046  -2.297  0.00  0.00     0.039 A 
ENDROOT
BRANCH   4   7
ATOM      7  O   UNL d   1      -5.991   0.643  -5.026  0.00  0.00    -0.526 OA
ATOM      8  H5  UNL d   1      -5.961   0.804  -5.984  0.00  0.00     0.418 HD
ENDBRANCH   4   7
TORSDOF 1
ENDMDL
