MODEL 1
REMARK minimizedAffinity 1.4954809
REMARK minimizedRMSD -1
REMARK  1 active torsions:
REMARK  status: ('A' for Active; 'I' for Inactive)
REMARK    1  A    between atoms: C3_4  and  O_7 
ROOT
ATOM      1  C   UNL d   1      -5.600   1.140   1.824  0.00  0.00    -0.033 A 
ATOM      2  C1  UNL d   1      -4.728   0.279   1.154  0.00  0.00     0.039 A 
ATOM      3  C2  UNL d   1      -4.251  -0.868   1.790  0.00  0.00    -0.080 A 
ATOM      4  C3  UNL d   1      -4.652  -1.144   3.095  0.00  0.00     0.150 A 
ATOM      5  C4  UNL d   1      -5.523  -0.293   3.767  0.00  0.00    -0.007 A 
ATOM      6  C5  UNL d   1      -5.998   0.853   3.130  0.00  0.00     0.039 A 
ENDROOT
BRANCH   4   7
ATOM      7  O   UNL d   1      -4.208  -2.249   3.758  0.00  0.00    -0.526 OA
ATOM      8  H5  UNL d   1      -3.591  -2.728   3.180  0.00  0.00     0.418 HD
ENDBRANCH   4   7
TORSDOF 1
ENDMDL
