MODEL 1
REMARK minimizedAffinity -1.74225593
REMARK minimizedRMSD -1
REMARK  1 active torsions:
REMARK  status: ('A' for Active; 'I' for Inactive)
REMARK    1  A    between atoms: C3_4  and  O_7 
ROOT
ATOM      1  C   UNL d   1       5.190  -3.204  -0.772  0.00  0.00    -0.033 A 
ATOM      2  C1  UNL d   1       4.936  -4.553  -1.028  0.00  0.00     0.039 A 
ATOM      3  C2  UNL d   1       3.650  -5.068  -0.855  0.00  0.00    -0.080 A 
ATOM      4  C3  UNL d   1       2.629  -4.225  -0.426  0.00  0.00     0.150 A 
ATOM      5  C4  UNL d   1       2.874  -2.880  -0.173  0.00  0.00    -0.007 A 
ATOM      6  C5  UNL d   1       4.159  -2.367  -0.346  0.00  0.00     0.039 A 
ENDROOT
BRANCH   4   7
ATOM      7  O   UNL d   1       1.359  -4.683  -0.238  0.00  0.00    -0.526 OA
ATOM      8  H5  UNL d   1       1.345  -5.637  -0.423  0.00  0.00     0.418 HD
ENDBRANCH   4   7
TORSDOF 1
ENDMDL
