MODEL 1
REMARK minimizedAffinity 2.43870759
REMARK minimizedRMSD -1
REMARK  1 active torsions:
REMARK  status: ('A' for Active; 'I' for Inactive)
REMARK    1  A    between atoms: C3_4  and  O_7 
ROOT
ATOM      1  C   UNL d   1      -1.147   5.996  -2.049  0.00  0.00    -0.033 A 
ATOM      2  C1  UNL d   1       0.070   5.888  -1.373  0.00  0.00     0.039 A 
ATOM      3  C2  UNL d   1       0.543   4.634  -0.980  0.00  0.00    -0.080 A 
ATOM      4  C3  UNL d   1      -0.209   3.499  -1.269  0.00  0.00     0.150 A 
ATOM      5  C4  UNL d   1      -1.420   3.599  -1.946  0.00  0.00    -0.007 A 
ATOM      6  C5  UNL d   1      -1.891   4.852  -2.337  0.00  0.00     0.039 A 
ENDROOT
BRANCH   4   7
ATOM      7  O   UNL d   1       0.209   2.255  -0.902  0.00  0.00    -0.526 OA
ATOM      8  H5  UNL d   1       1.047   2.342  -0.418  0.00  0.00     0.418 HD
ENDBRANCH   4   7
TORSDOF 1
ENDMDL
