MODEL 1
REMARK minimizedAffinity -4.67681456
REMARK minimizedRMSD -1
REMARK  3 active torsions:
REMARK  status: ('A' for Active; 'I' for Inactive)
REMARK    1  A    between atoms: C3'_2  and  C2'_3 
REMARK    2  A    between atoms: C2'_3  and  C1'_4 
REMARK    3  A    between atoms: C1'_4  and  C1_5 
ROOT
ATOM      1  C1  N4B d   1      -0.064  -0.504   0.331  0.00  0.00    -0.075 A 
ATOM      2  C2  N4B d   1      -0.912  -0.563   1.459  0.00  0.00     0.002 A 
ATOM      3  C3  N4B d   1      -0.374  -0.696   2.715  0.00  0.00     0.002 A 
ATOM      4  C4  N4B d   1       1.001  -0.791   2.867  0.00  0.00    -0.004 A 
ATOM      5  C5  N4B d   1       1.814  -0.707   1.774  0.00  0.00     0.002 A 
ATOM      6  C6  N4B d   1       1.288  -0.569   0.506  0.00  0.00     0.002 A 
ENDROOT
BRANCH   1   7
ATOM      7  C1' N4B d   1      -0.609  -0.445  -1.070  0.00  0.00     0.057 C 
BRANCH   7   8
ATOM      8  C2' N4B d   1      -0.468   0.977  -1.603  0.00  0.00     0.009 C 
BRANCH   8   9
ATOM      9  C3' N4B d   1      -1.736   1.456  -2.288  0.00  0.00     0.004 C 
ATOM     10  C4' N4B d   1      -1.823   2.951  -2.370  0.00  0.00     0.003 C 
ENDBRANCH   8   9
ENDBRANCH   7   8
ENDBRANCH   1   7
TORSDOF 3
ENDMDL
