MODEL 1
REMARK minimizedAffinity -5.77106619
REMARK minimizedRMSD -1
REMARK  3 active torsions:
REMARK  status: ('A' for Active; 'I' for Inactive)
REMARK    1  A    between atoms: C3'_2  and  C2'_3 
REMARK    2  A    between atoms: C2'_3  and  C1'_4 
REMARK    3  A    between atoms: C1'_4  and  C1_5 
ROOT
ATOM      1  C1  N4B d   1       0.045   0.025  -0.142  0.00  0.00    -0.075 A 
ATOM      2  C2  N4B d   1      -1.183   0.201   0.532  0.00  0.00     0.002 A 
ATOM      3  C3  N4B d   1      -1.238   0.092   1.900  0.00  0.00     0.002 A 
ATOM      4  C4  N4B d   1      -0.086  -0.210   2.610  0.00  0.00    -0.004 A 
ATOM      5  C5  N4B d   1       1.102  -0.353   1.954  0.00  0.00     0.002 A 
ATOM      6  C6  N4B d   1       1.172  -0.243   0.580  0.00  0.00     0.002 A 
ENDROOT
BRANCH   1   7
ATOM      7  C1' N4B d   1       0.139   0.050  -1.643  0.00  0.00     0.057 C 
BRANCH   7   8
ATOM      8  C2' N4B d   1      -0.810   1.115  -2.186  0.00  0.00     0.009 C 
BRANCH   8   9
ATOM      9  C3' N4B d   1      -0.065   2.353  -2.654  0.00  0.00     0.004 C 
ATOM     10  C4' N4B d   1      -0.629   3.620  -2.083  0.00  0.00     0.003 C 
ENDBRANCH   8   9
ENDBRANCH   7   8
ENDBRANCH   1   7
TORSDOF 3
ENDMDL
