MODEL 1
REMARK minimizedAffinity -5.37443399
REMARK minimizedRMSD -1
REMARK  3 active torsions:
REMARK  status: ('A' for Active; 'I' for Inactive)
REMARK    1  A    between atoms: C3'_2  and  C2'_3 
REMARK    2  A    between atoms: C2'_3  and  C1'_4 
REMARK    3  A    between atoms: C1'_4  and  C1_5 
ROOT
ATOM      1  C1  N4B d   1       0.240  -0.076  -0.382  0.00  0.00    -0.075 A 
ATOM      2  C2  N4B d   1      -0.811  -0.025   0.560  0.00  0.00     0.002 A 
ATOM      3  C3  N4B d   1      -0.545  -0.197   1.896  0.00  0.00     0.002 A 
ATOM      4  C4  N4B d   1       0.756  -0.439   2.311  0.00  0.00    -0.004 A 
ATOM      5  C5  N4B d   1       1.769  -0.461   1.398  0.00  0.00     0.002 A 
ATOM      6  C6  N4B d   1       1.517  -0.286   0.052  0.00  0.00     0.002 A 
ENDROOT
BRANCH   1   7
ATOM      7  C1' N4B d   1      -0.014   0.020  -1.861  0.00  0.00     0.057 C 
BRANCH   7   8
ATOM      8  C2' N4B d   1      -0.941   1.201  -2.134  0.00  0.00     0.009 C 
BRANCH   8   9
ATOM      9  C3' N4B d   1      -0.228   2.326  -2.865  0.00  0.00     0.004 C 
ATOM     10  C4' N4B d   1      -0.880   3.660  -2.654  0.00  0.00     0.003 C 
ENDBRANCH   8   9
ENDBRANCH   7   8
ENDBRANCH   1   7
TORSDOF 3
ENDMDL
