MODEL 1
REMARK minimizedAffinity -5.80664968
REMARK minimizedRMSD -1
REMARK  3 active torsions:
REMARK  status: ('A' for Active; 'I' for Inactive)
REMARK    1  A    between atoms: C3'_2  and  C2'_3 
REMARK    2  A    between atoms: C2'_3  and  C1'_4 
REMARK    3  A    between atoms: C1'_4  and  C1_5 
ROOT
ATOM      1  C1  N4B d   1       0.070  -0.092   0.172  0.00  0.00    -0.075 A 
ATOM      2  C2  N4B d   1      -0.831  -0.288   1.242  0.00  0.00     0.002 A 
ATOM      3  C3  N4B d   1      -0.354  -0.591   2.494  0.00  0.00     0.002 A 
ATOM      4  C4  N4B d   1       1.012  -0.720   2.695  0.00  0.00    -0.004 A 
ATOM      5  C5  N4B d   1       1.877  -0.504   1.662  0.00  0.00     0.002 A 
ATOM      6  C6  N4B d   1       1.412  -0.195   0.399  0.00  0.00     0.002 A 
ENDROOT
BRANCH   1   7
ATOM      7  C1' N4B d   1      -0.408   0.156  -1.232  0.00  0.00     0.057 C 
BRANCH   7   8
ATOM      8  C2' N4B d   1       0.034   1.549  -1.673  0.00  0.00     0.009 C 
BRANCH   8   9
ATOM      9  C3' N4B d   1      -1.046   2.262  -2.469  0.00  0.00     0.004 C 
ATOM     10  C4' N4B d   1      -1.039   3.746  -2.256  0.00  0.00     0.003 C 
ENDBRANCH   8   9
ENDBRANCH   7   8
ENDBRANCH   1   7
TORSDOF 3
ENDMDL
