MODEL 1
REMARK minimizedAffinity -3.8288939
REMARK minimizedRMSD -1
REMARK  0 active torsions:
REMARK  status: ('A' for Active; 'I' for Inactive)
ROOT
ATOM      1  C1  BNZ d   1       0.708   0.109   0.051  0.00  0.00     0.000 A 
ATOM      2  C2  BNZ d   1       1.653   1.101   0.049  0.00  0.00     0.000 A 
ATOM      3  C3  BNZ d   1       1.533   2.183   0.874  0.00  0.00     0.000 A 
ATOM      4  C4  BNZ d   1       0.450   2.293   1.670  0.00  0.00     0.000 A 
ATOM      5  C5  BNZ d   1      -0.516   1.307   1.677  0.00  0.00     0.000 A 
ATOM      6  C6  BNZ d   1      -0.372   0.199   0.873  0.00  0.00     0.000 A 
ENDROOT
TORSDOF 0
ENDMDL
