MODEL 1
REMARK minimizedAffinity -4.18583679
REMARK minimizedRMSD -1
REMARK  0 active torsions:
REMARK  status: ('A' for Active; 'I' for Inactive)
ROOT
ATOM      1  C1  BNZ d   1      -0.687   1.457   1.375  0.00  0.00     0.000 A 
ATOM      2  C2  BNZ d   1      -1.283   0.229   1.264  0.00  0.00     0.000 A 
ATOM      3  C3  BNZ d   1      -0.722  -0.754   0.498  0.00  0.00     0.000 A 
ATOM      4  C4  BNZ d   1       0.411  -0.497  -0.187  0.00  0.00     0.000 A 
ATOM      5  C5  BNZ d   1       1.019   0.739  -0.093  0.00  0.00     0.000 A 
ATOM      6  C6  BNZ d   1       0.472   1.714   0.710  0.00  0.00     0.000 A 
ENDROOT
TORSDOF 0
ENDMDL
