MODEL 1
REMARK minimizedAffinity -4.96101427
REMARK minimizedRMSD -1
REMARK  0 active torsions:
REMARK  status: ('A' for Active; 'I' for Inactive)
ROOT
ATOM      1  C1  BNZ d   1       2.296   1.105  -0.027  0.00  0.00     0.000 A 
ATOM      2  C2  BNZ d   1       1.623   0.003  -0.485  0.00  0.00     0.000 A 
ATOM      3  C3  BNZ d   1       0.327  -0.228  -0.117  0.00  0.00     0.000 A 
ATOM      4  C4  BNZ d   1      -0.280   0.620   0.739  0.00  0.00     0.000 A 
ATOM      5  C5  BNZ d   1       0.389   1.729   1.217  0.00  0.00     0.000 A 
ATOM      6  C6  BNZ d   1       1.680   1.979   0.813  0.00  0.00     0.000 A 
ENDROOT
TORSDOF 0
ENDMDL
