MODEL 1
REMARK minimizedAffinity -4.16584826
REMARK minimizedRMSD -1
REMARK  0 active torsions:
REMARK  status: ('A' for Active; 'I' for Inactive)
ROOT
ATOM      1  C1  BNZ d   1       1.016   0.925  -0.508  0.00  0.00     0.000 A 
ATOM      2  C2  BNZ d   1       1.138   2.103   0.179  0.00  0.00     0.000 A 
ATOM      3  C3  BNZ d   1       0.411   2.330   1.314  0.00  0.00     0.000 A 
ATOM      4  C4  BNZ d   1      -0.467   1.398   1.737  0.00  0.00     0.000 A 
ATOM      5  C5  BNZ d   1      -0.608   0.209   1.049  0.00  0.00     0.000 A 
ATOM      6  C6  BNZ d   1       0.154  -0.033  -0.070  0.00  0.00     0.000 A 
ENDROOT
TORSDOF 0
ENDMDL
