MODEL 1
REMARK minimizedAffinity -4.87280798
REMARK minimizedRMSD -1
REMARK  0 active torsions:
REMARK  status: ('A' for Active; 'I' for Inactive)
ROOT
ATOM      1  C1  BNZ d   1      -0.533   0.603   1.420  0.00  0.00     0.000 A 
ATOM      2  C2  BNZ d   1      -0.075  -0.175   0.390  0.00  0.00     0.000 A 
ATOM      3  C3  BNZ d   1       0.887   0.289  -0.463  0.00  0.00     0.000 A 
ATOM      4  C4  BNZ d   1       1.360   1.543  -0.310  0.00  0.00     0.000 A 
ATOM      5  C5  BNZ d   1       0.901   2.343   0.718  0.00  0.00     0.000 A 
ATOM      6  C6  BNZ d   1      -0.039   1.858   1.598  0.00  0.00     0.000 A 
ENDROOT
TORSDOF 0
ENDMDL
