MODEL 1
REMARK minimizedAffinity -2.69991207
REMARK minimizedRMSD -1
REMARK  0 active torsions:
REMARK  status: ('A' for Active; 'I' for Inactive)
ROOT
ATOM      1  C1  BNZ d   1      -0.900   0.333   1.161  0.00  0.00     0.000 A 
ATOM      2  C2  BNZ d   1      -0.257   1.453   1.614  0.00  0.00     0.000 A 
ATOM      3  C3  BNZ d   1       0.845   1.938   0.966  0.00  0.00     0.000 A 
ATOM      4  C4  BNZ d   1       1.325   1.281  -0.109  0.00  0.00     0.000 A 
ATOM      5  C5  BNZ d   1       0.693   0.144  -0.573  0.00  0.00     0.000 A 
ATOM      6  C6  BNZ d   1      -0.438  -0.319   0.059  0.00  0.00     0.000 A 
ENDROOT
TORSDOF 0
ENDMDL
