MODEL 1
REMARK minimizedAffinity -4.44555187
REMARK minimizedRMSD -1
REMARK  0 active torsions:
REMARK  status: ('A' for Active; 'I' for Inactive)
ROOT
ATOM      1  C1  BNZ d   1       0.224  -0.434  -0.305  0.00  0.00     0.000 A 
ATOM      2  C2  BNZ d   1      -0.669  -1.026   0.548  0.00  0.00     0.000 A 
ATOM      3  C3  BNZ d   1      -1.000  -0.436   1.736  0.00  0.00     0.000 A 
ATOM      4  C4  BNZ d   1      -0.407   0.723   2.087  0.00  0.00     0.000 A 
ATOM      5  C5  BNZ d   1       0.503   1.328   1.243  0.00  0.00     0.000 A 
ATOM      6  C6  BNZ d   1       0.803   0.751   0.030  0.00  0.00     0.000 A 
ENDROOT
TORSDOF 0
ENDMDL
