MODEL 1
REMARK minimizedAffinity -4.32582331
REMARK minimizedRMSD -1
REMARK  0 active torsions:
REMARK  status: ('A' for Active; 'I' for Inactive)
ROOT
ATOM      1  C1  BNZ d   1      -0.652   0.303   1.315  0.00  0.00     0.000 A 
ATOM      2  C2  BNZ d   1      -0.077   1.544   1.374  0.00  0.00     0.000 A 
ATOM      3  C3  BNZ d   1       0.891   1.911   0.481  0.00  0.00     0.000 A 
ATOM      4  C4  BNZ d   1       1.310   1.023  -0.443  0.00  0.00     0.000 A 
ATOM      5  C5  BNZ d   1       0.747  -0.235  -0.510  0.00  0.00     0.000 A 
ATOM      6  C6  BNZ d   1      -0.255  -0.587   0.366  0.00  0.00     0.000 A 
ENDROOT
TORSDOF 0
ENDMDL
