MODEL 1
REMARK minimizedAffinity -5.11331987
REMARK minimizedRMSD -1
REMARK  0 active torsions:
REMARK  status: ('A' for Active; 'I' for Inactive)
ROOT
ATOM      1  C1  BNZ d   1       1.473  -0.579  -0.567  0.00  0.00     0.000 A 
ATOM      2  C2  BNZ d   1       2.127   0.622  -0.649  0.00  0.00     0.000 A 
ATOM      3  C3  BNZ d   1       1.526   1.776  -0.232  0.00  0.00     0.000 A 
ATOM      4  C4  BNZ d   1       0.259   1.735   0.229  0.00  0.00     0.000 A 
ATOM      5  C5  BNZ d   1      -0.417   0.534   0.310  0.00  0.00     0.000 A 
ATOM      6  C6  BNZ d   1       0.205  -0.632  -0.074  0.00  0.00     0.000 A 
ENDROOT
TORSDOF 0
ENDMDL
