MODEL 1
REMARK minimizedAffinity -5.07040405
REMARK minimizedRMSD -1
REMARK  0 active torsions:
REMARK  status: ('A' for Active; 'I' for Inactive)
ROOT
ATOM      1  C1  BNZ d   1      -0.635   0.187   0.625  0.00  0.00     0.000 A 
ATOM      2  C2  BNZ d   1       0.396   0.328  -0.265  0.00  0.00     0.000 A 
ATOM      3  C3  BNZ d   1       1.208   1.426  -0.228  0.00  0.00     0.000 A 
ATOM      4  C4  BNZ d   1       0.965   2.401   0.672  0.00  0.00     0.000 A 
ATOM      5  C5  BNZ d   1      -0.077   2.278   1.570  0.00  0.00     0.000 A 
ATOM      6  C6  BNZ d   1      -0.868   1.153   1.555  0.00  0.00     0.000 A 
ENDROOT
TORSDOF 0
ENDMDL
