MODEL 1
REMARK minimizedAffinity -4.03630066
REMARK minimizedRMSD -1
REMARK  0 active torsions:
REMARK  status: ('A' for Active; 'I' for Inactive)
ROOT
ATOM      1  C1  BNZ d   1      -0.244   0.537   1.274  0.00  0.00     0.000 A 
ATOM      2  C2  BNZ d   1       0.315   1.541   2.020  0.00  0.00     0.000 A 
ATOM      3  C3  BNZ d   1       1.272   2.359   1.487  0.00  0.00     0.000 A 
ATOM      4  C4  BNZ d   1       1.698   2.147   0.225  0.00  0.00     0.000 A 
ATOM      5  C5  BNZ d   1       1.151   1.133  -0.536  0.00  0.00     0.000 A 
ATOM      6  C6  BNZ d   1       0.160   0.336  -0.010  0.00  0.00     0.000 A 
ENDROOT
TORSDOF 0
ENDMDL
