MODEL 1
REMARK minimizedAffinity -4.80708361
REMARK minimizedRMSD -1
REMARK  0 active torsions:
REMARK  status: ('A' for Active; 'I' for Inactive)
ROOT
ATOM      1  C1  BNZ d   1      -0.616  -0.296   0.425  0.00  0.00     0.000 A 
ATOM      2  C2  BNZ d   1      -0.856   0.564   1.464  0.00  0.00     0.000 A 
ATOM      3  C3  BNZ d   1      -0.117   1.703   1.615  0.00  0.00     0.000 A 
ATOM      4  C4  BNZ d   1       0.887   1.962   0.753  0.00  0.00     0.000 A 
ATOM      5  C5  BNZ d   1       1.148   1.101  -0.294  0.00  0.00     0.000 A 
ATOM      6  C6  BNZ d   1       0.376  -0.026  -0.466  0.00  0.00     0.000 A 
ENDROOT
TORSDOF 0
ENDMDL
