MODEL 1
REMARK minimizedAffinity -3.09403324
REMARK minimizedRMSD -1
REMARK  0 active torsions:
REMARK  status: ('A' for Active; 'I' for Inactive)
ROOT
ATOM      1  C1  BNZ d   1      -0.021   1.992   2.041  0.00  0.00     0.000 A 
ATOM      2  C2  BNZ d   1      -0.841   1.179   1.305  0.00  0.00     0.000 A 
ATOM      3  C3  BNZ d   1      -0.325   0.330   0.366  0.00  0.00     0.000 A 
ATOM      4  C4  BNZ d   1       1.004   0.323   0.137  0.00  0.00     0.000 A 
ATOM      5  C5  BNZ d   1       1.843   1.144   0.865  0.00  0.00     0.000 A 
ATOM      6  C6  BNZ d   1       1.324   1.969   1.836  0.00  0.00     0.000 A 
ENDROOT
TORSDOF 0
ENDMDL
