MODEL 1
REMARK minimizedAffinity -4.45648241
REMARK minimizedRMSD -1
REMARK  0 active torsions:
REMARK  status: ('A' for Active; 'I' for Inactive)
ROOT
ATOM      1  C1  BNZ d   1      -0.699  -0.515   0.367  0.00  0.00     0.000 A 
ATOM      2  C2  BNZ d   1      -1.025   0.249   1.455  0.00  0.00     0.000 A 
ATOM      3  C3  BNZ d   1      -0.278   1.344   1.792  0.00  0.00     0.000 A 
ATOM      4  C4  BNZ d   1       0.815   1.649   1.064  0.00  0.00     0.000 A 
ATOM      5  C5  BNZ d   1       1.163   0.883  -0.031  0.00  0.00     0.000 A 
ATOM      6  C6  BNZ d   1       0.387  -0.195  -0.389  0.00  0.00     0.000 A 
ENDROOT
TORSDOF 0
ENDMDL
