MODEL 1
REMARK minimizedAffinity -2.44520259
REMARK minimizedRMSD -1
REMARK  0 active torsions:
REMARK  status: ('A' for Active; 'I' for Inactive)
ROOT
ATOM      1  C1  BNZ d   1      -0.045  -0.463  -0.037  0.00  0.00     0.000 A 
ATOM      2  C2  BNZ d   1      -1.090  -0.206   0.810  0.00  0.00     0.000 A 
ATOM      3  C3  BNZ d   1      -1.064   0.876   1.646  0.00  0.00     0.000 A 
ATOM      4  C4  BNZ d   1       0.021   1.676   1.661  0.00  0.00     0.000 A 
ATOM      5  C5  BNZ d   1       1.086   1.425   0.819  0.00  0.00     0.000 A 
ATOM      6  C6  BNZ d   1       1.040   0.358  -0.048  0.00  0.00     0.000 A 
ENDROOT
TORSDOF 0
ENDMDL
