MODEL 1
REMARK minimizedAffinity 0.231904894
REMARK minimizedRMSD -1
REMARK  0 active torsions:
REMARK  status: ('A' for Active; 'I' for Inactive)
ROOT
ATOM      1  C   UNL d   1      -0.140   2.801   1.962  0.00  0.00     0.077 C 
ATOM      2  C1  UNL d   1       0.345   1.488   1.423  0.00  0.00    -0.074 A 
ATOM      3  C2  UNL d   1       1.604   0.989   1.770  0.00  0.00    -0.005 A 
ATOM      4  C3  UNL d   1       2.038  -0.238   1.268  0.00  0.00     0.006 A 
ATOM      5  C4  UNL d   1       1.218  -0.977   0.414  0.00  0.00    -0.005 A 
ATOM      6  C5  UNL d   1      -0.045  -0.494   0.056  0.00  0.00    -0.074 A 
ATOM      7  C6  UNL d   1      -0.943  -1.280  -0.852  0.00  0.00     0.077 C 
ATOM      8  C7  UNL d   1      -0.476   0.736   0.571  0.00  0.00    -0.001 A 
ENDROOT
TORSDOF 0
ENDMDL
