MODEL 1
REMARK minimizedAffinity -4.88496399
REMARK minimizedRMSD -1
REMARK  0 active torsions:
REMARK  status: ('A' for Active; 'I' for Inactive)
ROOT
ATOM      1  C   UNL d   1      -2.931  -0.838   3.346  0.00  0.00     0.077 C 
ATOM      2  C1  UNL d   1      -1.869  -0.042   2.647  0.00  0.00    -0.074 A 
ATOM      3  C2  UNL d   1      -1.356   1.128   3.216  0.00  0.00    -0.005 A 
ATOM      4  C3  UNL d   1      -0.361   1.852   2.558  0.00  0.00     0.006 A 
ATOM      5  C4  UNL d   1       0.129   1.415   1.327  0.00  0.00    -0.005 A 
ATOM      6  C5  UNL d   1      -0.372   0.247   0.743  0.00  0.00    -0.074 A 
ATOM      7  C6  UNL d   1       0.150  -0.242  -0.575  0.00  0.00     0.077 C 
ATOM      8  C7  UNL d   1      -1.366  -0.479   1.413  0.00  0.00    -0.001 A 
ENDROOT
TORSDOF 0
ENDMDL
