MODEL 1
REMARK minimizedAffinity -2.95093417
REMARK minimizedRMSD -1
REMARK  0 active torsions:
REMARK  status: ('A' for Active; 'I' for Inactive)
ROOT
ATOM      1  C   UNL d   1      -1.079  -0.118  -5.693  0.00  0.00     0.077 C 
ATOM      2  C1  UNL d   1      -0.306  -0.549  -4.482  0.00  0.00    -0.074 A 
ATOM      3  C2  UNL d   1       0.751   0.224  -3.991  0.00  0.00    -0.005 A 
ATOM      4  C3  UNL d   1       1.454  -0.185  -2.858  0.00  0.00     0.006 A 
ATOM      5  C4  UNL d   1       1.108  -1.369  -2.206  0.00  0.00    -0.005 A 
ATOM      6  C5  UNL d   1       0.054  -2.154  -2.681  0.00  0.00    -0.074 A 
ATOM      7  C6  UNL d   1      -0.338  -3.424  -1.986  0.00  0.00     0.077 C 
ATOM      8  C7  UNL d   1      -0.653  -1.733  -3.816  0.00  0.00    -0.001 A 
ENDROOT
TORSDOF 0
ENDMDL
