MODEL 1
REMARK minimizedAffinity -0.711569071
REMARK minimizedRMSD -1
REMARK  0 active torsions:
REMARK  status: ('A' for Active; 'I' for Inactive)
ROOT
ATOM      1  C   UNL d   1      -0.811   2.114   2.990  0.00  0.00     0.077 C 
ATOM      2  C1  UNL d   1      -0.349   1.138   1.949  0.00  0.00    -0.074 A 
ATOM      3  C2  UNL d   1      -1.099   0.916   0.790  0.00  0.00    -0.005 A 
ATOM      4  C3  UNL d   1      -0.652   0.012  -0.174  0.00  0.00     0.006 A 
ATOM      5  C4  UNL d   1       0.547  -0.677   0.011  0.00  0.00    -0.005 A 
ATOM      6  C5  UNL d   1       1.310  -0.467   1.164  0.00  0.00    -0.074 A 
ATOM      7  C6  UNL d   1       2.606  -1.192   1.374  0.00  0.00     0.077 C 
ATOM      8  C7  UNL d   1       0.858   0.448   2.124  0.00  0.00    -0.001 A 
ENDROOT
TORSDOF 0
ENDMDL
