MODEL 1
REMARK minimizedAffinity -1.3416599
REMARK minimizedRMSD -1
REMARK  0 active torsions:
REMARK  status: ('A' for Active; 'I' for Inactive)
ROOT
ATOM      1  C   UNL d   1      -1.338  -2.192  -1.672  0.00  0.00     0.077 C 
ATOM      2  C1  UNL d   1      -1.278  -1.211  -0.539  0.00  0.00    -0.074 A 
ATOM      3  C2  UNL d   1      -2.427  -0.883   0.189  0.00  0.00    -0.005 A 
ATOM      4  C3  UNL d   1      -2.354   0.024   1.246  0.00  0.00     0.006 A 
ATOM      5  C4  UNL d   1      -1.135   0.611   1.585  0.00  0.00    -0.005 A 
ATOM      6  C5  UNL d   1       0.024   0.295   0.869  0.00  0.00    -0.074 A 
ATOM      7  C6  UNL d   1       1.344   0.910   1.227  0.00  0.00     0.077 C 
ATOM      8  C7  UNL d   1      -0.056  -0.622  -0.187  0.00  0.00    -0.001 A 
ENDROOT
TORSDOF 0
ENDMDL
