MODEL 1
REMARK minimizedAffinity -5.27650881
REMARK minimizedRMSD -1
REMARK  0 active torsions:
REMARK  status: ('A' for Active; 'I' for Inactive)
ROOT
ATOM      1  C   UNL d   1      -2.375  -2.974  -1.144  0.00  0.00     0.077 C 
ATOM      2  C1  UNL d   1      -1.437  -1.932  -0.610  0.00  0.00    -0.074 A 
ATOM      3  C2  UNL d   1      -0.094  -1.906  -1.001  0.00  0.00    -0.005 A 
ATOM      4  C3  UNL d   1       0.764  -0.925  -0.504  0.00  0.00     0.006 A 
ATOM      5  C4  UNL d   1       0.289   0.038   0.387  0.00  0.00    -0.005 A 
ATOM      6  C5  UNL d   1      -1.050   0.028   0.789  0.00  0.00    -0.074 A 
ATOM      7  C6  UNL d   1      -1.579   1.061   1.739  0.00  0.00     0.077 C 
ATOM      8  C7  UNL d   1      -1.908  -0.957   0.280  0.00  0.00    -0.001 A 
ENDROOT
TORSDOF 0
ENDMDL
