MODEL 1
REMARK minimizedAffinity -2.56155777
REMARK minimizedRMSD -1
REMARK  0 active torsions:
REMARK  status: ('A' for Active; 'I' for Inactive)
ROOT
ATOM      1  C   UNL d   1      -0.535   2.223   2.289  0.00  0.00     0.077 C 
ATOM      2  C1  UNL d   1       0.340   1.250   1.556  0.00  0.00    -0.074 A 
ATOM      3  C2  UNL d   1       1.490   0.725   2.155  0.00  0.00    -0.005 A 
ATOM      4  C3  UNL d   1       2.289  -0.186   1.465  0.00  0.00     0.006 A 
ATOM      5  C4  UNL d   1       1.947  -0.581   0.171  0.00  0.00    -0.005 A 
ATOM      6  C5  UNL d   1       0.801  -0.068  -0.443  0.00  0.00    -0.074 A 
ATOM      7  C6  UNL d   1       0.414  -0.490  -1.830  0.00  0.00     0.077 C 
ATOM      8  C7  UNL d   1      -0.001   0.842   0.259  0.00  0.00    -0.001 A 
ENDROOT
TORSDOF 0
ENDMDL
