MODEL 1
REMARK minimizedAffinity -2.39346099
REMARK minimizedRMSD -1
REMARK  0 active torsions:
REMARK  status: ('A' for Active; 'I' for Inactive)
ROOT
ATOM      1  C   UNL d   1      -3.066  -1.820  -0.427  0.00  0.00     0.077 C 
ATOM      2  C1  UNL d   1      -1.777  -1.140  -0.073  0.00  0.00    -0.074 A 
ATOM      3  C2  UNL d   1      -0.595  -1.437  -0.759  0.00  0.00    -0.005 A 
ATOM      4  C3  UNL d   1       0.594  -0.789  -0.425  0.00  0.00     0.006 A 
ATOM      5  C4  UNL d   1       0.613   0.161   0.596  0.00  0.00    -0.005 A 
ATOM      6  C5  UNL d   1      -0.559   0.473   1.292  0.00  0.00    -0.074 A 
ATOM      7  C6  UNL d   1      -0.557   1.499   2.386  0.00  0.00     0.077 C 
ATOM      8  C7  UNL d   1      -1.751  -0.178   0.946  0.00  0.00    -0.001 A 
ENDROOT
TORSDOF 0
ENDMDL
