MODEL 1
REMARK minimizedAffinity 5.05439472
REMARK minimizedRMSD -1
REMARK  1 active torsions:
REMARK  status: ('A' for Active; 'I' for Inactive)
REMARK    1  A    between atoms: C1_2  and  C2_3 
ROOT
ATOM      1  C2  UNL d   1       0.900   1.257  -0.226  0.00  0.00    -0.077 A 
ATOM      2  C3  UNL d   1       0.587   2.564  -0.626  0.00  0.00     0.002 A 
ATOM      3  C4  UNL d   1      -0.698   3.074  -0.430  0.00  0.00     0.002 A 
ATOM      4  C5  UNL d   1      -1.678   2.286   0.170  0.00  0.00    -0.004 A 
ATOM      5  C6  UNL d   1      -1.377   0.985   0.570  0.00  0.00     0.002 A 
ATOM      6  C7  UNL d   1      -0.094   0.473   0.373  0.00  0.00     0.002 A 
ENDROOT
BRANCH   1   7
ATOM      7  C1  UNL d   1       2.298   0.723  -0.392  0.00  0.00     0.055 C 
ATOM      8  C   UNL d   1       2.461   0.003  -1.723  0.00  0.00     0.019 C 
ENDBRANCH   1   7
TORSDOF 1
ENDMDL
