MODEL 1
REMARK minimizedAffinity 2.89693737
REMARK minimizedRMSD -1
REMARK  1 active torsions:
REMARK  status: ('A' for Active; 'I' for Inactive)
REMARK    1  A    between atoms: C1_2  and  C2_3 
ROOT
ATOM      1  C2  UNL d   1      -3.732   3.500  -5.695  0.00  0.00    -0.077 A 
ATOM      2  C3  UNL d   1      -3.090   4.710  -5.994  0.00  0.00     0.002 A 
ATOM      3  C4  UNL d   1      -3.700   5.928  -5.687  0.00  0.00     0.002 A 
ATOM      4  C5  UNL d   1      -4.952   5.947  -5.076  0.00  0.00    -0.004 A 
ATOM      5  C6  UNL d   1      -5.599   4.749  -4.776  0.00  0.00     0.002 A 
ATOM      6  C7  UNL d   1      -4.992   3.531  -5.083  0.00  0.00     0.002 A 
ENDROOT
BRANCH   1   7
ATOM      7  C1  UNL d   1      -3.053   2.186  -5.980  0.00  0.00     0.055 C 
ATOM      8  C   UNL d   1      -1.550   2.280  -5.765  0.00  0.00     0.019 C 
ENDBRANCH   1   7
TORSDOF 1
ENDMDL
