MODEL 1
REMARK minimizedAffinity 11.0427418
REMARK minimizedRMSD -1
REMARK  1 active torsions:
REMARK  status: ('A' for Active; 'I' for Inactive)
REMARK    1  A    between atoms: C1_2  and  C2_3 
ROOT
ATOM      1  C2  UNL d   1      -1.324   3.449  -5.234  0.00  0.00    -0.077 A 
ATOM      2  C3  UNL d   1      -1.072   3.651  -3.869  0.00  0.00     0.002 A 
ATOM      3  C4  UNL d   1       0.090   3.146  -3.283  0.00  0.00     0.002 A 
ATOM      4  C5  UNL d   1       1.011   2.440  -4.054  0.00  0.00    -0.004 A 
ATOM      5  C6  UNL d   1       0.770   2.233  -5.412  0.00  0.00     0.002 A 
ATOM      6  C7  UNL d   1      -0.392   2.736  -5.999  0.00  0.00     0.002 A 
ENDROOT
BRANCH   1   7
ATOM      7  C1  UNL d   1      -2.553   4.035  -5.879  0.00  0.00     0.055 C 
ATOM      8  C   UNL d   1      -2.563   5.553  -5.773  0.00  0.00     0.019 C 
ENDBRANCH   1   7
TORSDOF 1
ENDMDL
