MODEL 1
REMARK minimizedAffinity -0.0807372779
REMARK minimizedRMSD -1
REMARK  1 active torsions:
REMARK  status: ('A' for Active; 'I' for Inactive)
REMARK    1  A    between atoms: C1_2  and  C2_3 
ROOT
ATOM      1  C2  UNL d   1      -1.966   3.583  -5.380  0.00  0.00    -0.077 A 
ATOM      2  C3  UNL d   1      -1.667   4.852  -5.895  0.00  0.00     0.002 A 
ATOM      3  C4  UNL d   1      -2.186   6.000  -5.292  0.00  0.00     0.002 A 
ATOM      4  C5  UNL d   1      -3.003   5.890  -4.170  0.00  0.00    -0.004 A 
ATOM      5  C6  UNL d   1      -3.309   4.632  -3.651  0.00  0.00     0.002 A 
ATOM      6  C7  UNL d   1      -2.792   3.484  -4.253  0.00  0.00     0.002 A 
ENDROOT
BRANCH   1   7
ATOM      7  C1  UNL d   1      -1.368   2.347  -5.999  0.00  0.00     0.055 C 
ATOM      8  C   UNL d   1       0.153   2.409  -6.000  0.00  0.00     0.019 C 
ENDBRANCH   1   7
TORSDOF 1
ENDMDL
