MODEL 1
REMARK minimizedAffinity 5.18137455
REMARK minimizedRMSD -1
REMARK  1 active torsions:
REMARK  status: ('A' for Active; 'I' for Inactive)
REMARK    1  A    between atoms: C1_2  and  C2_3 
ROOT
ATOM      1  C2  UNL d   1      -0.120   2.775  -5.870  0.00  0.00    -0.077 A 
ATOM      2  C3  UNL d   1      -0.142   4.177  -5.904  0.00  0.00     0.002 A 
ATOM      3  C4  UNL d   1      -1.357   4.862  -5.969  0.00  0.00     0.002 A 
ATOM      4  C5  UNL d   1      -2.557   4.156  -5.996  0.00  0.00    -0.004 A 
ATOM      5  C6  UNL d   1      -2.546   2.762  -5.965  0.00  0.00     0.002 A 
ATOM      6  C7  UNL d   1      -1.333   2.075  -5.901  0.00  0.00     0.002 A 
ENDROOT
BRANCH   1   7
ATOM      7  C1  UNL d   1       1.187   2.035  -5.751  0.00  0.00     0.055 C 
ATOM      8  C   UNL d   1       1.861   2.314  -4.415  0.00  0.00     0.019 C 
ENDBRANCH   1   7
TORSDOF 1
ENDMDL
