MODEL 1
REMARK minimizedAffinity 8.61198711
REMARK minimizedRMSD -1
REMARK  1 active torsions:
REMARK  status: ('A' for Active; 'I' for Inactive)
REMARK    1  A    between atoms: C1_2  and  C2_3 
ROOT
ATOM      1  C2  UNL d   1       0.930   2.760   2.413  0.00  0.00    -0.077 A 
ATOM      2  C3  UNL d   1       0.899   3.142   3.762  0.00  0.00     0.002 A 
ATOM      3  C4  UNL d   1      -0.314   3.456   4.379  0.00  0.00     0.002 A 
ATOM      4  C5  UNL d   1      -1.503   3.388   3.657  0.00  0.00    -0.004 A 
ATOM      5  C6  UNL d   1      -1.483   3.011   2.315  0.00  0.00     0.002 A 
ATOM      6  C7  UNL d   1      -0.272   2.697   1.696  0.00  0.00     0.002 A 
ENDROOT
BRANCH   1   7
ATOM      7  C1  UNL d   1       2.230   2.372   1.759  0.00  0.00     0.055 C 
ATOM      8  C   UNL d   1       3.400   3.143   2.353  0.00  0.00     0.019 C 
ENDBRANCH   1   7
TORSDOF 1
ENDMDL
