MODEL 1
REMARK minimizedAffinity -0.913518846
REMARK minimizedRMSD -1
REMARK  1 active torsions:
REMARK  status: ('A' for Active; 'I' for Inactive)
REMARK    1  A    between atoms: C1_2  and  C2_3 
ROOT
ATOM      1  C2  UNL d   1      -3.186   3.664  -5.949  0.00  0.00    -0.077 A 
ATOM      2  C3  UNL d   1      -4.539   3.297  -5.953  0.00  0.00     0.002 A 
ATOM      3  C4  UNL d   1      -5.536   4.275  -5.976  0.00  0.00     0.002 A 
ATOM      4  C5  UNL d   1      -5.190   5.624  -6.000  0.00  0.00    -0.004 A 
ATOM      5  C6  UNL d   1      -3.847   5.999  -5.994  0.00  0.00     0.002 A 
ATOM      6  C7  UNL d   1      -2.850   5.024  -5.970  0.00  0.00     0.002 A 
ENDROOT
BRANCH   1   7
ATOM      7  C1  UNL d   1      -2.109   2.611  -5.974  0.00  0.00     0.055 C 
ATOM      8  C   UNL d   1      -0.723   3.237  -6.000  0.00  0.00     0.019 C 
ENDBRANCH   1   7
TORSDOF 1
ENDMDL
