MODEL 1
REMARK minimizedAffinity 6.64268684
REMARK minimizedRMSD -1
REMARK  1 active torsions:
REMARK  status: ('A' for Active; 'I' for Inactive)
REMARK    1  A    between atoms: C1_2  and  C2_3 
ROOT
ATOM      1  C2  UNL d   1      -3.567   4.942  -5.310  0.00  0.00    -0.077 A 
ATOM      2  C3  UNL d   1      -3.555   3.548  -5.449  0.00  0.00     0.002 A 
ATOM      3  C4  UNL d   1      -4.722   2.862  -5.790  0.00  0.00     0.002 A 
ATOM      4  C5  UNL d   1      -5.909   3.562  -5.998  0.00  0.00    -0.004 A 
ATOM      5  C6  UNL d   1      -5.931   4.950  -5.860  0.00  0.00     0.002 A 
ATOM      6  C7  UNL d   1      -4.766   5.637  -5.518  0.00  0.00     0.002 A 
ENDROOT
BRANCH   1   7
ATOM      7  C1  UNL d   1      -2.298   5.689  -4.990  0.00  0.00     0.055 C 
ATOM      8  C   UNL d   1      -2.193   5.990  -3.502  0.00  0.00     0.019 C 
ENDBRANCH   1   7
TORSDOF 1
ENDMDL
