MODEL 1
REMARK minimizedAffinity 1.73222721
REMARK minimizedRMSD -1
REMARK  1 active torsions:
REMARK  status: ('A' for Active; 'I' for Inactive)
REMARK    1  A    between atoms: C1_2  and  C2_3 
ROOT
ATOM      1  C2  UNL d   1      -0.850   3.815  -4.817  0.00  0.00    -0.077 A 
ATOM      2  C3  UNL d   1      -1.878   3.642  -3.878  0.00  0.00     0.002 A 
ATOM      3  C4  UNL d   1      -3.072   4.354  -4.000  0.00  0.00     0.002 A 
ATOM      4  C5  UNL d   1      -3.252   5.241  -5.060  0.00  0.00    -0.004 A 
ATOM      5  C6  UNL d   1      -2.236   5.421  -5.997  0.00  0.00     0.002 A 
ATOM      6  C7  UNL d   1      -1.040   4.711  -5.876  0.00  0.00     0.002 A 
ENDROOT
BRANCH   1   7
ATOM      7  C1  UNL d   1       0.420   3.011  -4.715  0.00  0.00     0.055 C 
ATOM      8  C   UNL d   1       0.693   2.244  -6.000  0.00  0.00     0.019 C 
ENDBRANCH   1   7
TORSDOF 1
ENDMDL
