MODEL 1
REMARK minimizedAffinity -2.43865442
REMARK minimizedRMSD -1
REMARK  1 active torsions:
REMARK  status: ('A' for Active; 'I' for Inactive)
REMARK    1  A    between atoms: C1_2  and  C2_3 
ROOT
ATOM      1  C2  UNL d   1      -3.144   3.704  -5.417  0.00  0.00    -0.077 A 
ATOM      2  C3  UNL d   1      -2.871   5.011  -4.991  0.00  0.00     0.002 A 
ATOM      3  C4  UNL d   1      -3.853   6.000  -5.068  0.00  0.00     0.002 A 
ATOM      4  C5  UNL d   1      -5.117   5.691  -5.568  0.00  0.00    -0.004 A 
ATOM      5  C6  UNL d   1      -5.398   4.394  -5.997  0.00  0.00     0.002 A 
ATOM      6  C7  UNL d   1      -4.417   3.405  -5.921  0.00  0.00     0.002 A 
ENDROOT
BRANCH   1   7
ATOM      7  C1  UNL d   1      -2.101   2.625  -5.288  0.00  0.00     0.055 C 
ATOM      8  C   UNL d   1      -0.807   3.020  -5.985  0.00  0.00     0.019 C 
ENDBRANCH   1   7
TORSDOF 1
ENDMDL
