MODEL 1
REMARK minimizedAffinity 13.0524511
REMARK minimizedRMSD -1
REMARK  1 active torsions:
REMARK  status: ('A' for Active; 'I' for Inactive)
REMARK    1  A    between atoms: C1_2  and  C2_3 
ROOT
ATOM      1  C2  UNL d   1      -1.286   1.315   0.392  0.00  0.00    -0.077 A 
ATOM      2  C3  UNL d   1      -0.490   0.175   0.575  0.00  0.00     0.002 A 
ATOM      3  C4  UNL d   1       0.792   0.113   0.027  0.00  0.00     0.002 A 
ATOM      4  C5  UNL d   1       1.292   1.188  -0.705  0.00  0.00    -0.004 A 
ATOM      5  C6  UNL d   1       0.508   2.326  -0.895  0.00  0.00     0.002 A 
ATOM      6  C7  UNL d   1      -0.775   2.389  -0.348  0.00  0.00     0.002 A 
ENDROOT
BRANCH   1   7
ATOM      7  C1  UNL d   1      -2.650   1.404   1.024  0.00  0.00     0.055 C 
ATOM      8  C   UNL d   1      -2.681   2.451   2.129  0.00  0.00     0.019 C 
ENDBRANCH   1   7
TORSDOF 1
ENDMDL
