MODEL 1
REMARK minimizedAffinity 5.80689526
REMARK minimizedRMSD -1
REMARK  1 active torsions:
REMARK  status: ('A' for Active; 'I' for Inactive)
REMARK    1  A    between atoms: C1_2  and  C2_3 
ROOT
ATOM      1  C2  UNL d   1      -2.903  -4.925  -0.729  0.00  0.00    -0.077 A 
ATOM      2  C3  UNL d   1      -3.095  -3.570  -0.427  0.00  0.00     0.002 A 
ATOM      3  C4  UNL d   1      -2.266  -2.596  -0.988  0.00  0.00     0.002 A 
ATOM      4  C5  UNL d   1      -1.242  -2.968  -1.857  0.00  0.00    -0.004 A 
ATOM      5  C6  UNL d   1      -1.041  -4.313  -2.162  0.00  0.00     0.002 A 
ATOM      6  C7  UNL d   1      -1.868  -5.288  -1.602  0.00  0.00     0.002 A 
ENDROOT
BRANCH   1   7
ATOM      7  C1  UNL d   1      -3.827  -5.972  -0.164  0.00  0.00     0.055 C 
ATOM      8  C   UNL d   1      -5.105  -5.348   0.377  0.00  0.00     0.019 C 
ENDBRANCH   1   7
TORSDOF 1
ENDMDL
