MODEL 1
REMARK minimizedAffinity 3.73338223
REMARK minimizedRMSD -1
REMARK  1 active torsions:
REMARK  status: ('A' for Active; 'I' for Inactive)
REMARK    1  A    between atoms: C1_2  and  C2_3 
ROOT
ATOM      1  C2  UNL d   1       0.716   1.069   0.207  0.00  0.00    -0.077 A 
ATOM      2  C3  UNL d   1       0.110  -0.159   0.507  0.00  0.00     0.002 A 
ATOM      3  C4  UNL d   1      -1.226  -0.207   0.909  0.00  0.00     0.002 A 
ATOM      4  C5  UNL d   1      -1.968   0.968   1.009  0.00  0.00    -0.004 A 
ATOM      5  C6  UNL d   1      -1.374   2.194   0.715  0.00  0.00     0.002 A 
ATOM      6  C7  UNL d   1      -0.038   2.245   0.314  0.00  0.00     0.002 A 
ENDROOT
BRANCH   1   7
ATOM      7  C1  UNL d   1       2.143   1.119  -0.274  0.00  0.00     0.055 C 
ATOM      8  C   UNL d   1       2.401   0.076  -1.352  0.00  0.00     0.019 C 
ENDBRANCH   1   7
TORSDOF 1
ENDMDL
