MODEL 1
REMARK minimizedAffinity 11.339673
REMARK minimizedRMSD -1
REMARK  0 active torsions:
REMARK  status: ('A' for Active; 'I' for Inactive)
ROOT
ATOM      1  C   UNL d   1      -1.962  -2.638  -4.420  0.00  0.00     0.078 C 
ATOM      2  C1  UNL d   1      -1.427  -2.527  -3.023  0.00  0.00    -0.077 A 
ATOM      3  C2  UNL d   1      -2.255  -2.140  -1.962  0.00  0.00    -0.001 A 
ATOM      4  C3  UNL d   1      -1.742  -2.031  -0.669  0.00  0.00     0.003 A 
ATOM      5  C4  UNL d   1      -0.398  -2.306  -0.425  0.00  0.00    -0.005 A 
ATOM      6  C5  UNL d   1       0.435  -2.689  -1.474  0.00  0.00     0.003 A 
ATOM      7  C6  UNL d   1      -0.077  -2.798  -2.768  0.00  0.00    -0.001 A 
ENDROOT
TORSDOF 0
ENDMDL
