MODEL 1
REMARK minimizedAffinity 6.90616465
REMARK minimizedRMSD -1
REMARK  0 active torsions:
REMARK  status: ('A' for Active; 'I' for Inactive)
ROOT
ATOM      1  C   UNL d   1      -4.415  -5.999  -4.888  0.00  0.00     0.078 C 
ATOM      2  C1  UNL d   1      -3.387  -4.907  -4.890  0.00  0.00    -0.077 A 
ATOM      3  C2  UNL d   1      -3.285  -4.010  -3.820  0.00  0.00    -0.001 A 
ATOM      4  C3  UNL d   1      -2.330  -2.993  -3.840  0.00  0.00     0.003 A 
ATOM      5  C4  UNL d   1      -1.471  -2.861  -4.929  0.00  0.00    -0.005 A 
ATOM      6  C5  UNL d   1      -1.566  -3.747  -6.000  0.00  0.00     0.003 A 
ATOM      7  C6  UNL d   1      -2.520  -4.766  -5.981  0.00  0.00    -0.001 A 
ENDROOT
TORSDOF 0
ENDMDL
