MODEL 1
REMARK minimizedAffinity 9.32199955
REMARK minimizedRMSD -1
REMARK  0 active torsions:
REMARK  status: ('A' for Active; 'I' for Inactive)
ROOT
ATOM      1  C   UNL d   1      -1.475  -2.471  -3.648  0.00  0.00     0.078 C 
ATOM      2  C1  UNL d   1      -1.073  -2.635  -2.212  0.00  0.00    -0.077 A 
ATOM      3  C2  UNL d   1      -1.837  -2.075  -1.181  0.00  0.00    -0.001 A 
ATOM      4  C3  UNL d   1      -1.446  -2.227   0.150  0.00  0.00     0.003 A 
ATOM      5  C4  UNL d   1      -0.289  -2.939   0.462  0.00  0.00    -0.005 A 
ATOM      6  C5  UNL d   1       0.478  -3.498  -0.557  0.00  0.00     0.003 A 
ATOM      7  C6  UNL d   1       0.089  -3.346  -1.889  0.00  0.00    -0.001 A 
ENDROOT
TORSDOF 0
ENDMDL
