MODEL 1
REMARK minimizedAffinity 13.999135
REMARK minimizedRMSD -1
REMARK  0 active torsions:
REMARK  status: ('A' for Active; 'I' for Inactive)
ROOT
ATOM      1  C   UNL d   1      -0.594  -1.889  -2.434  0.00  0.00     0.078 C 
ATOM      2  C1  UNL d   1       0.341  -3.042  -2.649  0.00  0.00    -0.077 A 
ATOM      3  C2  UNL d   1       0.020  -4.326  -2.193  0.00  0.00    -0.001 A 
ATOM      4  C3  UNL d   1       0.904  -5.387  -2.391  0.00  0.00     0.003 A 
ATOM      5  C4  UNL d   1       2.117  -5.175  -3.044  0.00  0.00    -0.005 A 
ATOM      6  C5  UNL d   1       2.446  -3.900  -3.499  0.00  0.00     0.003 A 
ATOM      7  C6  UNL d   1       1.563  -2.838  -3.302  0.00  0.00    -0.001 A 
ENDROOT
TORSDOF 0
ENDMDL
