MODEL 1
REMARK minimizedAffinity 8.44466114
REMARK minimizedRMSD -1
REMARK  0 active torsions:
REMARK  status: ('A' for Active; 'I' for Inactive)
ROOT
ATOM      1  C   UNL d   1       5.392   5.631  -1.527  0.00  0.00     0.078 C 
ATOM      2  C1  UNL d   1       3.908   5.671  -1.739  0.00  0.00    -0.077 A 
ATOM      3  C2  UNL d   1       3.022   5.409  -0.687  0.00  0.00    -0.001 A 
ATOM      4  C3  UNL d   1       1.643   5.440  -0.901  0.00  0.00     0.003 A 
ATOM      5  C4  UNL d   1       1.138   5.731  -2.166  0.00  0.00    -0.005 A 
ATOM      6  C5  UNL d   1       2.012   5.990  -3.220  0.00  0.00     0.003 A 
ATOM      7  C6  UNL d   1       3.391   5.960  -3.008  0.00  0.00    -0.001 A 
ENDROOT
TORSDOF 0
ENDMDL
