MODEL 1
REMARK minimizedAffinity -2.66102767
REMARK minimizedRMSD -1
REMARK  0 active torsions:
REMARK  status: ('A' for Active; 'I' for Inactive)
ROOT
ATOM      1  C   UNL d   1       5.952   4.896  -1.686  0.00  0.00     0.078 C 
ATOM      2  C1  UNL d   1       5.961   4.821  -3.183  0.00  0.00    -0.077 A 
ATOM      3  C2  UNL d   1       5.968   3.587  -3.844  0.00  0.00    -0.001 A 
ATOM      4  C3  UNL d   1       5.986   3.532  -5.238  0.00  0.00     0.003 A 
ATOM      5  C4  UNL d   1       6.000   4.709  -5.984  0.00  0.00    -0.005 A 
ATOM      6  C5  UNL d   1       5.995   5.942  -5.336  0.00  0.00     0.003 A 
ATOM      7  C6  UNL d   1       5.977   5.999  -3.942  0.00  0.00    -0.001 A 
ENDROOT
TORSDOF 0
ENDMDL
