MODEL 1
REMARK minimizedAffinity 5.97450495
REMARK minimizedRMSD -1
REMARK  0 active torsions:
REMARK  status: ('A' for Active; 'I' for Inactive)
ROOT
ATOM      1  C   UNL d   1       6.000   2.136  -4.873  0.00  0.00     0.078 C 
ATOM      2  C1  UNL d   1       5.986   3.480  -4.208  0.00  0.00    -0.077 A 
ATOM      3  C2  UNL d   1       5.998   4.659  -4.965  0.00  0.00    -0.001 A 
ATOM      4  C3  UNL d   1       5.995   5.903  -4.333  0.00  0.00     0.003 A 
ATOM      5  C4  UNL d   1       5.981   5.981  -2.942  0.00  0.00    -0.005 A 
ATOM      6  C5  UNL d   1       5.972   4.814  -2.181  0.00  0.00     0.003 A 
ATOM      7  C6  UNL d   1       5.975   3.569  -2.811  0.00  0.00    -0.001 A 
ENDROOT
TORSDOF 0
ENDMDL
