MODEL 1
REMARK minimizedAffinity 6.10057211
REMARK minimizedRMSD -1
REMARK  0 active torsions:
REMARK  status: ('A' for Active; 'I' for Inactive)
ROOT
ATOM      1  C   UNL d   1       3.501  -2.922   3.273  0.00  0.00     0.078 C 
ATOM      2  C1  UNL d   1       4.355  -3.719   4.214  0.00  0.00    -0.077 A 
ATOM      3  C2  UNL d   1       4.309  -5.118   4.222  0.00  0.00    -0.001 A 
ATOM      4  C3  UNL d   1       5.102  -5.846   5.110  0.00  0.00     0.003 A 
ATOM      5  C4  UNL d   1       5.947  -5.184   5.998  0.00  0.00    -0.005 A 
ATOM      6  C5  UNL d   1       5.998  -3.791   6.000  0.00  0.00     0.003 A 
ATOM      7  C6  UNL d   1       5.206  -3.061   5.112  0.00  0.00    -0.001 A 
ENDROOT
TORSDOF 0
ENDMDL
