MODEL 1
REMARK minimizedAffinity 6.24539232
REMARK minimizedRMSD -1
REMARK  0 active torsions:
REMARK  status: ('A' for Active; 'I' for Inactive)
ROOT
ATOM      1  C   UNL d   1       5.932   5.936  -5.984  0.00  0.00     0.078 C 
ATOM      2  C1  UNL d   1       5.963   5.240  -4.656  0.00  0.00    -0.077 A 
ATOM      3  C2  UNL d   1       5.979   3.842  -4.575  0.00  0.00    -0.001 A 
ATOM      4  C3  UNL d   1       5.998   3.207  -3.332  0.00  0.00     0.003 A 
ATOM      5  C4  UNL d   1       5.999   3.962  -2.160  0.00  0.00    -0.005 A 
ATOM      6  C5  UNL d   1       5.980   5.354  -2.231  0.00  0.00     0.003 A 
ATOM      7  C6  UNL d   1       5.962   5.990  -3.473  0.00  0.00    -0.001 A 
ENDROOT
TORSDOF 0
ENDMDL
