MODEL 1
REMARK minimizedAffinity 3.90425205
REMARK minimizedRMSD -1
REMARK  0 active torsions:
REMARK  status: ('A' for Active; 'I' for Inactive)
ROOT
ATOM      1  C   UNL d   1       1.972   5.987  -4.726  0.00  0.00     0.078 C 
ATOM      2  C1  UNL d   1       2.799   5.567  -3.548  0.00  0.00    -0.077 A 
ATOM      3  C2  UNL d   1       4.123   6.000  -3.405  0.00  0.00    -0.001 A 
ATOM      4  C3  UNL d   1       4.884   5.593  -2.308  0.00  0.00     0.003 A 
ATOM      5  C4  UNL d   1       4.331   4.750  -1.346  0.00  0.00    -0.005 A 
ATOM      6  C5  UNL d   1       3.015   4.312  -1.481  0.00  0.00     0.003 A 
ATOM      7  C6  UNL d   1       2.252   4.718  -2.577  0.00  0.00    -0.001 A 
ENDROOT
TORSDOF 0
ENDMDL
