MODEL 1
REMARK minimizedAffinity 11.8295698
REMARK minimizedRMSD -1
REMARK  0 active torsions:
REMARK  status: ('A' for Active; 'I' for Inactive)
ROOT
ATOM      1  C   UNL d   1       5.992  -5.717   5.994  0.00  0.00     0.078 C 
ATOM      2  C1  UNL d   1       5.393  -4.485   5.385  0.00  0.00    -0.077 A 
ATOM      3  C2  UNL d   1       4.657  -4.554   4.195  0.00  0.00    -0.001 A 
ATOM      4  C3  UNL d   1       4.114  -3.397   3.634  0.00  0.00     0.003 A 
ATOM      5  C4  UNL d   1       4.301  -2.164   4.254  0.00  0.00    -0.005 A 
ATOM      6  C5  UNL d   1       5.033  -2.085   5.437  0.00  0.00     0.003 A 
ATOM      7  C6  UNL d   1       5.577  -3.241   6.000  0.00  0.00    -0.001 A 
ENDROOT
TORSDOF 0
ENDMDL
