MODEL 1
REMARK minimizedAffinity 7.54069233
REMARK minimizedRMSD -1
REMARK  0 active torsions:
REMARK  status: ('A' for Active; 'I' for Inactive)
ROOT
ATOM      1  C   UNL d   1       2.915  -3.295   3.332  0.00  0.00     0.078 C 
ATOM      2  C1  UNL d   1       3.899  -3.947   4.256  0.00  0.00    -0.077 A 
ATOM      3  C2  UNL d   1       4.931  -3.208   4.848  0.00  0.00    -0.001 A 
ATOM      4  C3  UNL d   1       5.845  -3.830   5.700  0.00  0.00     0.003 A 
ATOM      5  C4  UNL d   1       5.739  -5.194   5.965  0.00  0.00    -0.005 A 
ATOM      6  C5  UNL d   1       4.717  -5.938   5.379  0.00  0.00     0.003 A 
ATOM      7  C6  UNL d   1       3.801  -5.317   4.528  0.00  0.00    -0.001 A 
ENDROOT
TORSDOF 0
ENDMDL
