MODEL 1
REMARK minimizedAffinity 3.39776731
REMARK minimizedRMSD -1
REMARK  0 active torsions:
REMARK  status: ('A' for Active; 'I' for Inactive)
ROOT
ATOM      1  C   UNL d   1       5.565   5.526  -1.557  0.00  0.00     0.078 C 
ATOM      2  C1  UNL d   1       5.709   4.887  -2.906  0.00  0.00    -0.077 A 
ATOM      3  C2  UNL d   1       5.712   3.494  -3.047  0.00  0.00    -0.001 A 
ATOM      4  C3  UNL d   1       5.857   2.912  -4.307  0.00  0.00     0.003 A 
ATOM      5  C4  UNL d   1       6.000   3.716  -5.436  0.00  0.00    -0.005 A 
ATOM      6  C5  UNL d   1       6.000   5.103  -5.306  0.00  0.00     0.003 A 
ATOM      7  C6  UNL d   1       5.855   5.686  -4.046  0.00  0.00    -0.001 A 
ENDROOT
TORSDOF 0
ENDMDL
