MODEL 1
REMARK minimizedAffinity 14.2733698
REMARK minimizedRMSD -1
REMARK  0 active torsions:
REMARK  status: ('A' for Active; 'I' for Inactive)
ROOT
ATOM      1  C   UNL d   1      -1.218  -1.919  -0.523  0.00  0.00     0.078 C 
ATOM      2  C1  UNL d   1      -1.843  -0.614  -0.130  0.00  0.00    -0.077 A 
ATOM      3  C2  UNL d   1      -3.056  -0.577   0.568  0.00  0.00    -0.001 A 
ATOM      4  C3  UNL d   1      -3.631   0.645   0.919  0.00  0.00     0.003 A 
ATOM      5  C4  UNL d   1      -3.001   1.840   0.575  0.00  0.00    -0.005 A 
ATOM      6  C5  UNL d   1      -1.794   1.813  -0.121  0.00  0.00     0.003 A 
ATOM      7  C6  UNL d   1      -1.218   0.591  -0.473  0.00  0.00    -0.001 A 
ENDROOT
TORSDOF 0
ENDMDL
