MODEL 1
REMARK minimizedAffinity 7.46627712
REMARK minimizedRMSD -1
REMARK  0 active torsions:
REMARK  status: ('A' for Active; 'I' for Inactive)
ROOT
ATOM      1  C   UNL d   1      -1.750  -2.622  -4.053  0.00  0.00     0.078 C 
ATOM      2  C1  UNL d   1      -1.237  -2.693  -2.645  0.00  0.00    -0.077 A 
ATOM      3  C2  UNL d   1      -0.167  -3.530  -2.309  0.00  0.00    -0.001 A 
ATOM      4  C3  UNL d   1       0.294  -3.593  -0.993  0.00  0.00     0.003 A 
ATOM      5  C4  UNL d   1      -0.310  -2.822  -0.003  0.00  0.00    -0.005 A 
ATOM      6  C5  UNL d   1      -1.377  -1.987  -0.327  0.00  0.00     0.003 A 
ATOM      7  C6  UNL d   1      -1.840  -1.923  -1.643  0.00  0.00    -0.001 A 
ENDROOT
TORSDOF 0
ENDMDL
