MODEL 1
REMARK minimizedAffinity 4.48748446
REMARK minimizedRMSD -1
REMARK  0 active torsions:
REMARK  status: ('A' for Active; 'I' for Inactive)
ROOT
ATOM      1  C   UNL d   1      -3.892  -1.539   3.665  0.00  0.00     0.078 C 
ATOM      2  C1  UNL d   1      -2.662  -0.911   3.083  0.00  0.00    -0.077 A 
ATOM      3  C2  UNL d   1      -2.748  -0.011   2.013  0.00  0.00    -0.001 A 
ATOM      4  C3  UNL d   1      -1.594   0.559   1.474  0.00  0.00     0.003 A 
ATOM      5  C4  UNL d   1      -0.344   0.235   1.998  0.00  0.00    -0.005 A 
ATOM      6  C5  UNL d   1      -0.247  -0.661   3.061  0.00  0.00     0.003 A 
ATOM      7  C6  UNL d   1      -1.401  -1.232   3.601  0.00  0.00    -0.001 A 
ENDROOT
TORSDOF 0
ENDMDL
