MODEL 1
REMARK minimizedAffinity -1.99636209
REMARK minimizedRMSD -1
REMARK  0 active torsions:
REMARK  status: ('A' for Active; 'I' for Inactive)
ROOT
ATOM      1  C   UNL d   1       0.498   0.152  -4.477  0.00  0.00     0.078 C 
ATOM      2  C1  UNL d   1       0.886  -0.177  -3.066  0.00  0.00    -0.077 A 
ATOM      3  C2  UNL d   1       2.030   0.382  -2.484  0.00  0.00    -0.001 A 
ATOM      4  C3  UNL d   1       2.384   0.059  -1.173  0.00  0.00     0.003 A 
ATOM      5  C4  UNL d   1       1.600  -0.824  -0.434  0.00  0.00    -0.005 A 
ATOM      6  C5  UNL d   1       0.461  -1.387  -1.005  0.00  0.00     0.003 A 
ATOM      7  C6  UNL d   1       0.105  -1.066  -2.316  0.00  0.00    -0.001 A 
ENDROOT
TORSDOF 0
ENDMDL
