MODEL 1
REMARK minimizedAffinity 0.0372250453
REMARK minimizedRMSD -1
REMARK  0 active torsions:
REMARK  status: ('A' for Active; 'I' for Inactive)
ROOT
ATOM      1  C   UNL d   1      -3.328  -0.380  -0.728  0.00  0.00     0.078 C 
ATOM      2  C1  UNL d   1      -1.977  -0.118  -0.134  0.00  0.00    -0.077 A 
ATOM      3  C2  UNL d   1      -0.820  -0.664  -0.704  0.00  0.00    -0.001 A 
ATOM      4  C3  UNL d   1       0.431  -0.419  -0.136  0.00  0.00     0.003 A 
ATOM      5  C4  UNL d   1       0.537   0.372   1.006  0.00  0.00    -0.005 A 
ATOM      6  C5  UNL d   1      -0.608   0.919   1.582  0.00  0.00     0.003 A 
ATOM      7  C6  UNL d   1      -1.860   0.675   1.015  0.00  0.00    -0.001 A 
ENDROOT
TORSDOF 0
ENDMDL
