MODEL 1
REMARK minimizedAffinity -0.321360022
REMARK minimizedRMSD -1
REMARK  0 active torsions:
REMARK  status: ('A' for Active; 'I' for Inactive)
ROOT
ATOM      1  C   UNL d   1      -0.301  -1.491   4.576  0.00  0.00     0.078 C 
ATOM      2  C1  UNL d   1      -0.621  -0.880   3.244  0.00  0.00    -0.077 A 
ATOM      3  C2  UNL d   1      -1.825  -0.197   3.034  0.00  0.00    -0.001 A 
ATOM      4  C3  UNL d   1      -2.113   0.358   1.787  0.00  0.00     0.003 A 
ATOM      5  C4  UNL d   1      -1.203   0.235   0.739  0.00  0.00    -0.005 A 
ATOM      6  C5  UNL d   1      -0.003  -0.445   0.938  0.00  0.00     0.003 A 
ATOM      7  C6  UNL d   1       0.287  -1.001   2.185  0.00  0.00    -0.001 A 
ENDROOT
TORSDOF 0
ENDMDL
