MODEL 1
REMARK minimizedAffinity -1.62382996
REMARK minimizedRMSD -1
REMARK  0 active torsions:
REMARK  status: ('A' for Active; 'I' for Inactive)
ROOT
ATOM      1  C   UNL d   1      -2.214  -0.392   3.388  0.00  0.00     0.078 C 
ATOM      2  C1  UNL d   1      -1.608  -0.468   2.018  0.00  0.00    -0.077 A 
ATOM      3  C2  UNL d   1      -2.404  -0.693   0.888  0.00  0.00    -0.001 A 
ATOM      4  C3  UNL d   1      -1.824  -0.771  -0.379  0.00  0.00     0.003 A 
ATOM      5  C4  UNL d   1      -0.446  -0.626  -0.529  0.00  0.00    -0.005 A 
ATOM      6  C5  UNL d   1       0.354  -0.404   0.590  0.00  0.00     0.003 A 
ATOM      7  C6  UNL d   1      -0.224  -0.326   1.858  0.00  0.00    -0.001 A 
ENDROOT
TORSDOF 0
ENDMDL
