MODEL 1
REMARK minimizedAffinity 0.688673973
REMARK minimizedRMSD -1
REMARK  0 active torsions:
REMARK  status: ('A' for Active; 'I' for Inactive)
ROOT
ATOM      1  C   UNL d   1       0.230  -1.520   4.123  0.00  0.00     0.078 C 
ATOM      2  C1  UNL d   1      -0.440  -1.102   2.848  0.00  0.00    -0.077 A 
ATOM      3  C2  UNL d   1      -1.792  -0.738   2.830  0.00  0.00    -0.001 A 
ATOM      4  C3  UNL d   1      -2.405  -0.360   1.635  0.00  0.00     0.003 A 
ATOM      5  C4  UNL d   1      -1.675  -0.344   0.448  0.00  0.00    -0.005 A 
ATOM      6  C5  UNL d   1      -0.330  -0.707   0.456  0.00  0.00     0.003 A 
ATOM      7  C6  UNL d   1       0.285  -1.085   1.650  0.00  0.00    -0.001 A 
ENDROOT
TORSDOF 0
ENDMDL
