MODEL 1
REMARK minimizedAffinity -0.558692753
REMARK minimizedRMSD -1
REMARK  0 active torsions:
REMARK  status: ('A' for Active; 'I' for Inactive)
ROOT
ATOM      1  C   UNL d   1       0.005  -0.976   4.273  0.00  0.00     0.078 C 
ATOM      2  C1  UNL d   1      -0.616  -0.638   2.951  0.00  0.00    -0.077 A 
ATOM      3  C2  UNL d   1      -2.007  -0.571   2.803  0.00  0.00    -0.001 A 
ATOM      4  C3  UNL d   1      -2.571  -0.265   1.563  0.00  0.00     0.003 A 
ATOM      5  C4  UNL d   1      -1.752  -0.026   0.462  0.00  0.00    -0.005 A 
ATOM      6  C5  UNL d   1      -0.367  -0.093   0.598  0.00  0.00     0.003 A 
ATOM      7  C6  UNL d   1       0.199  -0.399   1.837  0.00  0.00    -0.001 A 
ENDROOT
TORSDOF 0
ENDMDL
