MODEL 1
REMARK minimizedAffinity 4.17377567
REMARK minimizedRMSD -1
REMARK  1 active torsions:
REMARK  status: ('A' for Active; 'I' for Inactive)
REMARK    1  A    between atoms: C1_2  and  C2_3 
ROOT
ATOM      1  C2  UNL d   1      -2.021  -2.822   0.271  0.00  0.00    -0.076 A 
ATOM      2  C3  UNL d   1      -2.002  -3.928   1.138  0.00  0.00     0.004 A 
ATOM      3  C4  UNL d   1      -1.789  -5.217   0.652  0.00  0.00    -0.003 A 
ATOM      4  C5  UNL d   1      -1.590  -5.420  -0.709  0.00  0.00     0.000 A 
ATOM      5  C6  UNL d   1      -1.588  -4.332  -1.582  0.00  0.00     0.000 A 
ATOM      6  C7  UNL d   1      -1.785  -3.025  -1.106  0.00  0.00    -0.073 A 
ATOM      7  C8  UNL d   1      -1.778  -1.889  -2.092  0.00  0.00     0.078 C 
ENDROOT
BRANCH   1   8
ATOM      8  C1  UNL d   1      -2.283  -1.451   0.851  0.00  0.00     0.053 C 
ATOM      9  C   UNL d   1      -2.507  -1.488   2.355  0.00  0.00     0.018 C 
ENDBRANCH   1   8
TORSDOF 1
ENDMDL
