MODEL 1
REMARK minimizedAffinity 4.09475374
REMARK minimizedRMSD -1
REMARK  1 active torsions:
REMARK  status: ('A' for Active; 'I' for Inactive)
REMARK    1  A    between atoms: C1_2  and  C2_3 
ROOT
ATOM      1  C2  UNL d   1      -4.114  -0.289  -0.616  0.00  0.00    -0.076 A 
ATOM      2  C3  UNL d   1      -4.660   0.313   0.531  0.00  0.00     0.004 A 
ATOM      3  C4  UNL d   1      -3.945   0.356   1.728  0.00  0.00    -0.003 A 
ATOM      4  C5  UNL d   1      -2.673  -0.201   1.796  0.00  0.00     0.000 A 
ATOM      5  C6  UNL d   1      -2.109  -0.787   0.663  0.00  0.00     0.000 A 
ATOM      6  C7  UNL d   1      -2.809  -0.824  -0.555  0.00  0.00    -0.073 A 
ATOM      7  C8  UNL d   1      -2.156  -1.474  -1.744  0.00  0.00     0.078 C 
ENDROOT
BRANCH   1   8
ATOM      8  C1  UNL d   1      -4.946  -0.330  -1.877  0.00  0.00     0.053 C 
ATOM      9  C   UNL d   1      -5.991  -1.435  -1.850  0.00  0.00     0.018 C 
ENDBRANCH   1   8
TORSDOF 1
ENDMDL
