MODEL 1
REMARK minimizedAffinity 6.63377285
REMARK minimizedRMSD -1
REMARK  1 active torsions:
REMARK  status: ('A' for Active; 'I' for Inactive)
REMARK    1  A    between atoms: C1_2  and  C2_3 
ROOT
ATOM      1  C2  UNL d   1      -1.952  -3.234   0.026  0.00  0.00    -0.076 A 
ATOM      2  C3  UNL d   1      -2.273  -3.158   1.393  0.00  0.00     0.004 A 
ATOM      3  C4  UNL d   1      -2.887  -2.025   1.923  0.00  0.00    -0.003 A 
ATOM      4  C5  UNL d   1      -3.191  -0.949   1.096  0.00  0.00     0.000 A 
ATOM      5  C6  UNL d   1      -2.896  -1.015  -0.266  0.00  0.00     0.000 A 
ATOM      6  C7  UNL d   1      -2.292  -2.157  -0.820  0.00  0.00    -0.073 A 
ATOM      7  C8  UNL d   1      -1.992  -2.171  -2.294  0.00  0.00     0.078 C 
ENDROOT
BRANCH   1   8
ATOM      8  C1  UNL d   1      -1.262  -4.478  -0.488  0.00  0.00     0.053 C 
ATOM      9  C   UNL d   1      -2.023  -5.750  -0.146  0.00  0.00     0.018 C 
ENDBRANCH   1   8
TORSDOF 1
ENDMDL
