MODEL 1
REMARK minimizedAffinity 13.8773575
REMARK minimizedRMSD -1
REMARK  1 active torsions:
REMARK  status: ('A' for Active; 'I' for Inactive)
REMARK    1  A    between atoms: C1_2  and  C2_3 
ROOT
ATOM      1  C2  UNL d   1      -1.864  -2.403   0.384  0.00  0.00    -0.076 A 
ATOM      2  C3  UNL d   1      -1.789  -3.534   1.216  0.00  0.00     0.004 A 
ATOM      3  C4  UNL d   1      -1.521  -4.796   0.689  0.00  0.00    -0.003 A 
ATOM      4  C5  UNL d   1      -1.322  -4.948  -0.679  0.00  0.00     0.000 A 
ATOM      5  C6  UNL d   1      -1.375  -3.834  -1.516  0.00  0.00     0.000 A 
ATOM      6  C7  UNL d   1      -1.628  -2.552  -0.999  0.00  0.00    -0.073 A 
ATOM      7  C8  UNL d   1      -1.680  -1.387  -1.949  0.00  0.00     0.078 C 
ENDROOT
BRANCH   1   8
ATOM      8  C1  UNL d   1      -2.185  -1.064   1.009  0.00  0.00     0.053 C 
ATOM      9  C   UNL d   1      -3.620  -0.631   0.753  0.00  0.00     0.018 C 
ENDBRANCH   1   8
TORSDOF 1
ENDMDL
