MODEL 1
REMARK minimizedAffinity 11.9599419
REMARK minimizedRMSD -1
REMARK  1 active torsions:
REMARK  status: ('A' for Active; 'I' for Inactive)
REMARK    1  A    between atoms: C1_2  and  C2_3 
ROOT
ATOM      1  C2  UNL d   1       5.035   1.456  -0.110  0.00  0.00    -0.076 A 
ATOM      2  C3  UNL d   1       6.000   1.761   0.865  0.00  0.00     0.004 A 
ATOM      3  C4  UNL d   1       5.888   1.268   2.164  0.00  0.00    -0.003 A 
ATOM      4  C5  UNL d   1       4.809   0.461   2.508  0.00  0.00     0.000 A 
ATOM      5  C6  UNL d   1       3.852   0.134   1.548  0.00  0.00     0.000 A 
ATOM      6  C7  UNL d   1       3.959   0.609   0.230  0.00  0.00    -0.073 A 
ATOM      7  C8  UNL d   1       2.895   0.229  -0.763  0.00  0.00     0.078 C 
ENDROOT
BRANCH   1   8
ATOM      8  C1  UNL d   1       5.195   2.042  -1.495  0.00  0.00     0.053 C 
ATOM      9  C   UNL d   1       5.756   3.455  -1.469  0.00  0.00     0.018 C 
ENDBRANCH   1   8
TORSDOF 1
ENDMDL
