MODEL 1
REMARK minimizedAffinity 15.3864412
REMARK minimizedRMSD -1
REMARK  1 active torsions:
REMARK  status: ('A' for Active; 'I' for Inactive)
REMARK    1  A    between atoms: C1_2  and  C2_3 
ROOT
ATOM      1  C2  UNL d   1      -3.711  -0.353  -1.194  0.00  0.00    -0.076 A 
ATOM      2  C3  UNL d   1      -4.710  -0.884  -2.028  0.00  0.00     0.004 A 
ATOM      3  C4  UNL d   1      -5.845  -1.489  -1.491  0.00  0.00    -0.003 A 
ATOM      4  C5  UNL d   1      -6.000  -1.572  -0.112  0.00  0.00     0.000 A 
ATOM      5  C6  UNL d   1      -5.027  -1.035   0.730  0.00  0.00     0.000 A 
ATOM      6  C7  UNL d   1      -3.884  -0.407   0.205  0.00  0.00    -0.073 A 
ATOM      7  C8  UNL d   1      -2.864   0.150   1.160  0.00  0.00     0.078 C 
ENDROOT
BRANCH   1   8
ATOM      8  C1  UNL d   1      -2.489   0.268  -1.833  0.00  0.00     0.053 C 
ATOM      9  C   UNL d   1      -1.311  -0.693  -1.891  0.00  0.00     0.018 C 
ENDBRANCH   1   8
TORSDOF 1
ENDMDL
