MODEL 1
REMARK minimizedAffinity 8.96734428
REMARK minimizedRMSD -1
REMARK  1 active torsions:
REMARK  status: ('A' for Active; 'I' for Inactive)
REMARK    1  A    between atoms: C1_2  and  C2_3 
ROOT
ATOM      1  C2  UNL d   1       0.366  -1.563   5.461  0.00  0.00    -0.076 A 
ATOM      2  C3  UNL d   1       1.653  -1.732   6.000  0.00  0.00     0.004 A 
ATOM      3  C4  UNL d   1       2.274  -2.980   5.996  0.00  0.00    -0.003 A 
ATOM      4  C5  UNL d   1       1.619  -4.079   5.453  0.00  0.00     0.000 A 
ATOM      5  C6  UNL d   1       0.348  -3.926   4.899  0.00  0.00     0.000 A 
ATOM      6  C7  UNL d   1      -0.285  -2.672   4.879  0.00  0.00    -0.073 A 
ATOM      7  C8  UNL d   1      -1.658  -2.566   4.273  0.00  0.00     0.078 C 
ENDROOT
BRANCH   1   8
ATOM      8  C1  UNL d   1      -0.269  -0.192   5.517  0.00  0.00     0.053 C 
ATOM      9  C   UNL d   1       0.699   0.878   5.998  0.00  0.00     0.018 C 
ENDBRANCH   1   8
TORSDOF 1
ENDMDL
