MODEL 1
REMARK minimizedAffinity 15.6235733
REMARK minimizedRMSD -1
REMARK  1 active torsions:
REMARK  status: ('A' for Active; 'I' for Inactive)
REMARK    1  A    between atoms: C1_2  and  C2_3 
ROOT
ATOM      1  C2  UNL d   1       4.979   1.260  -0.255  0.00  0.00    -0.076 A 
ATOM      2  C3  UNL d   1       5.998   1.536   0.674  0.00  0.00     0.004 A 
ATOM      3  C4  UNL d   1       5.913   1.081   1.988  0.00  0.00    -0.003 A 
ATOM      4  C5  UNL d   1       4.807   0.342   2.396  0.00  0.00     0.000 A 
ATOM      5  C6  UNL d   1       3.796   0.045   1.483  0.00  0.00     0.000 A 
ATOM      6  C7  UNL d   1       3.874   0.482   0.150  0.00  0.00    -0.073 A 
ATOM      7  C8  UNL d   1       2.751   0.137  -0.790  0.00  0.00     0.078 C 
ENDROOT
BRANCH   1   8
ATOM      8  C1  UNL d   1       5.114   1.803  -1.660  0.00  0.00     0.053 C 
ATOM      9  C   UNL d   1       5.954   3.069  -1.718  0.00  0.00     0.018 C 
ENDBRANCH   1   8
TORSDOF 1
ENDMDL
