MODEL 1
REMARK minimizedAffinity -1.28919446
REMARK minimizedRMSD -1
REMARK  0 active torsions:
REMARK  status: ('A' for Active; 'I' for Inactive)
ROOT
ATOM      1  C   UNL d   1      -2.656   1.735   0.778  0.00  0.00     0.020 A 
ATOM      2  C1  UNL d   1      -2.437   1.176  -0.480  0.00  0.00     0.020 A 
ATOM      3  C2  UNL d   1      -1.161   0.733  -0.835  0.00  0.00     0.034 A 
ATOM      4  C3  UNL d   1      -0.099   0.848   0.070  0.00  0.00     0.017 A 
ATOM      5  C4  UNL d   1      -0.320   1.409   1.333  0.00  0.00     0.017 A 
ATOM      6  C5  UNL d   1      -1.599   1.851   1.682  0.00  0.00     0.034 A 
ATOM      7 Cl   UNL d   1       0.941   1.585   2.502  0.00  0.00    -0.070 Cl
ATOM      8 Cl1  UNL d   1       1.452   0.279  -0.436  0.00  0.00    -0.070 Cl
ENDROOT
TORSDOF 0
ENDMDL
