MODEL 1
REMARK minimizedAffinity 4.68525839
REMARK minimizedRMSD -1
REMARK  0 active torsions:
REMARK  status: ('A' for Active; 'I' for Inactive)
ROOT
ATOM      1  C   UNL d   1       0.045  -0.096   2.183  0.00  0.00     0.020 A 
ATOM      2  C1  UNL d   1       1.072  -1.003   1.924  0.00  0.00     0.020 A 
ATOM      3  C2  UNL d   1       1.608  -1.102   0.638  0.00  0.00     0.034 A 
ATOM      4  C3  UNL d   1       1.117  -0.293  -0.393  0.00  0.00     0.017 A 
ATOM      5  C4  UNL d   1       0.087   0.618  -0.132  0.00  0.00     0.017 A 
ATOM      6  C5  UNL d   1      -0.446   0.713   1.158  0.00  0.00     0.034 A 
ATOM      7 Cl   UNL d   1      -0.570   1.650  -1.352  0.00  0.00    -0.070 Cl
ATOM      8 Cl1  UNL d   1       1.827  -0.468  -1.958  0.00  0.00    -0.070 Cl
ENDROOT
TORSDOF 0
ENDMDL
