MODEL 1
REMARK minimizedAffinity -1.23199296
REMARK minimizedRMSD -1
REMARK  0 active torsions:
REMARK  status: ('A' for Active; 'I' for Inactive)
ROOT
ATOM      1  C   UNL d   1       0.794  -0.805  -1.049  0.00  0.00     0.020 A 
ATOM      2  C1  UNL d   1      -0.038   0.310  -1.137  0.00  0.00     0.020 A 
ATOM      3  C2  UNL d   1      -0.273   1.097  -0.008  0.00  0.00     0.034 A 
ATOM      4  C3  UNL d   1       0.326   0.771   1.215  0.00  0.00     0.017 A 
ATOM      5  C4  UNL d   1       1.162  -0.348   1.302  0.00  0.00     0.017 A 
ATOM      6  C5  UNL d   1       1.393  -1.133   0.168  0.00  0.00     0.034 A 
ATOM      7 Cl   UNL d   1       1.937  -0.814   2.775  0.00  0.00    -0.070 Cl
ATOM      8 Cl1  UNL d   1      -0.008   1.789   2.570  0.00  0.00    -0.070 Cl
ENDROOT
TORSDOF 0
ENDMDL
