MODEL 1
REMARK minimizedAffinity 9.29036713
REMARK minimizedRMSD -1
REMARK  0 active torsions:
REMARK  status: ('A' for Active; 'I' for Inactive)
ROOT
ATOM      1  C   UNL d   1      -5.999   4.058  -5.978  0.00  0.00     0.020 A 
ATOM      2  C1  UNL d   1      -5.995   5.442  -5.803  0.00  0.00     0.020 A 
ATOM      3  C2  UNL d   1      -5.407   6.000  -4.666  0.00  0.00     0.034 A 
ATOM      4  C3  UNL d   1      -4.822   5.175  -3.699  0.00  0.00     0.017 A 
ATOM      5  C4  UNL d   1      -4.826   3.786  -3.875  0.00  0.00     0.017 A 
ATOM      6  C5  UNL d   1      -5.416   3.233  -5.016  0.00  0.00     0.034 A 
ATOM      7 Cl   UNL d   1      -4.124   2.703  -2.726  0.00  0.00    -0.070 Cl
ATOM      8 Cl1  UNL d   1      -4.113   5.933  -2.318  0.00  0.00    -0.070 Cl
ENDROOT
TORSDOF 0
ENDMDL
