MODEL 1
REMARK minimizedAffinity 7.38010597
REMARK minimizedRMSD -1
REMARK  0 active torsions:
REMARK  status: ('A' for Active; 'I' for Inactive)
ROOT
ATOM      1  C   UNL d   1      -0.826   4.598  -0.583  0.00  0.00     0.020 A 
ATOM      2  C1  UNL d   1      -0.614   3.884  -1.762  0.00  0.00     0.020 A 
ATOM      3  C2  UNL d   1      -0.231   2.542  -1.706  0.00  0.00     0.034 A 
ATOM      4  C3  UNL d   1      -0.058   1.910  -0.470  0.00  0.00     0.017 A 
ATOM      5  C4  UNL d   1      -0.271   2.627   0.713  0.00  0.00     0.017 A 
ATOM      6  C5  UNL d   1      -0.655   3.971   0.652  0.00  0.00     0.034 A 
ATOM      7 Cl   UNL d   1      -0.078   1.916   2.276  0.00  0.00    -0.070 Cl
ATOM      8 Cl1  UNL d   1       0.417   0.249  -0.476  0.00  0.00    -0.070 Cl
ENDROOT
TORSDOF 0
ENDMDL
