MODEL 1
REMARK minimizedAffinity -3.53254199
REMARK minimizedRMSD -1
REMARK  0 active torsions:
REMARK  status: ('A' for Active; 'I' for Inactive)
ROOT
ATOM      1  C   UNL d   1      -0.011   3.850   0.548  0.00  0.00     0.020 A 
ATOM      2  C1  UNL d   1      -0.220   3.050   1.671  0.00  0.00     0.020 A 
ATOM      3  C2  UNL d   1      -0.236   1.659   1.544  0.00  0.00     0.034 A 
ATOM      4  C3  UNL d   1      -0.043   1.064   0.292  0.00  0.00     0.017 A 
ATOM      5  C4  UNL d   1       0.166   1.868  -0.834  0.00  0.00     0.017 A 
ATOM      6  C5  UNL d   1       0.181   3.260  -0.702  0.00  0.00     0.034 A 
ATOM      7 Cl   UNL d   1       0.412   1.207  -2.412  0.00  0.00    -0.070 Cl
ATOM      8 Cl1  UNL d   1      -0.075  -0.661   0.209  0.00  0.00    -0.070 Cl
ENDROOT
TORSDOF 0
ENDMDL
