MODEL 1
REMARK minimizedAffinity 4.8059659
REMARK minimizedRMSD -1
REMARK  0 active torsions:
REMARK  status: ('A' for Active; 'I' for Inactive)
ROOT
ATOM      1  C1  BNZ d   1       0.168  -0.012   2.747  0.00  0.00     0.000 A 
ATOM      2  C2  BNZ d   1      -0.384   0.833   3.672  0.00  0.00     0.000 A 
ATOM      3  C3  BNZ d   1       0.341   1.261   4.749  0.00  0.00     0.000 A 
ATOM      4  C4  BNZ d   1       1.601   0.812   4.922  0.00  0.00     0.000 A 
ATOM      5  C5  BNZ d   1       2.168  -0.049   4.003  0.00  0.00     0.000 A 
ATOM      6  C6  BNZ d   1       1.449  -0.446   2.899  0.00  0.00     0.000 A 
ENDROOT
TORSDOF 0
ENDMDL
