MODEL 1
REMARK minimizedAffinity 10.8321419
REMARK minimizedRMSD -1
REMARK  0 active torsions:
REMARK  status: ('A' for Active; 'I' for Inactive)
ROOT
ATOM      1  C1  BNZ d   1      -0.410   0.370   2.243  0.00  0.00     0.000 A 
ATOM      2  C2  BNZ d   1       0.661  -0.476   2.362  0.00  0.00     0.000 A 
ATOM      3  C3  BNZ d   1       1.375  -0.542   3.525  0.00  0.00     0.000 A 
ATOM      4  C4  BNZ d   1       1.043   0.266   4.553  0.00  0.00     0.000 A 
ATOM      5  C5  BNZ d   1      -0.028   1.130   4.446  0.00  0.00     0.000 A 
ATOM      6  C6  BNZ d   1      -0.769   1.166   3.287  0.00  0.00     0.000 A 
ENDROOT
TORSDOF 0
ENDMDL
