MODEL 1
REMARK minimizedAffinity 3.43915987
REMARK minimizedRMSD -1
REMARK  0 active torsions:
REMARK  status: ('A' for Active; 'I' for Inactive)
ROOT
ATOM      1  C1  BNZ d   1       1.391  -0.506   3.562  0.00  0.00     0.000 A 
ATOM      2  C2  BNZ d   1       1.732   0.532   4.389  0.00  0.00     0.000 A 
ATOM      3  C3  BNZ d   1       0.828   1.511   4.693  0.00  0.00     0.000 A 
ATOM      4  C4  BNZ d   1      -0.401   1.472   4.139  0.00  0.00     0.000 A 
ATOM      5  C5  BNZ d   1      -0.757   0.438   3.297  0.00  0.00     0.000 A 
ATOM      6  C6  BNZ d   1       0.143  -0.566   3.024  0.00  0.00     0.000 A 
ENDROOT
TORSDOF 0
ENDMDL
