MODEL 1
REMARK minimizedAffinity 10.7865782
REMARK minimizedRMSD -1
REMARK  0 active torsions:
REMARK  status: ('A' for Active; 'I' for Inactive)
ROOT
ATOM      1  C1  BNZ d   1       1.201   0.116   1.802  0.00  0.00     0.000 A 
ATOM      2  C2  BNZ d   1       1.953  -0.396   2.825  0.00  0.00     0.000 A 
ATOM      3  C3  BNZ d   1       1.358  -0.993   3.901  0.00  0.00     0.000 A 
ATOM      4  C4  BNZ d   1       0.012  -1.041   3.972  0.00  0.00     0.000 A 
ATOM      5  C5  BNZ d   1      -0.761  -0.520   2.953  0.00  0.00     0.000 A 
ATOM      6  C6  BNZ d   1      -0.157   0.045   1.853  0.00  0.00     0.000 A 
ENDROOT
TORSDOF 0
ENDMDL
