MODEL 1
REMARK minimizedAffinity 10.1218004
REMARK minimizedRMSD -1
REMARK  0 active torsions:
REMARK  status: ('A' for Active; 'I' for Inactive)
ROOT
ATOM      1  C1  BNZ d   1      -0.376  -5.965  -5.593  0.00  0.00     0.000 A 
ATOM      2  C2  BNZ d   1      -1.745  -5.998  -5.589  0.00  0.00     0.000 A 
ATOM      3  C3  BNZ d   1      -2.474  -4.863  -5.812  0.00  0.00     0.000 A 
ATOM      4  C4  BNZ d   1      -1.834  -3.691  -5.998  0.00  0.00     0.000 A 
ATOM      5  C5  BNZ d   1      -0.454  -3.639  -5.996  0.00  0.00     0.000 A 
ATOM      6  C6  BNZ d   1       0.276  -4.790  -5.810  0.00  0.00     0.000 A 
ENDROOT
TORSDOF 0
ENDMDL
