MODEL 1
REMARK minimizedAffinity -0.270570666
REMARK minimizedRMSD -1
REMARK  0 active torsions:
REMARK  status: ('A' for Active; 'I' for Inactive)
ROOT
ATOM      1  C1  BNZ d   1      -0.139  -0.829   2.444  0.00  0.00     0.000 A 
ATOM      2  C2  BNZ d   1      -0.114  -2.173   2.706  0.00  0.00     0.000 A 
ATOM      3  C3  BNZ d   1       0.612  -2.669   3.752  0.00  0.00     0.000 A 
ATOM      4  C4  BNZ d   1       1.345  -1.826   4.509  0.00  0.00     0.000 A 
ATOM      5  C5  BNZ d   1       1.338  -0.470   4.252  0.00  0.00     0.000 A 
ATOM      6  C6  BNZ d   1       0.575   0.030   3.223  0.00  0.00     0.000 A 
ENDROOT
TORSDOF 0
ENDMDL
