MODEL 1
REMARK minimizedAffinity 10.4064331
REMARK minimizedRMSD -1
REMARK  0 active torsions:
REMARK  status: ('A' for Active; 'I' for Inactive)
ROOT
ATOM      1  C1  BNZ d   1       2.117  -2.370  -4.618  0.00  0.00     0.000 A 
ATOM      2  C2  BNZ d   1       2.010  -1.112  -4.088  0.00  0.00     0.000 A 
ATOM      3  C3  BNZ d   1       0.859  -0.388  -4.229  0.00  0.00     0.000 A 
ATOM      4  C4  BNZ d   1      -0.168  -0.906  -4.933  0.00  0.00     0.000 A 
ATOM      5  C5  BNZ d   1      -0.072  -2.169  -5.482  0.00  0.00     0.000 A 
ATOM      6  C6  BNZ d   1       1.074  -2.910  -5.305  0.00  0.00     0.000 A 
ENDROOT
TORSDOF 0
ENDMDL
