MODEL 1
REMARK minimizedAffinity -0.0494663417
REMARK minimizedRMSD -1
REMARK  0 active torsions:
REMARK  status: ('A' for Active; 'I' for Inactive)
ROOT
ATOM      1  C2' OXE d   1       2.520  -1.004   0.757  0.00  0.00     0.078 C 
ATOM      2  C1' OXE d   1       2.157   1.460  -0.538  0.00  0.00     0.078 C 
ATOM      3  C1  OXE d   1       1.007   0.915   0.272  0.00  0.00    -0.078 A 
ATOM      4  C2  OXE d   1       1.177  -0.314   0.864  0.00  0.00    -0.078 A 
ATOM      5  C3  OXE d   1       0.169  -0.837   1.668  0.00  0.00     0.003 A 
ATOM      6  C4  OXE d   1      -1.073  -0.197   1.754  0.00  0.00    -0.002 A 
ATOM      7  C5  OXE d   1      -1.282   1.036   1.126  0.00  0.00    -0.002 A 
ATOM      8  C6  OXE d   1      -0.239   1.625   0.418  0.00  0.00     0.003 A 
ENDROOT
TORSDOF 0
ENDMDL
