MODEL 1
REMARK minimizedAffinity -0.164086223
REMARK minimizedRMSD -1
REMARK  0 active torsions:
REMARK  status: ('A' for Active; 'I' for Inactive)
ROOT
ATOM      1  C2' OXE d   1      -2.610   2.288   2.323  0.00  0.00     0.078 C 
ATOM      2  C1' OXE d   1      -2.741  -0.501   2.038  0.00  0.00     0.078 C 
ATOM      3  C1  OXE d   1      -1.448   0.183   1.670  0.00  0.00    -0.078 A 
ATOM      4  C2  OXE d   1      -1.408   1.553   1.768  0.00  0.00    -0.078 A 
ATOM      5  C3  OXE d   1      -0.223   2.230   1.493  0.00  0.00     0.003 A 
ATOM      6  C4  OXE d   1       0.880   1.544   0.971  0.00  0.00    -0.002 A 
ATOM      7  C5  OXE d   1       0.847   0.153   0.825  0.00  0.00    -0.002 A 
ATOM      8  C6  OXE d   1      -0.292  -0.545   1.210  0.00  0.00     0.003 A 
ENDROOT
TORSDOF 0
ENDMDL
