MODEL 1
REMARK minimizedAffinity -1.78023505
REMARK minimizedRMSD -1
REMARK  0 active torsions:
REMARK  status: ('A' for Active; 'I' for Inactive)
ROOT
ATOM      1  C2' OXE d   1       0.938   1.015   0.663  0.00  0.00     0.078 C 
ATOM      2  C1' OXE d   1      -0.423  -1.408   1.062  0.00  0.00     0.078 C 
ATOM      3  C1  OXE d   1      -1.150  -0.130   1.396  0.00  0.00    -0.078 A 
ATOM      4  C2  OXE d   1      -0.461   1.049   1.242  0.00  0.00    -0.078 A 
ATOM      5  C3  OXE d   1      -1.103   2.260   1.483  0.00  0.00     0.003 A 
ATOM      6  C4  OXE d   1      -2.393   2.282   2.027  0.00  0.00    -0.002 A 
ATOM      7  C5  OXE d   1      -3.099   1.091   2.229  0.00  0.00    -0.002 A 
ATOM      8  C6  OXE d   1      -2.509  -0.118   1.879  0.00  0.00     0.003 A 
ENDROOT
TORSDOF 0
ENDMDL
