MODEL 1
REMARK minimizedAffinity -4.08604622
REMARK minimizedRMSD -1
REMARK  0 active torsions:
REMARK  status: ('A' for Active; 'I' for Inactive)
ROOT
ATOM      1  C2' OXE d   1       1.142   2.960   1.804  0.00  0.00     0.078 C 
ATOM      2  C1' OXE d   1       1.822   0.618   3.193  0.00  0.00     0.078 C 
ATOM      3  C1  OXE d   1       0.654   0.556   2.241  0.00  0.00    -0.078 A 
ATOM      4  C2  OXE d   1       0.299   1.719   1.601  0.00  0.00    -0.078 A 
ATOM      5  C3  OXE d   1      -0.737   1.705   0.671  0.00  0.00     0.003 A 
ATOM      6  C4  OXE d   1      -1.517   0.556   0.496  0.00  0.00    -0.002 A 
ATOM      7  C5  OXE d   1      -1.197  -0.628   1.168  0.00  0.00    -0.002 A 
ATOM      8  C6  OXE d   1      -0.091  -0.656   2.010  0.00  0.00     0.003 A 
ENDROOT
TORSDOF 0
ENDMDL
