MODEL 1
REMARK minimizedAffinity -1.93872666
REMARK minimizedRMSD -1
REMARK  0 active torsions:
REMARK  status: ('A' for Active; 'I' for Inactive)
ROOT
ATOM      1  C2' OXE d   1       0.903  -0.220   1.125  0.00  0.00     0.078 C 
ATOM      2  C1' OXE d   1       1.257   2.560   1.300  0.00  0.00     0.078 C 
ATOM      3  C1  OXE d   1      -0.128   2.011   1.535  0.00  0.00    -0.078 A 
ATOM      4  C2  OXE d   1      -0.301   0.654   1.401  0.00  0.00    -0.078 A 
ATOM      5  C3  OXE d   1      -1.547   0.090   1.661  0.00  0.00     0.003 A 
ATOM      6  C4  OXE d   1      -2.658   0.906   1.907  0.00  0.00    -0.002 A 
ATOM      7  C5  OXE d   1      -2.511   2.294   2.008  0.00  0.00    -0.002 A 
ATOM      8  C6  OXE d   1      -1.247   2.857   1.867  0.00  0.00     0.003 A 
ENDROOT
TORSDOF 0
ENDMDL
