MODEL 1
REMARK minimizedAffinity -0.495809942
REMARK minimizedRMSD -1
REMARK  0 active torsions:
REMARK  status: ('A' for Active; 'I' for Inactive)
ROOT
ATOM      1  C2' OXE d   1      -2.995   2.422   2.627  0.00  0.00     0.078 C 
ATOM      2  C1' OXE d   1      -2.925  -0.366   2.953  0.00  0.00     0.078 C 
ATOM      3  C1  OXE d   1      -1.733   0.298   2.310  0.00  0.00    -0.078 A 
ATOM      4  C2  OXE d   1      -1.796   1.656   2.111  0.00  0.00    -0.078 A 
ATOM      5  C3  OXE d   1      -0.701   2.325   1.572  0.00  0.00     0.003 A 
ATOM      6  C4  OXE d   1       0.400   1.608   1.088  0.00  0.00    -0.002 A 
ATOM      7  C5  OXE d   1       0.467   0.220   1.244  0.00  0.00    -0.002 A 
ATOM      8  C6  OXE d   1      -0.570  -0.445   1.890  0.00  0.00     0.003 A 
ENDROOT
TORSDOF 0
ENDMDL
