MODEL 1
REMARK minimizedAffinity 4.51934052
REMARK minimizedRMSD -1
REMARK  0 active torsions:
REMARK  status: ('A' for Active; 'I' for Inactive)
ROOT
ATOM      1  C2' OXE d   1       1.533  -0.012   0.037  0.00  0.00     0.078 C 
ATOM      2  C1' OXE d   1       0.291  -1.781   1.828  0.00  0.00     0.078 C 
ATOM      3  C1  OXE d   1      -0.352  -0.435   1.610  0.00  0.00    -0.078 A 
ATOM      4  C2  OXE d   1       0.288   0.442   0.767  0.00  0.00    -0.078 A 
ATOM      5  C3  OXE d   1      -0.291   1.677   0.488  0.00  0.00     0.003 A 
ATOM      6  C4  OXE d   1      -1.437   2.094   1.175  0.00  0.00    -0.002 A 
ATOM      7  C5  OXE d   1      -2.083   1.231   2.068  0.00  0.00    -0.002 A 
ATOM      8  C6  OXE d   1      -1.578  -0.049   2.263  0.00  0.00     0.003 A 
ENDROOT
TORSDOF 0
ENDMDL
