MODEL 1
REMARK minimizedAffinity 0.600064158
REMARK minimizedRMSD -1
REMARK  0 active torsions:
REMARK  status: ('A' for Active; 'I' for Inactive)
ROOT
ATOM      1  C2' OXE d   1      -0.183  -2.299   1.932  0.00  0.00     0.078 C 
ATOM      2  C1' OXE d   1      -2.567  -1.178   0.960  0.00  0.00     0.078 C 
ATOM      3  C1  OXE d   1      -1.337  -0.304   0.986  0.00  0.00    -0.078 A 
ATOM      4  C2  OXE d   1      -0.187  -0.846   1.507  0.00  0.00    -0.078 A 
ATOM      5  C3  OXE d   1       0.989  -0.102   1.504  0.00  0.00     0.003 A 
ATOM      6  C4  OXE d   1       0.974   1.244   1.118  0.00  0.00    -0.002 A 
ATOM      7  C5  OXE d   1      -0.196   1.828   0.622  0.00  0.00    -0.002 A 
ATOM      8  C6  OXE d   1      -1.348   1.057   0.510  0.00  0.00     0.003 A 
ENDROOT
TORSDOF 0
ENDMDL
