MODEL 1
REMARK minimizedAffinity 3.29483318
REMARK minimizedRMSD -1
REMARK  0 active torsions:
REMARK  status: ('A' for Active; 'I' for Inactive)
ROOT
ATOM      1  C2' OXE d   1      -2.598   2.170   1.910  0.00  0.00     0.078 C 
ATOM      2  C1' OXE d   1      -2.718  -0.632   1.788  0.00  0.00     0.078 C 
ATOM      3  C1  OXE d   1      -1.388   0.027   1.522  0.00  0.00    -0.078 A 
ATOM      4  C2  OXE d   1      -1.349   1.401   1.537  0.00  0.00    -0.078 A 
ATOM      5  C3  OXE d   1      -0.136   2.058   1.352  0.00  0.00     0.003 A 
ATOM      6  C4  OXE d   1       1.013   1.340   0.998  0.00  0.00    -0.002 A 
ATOM      7  C5  OXE d   1       0.986  -0.057   0.938  0.00  0.00    -0.002 A 
ATOM      8  C6  OXE d   1      -0.194  -0.730   1.238  0.00  0.00     0.003 A 
ENDROOT
TORSDOF 0
ENDMDL
