MODEL 1
REMARK minimizedAffinity 4.58360672
REMARK minimizedRMSD -1
REMARK  0 active torsions:
REMARK  status: ('A' for Active; 'I' for Inactive)
ROOT
ATOM      1  C2' OXE d   1       0.958   2.394   0.523  0.00  0.00     0.078 C 
ATOM      2  C1' OXE d   1       1.733   0.070   1.895  0.00  0.00     0.078 C 
ATOM      3  C1  OXE d   1       2.170   0.218   0.459  0.00  0.00    -0.078 A 
ATOM      4  C2  OXE d   1       1.747   1.336  -0.219  0.00  0.00    -0.078 A 
ATOM      5  C3  OXE d   1       2.166   1.548  -1.529  0.00  0.00     0.003 A 
ATOM      6  C4  OXE d   1       2.887   0.561  -2.211  0.00  0.00    -0.002 A 
ATOM      7  C5  OXE d   1       3.294  -0.604  -1.552  0.00  0.00    -0.002 A 
ATOM      8  C6  OXE d   1       2.981  -0.771  -0.208  0.00  0.00     0.003 A 
ENDROOT
TORSDOF 0
ENDMDL
