MODEL 1
REMARK minimizedAffinity 5.71787691
REMARK minimizedRMSD -1
REMARK  0 active torsions:
REMARK  status: ('A' for Active; 'I' for Inactive)
ROOT
ATOM      1  C2' OXE d   1      -2.559   2.629   2.113  0.00  0.00     0.078 C 
ATOM      2  C1' OXE d   1      -2.713  -0.045   2.953  0.00  0.00     0.078 C 
ATOM      3  C1  OXE d   1      -1.404   0.438   2.379  0.00  0.00    -0.078 A 
ATOM      4  C2  OXE d   1      -1.352   1.735   1.928  0.00  0.00    -0.078 A 
ATOM      5  C3  OXE d   1      -0.153   2.247   1.440  0.00  0.00     0.003 A 
ATOM      6  C4  OXE d   1       0.956   1.411   1.263  0.00  0.00    -0.002 A 
ATOM      7  C5  OXE d   1       0.912   0.076   1.680  0.00  0.00    -0.002 A 
ATOM      8  C6  OXE d   1      -0.244  -0.413   2.278  0.00  0.00     0.003 A 
ENDROOT
TORSDOF 0
ENDMDL
