MODEL 1
REMARK minimizedAffinity 2.37954259
REMARK minimizedRMSD -1
REMARK  0 active torsions:
REMARK  status: ('A' for Active; 'I' for Inactive)
ROOT
ATOM      1  C2' OXE d   1      -4.461  -0.063  -2.121  0.00  0.00     0.078 C 
ATOM      2  C1' OXE d   1      -4.953  -1.634   0.153  0.00  0.00     0.078 C 
ATOM      3  C1  OXE d   1      -4.314  -2.302  -1.039  0.00  0.00    -0.078 A 
ATOM      4  C2  OXE d   1      -4.120  -1.537  -2.164  0.00  0.00    -0.078 A 
ATOM      5  C3  OXE d   1      -3.485  -2.090  -3.272  0.00  0.00     0.003 A 
ATOM      6  C4  OXE d   1      -3.182  -3.457  -3.307  0.00  0.00    -0.002 A 
ATOM      7  C5  OXE d   1      -3.408  -4.263  -2.186  0.00  0.00    -0.002 A 
ATOM      8  C6  OXE d   1      -3.933  -3.693  -1.031  0.00  0.00     0.003 A 
ENDROOT
TORSDOF 0
ENDMDL
