MODEL 1
REMARK minimizedAffinity 1.89661813
REMARK minimizedRMSD -1
REMARK  0 active torsions:
REMARK  status: ('A' for Active; 'I' for Inactive)
ROOT
ATOM      1  C2' OXE d   1      -3.694   1.854   2.851  0.00  0.00     0.078 C 
ATOM      2  C1' OXE d   1      -2.407  -0.637   2.989  0.00  0.00     0.078 C 
ATOM      3  C1  OXE d   1      -1.649   0.514   2.376  0.00  0.00    -0.078 A 
ATOM      4  C2  OXE d   1      -2.303   1.718   2.270  0.00  0.00    -0.078 A 
ATOM      5  C3  OXE d   1      -1.631   2.826   1.763  0.00  0.00     0.003 A 
ATOM      6  C4  OXE d   1      -0.348   2.689   1.219  0.00  0.00    -0.002 A 
ATOM      7  C5  OXE d   1       0.322   1.462   1.280  0.00  0.00    -0.002 A 
ATOM      8  C6  OXE d   1      -0.297   0.378   1.893  0.00  0.00     0.003 A 
ENDROOT
TORSDOF 0
ENDMDL
