MODEL 1
REMARK minimizedAffinity -2.88156748
REMARK minimizedRMSD -1
REMARK  0 active torsions:
REMARK  status: ('A' for Active; 'I' for Inactive)
ROOT
ATOM      1  C2' OXE d   1       0.735   2.533   1.016  0.00  0.00     0.078 C 
ATOM      2  C1' OXE d   1       1.342  -0.197   0.782  0.00  0.00     0.078 C 
ATOM      3  C1  OXE d   1      -0.063   0.179   1.181  0.00  0.00    -0.078 A 
ATOM      4  C2  OXE d   1      -0.339   1.516   1.338  0.00  0.00    -0.078 A 
ATOM      5  C3  OXE d   1      -1.633   1.921   1.651  0.00  0.00     0.003 A 
ATOM      6  C4  OXE d   1      -2.618   0.973   1.957  0.00  0.00    -0.002 A 
ATOM      7  C5  OXE d   1      -2.347  -0.394   1.842  0.00  0.00    -0.002 A 
ATOM      8  C6  OXE d   1      -1.090  -0.806   1.414  0.00  0.00     0.003 A 
ENDROOT
TORSDOF 0
ENDMDL
