MODEL 1
REMARK minimizedAffinity -1.51110113
REMARK minimizedRMSD -1
REMARK  0 active torsions:
REMARK  status: ('A' for Active; 'I' for Inactive)
ROOT
ATOM      1  C2' OXE d   1      -1.740   2.337   1.902  0.00  0.00     0.078 C 
ATOM      2  C1' OXE d   1      -1.620  -0.467   1.966  0.00  0.00     0.078 C 
ATOM      3  C1  OXE d   1      -0.412   0.278   1.455  0.00  0.00    -0.078 A 
ATOM      4  C2  OXE d   1      -0.497   1.647   1.383  0.00  0.00    -0.078 A 
ATOM      5  C3  OXE d   1       0.608   2.386   0.970  0.00  0.00     0.003 A 
ATOM      6  C4  OXE d   1       1.751   1.740   0.482  0.00  0.00    -0.002 A 
ATOM      7  C5  OXE d   1       1.843   0.345   0.509  0.00  0.00    -0.002 A 
ATOM      8  C6  OXE d   1       0.790  -0.398   1.031  0.00  0.00     0.003 A 
ENDROOT
TORSDOF 0
ENDMDL
