MODEL 1
REMARK minimizedAffinity 2.30455136
REMARK minimizedRMSD -1
REMARK  0 active torsions:
REMARK  status: ('A' for Active; 'I' for Inactive)
ROOT
ATOM      1  C2' OXE d   1       1.541  -0.523   0.710  0.00  0.00     0.078 C 
ATOM      2  C1' OXE d   1       1.253   2.214   1.264  0.00  0.00     0.078 C 
ATOM      3  C1  OXE d   1       0.023   1.346   1.350  0.00  0.00    -0.078 A 
ATOM      4  C2  OXE d   1       0.164   0.017   1.032  0.00  0.00    -0.078 A 
ATOM      5  C3  OXE d   1      -0.928  -0.839   1.149  0.00  0.00     0.003 A 
ATOM      6  C4  OXE d   1      -2.200  -0.330   1.437  0.00  0.00    -0.002 A 
ATOM      7  C5  OXE d   1      -2.373   1.028   1.726  0.00  0.00    -0.002 A 
ATOM      8  C6  OXE d   1      -1.266   1.870   1.728  0.00  0.00     0.003 A 
ENDROOT
TORSDOF 0
ENDMDL
