MODEL 1
REMARK minimizedAffinity -2.26739287
REMARK minimizedRMSD -1
REMARK  0 active torsions:
REMARK  status: ('A' for Active; 'I' for Inactive)
ROOT
ATOM      1  C2' OXE d   1      -1.815   2.163   2.055  0.00  0.00     0.078 C 
ATOM      2  C1' OXE d   1      -1.654  -0.626   1.776  0.00  0.00     0.078 C 
ATOM      3  C1  OXE d   1      -0.401   0.179   1.533  0.00  0.00    -0.078 A 
ATOM      4  C2  OXE d   1      -0.501   1.546   1.626  0.00  0.00    -0.078 A 
ATOM      5  C3  OXE d   1       0.637   2.333   1.465  0.00  0.00     0.003 A 
ATOM      6  C4  OXE d   1       1.846   1.755   1.059  0.00  0.00    -0.002 A 
ATOM      7  C5  OXE d   1       1.959   0.368   0.920  0.00  0.00    -0.002 A 
ATOM      8  C6  OXE d   1       0.858  -0.436   1.194  0.00  0.00     0.003 A 
ENDROOT
TORSDOF 0
ENDMDL
