MODEL 1
REMARK minimizedAffinity 3.4105587
REMARK minimizedRMSD -1
REMARK  0 active torsions:
REMARK  status: ('A' for Active; 'I' for Inactive)
ROOT
ATOM      1  C   UNL d   1      -4.794   1.495   6.000  0.00  0.00     0.023 A 
ATOM      2  C1  UNL d   1      -5.996   1.489   5.292  0.00  0.00     0.003 A 
ATOM      3  C2  UNL d   1      -5.985   1.461   3.896  0.00  0.00     0.048 A 
ATOM      4  C3  UNL d   1      -4.769   1.437   3.214  0.00  0.00     0.023 A 
ATOM      5  C4  UNL d   1      -3.564   1.442   3.918  0.00  0.00     0.048 A 
ATOM      6  C5  UNL d   1      -3.579   1.471   5.314  0.00  0.00     0.003 A 
ATOM      7  I   UNL d   1      -4.751   1.394   1.136  0.00  0.00    -0.146 I 
ENDROOT
TORSDOF 0
ENDMDL
