MODEL 1
REMARK minimizedAffinity 3.07586098
REMARK minimizedRMSD -1
REMARK  0 active torsions:
REMARK  status: ('A' for Active; 'I' for Inactive)
ROOT
ATOM      1  C   UNL d   1      -4.390  -2.320  -4.218  0.00  0.00     0.023 A 
ATOM      2  C1  UNL d   1      -5.160  -1.205  -4.548  0.00  0.00     0.003 A 
ATOM      3  C2  UNL d   1      -4.989  -0.006  -3.852  0.00  0.00     0.048 A 
ATOM      4  C3  UNL d   1      -4.045   0.071  -2.829  0.00  0.00     0.023 A 
ATOM      5  C4  UNL d   1      -3.271  -1.043  -2.496  0.00  0.00     0.048 A 
ATOM      6  C5  UNL d   1      -3.447  -2.239  -3.193  0.00  0.00     0.003 A 
ATOM      7  I   UNL d   1      -3.787   1.854  -1.793  0.00  0.00    -0.146 I 
ENDROOT
TORSDOF 0
ENDMDL
