MODEL 1
REMARK minimizedAffinity 8.9415369
REMARK minimizedRMSD -1
REMARK  0 active torsions:
REMARK  status: ('A' for Active; 'I' for Inactive)
ROOT
ATOM      1  C   UNL d   1      -0.730  -0.751   3.473  0.00  0.00     0.023 A 
ATOM      2  C1  UNL d   1       0.611  -0.371   3.408  0.00  0.00     0.003 A 
ATOM      3  C2  UNL d   1       1.469  -0.988   2.495  0.00  0.00     0.048 A 
ATOM      4  C3  UNL d   1       0.980  -1.983   1.650  0.00  0.00     0.023 A 
ATOM      5  C4  UNL d   1      -0.361  -2.366   1.711  0.00  0.00     0.048 A 
ATOM      6  C5  UNL d   1      -1.215  -1.747   2.626  0.00  0.00     0.003 A 
ATOM      7  I   UNL d   1       2.255  -2.902   0.290  0.00  0.00    -0.146 I 
ENDROOT
TORSDOF 0
ENDMDL
