MODEL 1
REMARK minimizedAffinity 6.12009001
REMARK minimizedRMSD -1
REMARK  0 active torsions:
REMARK  status: ('A' for Active; 'I' for Inactive)
ROOT
ATOM      1  C   UNL d   1       5.983  -1.913   3.200  0.00  0.00     0.023 A 
ATOM      2  C1  UNL d   1       4.843  -2.351   3.874  0.00  0.00     0.003 A 
ATOM      3  C2  UNL d   1       3.710  -2.737   3.155  0.00  0.00     0.048 A 
ATOM      4  C3  UNL d   1       3.724  -2.685   1.761  0.00  0.00     0.023 A 
ATOM      5  C4  UNL d   1       4.863  -2.248   1.082  0.00  0.00     0.048 A 
ATOM      6  C5  UNL d   1       5.993  -1.862   1.806  0.00  0.00     0.003 A 
ATOM      7  I   UNL d   1       2.039  -3.260   0.689  0.00  0.00    -0.146 I 
ENDROOT
TORSDOF 0
ENDMDL
