MODEL 1
REMARK minimizedAffinity 9.11693192
REMARK minimizedRMSD -1
REMARK  0 active torsions:
REMARK  status: ('A' for Active; 'I' for Inactive)
ROOT
ATOM      1  C   UNL d   1      -2.923   0.207  -1.350  0.00  0.00     0.023 A 
ATOM      2  C1  UNL d   1      -3.345  -1.119  -1.443  0.00  0.00     0.003 A 
ATOM      3  C2  UNL d   1      -4.229  -1.502  -2.454  0.00  0.00     0.048 A 
ATOM      4  C3  UNL d   1      -4.685  -0.555  -3.370  0.00  0.00     0.023 A 
ATOM      5  C4  UNL d   1      -4.265   0.773  -3.281  0.00  0.00     0.048 A 
ATOM      6  C5  UNL d   1      -3.382   1.152  -2.268  0.00  0.00     0.003 A 
ATOM      7  I   UNL d   1      -6.000  -1.123  -4.876  0.00  0.00    -0.146 I 
ENDROOT
TORSDOF 0
ENDMDL
