MODEL 1
REMARK minimizedAffinity 9.37678623
REMARK minimizedRMSD -1
REMARK  0 active torsions:
REMARK  status: ('A' for Active; 'I' for Inactive)
ROOT
ATOM      1  C   UNL d   1       3.182  -3.157   0.541  0.00  0.00     0.023 A 
ATOM      2  C1  UNL d   1       2.897  -1.825   0.841  0.00  0.00     0.003 A 
ATOM      3  C2  UNL d   1       1.595  -1.446   1.175  0.00  0.00     0.048 A 
ATOM      4  C3  UNL d   1       0.583  -2.404   1.207  0.00  0.00     0.023 A 
ATOM      5  C4  UNL d   1       0.863  -3.738   0.908  0.00  0.00     0.048 A 
ATOM      6  C5  UNL d   1       2.166  -4.113   0.574  0.00  0.00     0.003 A 
ATOM      7  I   UNL d   1      -1.356  -1.842   1.704  0.00  0.00    -0.146 I 
ENDROOT
TORSDOF 0
ENDMDL
