MODEL 1
REMARK minimizedAffinity 7.8381505
REMARK minimizedRMSD -1
REMARK  0 active torsions:
REMARK  status: ('A' for Active; 'I' for Inactive)
ROOT
ATOM      1  C   UNL d   1       3.512  -2.133   4.288  0.00  0.00     0.023 A 
ATOM      2  C1  UNL d   1       4.226  -2.037   5.482  0.00  0.00     0.003 A 
ATOM      3  C2  UNL d   1       4.927  -3.143   5.969  0.00  0.00     0.048 A 
ATOM      4  C3  UNL d   1       4.910  -4.341   5.257  0.00  0.00     0.023 A 
ATOM      5  C4  UNL d   1       4.197  -4.442   4.060  0.00  0.00     0.048 A 
ATOM      6  C5  UNL d   1       3.498  -3.334   3.578  0.00  0.00     0.003 A 
ATOM      7  I   UNL d   1       5.952  -5.987   5.980  0.00  0.00    -0.146 I 
ENDROOT
TORSDOF 0
ENDMDL
