MODEL 1
REMARK minimizedAffinity 14.552845
REMARK minimizedRMSD -1
REMARK  0 active torsions:
REMARK  status: ('A' for Active; 'I' for Inactive)
ROOT
ATOM      1  C   UNL d   1      -5.916  -2.011  -4.252  0.00  0.00     0.023 A 
ATOM      2  C1  UNL d   1      -5.899  -1.004  -3.287  0.00  0.00     0.003 A 
ATOM      3  C2  UNL d   1      -5.923   0.337  -3.675  0.00  0.00     0.048 A 
ATOM      4  C3  UNL d   1      -5.963   0.664  -5.030  0.00  0.00     0.023 A 
ATOM      5  C4  UNL d   1      -5.981  -0.340  -5.999  0.00  0.00     0.048 A 
ATOM      6  C5  UNL d   1      -5.957  -1.680  -5.606  0.00  0.00     0.003 A 
ATOM      7  I   UNL d   1      -5.998   2.660  -5.610  0.00  0.00    -0.146 I 
ENDROOT
TORSDOF 0
ENDMDL
