MODEL 1
REMARK minimizedAffinity 8.32350636
REMARK minimizedRMSD -1
REMARK  0 active torsions:
REMARK  status: ('A' for Active; 'I' for Inactive)
ROOT
ATOM      1  C   UNL d   1       2.202  -3.999  -0.310  0.00  0.00     0.023 A 
ATOM      2  C1  UNL d   1       1.248  -4.889   0.184  0.00  0.00     0.003 A 
ATOM      3  C2  UNL d   1       0.132  -4.408   0.870  0.00  0.00     0.048 A 
ATOM      4  C3  UNL d   1      -0.025  -3.035   1.059  0.00  0.00     0.023 A 
ATOM      5  C4  UNL d   1       0.926  -2.141   0.566  0.00  0.00     0.048 A 
ATOM      6  C5  UNL d   1       2.041  -2.626  -0.119  0.00  0.00     0.003 A 
ATOM      7  I   UNL d   1      -1.687  -2.317   2.081  0.00  0.00    -0.146 I 
ENDROOT
TORSDOF 0
ENDMDL
