MODEL 1
REMARK minimizedAffinity -2.63549089
REMARK minimizedRMSD -1
REMARK  1 active torsions:
REMARK  status: ('A' for Active; 'I' for Inactive)
REMARK    1  A    between atoms: N_2  and  C1_3 
ROOT
ATOM      1  C1  UNL d   1      -0.334  -1.105  -0.225  0.00  0.00     0.143 A 
ATOM      2  C2  UNL d   1      -0.072  -1.067  -1.599  0.00  0.00    -0.057 A 
ATOM      3  C3  UNL d   1      -0.308  -2.182  -2.414  0.00  0.00     0.033 A 
ATOM      4  C4  UNL d   1      -0.783  -3.367  -1.861  0.00  0.00    -0.042 A 
ATOM      5  C5  UNL d   1      -1.026  -3.435  -0.494  0.00  0.00     0.033 A 
ATOM      6  C6  UNL d   1      -0.795  -2.316   0.313  0.00  0.00    -0.057 A 
ENDROOT
BRANCH   1   7
ATOM      7  N   UNL d   1      -0.028  -0.063   0.653  0.00  0.00    -0.732 N 
ATOM      8  C   UNL d   1       0.396   1.226   0.150  0.00  0.00     0.284 C 
ATOM      9  H3  UNL d   1      -0.678  -0.010   1.435  0.00  0.00     0.395 HD
ENDBRANCH   1   7
TORSDOF 1
ENDMDL
