MODEL 1
REMARK minimizedAffinity -3.76770258
REMARK minimizedRMSD -1
REMARK  1 active torsions:
REMARK  status: ('A' for Active; 'I' for Inactive)
REMARK    1  A    between atoms: N_2  and  C1_3 
ROOT
ATOM      1  C1  UNL d   1      -0.394   1.155   0.289  0.00  0.00     0.143 A 
ATOM      2  C2  UNL d   1      -0.311   0.387  -0.877  0.00  0.00    -0.057 A 
ATOM      3  C3  UNL d   1      -0.649  -0.971  -0.877  0.00  0.00     0.033 A 
ATOM      4  C4  UNL d   1      -1.050  -1.595   0.300  0.00  0.00    -0.042 A 
ATOM      5  C5  UNL d   1      -1.116  -0.857   1.476  0.00  0.00     0.033 A 
ATOM      6  C6  UNL d   1      -0.783   0.501   1.469  0.00  0.00    -0.057 A 
ENDROOT
BRANCH   1   7
ATOM      7  N   UNL d   1       0.022   2.486   0.376  0.00  0.00    -0.732 N 
ATOM      8  C   UNL d   1       1.430   2.816   0.429  0.00  0.00     0.284 C 
ATOM      9  H3  UNL d   1      -0.528   3.104  -0.217  0.00  0.00     0.395 HD
ENDBRANCH   1   7
TORSDOF 1
ENDMDL
