MODEL 1
REMARK minimizedAffinity -4.11160803
REMARK minimizedRMSD -1
REMARK  1 active torsions:
REMARK  status: ('A' for Active; 'I' for Inactive)
REMARK    1  A    between atoms: N_2  and  C1_3 
ROOT
ATOM      1  C1  UNL d   1       0.190  -0.693  -1.440  0.00  0.00     0.143 A 
ATOM      2  C2  UNL d   1       0.441   0.661  -1.192  0.00  0.00    -0.057 A 
ATOM      3  C3  UNL d   1       0.167   1.233   0.056  0.00  0.00     0.033 A 
ATOM      4  C4  UNL d   1      -0.391   0.466   1.073  0.00  0.00    -0.042 A 
ATOM      5  C5  UNL d   1      -0.672  -0.876   0.841  0.00  0.00     0.033 A 
ATOM      6  C6  UNL d   1      -0.390  -1.444  -0.405  0.00  0.00    -0.057 A 
ENDROOT
BRANCH   1   7
ATOM      7  N   UNL d   1       0.349  -1.298  -2.689  0.00  0.00    -0.732 N 
ATOM      8  C   UNL d   1      -0.029  -2.680  -2.893  0.00  0.00     0.284 C 
ATOM      9  H3  UNL d   1       0.091  -0.679  -3.455  0.00  0.00     0.395 HD
ENDBRANCH   1   7
TORSDOF 1
ENDMDL
