MODEL 1
REMARK minimizedAffinity -1.71665394
REMARK minimizedRMSD -1
REMARK  1 active torsions:
REMARK  status: ('A' for Active; 'I' for Inactive)
REMARK    1  A    between atoms: N_2  and  C1_3 
ROOT
ATOM      1  C1  UNL d   1      -0.026   1.460   0.380  0.00  0.00     0.143 A 
ATOM      2  C2  UNL d   1      -0.085   0.598  -0.720  0.00  0.00    -0.057 A 
ATOM      3  C3  UNL d   1      -0.424  -0.752  -0.567  0.00  0.00     0.033 A 
ATOM      4  C4  UNL d   1      -0.683  -1.271   0.697  0.00  0.00    -0.042 A 
ATOM      5  C5  UNL d   1      -0.606  -0.439   1.807  0.00  0.00     0.033 A 
ATOM      6  C6  UNL d   1      -0.274   0.910   1.647  0.00  0.00    -0.057 A 
ENDROOT
BRANCH   1   7
ATOM      7  N   UNL d   1       0.401   2.788   0.305  0.00  0.00    -0.732 N 
ATOM      8  C   UNL d   1       1.729   3.161   0.741  0.00  0.00     0.284 C 
ATOM      9  H3  UNL d   1       0.101   3.245  -0.553  0.00  0.00     0.395 HD
ENDBRANCH   1   7
TORSDOF 1
ENDMDL
