MODEL 1
REMARK minimizedAffinity -1.65436876
REMARK minimizedRMSD -1
REMARK  1 active torsions:
REMARK  status: ('A' for Active; 'I' for Inactive)
REMARK    1  A    between atoms: N_2  and  C1_3 
ROOT
ATOM      1  C1  UNL d   1       0.770   1.889   0.344  0.00  0.00     0.143 A 
ATOM      2  C2  UNL d   1      -0.426   1.617  -0.328  0.00  0.00    -0.057 A 
ATOM      3  C3  UNL d   1      -1.160   0.454  -0.062  0.00  0.00     0.033 A 
ATOM      4  C4  UNL d   1      -0.693  -0.474   0.862  0.00  0.00    -0.042 A 
ATOM      5  C5  UNL d   1       0.506  -0.237   1.524  0.00  0.00     0.033 A 
ATOM      6  C6  UNL d   1       1.231   0.929   1.259  0.00  0.00    -0.057 A 
ENDROOT
BRANCH   1   7
ATOM      7  N   UNL d   1       1.595   2.978   0.053  0.00  0.00    -0.732 N 
ATOM      8  C   UNL d   1       2.285   3.683   1.112  0.00  0.00     0.284 C 
ATOM      9  H3  UNL d   1       2.158   2.827  -0.781  0.00  0.00     0.395 HD
ENDBRANCH   1   7
TORSDOF 1
ENDMDL
