MODEL 1
REMARK minimizedAffinity -0.808319509
REMARK minimizedRMSD -1
REMARK  1 active torsions:
REMARK  status: ('A' for Active; 'I' for Inactive)
REMARK    1  A    between atoms: N_2  and  C1_3 
ROOT
ATOM      1  C1  UNL d   1      -0.242   1.158  -0.055  0.00  0.00     0.143 A 
ATOM      2  C2  UNL d   1       0.203  -0.098  -0.483  0.00  0.00    -0.057 A 
ATOM      3  C3  UNL d   1      -0.256  -1.275   0.120  0.00  0.00     0.033 A 
ATOM      4  C4  UNL d   1      -1.149  -1.216   1.184  0.00  0.00    -0.042 A 
ATOM      5  C5  UNL d   1      -1.586   0.022   1.643  0.00  0.00     0.033 A 
ATOM      6  C6  UNL d   1      -1.129   1.194   1.032  0.00  0.00    -0.057 A 
ENDROOT
BRANCH   1   7
ATOM      7  N   UNL d   1       0.253   2.368  -0.548  0.00  0.00    -0.732 N 
ATOM      8  C   UNL d   1       0.730   3.392   0.356  0.00  0.00     0.284 C 
ATOM      9  H3  UNL d   1       0.830   2.243  -1.377  0.00  0.00     0.395 HD
ENDBRANCH   1   7
TORSDOF 1
ENDMDL
