MODEL 1
REMARK minimizedAffinity -3.1041069
REMARK minimizedRMSD -1
REMARK  1 active torsions:
REMARK  status: ('A' for Active; 'I' for Inactive)
REMARK    1  A    between atoms: N_2  and  C1_3 
ROOT
ATOM      1  C1  UNL d   1      -0.315   0.115  -0.052  0.00  0.00     0.143 A 
ATOM      2  C2  UNL d   1      -0.218  -1.116  -0.710  0.00  0.00    -0.057 A 
ATOM      3  C3  UNL d   1      -0.550  -2.312  -0.063  0.00  0.00     0.033 A 
ATOM      4  C4  UNL d   1      -0.958  -2.302   1.267  0.00  0.00    -0.042 A 
ATOM      5  C5  UNL d   1      -1.037  -1.092   1.948  0.00  0.00     0.033 A 
ATOM      6  C6  UNL d   1      -0.711   0.100   1.295  0.00  0.00    -0.057 A 
ENDROOT
BRANCH   1   7
ATOM      7  N   UNL d   1       0.094   1.329  -0.609  0.00  0.00    -0.732 N 
ATOM      8  C   UNL d   1       1.127   2.120   0.024  0.00  0.00     0.284 C 
ATOM      9  H3  UNL d   1       0.167   1.286  -1.623  0.00  0.00     0.395 HD
ENDBRANCH   1   7
TORSDOF 1
ENDMDL
