MODEL 1
REMARK minimizedAffinity -2.98016
REMARK minimizedRMSD -1
REMARK  1 active torsions:
REMARK  status: ('A' for Active; 'I' for Inactive)
REMARK    1  A    between atoms: N_2  and  C1_3 
ROOT
ATOM      1  C1  UNL d   1      -0.134   0.677  -0.323  0.00  0.00     0.143 A 
ATOM      2  C2  UNL d   1       0.095  -0.481  -1.073  0.00  0.00    -0.057 A 
ATOM      3  C3  UNL d   1      -0.239  -1.747  -0.575  0.00  0.00     0.033 A 
ATOM      4  C4  UNL d   1      -0.783  -1.878   0.698  0.00  0.00    -0.042 A 
ATOM      5  C5  UNL d   1      -0.996  -0.742   1.472  0.00  0.00     0.033 A 
ATOM      6  C6  UNL d   1      -0.666   0.519   0.966  0.00  0.00    -0.057 A 
ENDROOT
BRANCH   1   7
ATOM      7  N   UNL d   1       0.267   1.954  -0.722  0.00  0.00    -0.732 N 
ATOM      8  C   UNL d   1       0.701   2.930   0.254  0.00  0.00     0.284 C 
ATOM      9  H3  UNL d   1       0.829   1.937  -1.571  0.00  0.00     0.395 HD
ENDBRANCH   1   7
TORSDOF 1
ENDMDL
