MODEL 1
REMARK minimizedAffinity -1.19845843
REMARK minimizedRMSD -1
REMARK  1 active torsions:
REMARK  status: ('A' for Active; 'I' for Inactive)
REMARK    1  A    between atoms: N_2  and  C1_3 
ROOT
ATOM      1  C1  UNL d   1       0.448   0.730   0.821  0.00  0.00     0.143 A 
ATOM      2  C2  UNL d   1      -0.175   1.154  -0.358  0.00  0.00    -0.057 A 
ATOM      3  C3  UNL d   1       0.093   2.413  -0.908  0.00  0.00     0.033 A 
ATOM      4  C4  UNL d   1       0.970   3.285  -0.272  0.00  0.00    -0.042 A 
ATOM      5  C5  UNL d   1       1.582   2.895   0.914  0.00  0.00     0.033 A 
ATOM      6  C6  UNL d   1       1.315   1.634   1.456  0.00  0.00    -0.057 A 
ENDROOT
BRANCH   1   7
ATOM      7  N   UNL d   1       0.149  -0.469   1.471  0.00  0.00    -0.732 N 
ATOM      8  C   UNL d   1      -0.915  -1.323   0.989  0.00  0.00     0.284 C 
ATOM      9  H3  UNL d   1       0.984  -0.971   1.764  0.00  0.00     0.395 HD
ENDBRANCH   1   7
TORSDOF 1
ENDMDL
