MODEL 1
REMARK minimizedAffinity -2.43946195
REMARK minimizedRMSD -1
REMARK  1 active torsions:
REMARK  status: ('A' for Active; 'I' for Inactive)
REMARK    1  A    between atoms: N_2  and  C1_3 
ROOT
ATOM      1  C1  UNL d   1      -0.360  -0.717   0.108  0.00  0.00     0.143 A 
ATOM      2  C2  UNL d   1      -0.864  -1.851   0.756  0.00  0.00    -0.057 A 
ATOM      3  C3  UNL d   1      -1.017  -3.066   0.078  0.00  0.00     0.033 A 
ATOM      4  C4  UNL d   1      -0.696  -3.162  -1.272  0.00  0.00    -0.042 A 
ATOM      5  C5  UNL d   1      -0.218  -2.042  -1.942  0.00  0.00     0.033 A 
ATOM      6  C6  UNL d   1      -0.060  -0.832  -1.258  0.00  0.00    -0.057 A 
ENDROOT
BRANCH   1   7
ATOM      7  N   UNL d   1      -0.277   0.545   0.701  0.00  0.00    -0.732 N 
ATOM      8  C   UNL d   1       0.165   1.691  -0.063  0.00  0.00     0.284 C 
ATOM      9  H3  UNL d   1      -1.061   0.735   1.321  0.00  0.00     0.395 HD
ENDBRANCH   1   7
TORSDOF 1
ENDMDL
