MODEL 1
REMARK minimizedAffinity -0.769825757
REMARK minimizedRMSD -1
REMARK  1 active torsions:
REMARK  status: ('A' for Active; 'I' for Inactive)
REMARK    1  A    between atoms: N_2  and  C1_3 
ROOT
ATOM      1  C1  UNL d   1      -0.418  -1.637  -1.240  0.00  0.00     0.143 A 
ATOM      2  C2  UNL d   1      -0.157  -0.303  -0.906  0.00  0.00    -0.057 A 
ATOM      3  C3  UNL d   1      -0.365   0.174   0.394  0.00  0.00     0.033 A 
ATOM      4  C4  UNL d   1      -0.867  -0.670   1.379  0.00  0.00    -0.042 A 
ATOM      5  C5  UNL d   1      -1.157  -1.993   1.063  0.00  0.00     0.033 A 
ATOM      6  C6  UNL d   1      -0.941  -2.465  -0.235  0.00  0.00    -0.057 A 
ENDROOT
BRANCH   1   7
ATOM      7  N   UNL d   1      -0.325  -2.146  -2.538  0.00  0.00    -0.732 N 
ATOM      8  C   UNL d   1      -1.037  -3.349  -2.910  0.00  0.00     0.284 C 
ATOM      9  H3  UNL d   1      -0.346  -1.414  -3.244  0.00  0.00     0.395 HD
ENDBRANCH   1   7
TORSDOF 1
ENDMDL
