MODEL 1
REMARK minimizedAffinity 0.437467754
REMARK minimizedRMSD -1
REMARK  1 active torsions:
REMARK  status: ('A' for Active; 'I' for Inactive)
REMARK    1  A    between atoms: N_2  and  C1_3 
ROOT
ATOM      1  C1  UNL d   1      -0.334   0.294   0.007  0.00  0.00     0.143 A 
ATOM      2  C2  UNL d   1      -0.576  -0.922  -0.643  0.00  0.00    -0.057 A 
ATOM      3  C3  UNL d   1      -1.033  -2.043   0.061  0.00  0.00     0.033 A 
ATOM      4  C4  UNL d   1      -1.230  -1.976   1.436  0.00  0.00    -0.042 A 
ATOM      5  C5  UNL d   1      -0.972  -0.786   2.107  0.00  0.00     0.033 A 
ATOM      6  C6  UNL d   1      -0.522   0.332   1.398  0.00  0.00    -0.057 A 
ENDROOT
BRANCH   1   7
ATOM      7  N   UNL d   1       0.215   1.415  -0.619  0.00  0.00    -0.732 N 
ATOM      8  C   UNL d   1       0.761   2.503   0.163  0.00  0.00     0.284 C 
ATOM      9  H3  UNL d   1       0.771   1.170  -1.436  0.00  0.00     0.395 HD
ENDBRANCH   1   7
TORSDOF 1
ENDMDL
