MODEL 1
REMARK minimizedAffinity -3.83195043
REMARK minimizedRMSD -1
REMARK  1 active torsions:
REMARK  status: ('A' for Active; 'I' for Inactive)
REMARK    1  A    between atoms: N_2  and  C1_3 
ROOT
ATOM      1  C1  UNL d   1      -0.196  -0.554  -0.685  0.00  0.00     0.143 A 
ATOM      2  C2  UNL d   1      -0.728  -1.278   0.387  0.00  0.00    -0.057 A 
ATOM      3  C3  UNL d   1      -0.987  -2.650   0.280  0.00  0.00     0.033 A 
ATOM      4  C4  UNL d   1      -0.744  -3.318  -0.916  0.00  0.00    -0.042 A 
ATOM      5  C5  UNL d   1      -0.238  -2.614  -2.003  0.00  0.00     0.033 A 
ATOM      6  C6  UNL d   1       0.025  -1.245  -1.887  0.00  0.00    -0.057 A 
ENDROOT
BRANCH   1   7
ATOM      7  N   UNL d   1      -0.009   0.830  -0.672  0.00  0.00    -0.732 N 
ATOM      8  C   UNL d   1       0.739   1.463   0.393  0.00  0.00     0.284 C 
ATOM      9  H3  UNL d   1       0.188   1.204  -1.597  0.00  0.00     0.395 HD
ENDBRANCH   1   7
TORSDOF 1
ENDMDL
