MODEL 1
REMARK minimizedAffinity 8.35974121
REMARK minimizedRMSD -1
REMARK  3 active torsions:
REMARK  status: ('A' for Active; 'I' for Inactive)
REMARK    1  A    between atoms: C3'_2  and  C2'_3 
REMARK    2  A    between atoms: C2'_3  and  C1'_4 
REMARK    3  A    between atoms: C1'_4  and  C1_5 
ROOT
ATOM      1  C1  N4B d   1      -1.838   0.438  -0.950  0.00  0.00    -0.075 A 
ATOM      2  C2  N4B d   1      -2.555  -0.682  -1.426  0.00  0.00     0.002 A 
ATOM      3  C3  N4B d   1      -3.087  -0.669  -2.692  0.00  0.00     0.002 A 
ATOM      4  C4  N4B d   1      -2.933   0.455  -3.490  0.00  0.00    -0.004 A 
ATOM      5  C5  N4B d   1      -2.217   1.523  -3.032  0.00  0.00     0.002 A 
ATOM      6  C6  N4B d   1      -1.673   1.522  -1.763  0.00  0.00     0.002 A 
ENDROOT
BRANCH   1   7
ATOM      7  C1' N4B d   1      -1.312   0.504   0.457  0.00  0.00     0.057 C 
BRANCH   7   8
ATOM      8  C2' N4B d   1      -2.059   1.593   1.221  0.00  0.00     0.009 C 
BRANCH   8   9
ATOM      9  C3' N4B d   1      -3.565   1.462   1.070  0.00  0.00     0.004 C 
ATOM     10  C4' N4B d   1      -4.294   1.598   2.373  0.00  0.00     0.003 C 
ENDBRANCH   8   9
ENDBRANCH   7   8
ENDBRANCH   1   7
TORSDOF 3
ENDMDL
