MODEL 1
REMARK minimizedAffinity 0.342608988
REMARK minimizedRMSD -1
REMARK  3 active torsions:
REMARK  status: ('A' for Active; 'I' for Inactive)
REMARK    1  A    between atoms: C3'_2  and  C2'_3 
REMARK    2  A    between atoms: C2'_3  and  C1'_4 
REMARK    3  A    between atoms: C1'_4  and  C1_5 
ROOT
ATOM      1  C1  N4B d   1       2.006   0.655  -2.679  0.00  0.00    -0.075 A 
ATOM      2  C2  N4B d   1       1.917  -0.592  -2.023  0.00  0.00     0.002 A 
ATOM      3  C3  N4B d   1       2.753  -1.620  -2.385  0.00  0.00     0.002 A 
ATOM      4  C4  N4B d   1       3.669  -1.431  -3.408  0.00  0.00    -0.004 A 
ATOM      5  C5  N4B d   1       3.766  -0.215  -4.020  0.00  0.00     0.002 A 
ATOM      6  C6  N4B d   1       2.936   0.828  -3.664  0.00  0.00     0.002 A 
ENDROOT
BRANCH   1   7
ATOM      7  C1' N4B d   1       1.056   1.782  -2.377  0.00  0.00     0.057 C 
BRANCH   7   8
ATOM      8  C2' N4B d   1      -0.304   1.202  -2.001  0.00  0.00     0.009 C 
BRANCH   8   9
ATOM      9  C3' N4B d   1      -1.128   0.844  -3.227  0.00  0.00     0.004 C 
ATOM     10  C4' N4B d   1      -1.479   2.040  -4.060  0.00  0.00     0.003 C 
ENDBRANCH   8   9
ENDBRANCH   7   8
ENDBRANCH   1   7
TORSDOF 3
ENDMDL
