MODEL 1
REMARK minimizedAffinity 4.69960642
REMARK minimizedRMSD -1
REMARK  3 active torsions:
REMARK  status: ('A' for Active; 'I' for Inactive)
REMARK    1  A    between atoms: C3'_2  and  C2'_3 
REMARK    2  A    between atoms: C2'_3  and  C1'_4 
REMARK    3  A    between atoms: C1'_4  and  C1_5 
ROOT
ATOM      1  C1  N4B d   1       0.684   0.025  -3.012  0.00  0.00    -0.075 A 
ATOM      2  C2  N4B d   1       2.033  -0.280  -2.725  0.00  0.00     0.002 A 
ATOM      3  C3  N4B d   1       2.820   0.634  -2.070  0.00  0.00     0.002 A 
ATOM      4  C4  N4B d   1       2.289   1.864  -1.710  0.00  0.00    -0.004 A 
ATOM      5  C5  N4B d   1       0.978   2.141  -1.967  0.00  0.00     0.002 A 
ATOM      6  C6  N4B d   1       0.174   1.230  -2.621  0.00  0.00     0.002 A 
ENDROOT
BRANCH   1   7
ATOM      7  C1' N4B d   1      -0.191  -0.908  -3.802  0.00  0.00     0.057 C 
BRANCH   7   8
ATOM      8  C2' N4B d   1      -1.649  -0.489  -3.635  0.00  0.00     0.009 C 
BRANCH   8   9
ATOM      9  C3' N4B d   1      -2.406  -0.532  -4.951  0.00  0.00     0.004 C 
ATOM     10  C4' N4B d   1      -1.704  -1.342  -6.000  0.00  0.00     0.003 C 
ENDBRANCH   8   9
ENDBRANCH   7   8
ENDBRANCH   1   7
TORSDOF 3
ENDMDL
