MODEL 1
REMARK minimizedAffinity 11.8654518
REMARK minimizedRMSD -1
REMARK  3 active torsions:
REMARK  status: ('A' for Active; 'I' for Inactive)
REMARK    1  A    between atoms: C3'_2  and  C2'_3 
REMARK    2  A    between atoms: C2'_3  and  C1'_4 
REMARK    3  A    between atoms: C1'_4  and  C1_5 
ROOT
ATOM      1  C1  N4B d   1       2.749   0.664  -1.995  0.00  0.00    -0.075 A 
ATOM      2  C2  N4B d   1       3.541   1.331  -2.955  0.00  0.00     0.002 A 
ATOM      3  C3  N4B d   1       3.822   0.725  -4.155  0.00  0.00     0.002 A 
ATOM      4  C4  N4B d   1       3.340  -0.551  -4.408  0.00  0.00    -0.004 A 
ATOM      5  C5  N4B d   1       2.555  -1.178  -3.486  0.00  0.00     0.002 A 
ATOM      6  C6  N4B d   1       2.261  -0.579  -2.278  0.00  0.00     0.002 A 
ENDROOT
BRANCH   1   7
ATOM      7  C1' N4B d   1       2.487   1.251  -0.636  0.00  0.00     0.057 C 
BRANCH   7   8
ATOM      8  C2' N4B d   1       3.769   1.196   0.190  0.00  0.00     0.009 C 
BRANCH   8   9
ATOM      9  C3' N4B d   1       3.817  -0.031   1.084  0.00  0.00     0.004 C 
ATOM     10  C4' N4B d   1       5.200  -0.336   1.577  0.00  0.00     0.003 C 
ENDBRANCH   8   9
ENDBRANCH   7   8
ENDBRANCH   1   7
TORSDOF 3
ENDMDL
