MODEL 1
REMARK minimizedAffinity -0.174869642
REMARK minimizedRMSD -1
REMARK  3 active torsions:
REMARK  status: ('A' for Active; 'I' for Inactive)
REMARK    1  A    between atoms: C3'_2  and  C2'_3 
REMARK    2  A    between atoms: C2'_3  and  C1'_4 
REMARK    3  A    between atoms: C1'_4  and  C1_5 
ROOT
ATOM      1  C1  N4B d   1       0.222   0.790  -2.434  0.00  0.00    -0.075 A 
ATOM      2  C2  N4B d   1       1.511   1.362  -2.351  0.00  0.00     0.002 A 
ATOM      3  C3  N4B d   1       2.582   0.728  -2.931  0.00  0.00     0.002 A 
ATOM      4  C4  N4B d   1       2.394  -0.482  -3.580  0.00  0.00    -0.004 A 
ATOM      5  C5  N4B d   1       1.142  -1.016  -3.678  0.00  0.00     0.002 A 
ATOM      6  C6  N4B d   1       0.055  -0.388  -3.104  0.00  0.00     0.002 A 
ENDROOT
BRANCH   1   7
ATOM      7  C1' N4B d   1      -0.965   1.402  -1.742  0.00  0.00     0.057 C 
BRANCH   7   8
ATOM      8  C2' N4B d   1      -0.720   1.407  -0.237  0.00  0.00     0.009 C 
BRANCH   8   9
ATOM      9  C3' N4B d   1      -2.009   1.244   0.550  0.00  0.00     0.004 C 
ATOM     10  C4' N4B d   1      -1.883   1.700   1.973  0.00  0.00     0.003 C 
ENDBRANCH   8   9
ENDBRANCH   7   8
ENDBRANCH   1   7
TORSDOF 3
ENDMDL
