MODEL 1
REMARK minimizedAffinity -3.91932869
REMARK minimizedRMSD -1
REMARK  1 active torsions:
REMARK  status: ('A' for Active; 'I' for Inactive)
REMARK    1  A    between atoms: C3_4  and  O_7 
ROOT
ATOM      1  C   UNL d   1      -0.379   0.475  -0.110  0.00  0.00    -0.033 A 
ATOM      2  C1  UNL d   1       0.437  -0.258  -0.975  0.00  0.00     0.039 A 
ATOM      3  C2  UNL d   1       0.643  -1.621  -0.755  0.00  0.00    -0.080 A 
ATOM      4  C3  UNL d   1       0.028  -2.239   0.330  0.00  0.00     0.150 A 
ATOM      5  C4  UNL d   1      -0.789  -1.516   1.193  0.00  0.00    -0.007 A 
ATOM      6  C5  UNL d   1      -0.994  -0.155   0.972  0.00  0.00     0.039 A 
ENDROOT
BRANCH   4   7
ATOM      7  O   UNL d   1       0.204  -3.566   0.588  0.00  0.00    -0.526 OA
ATOM      8  H5  UNL d   1       0.816  -3.930  -0.074  0.00  0.00     0.418 HD
ENDBRANCH   4   7
TORSDOF 1
ENDMDL
