MODEL 1
REMARK minimizedAffinity -3.48388743
REMARK minimizedRMSD -1
REMARK  1 active torsions:
REMARK  status: ('A' for Active; 'I' for Inactive)
REMARK    1  A    between atoms: C3_4  and  O_7 
ROOT
ATOM      1  C   UNL d   1      -0.462   1.133  -1.668  0.00  0.00    -0.033 A 
ATOM      2  C1  UNL d   1      -0.369   1.021  -0.279  0.00  0.00     0.039 A 
ATOM      3  C2  UNL d   1       0.070  -0.172   0.299  0.00  0.00    -0.080 A 
ATOM      4  C3  UNL d   1       0.414  -1.243  -0.521  0.00  0.00     0.150 A 
ATOM      5  C4  UNL d   1       0.328  -1.137  -1.905  0.00  0.00    -0.007 A 
ATOM      6  C5  UNL d   1      -0.112   0.054  -2.481  0.00  0.00     0.039 A 
ENDROOT
BRANCH   4   7
ATOM      7  O   UNL d   1       0.844  -2.428  -0.002  0.00  0.00    -0.526 OA
ATOM      8  H5  UNL d   1       0.825  -2.364   0.967  0.00  0.00     0.418 HD
ENDBRANCH   4   7
TORSDOF 1
ENDMDL
