MODEL 1
REMARK minimizedAffinity -4.62064981
REMARK minimizedRMSD -1
REMARK  1 active torsions:
REMARK  status: ('A' for Active; 'I' for Inactive)
REMARK    1  A    between atoms: C3_4  and  O_7 
ROOT
ATOM      1  C   UNL d   1      -0.192  -3.968  -1.141  0.00  0.00    -0.033 A 
ATOM      2  C1  UNL d   1       0.098  -3.075  -2.174  0.00  0.00     0.039 A 
ATOM      3  C2  UNL d   1       0.318  -1.726  -1.891  0.00  0.00    -0.080 A 
ATOM      4  C3  UNL d   1       0.246  -1.283  -0.573  0.00  0.00     0.150 A 
ATOM      5  C4  UNL d   1      -0.038  -2.168   0.461  0.00  0.00    -0.007 A 
ATOM      6  C5  UNL d   1      -0.259  -3.515   0.177  0.00  0.00     0.039 A 
ENDROOT
BRANCH   4   7
ATOM      7  O   UNL d   1       0.449   0.026  -0.249  0.00  0.00    -0.526 OA
ATOM      8  H5  UNL d   1       0.607   0.525  -1.068  0.00  0.00     0.418 HD
ENDBRANCH   4   7
TORSDOF 1
ENDMDL
