MODEL 1
REMARK minimizedAffinity -4.00675583
REMARK minimizedRMSD -1
REMARK  1 active torsions:
REMARK  status: ('A' for Active; 'I' for Inactive)
REMARK    1  A    between atoms: C3_4  and  O_7 
ROOT
ATOM      1  C   UNL d   1      -1.129  -0.416   1.344  0.00  0.00    -0.033 A 
ATOM      2  C1  UNL d   1      -0.794  -1.709   0.937  0.00  0.00     0.039 A 
ATOM      3  C2  UNL d   1      -0.227  -1.923  -0.320  0.00  0.00    -0.080 A 
ATOM      4  C3  UNL d   1       0.001  -0.836  -1.160  0.00  0.00     0.150 A 
ATOM      5  C4  UNL d   1      -0.328   0.455  -0.760  0.00  0.00    -0.007 A 
ATOM      6  C5  UNL d   1      -0.895   0.666   0.496  0.00  0.00     0.039 A 
ENDROOT
BRANCH   4   7
ATOM      7  O   UNL d   1       0.548  -0.995  -2.399  0.00  0.00    -0.526 OA
ATOM      8  H5  UNL d   1       0.696  -1.943  -2.551  0.00  0.00     0.418 HD
ENDBRANCH   4   7
TORSDOF 1
ENDMDL
