MODEL 1
REMARK minimizedAffinity -4.32777071
REMARK minimizedRMSD -1
REMARK  1 active torsions:
REMARK  status: ('A' for Active; 'I' for Inactive)
REMARK    1  A    between atoms: C3_4  and  O_7 
ROOT
ATOM      1  C   UNL d   1       0.078   0.297   0.038  0.00  0.00    -0.033 A 
ATOM      2  C1  UNL d   1      -0.658  -0.114   1.150  0.00  0.00     0.039 A 
ATOM      3  C2  UNL d   1      -0.741  -1.470   1.472  0.00  0.00    -0.080 A 
ATOM      4  C3  UNL d   1      -0.084  -2.403   0.675  0.00  0.00     0.150 A 
ATOM      5  C4  UNL d   1       0.655  -2.000  -0.432  0.00  0.00    -0.007 A 
ATOM      6  C5  UNL d   1       0.736  -0.646  -0.753  0.00  0.00     0.039 A 
ENDROOT
BRANCH   4   7
ATOM      7  O   UNL d   1      -0.140  -3.738   0.947  0.00  0.00    -0.526 OA
ATOM      8  H5  UNL d   1      -0.709  -3.870   1.724  0.00  0.00     0.418 HD
ENDBRANCH   4   7
TORSDOF 1
ENDMDL
