MODEL 1
REMARK minimizedAffinity -2.91173172
REMARK minimizedRMSD -1
REMARK  1 active torsions:
REMARK  status: ('A' for Active; 'I' for Inactive)
REMARK    1  A    between atoms: C3_4  and  O_7 
ROOT
ATOM      1  C   UNL d   1      -0.124   0.679   0.276  0.00  0.00    -0.033 A 
ATOM      2  C1  UNL d   1       0.756   0.064  -0.618  0.00  0.00     0.039 A 
ATOM      3  C2  UNL d   1       0.964  -1.315  -0.558  0.00  0.00    -0.080 A 
ATOM      4  C3  UNL d   1       0.288  -2.067   0.398  0.00  0.00     0.150 A 
ATOM      5  C4  UNL d   1      -0.592  -1.462   1.290  0.00  0.00    -0.007 A 
ATOM      6  C5  UNL d   1      -0.798  -0.085   1.229  0.00  0.00     0.039 A 
ENDROOT
BRANCH   4   7
ATOM      7  O   UNL d   1       0.463  -3.416   0.499  0.00  0.00    -0.526 OA
ATOM      8  H5  UNL d   1       1.121  -3.691  -0.162  0.00  0.00     0.418 HD
ENDBRANCH   4   7
TORSDOF 1
ENDMDL
