MODEL 1
REMARK minimizedAffinity -2.86769819
REMARK minimizedRMSD -1
REMARK  1 active torsions:
REMARK  status: ('A' for Active; 'I' for Inactive)
REMARK    1  A    between atoms: C3_4  and  O_7 
ROOT
ATOM      1  C   UNL d   1      -1.202  -0.557   1.418  0.00  0.00    -0.033 A 
ATOM      2  C1  UNL d   1      -0.664  -1.689   0.803  0.00  0.00     0.039 A 
ATOM      3  C2  UNL d   1      -0.046  -1.581  -0.444  0.00  0.00    -0.080 A 
ATOM      4  C3  UNL d   1       0.028  -0.337  -1.064  0.00  0.00     0.150 A 
ATOM      5  C4  UNL d   1      -0.502   0.796  -0.455  0.00  0.00    -0.007 A 
ATOM      6  C5  UNL d   1      -1.120   0.686   0.790  0.00  0.00     0.039 A 
ENDROOT
BRANCH   4   7
ATOM      7  O   UNL d   1       0.617  -0.182  -2.284  0.00  0.00    -0.526 OA
ATOM      8  H5  UNL d   1       0.912  -1.054  -2.596  0.00  0.00     0.418 HD
ENDBRANCH   4   7
TORSDOF 1
ENDMDL
