MODEL 1
REMARK minimizedAffinity -3.80387497
REMARK minimizedRMSD -1
REMARK  1 active torsions:
REMARK  status: ('A' for Active; 'I' for Inactive)
REMARK    1  A    between atoms: C3_4  and  O_7 
ROOT
ATOM      1  C   UNL d   1      -0.202  -3.617  -0.692  0.00  0.00    -0.033 A 
ATOM      2  C1  UNL d   1       0.636  -2.842  -1.497  0.00  0.00     0.039 A 
ATOM      3  C2  UNL d   1       0.717  -1.462  -1.297  0.00  0.00    -0.080 A 
ATOM      4  C3  UNL d   1      -0.042  -0.872  -0.291  0.00  0.00     0.150 A 
ATOM      5  C4  UNL d   1      -0.875  -1.638   0.517  0.00  0.00    -0.007 A 
ATOM      6  C5  UNL d   1      -0.956  -3.016   0.315  0.00  0.00     0.039 A 
ENDROOT
BRANCH   4   7
ATOM      7  O   UNL d   1       0.001   0.472  -0.062  0.00  0.00    -0.526 OA
ATOM      8  H5  UNL d   1       0.597   0.876  -0.714  0.00  0.00     0.418 HD
ENDBRANCH   4   7
TORSDOF 1
ENDMDL
