MODEL 1
REMARK minimizedAffinity -4.99639654
REMARK minimizedRMSD -1
REMARK  1 active torsions:
REMARK  status: ('A' for Active; 'I' for Inactive)
REMARK    1  A    between atoms: C3_4  and  O_7 
ROOT
ATOM      1  C   UNL d   1      -0.664   0.379   0.017  0.00  0.00    -0.033 A 
ATOM      2  C1  UNL d   1       0.306  -0.207  -0.798  0.00  0.00     0.039 A 
ATOM      3  C2  UNL d   1       0.672  -1.541  -0.602  0.00  0.00    -0.080 A 
ATOM      4  C3  UNL d   1       0.060  -2.275   0.410  0.00  0.00     0.150 A 
ATOM      5  C4  UNL d   1      -0.910  -1.698   1.223  0.00  0.00    -0.007 A 
ATOM      6  C5  UNL d   1      -1.273  -0.366   1.027  0.00  0.00     0.039 A 
ENDROOT
BRANCH   4   7
ATOM      7  O   UNL d   1       0.387  -3.578   0.642  0.00  0.00    -0.526 OA
ATOM      8  H5  UNL d   1       1.091  -3.834   0.022  0.00  0.00     0.418 HD
ENDBRANCH   4   7
TORSDOF 1
ENDMDL
