MODEL 1
REMARK minimizedAffinity -4.14358282
REMARK minimizedRMSD -1
REMARK  1 active torsions:
REMARK  status: ('A' for Active; 'I' for Inactive)
REMARK    1  A    between atoms: C3_4  and  O_7 
ROOT
ATOM      1  C   UNL d   1       1.942   3.794   1.195  0.00  0.00    -0.033 A 
ATOM      2  C1  UNL d   1       2.337   2.616   1.833  0.00  0.00     0.039 A 
ATOM      3  C2  UNL d   1       1.749   1.399   1.482  0.00  0.00    -0.080 A 
ATOM      4  C3  UNL d   1       0.769   1.373   0.494  0.00  0.00     0.150 A 
ATOM      5  C4  UNL d   1       0.374   2.542  -0.148  0.00  0.00    -0.007 A 
ATOM      6  C5  UNL d   1       0.962   3.757   0.204  0.00  0.00     0.039 A 
ENDROOT
BRANCH   4   7
ATOM      7  O   UNL d   1       0.163   0.211   0.121  0.00  0.00    -0.526 OA
ATOM      8  H5  UNL d   1       0.516  -0.510   0.669  0.00  0.00     0.418 HD
ENDBRANCH   4   7
TORSDOF 1
ENDMDL
