MODEL 1
REMARK minimizedAffinity -4.593853
REMARK minimizedRMSD -1
REMARK  1 active torsions:
REMARK  status: ('A' for Active; 'I' for Inactive)
REMARK    1  A    between atoms: C3_4  and  O_7 
ROOT
ATOM      1  C   UNL d   1       0.321  -3.597   0.207  0.00  0.00    -0.033 A 
ATOM      2  C1  UNL d   1      -0.251  -2.823   1.219  0.00  0.00     0.039 A 
ATOM      3  C2  UNL d   1      -0.508  -1.468   1.002  0.00  0.00    -0.080 A 
ATOM      4  C3  UNL d   1      -0.188  -0.900  -0.228  0.00  0.00     0.150 A 
ATOM      5  C4  UNL d   1       0.378  -1.666  -1.241  0.00  0.00    -0.007 A 
ATOM      6  C5  UNL d   1       0.635  -3.019  -1.023  0.00  0.00     0.039 A 
ENDROOT
BRANCH   4   7
ATOM      7  O   UNL d   1      -0.416   0.420  -0.484  0.00  0.00    -0.526 OA
ATOM      8  H5  UNL d   1      -0.784   0.830   0.317  0.00  0.00     0.418 HD
ENDBRANCH   4   7
TORSDOF 1
ENDMDL
