MODEL 1
REMARK minimizedAffinity -2.66788697
REMARK minimizedRMSD -1
REMARK  1 active torsions:
REMARK  status: ('A' for Active; 'I' for Inactive)
REMARK    1  A    between atoms: C3_4  and  O_7 
ROOT
ATOM      1  C   UNL d   1      -0.469   1.025  -1.269  0.00  0.00    -0.033 A 
ATOM      2  C1  UNL d   1      -0.727   0.588   0.032  0.00  0.00     0.039 A 
ATOM      3  C2  UNL d   1      -0.370  -0.704   0.421  0.00  0.00    -0.080 A 
ATOM      4  C3  UNL d   1       0.244  -1.549  -0.500  0.00  0.00     0.150 A 
ATOM      5  C4  UNL d   1       0.507  -1.120  -1.796  0.00  0.00    -0.007 A 
ATOM      6  C5  UNL d   1       0.149   0.171  -2.183  0.00  0.00     0.039 A 
ENDROOT
BRANCH   4   7
ATOM      7  O   UNL d   1       0.607  -2.821  -0.169  0.00  0.00    -0.526 OA
ATOM      8  H5  UNL d   1       0.337  -2.988   0.750  0.00  0.00     0.418 HD
ENDBRANCH   4   7
TORSDOF 1
ENDMDL
