MODEL 1
REMARK minimizedAffinity -3.45840478
REMARK minimizedRMSD -1
REMARK  1 active torsions:
REMARK  status: ('A' for Active; 'I' for Inactive)
REMARK    1  A    between atoms: C3_4  and  O_7 
ROOT
ATOM      1  C   UNL d   1      -0.157   0.593  -1.388  0.00  0.00    -0.033 A 
ATOM      2  C1  UNL d   1      -0.461   0.367  -0.044  0.00  0.00     0.039 A 
ATOM      3  C2  UNL d   1      -0.327  -0.912   0.498  0.00  0.00    -0.080 A 
ATOM      4  C3  UNL d   1       0.113  -1.955  -0.312  0.00  0.00     0.150 A 
ATOM      5  C4  UNL d   1       0.421  -1.737  -1.651  0.00  0.00    -0.007 A 
ATOM      6  C5  UNL d   1       0.285  -0.459  -2.191  0.00  0.00     0.039 A 
ENDROOT
BRANCH   4   7
ATOM      7  O   UNL d   1       0.255  -3.222   0.172  0.00  0.00    -0.526 OA
ATOM      8  H5  UNL d   1      -0.021  -3.229   1.103  0.00  0.00     0.418 HD
ENDBRANCH   4   7
TORSDOF 1
ENDMDL
