MODEL 1
REMARK minimizedAffinity -3.67342544
REMARK minimizedRMSD -1
REMARK  1 active torsions:
REMARK  status: ('A' for Active; 'I' for Inactive)
REMARK    1  A    between atoms: C3_4  and  O_7 
ROOT
ATOM      1  C   UNL d   1      -1.051  -2.561  -0.138  0.00  0.00    -0.033 A 
ATOM      2  C1  UNL d   1      -1.168  -1.838   1.051  0.00  0.00     0.039 A 
ATOM      3  C2  UNL d   1      -0.770  -0.501   1.099  0.00  0.00    -0.080 A 
ATOM      4  C3  UNL d   1      -0.258   0.101  -0.047  0.00  0.00     0.150 A 
ATOM      5  C4  UNL d   1      -0.142  -0.612  -1.236  0.00  0.00    -0.007 A 
ATOM      6  C5  UNL d   1      -0.540  -1.948  -1.281  0.00  0.00     0.039 A 
ENDROOT
BRANCH   4   7
ATOM      7  O   UNL d   1       0.148   1.402  -0.047  0.00  0.00    -0.526 OA
ATOM      8  H5  UNL d   1       0.037   1.760   0.849  0.00  0.00     0.418 HD
ENDBRANCH   4   7
TORSDOF 1
ENDMDL
