MODEL 1
REMARK minimizedAffinity -4.8492918
REMARK minimizedRMSD -1
REMARK  1 active torsions:
REMARK  status: ('A' for Active; 'I' for Inactive)
REMARK    1  A    between atoms: C3_4  and  O_7 
ROOT
ATOM      1  C   UNL d   1      -0.569   0.296   0.007  0.00  0.00    -0.033 A 
ATOM      2  C1  UNL d   1      -1.115  -0.480   1.031  0.00  0.00     0.039 A 
ATOM      3  C2  UNL d   1      -0.798  -1.837   1.127  0.00  0.00    -0.080 A 
ATOM      4  C3  UNL d   1       0.065  -2.404   0.194  0.00  0.00     0.150 A 
ATOM      5  C4  UNL d   1       0.616  -1.636  -0.827  0.00  0.00    -0.007 A 
ATOM      6  C5  UNL d   1       0.298  -0.282  -0.921  0.00  0.00     0.039 A 
ENDROOT
BRANCH   4   7
ATOM      7  O   UNL d   1       0.400  -3.725   0.243  0.00  0.00    -0.526 OA
ATOM      8  H5  UNL d   1      -0.078  -4.136   0.983  0.00  0.00     0.418 HD
ENDBRANCH   4   7
TORSDOF 1
ENDMDL
