MODEL 1
REMARK minimizedAffinity -3.72937465
REMARK minimizedRMSD -1
REMARK  1 active torsions:
REMARK  status: ('A' for Active; 'I' for Inactive)
REMARK    1  A    between atoms: C3_4  and  O_7 
ROOT
ATOM      1  C   UNL d   1      -0.042   0.626  -0.316  0.00  0.00    -0.033 A 
ATOM      2  C1  UNL d   1       0.696  -0.210  -1.156  0.00  0.00     0.039 A 
ATOM      3  C2  UNL d   1       0.712  -1.588  -0.933  0.00  0.00    -0.080 A 
ATOM      4  C3  UNL d   1      -0.013  -2.117   0.131  0.00  0.00     0.150 A 
ATOM      5  C4  UNL d   1      -0.753  -1.290   0.970  0.00  0.00    -0.007 A 
ATOM      6  C5  UNL d   1      -0.768   0.086   0.746  0.00  0.00     0.039 A 
ENDROOT
BRANCH   4   7
ATOM      7  O   UNL d   1      -0.024  -3.455   0.392  0.00  0.00    -0.526 OA
ATOM      8  H5  UNL d   1       0.555  -3.898  -0.251  0.00  0.00     0.418 HD
ENDBRANCH   4   7
TORSDOF 1
ENDMDL
