MODEL 1
REMARK minimizedAffinity 9.01047516
REMARK minimizedRMSD -1
REMARK  0 active torsions:
REMARK  status: ('A' for Active; 'I' for Inactive)
ROOT
ATOM      1  C   UNL d   1       0.729  -0.871   1.101  0.00  0.00     0.172 C 
ATOM      2  N   UNL d   1       0.056  -1.147   2.348  0.00  0.00    -0.070 N 
ATOM      3  C1  UNL d   1      -0.829  -2.168   2.570  0.00  0.00    -0.004 A 
ATOM      4  C2  UNL d   1      -1.245  -2.089   3.881  0.00  0.00    -0.047 A 
ATOM      5  C3  UNL d   1      -0.588  -0.981   4.468  0.00  0.00    -0.047 A 
ATOM      6  C4  UNL d   1       0.211  -0.416   3.497  0.00  0.00    -0.004 A 
ENDROOT
TORSDOF 0
ENDMDL
