MODEL 1
REMARK minimizedAffinity 5.99940014
REMARK minimizedRMSD -1
REMARK  0 active torsions:
REMARK  status: ('A' for Active; 'I' for Inactive)
ROOT
ATOM      1  C   UNL d   1      -1.867  -0.349   5.999  0.00  0.00     0.172 C 
ATOM      2  N   UNL d   1      -0.746  -0.297   5.089  0.00  0.00    -0.070 N 
ATOM      3  C1  UNL d   1      -0.812  -0.463   3.732  0.00  0.00    -0.004 A 
ATOM      4  C2  UNL d   1       0.465  -0.342   3.229  0.00  0.00    -0.047 A 
ATOM      5  C3  UNL d   1       1.329  -0.096   4.323  0.00  0.00    -0.047 A 
ATOM      6  C4  UNL d   1       0.553  -0.074   5.462  0.00  0.00    -0.004 A 
ENDROOT
TORSDOF 0
ENDMDL
