MODEL 1
REMARK minimizedAffinity 2.98744297
REMARK minimizedRMSD -1
REMARK  0 active torsions:
REMARK  status: ('A' for Active; 'I' for Inactive)
ROOT
ATOM      1  C   UNL d   1      -5.990  -5.999   0.610  0.00  0.00     0.172 C 
ATOM      2  N   UNL d   1      -4.724  -5.355   0.350  0.00  0.00    -0.070 N 
ATOM      3  C1  UNL d   1      -3.551  -5.995   0.049  0.00  0.00    -0.004 A 
ATOM      4  C2  UNL d   1      -2.579  -5.033  -0.127  0.00  0.00    -0.047 A 
ATOM      5  C3  UNL d   1      -3.189  -3.772   0.077  0.00  0.00    -0.047 A 
ATOM      6  C4  UNL d   1      -4.517  -4.001   0.371  0.00  0.00    -0.004 A 
ENDROOT
TORSDOF 0
ENDMDL
