MODEL 1
REMARK minimizedAffinity -1.06599343
REMARK minimizedRMSD -1
REMARK  0 active torsions:
REMARK  status: ('A' for Active; 'I' for Inactive)
ROOT
ATOM      1  C   UNL d   1       0.397  -4.604  -2.639  0.00  0.00     0.172 C 
ATOM      2  N   UNL d   1       0.839  -4.830  -3.995  0.00  0.00    -0.070 N 
ATOM      3  C1  UNL d   1       1.496  -3.923  -4.783  0.00  0.00    -0.004 A 
ATOM      4  C2  UNL d   1       1.742  -4.521  -6.000  0.00  0.00    -0.047 A 
ATOM      5  C3  UNL d   1       1.214  -5.833  -5.942  0.00  0.00    -0.047 A 
ATOM      6  C4  UNL d   1       0.661  -5.998  -4.690  0.00  0.00    -0.004 A 
ENDROOT
TORSDOF 0
ENDMDL
