MODEL 1
REMARK minimizedAffinity 3.1974709
REMARK minimizedRMSD -1
REMARK  0 active torsions:
REMARK  status: ('A' for Active; 'I' for Inactive)
ROOT
ATOM      1  C   UNL d   1       0.765  -1.601   1.111  0.00  0.00     0.172 C 
ATOM      2  N   UNL d   1      -0.165  -1.535   2.214  0.00  0.00    -0.070 N 
ATOM      3  C1  UNL d   1       0.060  -0.907   3.410  0.00  0.00    -0.004 A 
ATOM      4  C2  UNL d   1      -1.065  -1.071   4.190  0.00  0.00    -0.047 A 
ATOM      5  C3  UNL d   1      -1.997  -1.823   3.437  0.00  0.00    -0.047 A 
ATOM      6  C4  UNL d   1      -1.414  -2.097   2.218  0.00  0.00    -0.004 A 
ENDROOT
TORSDOF 0
ENDMDL
