MODEL 1
REMARK minimizedAffinity 9.09519672
REMARK minimizedRMSD -1
REMARK  0 active torsions:
REMARK  status: ('A' for Active; 'I' for Inactive)
ROOT
ATOM      1  C   UNL d   1      -5.173   2.090  -4.046  0.00  0.00     0.172 C 
ATOM      2  N   UNL d   1      -3.902   2.683  -4.391  0.00  0.00    -0.070 N 
ATOM      3  C1  UNL d   1      -3.597   3.280  -5.585  0.00  0.00    -0.004 A 
ATOM      4  C2  UNL d   1      -2.291   3.716  -5.517  0.00  0.00    -0.047 A 
ATOM      5  C3  UNL d   1      -1.794   3.368  -4.239  0.00  0.00    -0.047 A 
ATOM      6  C4  UNL d   1      -2.812   2.729  -3.562  0.00  0.00    -0.004 A 
ENDROOT
TORSDOF 0
ENDMDL
