MODEL 1
REMARK minimizedAffinity 3.69158077
REMARK minimizedRMSD -1
REMARK  0 active torsions:
REMARK  status: ('A' for Active; 'I' for Inactive)
ROOT
ATOM      1  C   UNL d   1      -4.078  -5.279  -0.349  0.00  0.00     0.172 C 
ATOM      2  N   UNL d   1      -4.023  -4.847   1.028  0.00  0.00    -0.070 N 
ATOM      3  C1  UNL d   1      -4.275  -3.578   1.477  0.00  0.00    -0.004 A 
ATOM      4  C2  UNL d   1      -4.119  -3.576   2.846  0.00  0.00    -0.047 A 
ATOM      5  C3  UNL d   1      -3.760  -4.889   3.233  0.00  0.00    -0.047 A 
ATOM      6  C4  UNL d   1      -3.708  -5.655   2.088  0.00  0.00    -0.004 A 
ENDROOT
TORSDOF 0
ENDMDL
