MODEL 1
REMARK minimizedAffinity 9.22413158
REMARK minimizedRMSD -1
REMARK  0 active torsions:
REMARK  status: ('A' for Active; 'I' for Inactive)
ROOT
ATOM      1  C   UNL d   1      -1.914   3.375  -2.766  0.00  0.00     0.172 C 
ATOM      2  N   UNL d   1      -2.155   4.209  -3.921  0.00  0.00    -0.070 N 
ATOM      3  C1  UNL d   1      -2.638   3.780  -5.128  0.00  0.00    -0.004 A 
ATOM      4  C2  UNL d   1      -2.724   4.874  -5.961  0.00  0.00    -0.047 A 
ATOM      5  C3  UNL d   1      -2.275   6.000  -5.230  0.00  0.00    -0.047 A 
ATOM      6  C4  UNL d   1      -1.929   5.559  -3.970  0.00  0.00    -0.004 A 
ENDROOT
TORSDOF 0
ENDMDL
