MODEL 1
REMARK minimizedAffinity 6.69770575
REMARK minimizedRMSD -1
REMARK  0 active torsions:
REMARK  status: ('A' for Active; 'I' for Inactive)
ROOT
ATOM      1  C   UNL d   1       1.439   0.059   1.218  0.00  0.00     0.172 C 
ATOM      2  N   UNL d   1       0.487  -0.865   1.787  0.00  0.00    -0.070 N 
ATOM      3  C1  UNL d   1      -0.400  -0.581   2.791  0.00  0.00    -0.004 A 
ATOM      4  C2  UNL d   1      -1.130  -1.722   3.046  0.00  0.00    -0.047 A 
ATOM      5  C3  UNL d   1      -0.665  -2.727   2.165  0.00  0.00    -0.047 A 
ATOM      6  C4  UNL d   1       0.336  -2.170   1.397  0.00  0.00    -0.004 A 
ENDROOT
TORSDOF 0
ENDMDL
