MODEL 1
REMARK minimizedAffinity 7.80753183
REMARK minimizedRMSD -1
REMARK  0 active torsions:
REMARK  status: ('A' for Active; 'I' for Inactive)
ROOT
ATOM      1  C   UNL d   1       0.400  -4.260  -2.540  0.00  0.00     0.172 C 
ATOM      2  N   UNL d   1       0.766  -4.688  -3.870  0.00  0.00    -0.070 N 
ATOM      3  C1  UNL d   1       1.158  -3.867  -4.893  0.00  0.00    -0.004 A 
ATOM      4  C2  UNL d   1       1.418  -4.658  -5.992  0.00  0.00    -0.047 A 
ATOM      5  C3  UNL d   1       1.174  -6.000  -5.616  0.00  0.00    -0.047 A 
ATOM      6  C4  UNL d   1       0.771  -5.990  -4.297  0.00  0.00    -0.004 A 
ENDROOT
TORSDOF 0
ENDMDL
