MODEL 1
REMARK minimizedAffinity 11.3792429
REMARK minimizedRMSD -1
REMARK  0 active torsions:
REMARK  status: ('A' for Active; 'I' for Inactive)
ROOT
ATOM      1  C   UNL d   1       2.768   0.359   2.177  0.00  0.00     0.172 C 
ATOM      2  N   UNL d   1       1.755  -0.620   1.859  0.00  0.00    -0.070 N 
ATOM      3  C1  UNL d   1       0.409  -0.470   2.061  0.00  0.00    -0.004 A 
ATOM      4  C2  UNL d   1      -0.214  -1.621   1.628  0.00  0.00    -0.047 A 
ATOM      5  C3  UNL d   1       0.793  -2.493   1.151  0.00  0.00    -0.047 A 
ATOM      6  C4  UNL d   1       2.002  -1.848   1.305  0.00  0.00    -0.004 A 
ENDROOT
TORSDOF 0
ENDMDL
