MODEL 1
REMARK minimizedAffinity 4.39309692
REMARK minimizedRMSD -1
REMARK  0 active torsions:
REMARK  status: ('A' for Active; 'I' for Inactive)
ROOT
ATOM      1  C   UNL d   1       3.185  -0.374   2.864  0.00  0.00     0.172 C 
ATOM      2  N   UNL d   1       2.040  -1.173   2.495  0.00  0.00    -0.070 N 
ATOM      3  C1  UNL d   1       1.980  -2.041   1.438  0.00  0.00    -0.004 A 
ATOM      4  C2  UNL d   1       0.723  -2.606   1.426  0.00  0.00    -0.047 A 
ATOM      5  C3  UNL d   1       0.002  -2.057   2.514  0.00  0.00    -0.047 A 
ATOM      6  C4  UNL d   1       0.841  -1.173   3.158  0.00  0.00    -0.004 A 
ENDROOT
TORSDOF 0
ENDMDL
