MODEL 1
REMARK minimizedAffinity 6.55369711
REMARK minimizedRMSD -1
REMARK  0 active torsions:
REMARK  status: ('A' for Active; 'I' for Inactive)
ROOT
ATOM      1  C   UNL d   1      -3.942  -4.965  -0.465  0.00  0.00     0.172 C 
ATOM      2  N   UNL d   1      -4.002  -4.647   0.942  0.00  0.00    -0.070 N 
ATOM      3  C1  UNL d   1      -4.191  -3.398   1.471  0.00  0.00    -0.004 A 
ATOM      4  C2  UNL d   1      -4.187  -3.517   2.844  0.00  0.00    -0.047 A 
ATOM      5  C3  UNL d   1      -3.988  -4.884   3.151  0.00  0.00    -0.047 A 
ATOM      6  C4  UNL d   1      -3.877  -5.561   1.955  0.00  0.00    -0.004 A 
ENDROOT
TORSDOF 0
ENDMDL
