MODEL 1
REMARK minimizedAffinity -2.01808095
REMARK minimizedRMSD -1
REMARK  0 active torsions:
REMARK  status: ('A' for Active; 'I' for Inactive)
ROOT
ATOM      1  C   UNL d   1      -5.330  -4.816   2.261  0.00  0.00     0.172 C 
ATOM      2  N   UNL d   1      -5.274  -4.857   3.704  0.00  0.00    -0.070 N 
ATOM      3  C1  UNL d   1      -4.499  -4.051   4.495  0.00  0.00    -0.004 A 
ATOM      4  C2  UNL d   1      -4.730  -4.402   5.808  0.00  0.00    -0.047 A 
ATOM      5  C3  UNL d   1      -5.675  -5.455   5.805  0.00  0.00    -0.047 A 
ATOM      6  C4  UNL d   1      -5.995  -5.716   4.489  0.00  0.00    -0.004 A 
ENDROOT
TORSDOF 0
ENDMDL
