MODEL 1
REMARK minimizedAffinity 10.1805477
REMARK minimizedRMSD -1
REMARK  0 active torsions:
REMARK  status: ('A' for Active; 'I' for Inactive)
ROOT
ATOM      1  C   UNL d   1      -1.137   2.759  -2.610  0.00  0.00     0.172 C 
ATOM      2  N   UNL d   1      -0.134   2.968  -1.593  0.00  0.00    -0.070 N 
ATOM      3  C1  UNL d   1       0.639   4.090  -1.452  0.00  0.00    -0.004 A 
ATOM      4  C2  UNL d   1       1.468   3.898  -0.367  0.00  0.00    -0.047 A 
ATOM      5  C3  UNL d   1       1.184   2.616   0.161  0.00  0.00    -0.047 A 
ATOM      6  C4  UNL d   1       0.189   2.063  -0.616  0.00  0.00    -0.004 A 
ENDROOT
TORSDOF 0
ENDMDL
