MODEL 1
REMARK minimizedAffinity 2.06211638
REMARK minimizedRMSD -1
REMARK  0 active torsions:
REMARK  status: ('A' for Active; 'I' for Inactive)
ROOT
ATOM      1  C   UNL d   1       2.283  -6.000  -6.000  0.00  0.00     0.172 C 
ATOM      2  N   UNL d   1       1.807  -5.359  -4.796  0.00  0.00    -0.070 N 
ATOM      3  C1  UNL d   1       1.433  -6.000  -3.646  0.00  0.00    -0.004 A 
ATOM      4  C2  UNL d   1       1.043  -5.041  -2.736  0.00  0.00    -0.047 A 
ATOM      5  C3  UNL d   1       1.187  -3.780  -3.362  0.00  0.00    -0.047 A 
ATOM      6  C4  UNL d   1       1.661  -4.006  -4.637  0.00  0.00    -0.004 A 
ENDROOT
TORSDOF 0
ENDMDL
