MODEL 1
REMARK minimizedAffinity 12.7744598
REMARK minimizedRMSD -1
REMARK  0 active torsions:
REMARK  status: ('A' for Active; 'I' for Inactive)
ROOT
ATOM      1  C   UNL d   1      -4.969   4.598  -1.010  0.00  0.00     0.172 C 
ATOM      2  N   UNL d   1      -3.911   3.926  -1.728  0.00  0.00    -0.070 N 
ATOM      3  C1  UNL d   1      -2.756   4.509  -2.178  0.00  0.00    -0.004 A 
ATOM      4  C2  UNL d   1      -2.011   3.537  -2.809  0.00  0.00    -0.047 A 
ATOM      5  C3  UNL d   1      -2.743   2.328  -2.736  0.00  0.00    -0.047 A 
ATOM      6  C4  UNL d   1      -3.915   2.598  -2.062  0.00  0.00    -0.004 A 
ENDROOT
TORSDOF 0
ENDMDL
