MODEL 1
REMARK minimizedAffinity -1.8582865
REMARK minimizedRMSD -1
REMARK  1 active torsions:
REMARK  status: ('A' for Active; 'I' for Inactive)
REMARK    1  A    between atoms: C3_4  and  O_7 
ROOT
ATOM      1  C   UNL d   1      -0.473  -4.050  -2.221  0.00  0.00    -0.033 A 
ATOM      2  C1  UNL d   1       0.552  -4.038  -1.274  0.00  0.00     0.039 A 
ATOM      3  C2  UNL d   1       0.984  -2.829  -0.725  0.00  0.00    -0.080 A 
ATOM      4  C3  UNL d   1       0.383  -1.641  -1.132  0.00  0.00     0.150 A 
ATOM      5  C4  UNL d   1      -0.641  -1.645  -2.073  0.00  0.00    -0.007 A 
ATOM      6  C5  UNL d   1      -1.071  -2.854  -2.620  0.00  0.00     0.039 A 
ENDROOT
BRANCH   4   7
ATOM      7  O   UNL d   1       0.775  -0.436  -0.629  0.00  0.00    -0.526 OA
ATOM      8  H5  UNL d   1       1.510  -0.584  -0.011  0.00  0.00     0.418 HD
ENDBRANCH   4   7
TORSDOF 1
ENDMDL
