MODEL 1
REMARK minimizedAffinity -3.09314704
REMARK minimizedRMSD -1
REMARK  1 active torsions:
REMARK  status: ('A' for Active; 'I' for Inactive)
REMARK    1  A    between atoms: C3_4  and  O_7 
ROOT
ATOM      1  C   UNL d   1       0.278  -4.347  -0.843  0.00  0.00    -0.033 A 
ATOM      2  C1  UNL d   1      -0.938  -3.663  -0.810  0.00  0.00     0.039 A 
ATOM      3  C2  UNL d   1      -0.958  -2.267  -0.836  0.00  0.00    -0.080 A 
ATOM      4  C3  UNL d   1       0.245  -1.568  -0.895  0.00  0.00     0.150 A 
ATOM      5  C4  UNL d   1       1.461  -2.243  -0.932  0.00  0.00    -0.007 A 
ATOM      6  C5  UNL d   1       1.478  -3.637  -0.906  0.00  0.00     0.039 A 
ENDROOT
BRANCH   4   7
ATOM      7  O   UNL d   1       0.277  -0.205  -0.918  0.00  0.00    -0.526 OA
ATOM      8  H5  UNL d   1      -0.635   0.125  -0.858  0.00  0.00     0.418 HD
ENDBRANCH   4   7
TORSDOF 1
ENDMDL
