MODEL 1
REMARK minimizedAffinity -3.36694837
REMARK minimizedRMSD -1
REMARK  1 active torsions:
REMARK  status: ('A' for Active; 'I' for Inactive)
REMARK    1  A    between atoms: C3_4  and  O_7 
ROOT
ATOM      1  C   UNL d   1       0.559   0.006   1.692  0.00  0.00    -0.033 A 
ATOM      2  C1  UNL d   1       0.276   1.320   2.073  0.00  0.00     0.039 A 
ATOM      3  C2  UNL d   1       0.021   2.290   1.102  0.00  0.00    -0.080 A 
ATOM      4  C3  UNL d   1       0.051   1.935  -0.244  0.00  0.00     0.150 A 
ATOM      5  C4  UNL d   1       0.329   0.627  -0.630  0.00  0.00    -0.007 A 
ATOM      6  C5  UNL d   1       0.584  -0.340   0.341  0.00  0.00     0.039 A 
ENDROOT
BRANCH   4   7
ATOM      7  O   UNL d   1      -0.186   2.848  -1.228  0.00  0.00    -0.526 OA
ATOM      8  H5  UNL d   1      -0.335   3.715  -0.814  0.00  0.00     0.418 HD
ENDBRANCH   4   7
TORSDOF 1
ENDMDL
