MODEL 1
REMARK minimizedAffinity -4.08677244
REMARK minimizedRMSD -1
REMARK  1 active torsions:
REMARK  status: ('A' for Active; 'I' for Inactive)
REMARK    1  A    between atoms: C3_4  and  O_7 
ROOT
ATOM      1  C   UNL d   1      -1.119   1.339   2.474  0.00  0.00    -0.033 A 
ATOM      2  C1  UNL d   1      -0.628   2.191   1.483  0.00  0.00     0.039 A 
ATOM      3  C2  UNL d   1      -0.318   1.688   0.218  0.00  0.00    -0.080 A 
ATOM      4  C3  UNL d   1      -0.505   0.333  -0.043  0.00  0.00     0.150 A 
ATOM      5  C4  UNL d   1      -0.998  -0.521   0.939  0.00  0.00    -0.007 A 
ATOM      6  C5  UNL d   1      -1.306  -0.017   2.202  0.00  0.00     0.039 A 
ENDROOT
BRANCH   4   7
ATOM      7  O   UNL d   1      -0.212  -0.205  -1.261  0.00  0.00    -0.526 OA
ATOM      8  H5  UNL d   1       0.146   0.497  -1.829  0.00  0.00     0.418 HD
ENDBRANCH   4   7
TORSDOF 1
ENDMDL
