MODEL 1
REMARK minimizedAffinity -4.60709
REMARK minimizedRMSD -1
REMARK  1 active torsions:
REMARK  status: ('A' for Active; 'I' for Inactive)
REMARK    1  A    between atoms: C3_4  and  O_7 
ROOT
ATOM      1  C   UNL d   1       0.361   0.602  -1.436  0.00  0.00    -0.033 A 
ATOM      2  C1  UNL d   1       0.705  -0.238  -0.374  0.00  0.00     0.039 A 
ATOM      3  C2  UNL d   1       0.456   0.160   0.941  0.00  0.00    -0.080 A 
ATOM      4  C3  UNL d   1      -0.137   1.396   1.180  0.00  0.00     0.150 A 
ATOM      5  C4  UNL d   1      -0.486   2.236   0.127  0.00  0.00    -0.007 A 
ATOM      6  C5  UNL d   1      -0.236   1.838  -1.185  0.00  0.00     0.039 A 
ENDROOT
BRANCH   4   7
ATOM      7  O   UNL d   1      -0.395   1.829   2.447  0.00  0.00    -0.526 OA
ATOM      8  H5  UNL d   1      -0.075   1.159   3.073  0.00  0.00     0.418 HD
ENDBRANCH   4   7
TORSDOF 1
ENDMDL
