MODEL 1
REMARK minimizedAffinity -4.0414319
REMARK minimizedRMSD -1
REMARK  1 active torsions:
REMARK  status: ('A' for Active; 'I' for Inactive)
REMARK    1  A    between atoms: C3_4  and  O_7 
ROOT
ATOM      1  C   UNL d   1       0.723   0.036  -1.394  0.00  0.00    -0.033 A 
ATOM      2  C1  UNL d   1       0.986  -0.576  -0.167  0.00  0.00     0.039 A 
ATOM      3  C2  UNL d   1       0.763   0.119   1.024  0.00  0.00    -0.080 A 
ATOM      4  C3  UNL d   1       0.277   1.422   0.973  0.00  0.00     0.150 A 
ATOM      5  C4  UNL d   1       0.009   2.037  -0.246  0.00  0.00    -0.007 A 
ATOM      6  C5  UNL d   1       0.233   1.341  -1.433  0.00  0.00     0.039 A 
ENDROOT
BRANCH   4   7
ATOM      7  O   UNL d   1       0.049   2.142   2.108  0.00  0.00    -0.526 OA
ATOM      8  H5  UNL d   1       0.306   1.601   2.873  0.00  0.00     0.418 HD
ENDBRANCH   4   7
TORSDOF 1
ENDMDL
