MODEL 1
REMARK minimizedAffinity -2.39969301
REMARK minimizedRMSD -1
REMARK  1 active torsions:
REMARK  status: ('A' for Active; 'I' for Inactive)
REMARK    1  A    between atoms: C3_4  and  O_7 
ROOT
ATOM      1  C   UNL d   1      -0.466   2.433   1.510  0.00  0.00    -0.033 A 
ATOM      2  C1  UNL d   1      -0.338   1.289   2.299  0.00  0.00     0.039 A 
ATOM      3  C2  UNL d   1      -0.063   0.056   1.704  0.00  0.00    -0.080 A 
ATOM      4  C3  UNL d   1       0.082  -0.019   0.322  0.00  0.00     0.150 A 
ATOM      5  C4  UNL d   1      -0.040   1.118  -0.470  0.00  0.00    -0.007 A 
ATOM      6  C5  UNL d   1      -0.316   2.348   0.125  0.00  0.00     0.039 A 
ENDROOT
BRANCH   4   7
ATOM      7  O   UNL d   1       0.346  -1.201  -0.304  0.00  0.00    -0.526 OA
ATOM      8  H5  UNL d   1       0.375  -1.904   0.366  0.00  0.00     0.418 HD
ENDBRANCH   4   7
TORSDOF 1
ENDMDL
