MODEL 1
REMARK minimizedAffinity -3.4813776
REMARK minimizedRMSD -1
REMARK  1 active torsions:
REMARK  status: ('A' for Active; 'I' for Inactive)
REMARK    1  A    between atoms: C3_4  and  O_7 
ROOT
ATOM      1  C   UNL d   1      -0.629   3.935   0.021  0.00  0.00    -0.033 A 
ATOM      2  C1  UNL d   1      -0.609   3.623   1.382  0.00  0.00     0.039 A 
ATOM      3  C2  UNL d   1      -0.330   2.320   1.798  0.00  0.00    -0.080 A 
ATOM      4  C3  UNL d   1      -0.071   1.339   0.844  0.00  0.00     0.150 A 
ATOM      5  C4  UNL d   1      -0.085   1.643  -0.513  0.00  0.00    -0.007 A 
ATOM      6  C5  UNL d   1      -0.365   2.945  -0.927  0.00  0.00     0.039 A 
ENDROOT
BRANCH   4   7
ATOM      7  O   UNL d   1       0.203   0.053   1.202  0.00  0.00    -0.526 OA
ATOM      8  H5  UNL d   1       0.150  -0.016   2.170  0.00  0.00     0.418 HD
ENDBRANCH   4   7
TORSDOF 1
ENDMDL
