MODEL 1
REMARK minimizedAffinity -0.326552659
REMARK minimizedRMSD -1
REMARK  1 active torsions:
REMARK  status: ('A' for Active; 'I' for Inactive)
REMARK    1  A    between atoms: C3_4  and  O_7 
ROOT
ATOM      1  C   UNL d   1      -0.177   0.600   2.817  0.00  0.00    -0.033 A 
ATOM      2  C1  UNL d   1       0.045  -0.731   2.456  0.00  0.00     0.039 A 
ATOM      3  C2  UNL d   1       0.277  -1.064   1.120  0.00  0.00    -0.080 A 
ATOM      4  C3  UNL d   1       0.284  -0.060   0.156  0.00  0.00     0.150 A 
ATOM      5  C4  UNL d   1       0.067   1.268   0.509  0.00  0.00    -0.007 A 
ATOM      6  C5  UNL d   1      -0.165   1.599   1.844  0.00  0.00     0.039 A 
ENDROOT
BRANCH   4   7
ATOM      7  O   UNL d   1       0.500  -0.337  -1.161  0.00  0.00    -0.526 OA
ATOM      8  H5  UNL d   1       0.606  -1.298  -1.259  0.00  0.00     0.418 HD
ENDBRANCH   4   7
TORSDOF 1
ENDMDL
