MODEL 1
REMARK minimizedAffinity -3.04932261
REMARK minimizedRMSD -1
REMARK  1 active torsions:
REMARK  status: ('A' for Active; 'I' for Inactive)
REMARK    1  A    between atoms: C3_4  and  O_7 
ROOT
ATOM      1  C   UNL d   1      -0.102   1.536   2.216  0.00  0.00    -0.033 A 
ATOM      2  C1  UNL d   1      -0.433   1.903   0.910  0.00  0.00     0.039 A 
ATOM      3  C2  UNL d   1      -0.325   0.974  -0.127  0.00  0.00    -0.080 A 
ATOM      4  C3  UNL d   1       0.114  -0.316   0.154  0.00  0.00     0.150 A 
ATOM      5  C4  UNL d   1       0.443  -0.690   1.453  0.00  0.00    -0.007 A 
ATOM      6  C5  UNL d   1       0.335   0.239   2.488  0.00  0.00     0.039 A 
ENDROOT
BRANCH   4   7
ATOM      7  O   UNL d   1       0.240  -1.256  -0.826  0.00  0.00    -0.526 OA
ATOM      8  H5  UNL d   1       0.006  -0.847  -1.676  0.00  0.00     0.418 HD
ENDBRANCH   4   7
TORSDOF 1
ENDMDL
