MODEL 1
REMARK minimizedAffinity 7.40804195
REMARK minimizedRMSD -1
REMARK  1 active torsions:
REMARK  status: ('A' for Active; 'I' for Inactive)
REMARK    1  A    between atoms: C3_4  and  O_7 
ROOT
ATOM      1  C   UNL d   1       0.613   1.127   3.115  0.00  0.00    -0.033 A 
ATOM      2  C1  UNL d   1       0.539   2.299   2.360  0.00  0.00     0.039 A 
ATOM      3  C2  UNL d   1       0.323   2.232   0.982  0.00  0.00    -0.080 A 
ATOM      4  C3  UNL d   1       0.182   0.988   0.372  0.00  0.00     0.150 A 
ATOM      5  C4  UNL d   1       0.251  -0.183   1.119  0.00  0.00    -0.007 A 
ATOM      6  C5  UNL d   1       0.468  -0.114   2.494  0.00  0.00     0.039 A 
ENDROOT
BRANCH   4   7
ATOM      7  O   UNL d   1      -0.025   0.872  -0.970  0.00  0.00    -0.526 OA
ATOM      8  H5  UNL d   1      -0.022   1.762  -1.360  0.00  0.00     0.418 HD
ENDBRANCH   4   7
TORSDOF 1
ENDMDL
