MODEL 1
REMARK minimizedAffinity 7.99782372
REMARK minimizedRMSD -1
REMARK  0 active torsions:
REMARK  status: ('A' for Active; 'I' for Inactive)
ROOT
ATOM      1  C   UNL d   1       5.912   2.547   3.615  0.00  0.00     0.078 C 
ATOM      2  C1  UNL d   1       4.617   2.395   2.874  0.00  0.00    -0.077 A 
ATOM      3  C2  UNL d   1       4.556   1.689   1.667  0.00  0.00    -0.001 A 
ATOM      4  C3  UNL d   1       3.346   1.564   0.983  0.00  0.00     0.003 A 
ATOM      5  C4  UNL d   1       2.188   2.145   1.497  0.00  0.00    -0.005 A 
ATOM      6  C5  UNL d   1       2.240   2.851   2.697  0.00  0.00     0.003 A 
ATOM      7  C6  UNL d   1       3.449   2.977   3.383  0.00  0.00    -0.001 A 
ENDROOT
TORSDOF 0
ENDMDL
