MODEL 1
REMARK minimizedAffinity 0.378548086
REMARK minimizedRMSD -1
REMARK  0 active torsions:
REMARK  status: ('A' for Active; 'I' for Inactive)
ROOT
ATOM      1  C   UNL d   1       4.506   0.191   1.994  0.00  0.00     0.078 C 
ATOM      2  C1  UNL d   1       5.020   0.378   3.390  0.00  0.00    -0.077 A 
ATOM      3  C2  UNL d   1       5.513   1.617   3.818  0.00  0.00    -0.001 A 
ATOM      4  C3  UNL d   1       5.998   1.774   5.117  0.00  0.00     0.003 A 
ATOM      5  C4  UNL d   1       5.995   0.695   6.000  0.00  0.00    -0.005 A 
ATOM      6  C5  UNL d   1       5.509  -0.542   5.583  0.00  0.00     0.003 A 
ATOM      7  C6  UNL d   1       5.024  -0.701   4.284  0.00  0.00    -0.001 A 
ENDROOT
TORSDOF 0
ENDMDL
