MODEL 1
REMARK minimizedAffinity 3.46748376
REMARK minimizedRMSD -1
REMARK  0 active torsions:
REMARK  status: ('A' for Active; 'I' for Inactive)
ROOT
ATOM      1  C   UNL d   1       4.049   1.087   2.791  0.00  0.00     0.078 C 
ATOM      2  C1  UNL d   1       3.314   2.085   1.946  0.00  0.00    -0.077 A 
ATOM      3  C2  UNL d   1       1.990   1.860   1.552  0.00  0.00    -0.001 A 
ATOM      4  C3  UNL d   1       1.321   2.793   0.758  0.00  0.00     0.003 A 
ATOM      5  C4  UNL d   1       1.969   3.957   0.351  0.00  0.00    -0.005 A 
ATOM      6  C5  UNL d   1       3.288   4.189   0.736  0.00  0.00     0.003 A 
ATOM      7  C6  UNL d   1       3.958   3.257   1.530  0.00  0.00    -0.001 A 
ENDROOT
TORSDOF 0
ENDMDL
