MODEL 1
REMARK minimizedAffinity -1.9142164
REMARK minimizedRMSD -1
REMARK  0 active torsions:
REMARK  status: ('A' for Active; 'I' for Inactive)
ROOT
ATOM      1  C   UNL d   1       0.680   0.258  -2.085  0.00  0.00     0.078 C 
ATOM      2  C1  UNL d   1       1.423   1.556  -2.194  0.00  0.00    -0.077 A 
ATOM      3  C2  UNL d   1       1.477   2.448  -1.117  0.00  0.00    -0.001 A 
ATOM      4  C3  UNL d   1       2.164   3.658  -1.236  0.00  0.00     0.003 A 
ATOM      5  C4  UNL d   1       2.801   3.986  -2.431  0.00  0.00    -0.005 A 
ATOM      6  C5  UNL d   1       2.751   3.105  -3.509  0.00  0.00     0.003 A 
ATOM      7  C6  UNL d   1       2.064   1.895  -3.392  0.00  0.00    -0.001 A 
ENDROOT
TORSDOF 0
ENDMDL
