MODEL 1
REMARK minimizedAffinity 5.99162626
REMARK minimizedRMSD -1
REMARK  0 active torsions:
REMARK  status: ('A' for Active; 'I' for Inactive)
ROOT
ATOM      1  C   UNL d   1      -1.670  -0.762   2.228  0.00  0.00     0.078 C 
ATOM      2  C1  UNL d   1      -2.832  -1.197   3.070  0.00  0.00    -0.077 A 
ATOM      3  C2  UNL d   1      -3.052  -2.552   3.349  0.00  0.00    -0.001 A 
ATOM      4  C3  UNL d   1      -4.143  -2.944   4.126  0.00  0.00     0.003 A 
ATOM      5  C4  UNL d   1      -5.023  -1.988   4.629  0.00  0.00    -0.005 A 
ATOM      6  C5  UNL d   1      -4.813  -0.638   4.354  0.00  0.00     0.003 A 
ATOM      7  C6  UNL d   1      -3.723  -0.244   3.578  0.00  0.00    -0.001 A 
ENDROOT
TORSDOF 0
ENDMDL
