MODEL 1
REMARK minimizedAffinity 6.48800087
REMARK minimizedRMSD -1
REMARK  0 active torsions:
REMARK  status: ('A' for Active; 'I' for Inactive)
ROOT
ATOM      1  C   UNL d   1       0.735   0.364  -1.809  0.00  0.00     0.078 C 
ATOM      2  C1  UNL d   1       1.511   0.787  -3.020  0.00  0.00    -0.077 A 
ATOM      3  C2  UNL d   1       2.910   0.740  -3.032  0.00  0.00    -0.001 A 
ATOM      4  C3  UNL d   1       3.620   1.147  -4.163  0.00  0.00     0.003 A 
ATOM      5  C4  UNL d   1       2.940   1.604  -5.290  0.00  0.00    -0.005 A 
ATOM      6  C5  UNL d   1       1.547   1.656  -5.286  0.00  0.00     0.003 A 
ATOM      7  C6  UNL d   1       0.836   1.250  -4.156  0.00  0.00    -0.001 A 
ENDROOT
TORSDOF 0
ENDMDL
