MODEL 1
REMARK minimizedAffinity 5.08447695
REMARK minimizedRMSD -1
REMARK  0 active torsions:
REMARK  status: ('A' for Active; 'I' for Inactive)
ROOT
ATOM      1  C   UNL d   1       2.526  -1.767  -2.083  0.00  0.00     0.078 C 
ATOM      2  C1  UNL d   1       1.312  -1.913  -1.215  0.00  0.00    -0.077 A 
ATOM      3  C2  UNL d   1       0.957  -3.156  -0.675  0.00  0.00    -0.001 A 
ATOM      4  C3  UNL d   1      -0.181  -3.279   0.123  0.00  0.00     0.003 A 
ATOM      5  C4  UNL d   1      -0.976  -2.165   0.386  0.00  0.00    -0.005 A 
ATOM      6  C5  UNL d   1      -0.632  -0.925  -0.149  0.00  0.00     0.003 A 
ATOM      7  C6  UNL d   1       0.506  -0.800  -0.947  0.00  0.00    -0.001 A 
ENDROOT
TORSDOF 0
ENDMDL
