MODEL 1
REMARK minimizedAffinity -0.115371637
REMARK minimizedRMSD -1
REMARK  0 active torsions:
REMARK  status: ('A' for Active; 'I' for Inactive)
ROOT
ATOM      1  C   UNL d   1       1.366   0.388  -3.246  0.00  0.00     0.078 C 
ATOM      2  C1  UNL d   1       0.773  -0.321  -2.066  0.00  0.00    -0.077 A 
ATOM      3  C2  UNL d   1       1.347  -1.497  -1.567  0.00  0.00    -0.001 A 
ATOM      4  C3  UNL d   1       0.778  -2.152  -0.473  0.00  0.00     0.003 A 
ATOM      5  C4  UNL d   1      -0.368  -1.639   0.130  0.00  0.00    -0.005 A 
ATOM      6  C5  UNL d   1      -0.948  -0.471  -0.360  0.00  0.00     0.003 A 
ATOM      7  C6  UNL d   1      -0.381   0.185  -1.454  0.00  0.00    -0.001 A 
ENDROOT
TORSDOF 0
ENDMDL
