MODEL 1
REMARK minimizedAffinity 7.37862921
REMARK minimizedRMSD -1
REMARK  0 active torsions:
REMARK  status: ('A' for Active; 'I' for Inactive)
ROOT
ATOM      1  C   UNL d   1      -5.245  -2.144   3.925  0.00  0.00     0.078 C 
ATOM      2  C1  UNL d   1      -4.211  -1.059   3.878  0.00  0.00    -0.077 A 
ATOM      3  C2  UNL d   1      -2.927  -1.309   3.378  0.00  0.00    -0.001 A 
ATOM      4  C3  UNL d   1      -1.971  -0.293   3.349  0.00  0.00     0.003 A 
ATOM      5  C4  UNL d   1      -2.288   0.980   3.819  0.00  0.00    -0.005 A 
ATOM      6  C5  UNL d   1      -3.562   1.238   4.320  0.00  0.00     0.003 A 
ATOM      7  C6  UNL d   1      -4.520   0.223   4.350  0.00  0.00    -0.001 A 
ENDROOT
TORSDOF 0
ENDMDL
