MODEL 1
REMARK minimizedAffinity 2.70415497
REMARK minimizedRMSD -1
REMARK  0 active torsions:
REMARK  status: ('A' for Active; 'I' for Inactive)
ROOT
ATOM      1  C   UNL d   1       1.664   0.589  -4.719  0.00  0.00     0.078 C 
ATOM      2  C1  UNL d   1       1.602  -0.799  -4.155  0.00  0.00    -0.077 A 
ATOM      3  C2  UNL d   1       2.103  -1.082  -2.878  0.00  0.00    -0.001 A 
ATOM      4  C3  UNL d   1       2.047  -2.381  -2.370  0.00  0.00     0.003 A 
ATOM      5  C4  UNL d   1       1.491  -3.407  -3.131  0.00  0.00    -0.005 A 
ATOM      6  C5  UNL d   1       0.991  -3.135  -4.403  0.00  0.00     0.003 A 
ATOM      7  C6  UNL d   1       1.046  -1.837  -4.913  0.00  0.00    -0.001 A 
ENDROOT
TORSDOF 0
ENDMDL
