MODEL 1
REMARK minimizedAffinity 0.535969198
REMARK minimizedRMSD -1
REMARK  0 active torsions:
REMARK  status: ('A' for Active; 'I' for Inactive)
ROOT
ATOM      1  C   UNL d   1       1.840  -0.380  -2.965  0.00  0.00     0.078 C 
ATOM      2  C1  UNL d   1       1.246  -1.019  -1.745  0.00  0.00    -0.077 A 
ATOM      3  C2  UNL d   1       1.675  -2.279  -1.311  0.00  0.00    -0.001 A 
ATOM      4  C3  UNL d   1       1.107  -2.867  -0.179  0.00  0.00     0.003 A 
ATOM      5  C4  UNL d   1       0.107  -2.202   0.527  0.00  0.00    -0.005 A 
ATOM      6  C5  UNL d   1      -0.328  -0.948   0.102  0.00  0.00     0.003 A 
ATOM      7  C6  UNL d   1       0.239  -0.359  -1.030  0.00  0.00    -0.001 A 
ENDROOT
TORSDOF 0
ENDMDL
