MODEL 1
REMARK minimizedAffinity 0.516363442
REMARK minimizedRMSD -1
REMARK  0 active torsions:
REMARK  status: ('A' for Active; 'I' for Inactive)
ROOT
ATOM      1  C   UNL d   1      -0.707   0.931  -1.105  0.00  0.00     0.078 C 
ATOM      2  C1  UNL d   1       0.102  -0.305  -0.844  0.00  0.00    -0.077 A 
ATOM      3  C2  UNL d   1      -0.051  -1.031   0.343  0.00  0.00    -0.001 A 
ATOM      4  C3  UNL d   1       0.715  -2.174   0.576  0.00  0.00     0.003 A 
ATOM      5  C4  UNL d   1       1.642  -2.600  -0.373  0.00  0.00    -0.005 A 
ATOM      6  C5  UNL d   1       1.804  -1.883  -1.557  0.00  0.00     0.003 A 
ATOM      7  C6  UNL d   1       1.038  -0.740  -1.792  0.00  0.00    -0.001 A 
ENDROOT
TORSDOF 0
ENDMDL
