MODEL 1
REMARK minimizedAffinity 1.26015878
REMARK minimizedRMSD -1
REMARK  0 active torsions:
REMARK  status: ('A' for Active; 'I' for Inactive)
ROOT
ATOM      1  C   UNL d   1      -0.271   1.011  -0.511  0.00  0.00     0.078 C 
ATOM      2  C1  UNL d   1      -0.067  -0.475  -0.485  0.00  0.00    -0.077 A 
ATOM      3  C2  UNL d   1      -1.015  -1.322   0.101  0.00  0.00    -0.001 A 
ATOM      4  C3  UNL d   1      -0.807  -2.702   0.127  0.00  0.00     0.003 A 
ATOM      5  C4  UNL d   1       0.348  -3.247  -0.431  0.00  0.00    -0.005 A 
ATOM      6  C5  UNL d   1       1.298  -2.411  -1.015  0.00  0.00     0.003 A 
ATOM      7  C6  UNL d   1       1.092  -1.030  -1.041  0.00  0.00    -0.001 A 
ENDROOT
TORSDOF 0
ENDMDL
