MODEL 1
REMARK minimizedAffinity 1.29959321
REMARK minimizedRMSD -1
REMARK  0 active torsions:
REMARK  status: ('A' for Active; 'I' for Inactive)
ROOT
ATOM      1  C   UNL d   1       1.565   1.088  -4.513  0.00  0.00     0.078 C 
ATOM      2  C1  UNL d   1       1.399   0.211  -3.308  0.00  0.00    -0.077 A 
ATOM      3  C2  UNL d   1       0.630   0.626  -2.214  0.00  0.00    -0.001 A 
ATOM      4  C3  UNL d   1       0.492  -0.197  -1.095  0.00  0.00     0.003 A 
ATOM      5  C4  UNL d   1       1.121  -1.440  -1.059  0.00  0.00    -0.005 A 
ATOM      6  C5  UNL d   1       1.890  -1.861  -2.142  0.00  0.00     0.003 A 
ATOM      7  C6  UNL d   1       2.029  -1.039  -3.262  0.00  0.00    -0.001 A 
ENDROOT
TORSDOF 0
ENDMDL
