MODEL 1
REMARK minimizedAffinity -1.41597486
REMARK minimizedRMSD -1
REMARK  0 active torsions:
REMARK  status: ('A' for Active; 'I' for Inactive)
ROOT
ATOM      1  C   UNL d   1       1.731  -2.273  -1.243  0.00  0.00     0.078 C 
ATOM      2  C1  UNL d   1       1.356  -0.903  -1.723  0.00  0.00    -0.077 A 
ATOM      3  C2  UNL d   1       0.571  -0.053  -0.935  0.00  0.00    -0.001 A 
ATOM      4  C3  UNL d   1       0.222   1.217  -1.398  0.00  0.00     0.003 A 
ATOM      5  C4  UNL d   1       0.652   1.647  -2.652  0.00  0.00    -0.005 A 
ATOM      6  C5  UNL d   1       1.432   0.807  -3.444  0.00  0.00     0.003 A 
ATOM      7  C6  UNL d   1       1.782  -0.463  -2.982  0.00  0.00    -0.001 A 
ENDROOT
TORSDOF 0
ENDMDL
