MODEL 1
REMARK minimizedAffinity 6.90473843
REMARK minimizedRMSD -1
REMARK  0 active torsions:
REMARK  status: ('A' for Active; 'I' for Inactive)
ROOT
ATOM      1  C   UNL d   1      -4.822  -1.987   3.801  0.00  0.00     0.078 C 
ATOM      2  C1  UNL d   1      -3.780  -0.918   3.662  0.00  0.00    -0.077 A 
ATOM      3  C2  UNL d   1      -2.551  -1.184   3.045  0.00  0.00    -0.001 A 
ATOM      4  C3  UNL d   1      -1.587  -0.182   2.931  0.00  0.00     0.003 A 
ATOM      5  C4  UNL d   1      -1.840   1.093   3.433  0.00  0.00    -0.005 A 
ATOM      6  C5  UNL d   1      -3.058   1.367   4.051  0.00  0.00     0.003 A 
ATOM      7  C6  UNL d   1      -4.024   0.366   4.166  0.00  0.00    -0.001 A 
ENDROOT
TORSDOF 0
ENDMDL
