MODEL 1
REMARK minimizedAffinity -2.73373413
REMARK minimizedRMSD -1
REMARK  0 active torsions:
REMARK  status: ('A' for Active; 'I' for Inactive)
ROOT
ATOM      1  C   UNL d   1       5.301   2.863   4.883  0.00  0.00     0.078 C 
ATOM      2  C1  UNL d   1       5.265   1.366   4.965  0.00  0.00    -0.077 A 
ATOM      3  C2  UNL d   1       5.999   0.680   5.940  0.00  0.00    -0.001 A 
ATOM      4  C3  UNL d   1       5.964  -0.714   5.999  0.00  0.00     0.003 A 
ATOM      5  C4  UNL d   1       5.197  -1.434   5.085  0.00  0.00    -0.005 A 
ATOM      6  C5  UNL d   1       4.465  -0.760   4.110  0.00  0.00     0.003 A 
ATOM      7  C6  UNL d   1       4.499   0.634   4.050  0.00  0.00    -0.001 A 
ENDROOT
TORSDOF 0
ENDMDL
