MODEL 1
REMARK minimizedAffinity -3.54185796
REMARK minimizedRMSD -1
REMARK  0 active torsions:
REMARK  status: ('A' for Active; 'I' for Inactive)
ROOT
ATOM      1  C2' OXE d   1       0.605  -2.202   0.007  0.00  0.00     0.078 C 
ATOM      2  C1' OXE d   1       2.862  -0.762  -0.838  0.00  0.00     0.078 C 
ATOM      3  C1  OXE d   1       1.549  -0.025  -0.753  0.00  0.00    -0.078 A 
ATOM      4  C2  OXE d   1       0.441  -0.749  -0.384  0.00  0.00    -0.078 A 
ATOM      5  C3  OXE d   1      -0.785  -0.106  -0.237  0.00  0.00     0.003 A 
ATOM      6  C4  OXE d   1      -0.931   1.236  -0.610  0.00  0.00    -0.002 A 
ATOM      7  C5  OXE d   1       0.177   1.981  -1.027  0.00  0.00    -0.002 A 
ATOM      8  C6  OXE d   1       1.429   1.378  -1.063  0.00  0.00     0.003 A 
ENDROOT
TORSDOF 0
ENDMDL
