MODEL 1
REMARK minimizedAffinity -5.07443476
REMARK minimizedRMSD -1
REMARK  0 active torsions:
REMARK  status: ('A' for Active; 'I' for Inactive)
ROOT
ATOM      1  C2' OXE d   1       1.165   1.602  -1.097  0.00  0.00     0.078 C 
ATOM      2  C1' OXE d   1      -0.493   0.391   0.818  0.00  0.00     0.078 C 
ATOM      3  C1  OXE d   1       0.365  -0.507  -0.038  0.00  0.00    -0.078 A 
ATOM      4  C2  OXE d   1       1.139   0.091  -1.004  0.00  0.00    -0.078 A 
ATOM      5  C3  OXE d   1       1.990  -0.686  -1.784  0.00  0.00     0.003 A 
ATOM      6  C4  OXE d   1       1.952  -2.083  -1.698  0.00  0.00    -0.002 A 
ATOM      7  C5  OXE d   1       1.142  -2.714  -0.749  0.00  0.00    -0.002 A 
ATOM      8  C6  OXE d   1       0.376  -1.940   0.116  0.00  0.00     0.003 A 
ENDROOT
TORSDOF 0
ENDMDL
