MODEL 1
REMARK minimizedAffinity 0.169060037
REMARK minimizedRMSD -1
REMARK  0 active torsions:
REMARK  status: ('A' for Active; 'I' for Inactive)
ROOT
ATOM      1  C2' OXE d   1       1.782  -0.937  -1.557  0.00  0.00     0.078 C 
ATOM      2  C1' OXE d   1      -0.064   1.176  -1.478  0.00  0.00     0.078 C 
ATOM      3  C1  OXE d   1       0.253   0.470  -0.184  0.00  0.00    -0.078 A 
ATOM      4  C2  OXE d   1       1.122  -0.593  -0.240  0.00  0.00    -0.078 A 
ATOM      5  C3  OXE d   1       1.490  -1.245   0.934  0.00  0.00     0.003 A 
ATOM      6  C4  OXE d   1       0.867  -0.927   2.147  0.00  0.00    -0.002 A 
ATOM      7  C5  OXE d   1      -0.051   0.126   2.219  0.00  0.00    -0.002 A 
ATOM      8  C6  OXE d   1      -0.337   0.861   1.073  0.00  0.00     0.003 A 
ENDROOT
TORSDOF 0
ENDMDL
