MODEL 1
REMARK minimizedAffinity -2.38220501
REMARK minimizedRMSD -1
REMARK  0 active torsions:
REMARK  status: ('A' for Active; 'I' for Inactive)
ROOT
ATOM      1  C2' OXE d   1       0.635   1.970  -1.996  0.00  0.00     0.078 C 
ATOM      2  C1' OXE d   1       2.239  -0.207  -1.240  0.00  0.00     0.078 C 
ATOM      3  C1  OXE d   1       0.998   0.068  -0.428  0.00  0.00    -0.078 A 
ATOM      4  C2  OXE d   1       0.244   1.163  -0.776  0.00  0.00    -0.078 A 
ATOM      5  C3  OXE d   1      -0.939   1.430  -0.094  0.00  0.00     0.003 A 
ATOM      6  C4  OXE d   1      -1.288   0.685   1.039  0.00  0.00    -0.002 A 
ATOM      7  C5  OXE d   1      -0.513  -0.410   1.435  0.00  0.00    -0.002 A 
ATOM      8  C6  OXE d   1       0.608  -0.757   0.688  0.00  0.00     0.003 A 
ENDROOT
TORSDOF 0
ENDMDL
