MODEL 1
REMARK minimizedAffinity -4.06066942
REMARK minimizedRMSD -1
REMARK  0 active torsions:
REMARK  status: ('A' for Active; 'I' for Inactive)
ROOT
ATOM      1  C2' OXE d   1       1.769  -1.612  -1.445  0.00  0.00     0.078 C 
ATOM      2  C1' OXE d   1      -0.713  -2.591  -0.574  0.00  0.00     0.078 C 
ATOM      3  C1  OXE d   1      -0.292  -1.222  -0.102  0.00  0.00    -0.078 A 
ATOM      4  C2  OXE d   1       0.945  -0.770  -0.495  0.00  0.00    -0.078 A 
ATOM      5  C3  OXE d   1       1.360   0.508  -0.132  0.00  0.00     0.003 A 
ATOM      6  C4  OXE d   1       0.596   1.276   0.755  0.00  0.00    -0.002 A 
ATOM      7  C5  OXE d   1      -0.649   0.818   1.200  0.00  0.00    -0.002 A 
ATOM      8  C6  OXE d   1      -1.126  -0.408   0.748  0.00  0.00     0.003 A 
ENDROOT
TORSDOF 0
ENDMDL
