MODEL 1
REMARK minimizedAffinity -6.05269909
REMARK minimizedRMSD -1
REMARK  0 active torsions:
REMARK  status: ('A' for Active; 'I' for Inactive)
ROOT
ATOM      1  C2' OXE d   1       0.588  -1.827   0.399  0.00  0.00     0.078 C 
ATOM      2  C1' OXE d   1       2.764  -0.297  -0.495  0.00  0.00     0.078 C 
ATOM      3  C1  OXE d   1       1.386   0.303  -0.616  0.00  0.00    -0.078 A 
ATOM      4  C2  OXE d   1       0.322  -0.471  -0.219  0.00  0.00    -0.078 A 
ATOM      5  C3  OXE d   1      -0.966   0.055  -0.257  0.00  0.00     0.003 A 
ATOM      6  C4  OXE d   1      -1.203   1.306  -0.839  0.00  0.00    -0.002 A 
ATOM      7  C5  OXE d   1      -0.138   2.095  -1.286  0.00  0.00    -0.002 A 
ATOM      8  C6  OXE d   1       1.164   1.627  -1.143  0.00  0.00     0.003 A 
ENDROOT
TORSDOF 0
ENDMDL
