MODEL 1
REMARK minimizedAffinity -4.58727217
REMARK minimizedRMSD -1
REMARK  0 active torsions:
REMARK  status: ('A' for Active; 'I' for Inactive)
ROOT
ATOM      1  C2' OXE d   1       1.721   1.995  -0.739  0.00  0.00     0.078 C 
ATOM      2  C1' OXE d   1       3.222  -0.361  -1.014  0.00  0.00     0.078 C 
ATOM      3  C1  OXE d   1       1.759  -0.494  -0.672  0.00  0.00    -0.078 A 
ATOM      4  C2  OXE d   1       1.043   0.665  -0.494  0.00  0.00    -0.078 A 
ATOM      5  C3  OXE d   1      -0.323   0.598  -0.231  0.00  0.00     0.003 A 
ATOM      6  C4  OXE d   1      -0.940  -0.637   0.004  0.00  0.00    -0.002 A 
ATOM      7  C5  OXE d   1      -0.219  -1.828  -0.133  0.00  0.00    -0.002 A 
ATOM      8  C6  OXE d   1       1.118  -1.776  -0.512  0.00  0.00     0.003 A 
ENDROOT
TORSDOF 0
ENDMDL
