MODEL 1
REMARK minimizedAffinity -5.45721388
REMARK minimizedRMSD -1
REMARK  0 active torsions:
REMARK  status: ('A' for Active; 'I' for Inactive)
ROOT
ATOM      1  C2' OXE d   1      -0.311   0.015   0.972  0.00  0.00     0.078 C 
ATOM      2  C1' OXE d   1      -0.363  -2.427  -0.412  0.00  0.00     0.078 C 
ATOM      3  C1  OXE d   1       0.747  -1.459  -0.735  0.00  0.00    -0.078 A 
ATOM      4  C2  OXE d   1       0.738  -0.247  -0.087  0.00  0.00    -0.078 A 
ATOM      5  C3  OXE d   1       1.770   0.661  -0.308  0.00  0.00     0.003 A 
ATOM      6  C4  OXE d   1       2.731   0.415  -1.296  0.00  0.00    -0.002 A 
ATOM      7  C5  OXE d   1       2.735  -0.797  -1.996  0.00  0.00    -0.002 A 
ATOM      8  C6  OXE d   1       1.778  -1.759  -1.698  0.00  0.00     0.003 A 
ENDROOT
TORSDOF 0
ENDMDL
