MODEL 1
REMARK minimizedAffinity -4.52829885
REMARK minimizedRMSD -1
REMARK  0 active torsions:
REMARK  status: ('A' for Active; 'I' for Inactive)
ROOT
ATOM      1  C2' OXE d   1      -0.353  -2.609   0.084  0.00  0.00     0.078 C 
ATOM      2  C1' OXE d   1      -1.117   0.042   0.601  0.00  0.00     0.078 C 
ATOM      3  C1  OXE d   1       0.168  -0.185  -0.154  0.00  0.00    -0.078 A 
ATOM      4  C2  OXE d   1       0.558  -1.486  -0.362  0.00  0.00    -0.078 A 
ATOM      5  C3  OXE d   1       1.707  -1.751  -1.101  0.00  0.00     0.003 A 
ATOM      6  C4  OXE d   1       2.550  -0.707  -1.502  0.00  0.00    -0.002 A 
ATOM      7  C5  OXE d   1       2.192   0.624  -1.265  0.00  0.00    -0.002 A 
ATOM      8  C6  OXE d   1       0.986   0.903  -0.631  0.00  0.00     0.003 A 
ENDROOT
TORSDOF 0
ENDMDL
