MODEL 1
REMARK minimizedAffinity -5.39130974
REMARK minimizedRMSD -1
REMARK  0 active torsions:
REMARK  status: ('A' for Active; 'I' for Inactive)
ROOT
ATOM      1  C2' OXE d   1       1.745   2.117  -1.180  0.00  0.00     0.078 C 
ATOM      2  C1' OXE d   1       3.272  -0.231  -1.367  0.00  0.00     0.078 C 
ATOM      3  C1  OXE d   1       1.836  -0.359  -0.921  0.00  0.00    -0.078 A 
ATOM      4  C2  OXE d   1       1.111   0.800  -0.788  0.00  0.00    -0.078 A 
ATOM      5  C3  OXE d   1      -0.234   0.735  -0.432  0.00  0.00     0.003 A 
ATOM      6  C4  OXE d   1      -0.810  -0.486  -0.061  0.00  0.00    -0.002 A 
ATOM      7  C5  OXE d   1      -0.077  -1.674  -0.152  0.00  0.00    -0.002 A 
ATOM      8  C6  OXE d   1       1.232  -1.633  -0.620  0.00  0.00     0.003 A 
ENDROOT
TORSDOF 0
ENDMDL
