MODEL 1
REMARK minimizedAffinity -4.65054464
REMARK minimizedRMSD -1
REMARK  0 active torsions:
REMARK  status: ('A' for Active; 'I' for Inactive)
ROOT
ATOM      1  C2' OXE d   1       1.466  -2.639  -0.369  0.00  0.00     0.078 C 
ATOM      2  C1' OXE d   1       3.174  -0.525  -1.070  0.00  0.00     0.078 C 
ATOM      3  C1  OXE d   1       1.743  -0.190  -0.731  0.00  0.00    -0.078 A 
ATOM      4  C2  OXE d   1       0.903  -1.236  -0.435  0.00  0.00    -0.078 A 
ATOM      5  C3  OXE d   1      -0.414  -0.978  -0.062  0.00  0.00     0.003 A 
ATOM      6  C4  OXE d   1      -0.929   0.321  -0.136  0.00  0.00    -0.002 A 
ATOM      7  C5  OXE d   1      -0.100   1.396  -0.474  0.00  0.00    -0.002 A 
ATOM      8  C6  OXE d   1       1.246   1.163  -0.733  0.00  0.00     0.003 A 
ENDROOT
TORSDOF 0
ENDMDL
