MODEL 1
REMARK minimizedAffinity -4.46260691
REMARK minimizedRMSD -1
REMARK  0 active torsions:
REMARK  status: ('A' for Active; 'I' for Inactive)
ROOT
ATOM      1  C2' OXE d   1       0.319  -3.039   0.401  0.00  0.00     0.078 C 
ATOM      2  C1' OXE d   1      -0.541  -0.399   0.817  0.00  0.00     0.078 C 
ATOM      3  C1  OXE d   1       0.588  -0.626  -0.157  0.00  0.00    -0.078 A 
ATOM      4  C2  OXE d   1       1.033  -1.916  -0.320  0.00  0.00    -0.078 A 
ATOM      5  C3  OXE d   1       2.035  -2.187  -1.247  0.00  0.00     0.003 A 
ATOM      6  C4  OXE d   1       2.697  -1.142  -1.902  0.00  0.00    -0.002 A 
ATOM      7  C5  OXE d   1       2.286   0.183  -1.721  0.00  0.00    -0.002 A 
ATOM      8  C6  OXE d   1       1.207   0.453  -0.886  0.00  0.00     0.003 A 
ENDROOT
TORSDOF 0
ENDMDL
