MODEL 1
REMARK minimizedAffinity -4.40600824
REMARK minimizedRMSD -1
REMARK  0 active torsions:
REMARK  status: ('A' for Active; 'I' for Inactive)
ROOT
ATOM      1  C2' OXE d   1      -1.227   0.718   0.075  0.00  0.00     0.078 C 
ATOM      2  C1' OXE d   1       0.640   2.116  -1.486  0.00  0.00     0.078 C 
ATOM      3  C1  OXE d   1       0.963   0.691  -1.111  0.00  0.00    -0.078 A 
ATOM      4  C2  OXE d   1       0.066   0.030  -0.308  0.00  0.00    -0.078 A 
ATOM      5  C3  OXE d   1       0.289  -1.303   0.023  0.00  0.00     0.003 A 
ATOM      6  C4  OXE d   1       1.492  -1.929  -0.326  0.00  0.00    -0.002 A 
ATOM      7  C5  OXE d   1       2.437  -1.260  -1.110  0.00  0.00    -0.002 A 
ATOM      8  C6  OXE d   1       2.170   0.033  -1.546  0.00  0.00     0.003 A 
ENDROOT
TORSDOF 0
ENDMDL
