MODEL 1
REMARK minimizedAffinity -5.43218994
REMARK minimizedRMSD -1
REMARK  0 active torsions:
REMARK  status: ('A' for Active; 'I' for Inactive)
ROOT
ATOM      1  C2' OXE d   1       0.610  -2.037   0.008  0.00  0.00     0.078 C 
ATOM      2  C1' OXE d   1       2.837  -0.659  -1.002  0.00  0.00     0.078 C 
ATOM      3  C1  OXE d   1       1.566   0.122  -0.785  0.00  0.00    -0.078 A 
ATOM      4  C2  OXE d   1       0.467  -0.570  -0.334  0.00  0.00    -0.078 A 
ATOM      5  C3  OXE d   1      -0.715   0.113  -0.065  0.00  0.00     0.003 A 
ATOM      6  C4  OXE d   1      -0.842   1.468  -0.394  0.00  0.00    -0.002 A 
ATOM      7  C5  OXE d   1       0.253   2.183  -0.891  0.00  0.00    -0.002 A 
ATOM      8  C6  OXE d   1       1.473   1.537  -1.052  0.00  0.00     0.003 A 
ENDROOT
TORSDOF 0
ENDMDL
