MODEL 1
REMARK minimizedAffinity -5.37457418
REMARK minimizedRMSD -1
REMARK  0 active torsions:
REMARK  status: ('A' for Active; 'I' for Inactive)
ROOT
ATOM      1  C2' OXE d   1       2.756  -0.721  -1.171  0.00  0.00     0.078 C 
ATOM      2  C1' OXE d   1       0.990  -2.721  -0.296  0.00  0.00     0.078 C 
ATOM      3  C1  OXE d   1       0.439  -1.331  -0.489  0.00  0.00    -0.078 A 
ATOM      4  C2  OXE d   1       1.320  -0.348  -0.872  0.00  0.00    -0.078 A 
ATOM      5  C3  OXE d   1       0.852   0.940  -1.116  0.00  0.00     0.003 A 
ATOM      6  C4  OXE d   1      -0.475   1.279  -0.827  0.00  0.00    -0.002 A 
ATOM      7  C5  OXE d   1      -1.380   0.302  -0.398  0.00  0.00    -0.002 A 
ATOM      8  C6  OXE d   1      -0.950  -1.013  -0.265  0.00  0.00     0.003 A 
ENDROOT
TORSDOF 0
ENDMDL
