MODEL 1
REMARK minimizedAffinity -5.32321167
REMARK minimizedRMSD -1
REMARK  0 active torsions:
REMARK  status: ('A' for Active; 'I' for Inactive)
ROOT
ATOM      1  C2' OXE d   1       2.940  -0.503  -0.830  0.00  0.00     0.078 C 
ATOM      2  C1' OXE d   1       1.312  -2.789  -0.761  0.00  0.00     0.078 C 
ATOM      3  C1  OXE d   1       0.637  -1.442  -0.692  0.00  0.00    -0.078 A 
ATOM      4  C2  OXE d   1       1.444  -0.330  -0.679  0.00  0.00    -0.078 A 
ATOM      5  C3  OXE d   1       0.870   0.938  -0.671  0.00  0.00     0.003 A 
ATOM      6  C4  OXE d   1      -0.514   1.089  -0.522  0.00  0.00    -0.002 A 
ATOM      7  C5  OXE d   1      -1.351  -0.031  -0.493  0.00  0.00    -0.002 A 
ATOM      8  C6  OXE d   1      -0.797  -1.300  -0.620  0.00  0.00     0.003 A 
ENDROOT
TORSDOF 0
ENDMDL
