MODEL 1
REMARK minimizedAffinity -5.40510368
REMARK minimizedRMSD -1
REMARK  0 active torsions:
REMARK  status: ('A' for Active; 'I' for Inactive)
ROOT
ATOM      1  C2' OXE d   1      -1.448  -2.599  -0.872  0.00  0.00     0.078 C 
ATOM      2  C1' OXE d   1      -1.891   0.067  -0.112  0.00  0.00     0.078 C 
ATOM      3  C1  OXE d   1      -0.491  -0.328  -0.509  0.00  0.00    -0.078 A 
ATOM      4  C2  OXE d   1      -0.273  -1.645  -0.835  0.00  0.00    -0.078 A 
ATOM      5  C3  OXE d   1       0.988  -2.051  -1.261  0.00  0.00     0.003 A 
ATOM      6  C4  OXE d   1       2.071  -1.165  -1.214  0.00  0.00    -0.002 A 
ATOM      7  C5  OXE d   1       1.880   0.172  -0.847  0.00  0.00    -0.002 A 
ATOM      8  C6  OXE d   1       0.600   0.615  -0.534  0.00  0.00     0.003 A 
ENDROOT
TORSDOF 0
ENDMDL
