MODEL 1
REMARK minimizedAffinity -3.82337785
REMARK minimizedRMSD -1
REMARK  3 active torsions:
REMARK  status: ('A' for Active; 'I' for Inactive)
REMARK    1  A    between atoms: C3'_2  and  C2'_3 
REMARK    2  A    between atoms: C2'_3  and  C1'_4 
REMARK    3  A    between atoms: C1'_4  and  C1_5 
ROOT
ATOM      1  C1  N4B d   1       0.752  -0.125   0.434  0.00  0.00    -0.075 A 
ATOM      2  C2  N4B d   1       1.184  -1.108  -0.483  0.00  0.00     0.002 A 
ATOM      3  C3  N4B d   1       2.199  -1.968  -0.139  0.00  0.00     0.002 A 
ATOM      4  C4  N4B d   1       2.805  -1.852   1.102  0.00  0.00    -0.004 A 
ATOM      5  C5  N4B d   1       2.364  -0.917   1.992  0.00  0.00     0.002 A 
ATOM      6  C6  N4B d   1       1.343  -0.048   1.662  0.00  0.00     0.002 A 
ENDROOT
BRANCH   1   7
ATOM      7  C1' N4B d   1      -0.295   0.893   0.072  0.00  0.00     0.057 C 
BRANCH   7   8
ATOM      8  C2' N4B d   1      -1.676   0.324   0.381  0.00  0.00     0.009 C 
BRANCH   8   9
ATOM      9  C3' N4B d   1      -2.364   1.080   1.505  0.00  0.00     0.004 C 
ATOM     10  C4' N4B d   1      -3.838   0.815   1.566  0.00  0.00     0.003 C 
ENDBRANCH   8   9
ENDBRANCH   7   8
ENDBRANCH   1   7
TORSDOF 3
ENDMDL
