MODEL 1
REMARK minimizedAffinity -3.88379288
REMARK minimizedRMSD -1
REMARK  3 active torsions:
REMARK  status: ('A' for Active; 'I' for Inactive)
REMARK    1  A    between atoms: C3'_2  and  C2'_3 
REMARK    2  A    between atoms: C2'_3  and  C1'_4 
REMARK    3  A    between atoms: C1'_4  and  C1_5 
ROOT
ATOM      1  C1  N4B d   1       0.325  -0.094  -0.027  0.00  0.00    -0.075 A 
ATOM      2  C2  N4B d   1       0.651  -1.250  -0.769  0.00  0.00     0.002 A 
ATOM      3  C3  N4B d   1       1.721  -2.026  -0.397  0.00  0.00     0.002 A 
ATOM      4  C4  N4B d   1       2.488  -1.657   0.698  0.00  0.00    -0.004 A 
ATOM      5  C5  N4B d   1       2.151  -0.553   1.425  0.00  0.00     0.002 A 
ATOM      6  C6  N4B d   1       1.076   0.234   1.065  0.00  0.00     0.002 A 
ENDROOT
BRANCH   1   7
ATOM      7  C1' N4B d   1      -0.783   0.833  -0.446  0.00  0.00     0.057 C 
BRANCH   7   8
ATOM      8  C2' N4B d   1      -1.939   0.711   0.543  0.00  0.00     0.009 C 
BRANCH   8   9
ATOM      9  C3' N4B d   1      -3.229   0.292  -0.140  0.00  0.00     0.004 C 
ATOM     10  C4' N4B d   1      -4.310  -0.071   0.834  0.00  0.00     0.003 C 
ENDBRANCH   8   9
ENDBRANCH   7   8
ENDBRANCH   1   7
TORSDOF 3
ENDMDL
