MODEL 1
REMARK minimizedAffinity -5.94084072
REMARK minimizedRMSD -1
REMARK  3 active torsions:
REMARK  status: ('A' for Active; 'I' for Inactive)
REMARK    1  A    between atoms: C3'_2  and  C2'_3 
REMARK    2  A    between atoms: C2'_3  and  C1'_4 
REMARK    3  A    between atoms: C1'_4  and  C1_5 
ROOT
ATOM      1  C1  N4B d   1       0.627  -0.188   0.230  0.00  0.00    -0.075 A 
ATOM      2  C2  N4B d   1       1.516  -1.281   0.318  0.00  0.00     0.002 A 
ATOM      3  C3  N4B d   1       2.858  -1.061   0.508  0.00  0.00     0.002 A 
ATOM      4  C4  N4B d   1       3.335   0.239   0.592  0.00  0.00    -0.004 A 
ATOM      5  C5  N4B d   1       2.465   1.289   0.531  0.00  0.00     0.002 A 
ATOM      6  C6  N4B d   1       1.113   1.082   0.345  0.00  0.00     0.002 A 
ENDROOT
BRANCH   1   7
ATOM      7  C1' N4B d   1      -0.837  -0.377  -0.063  0.00  0.00     0.057 C 
BRANCH   7   8
ATOM      8  C2' N4B d   1      -1.538   0.977  -0.001  0.00  0.00     0.009 C 
BRANCH   8   9
ATOM      9  C3' N4B d   1      -3.013   0.838   0.338  0.00  0.00     0.004 C 
ATOM     10  C4' N4B d   1      -3.376   1.500   1.633  0.00  0.00     0.003 C 
ENDBRANCH   8   9
ENDBRANCH   7   8
ENDBRANCH   1   7
TORSDOF 3
ENDMDL
