MODEL 1
REMARK minimizedAffinity -3.25105023
REMARK minimizedRMSD -1
REMARK  3 active torsions:
REMARK  status: ('A' for Active; 'I' for Inactive)
REMARK    1  A    between atoms: C3'_2  and  C2'_3 
REMARK    2  A    between atoms: C2'_3  and  C1'_4 
REMARK    3  A    between atoms: C1'_4  and  C1_5 
ROOT
ATOM      1  C1  N4B d   1       0.236  -0.379   0.559  0.00  0.00    -0.075 A 
ATOM      2  C2  N4B d   1       0.822  -0.957  -0.589  0.00  0.00     0.002 A 
ATOM      3  C3  N4B d   1       2.075  -1.514  -0.514  0.00  0.00     0.002 A 
ATOM      4  C4  N4B d   1       2.767  -1.487   0.688  0.00  0.00    -0.004 A 
ATOM      5  C5  N4B d   1       2.184  -0.950   1.798  0.00  0.00     0.002 A 
ATOM      6  C6  N4B d   1       0.923  -0.391   1.738  0.00  0.00     0.002 A 
ENDROOT
BRANCH   1   7
ATOM      7  C1' N4B d   1      -1.096   0.318   0.505  0.00  0.00     0.057 C 
BRANCH   7   8
ATOM      8  C2' N4B d   1      -1.731   0.290   1.892  0.00  0.00     0.009 C 
BRANCH   8   9
ATOM      9  C3' N4B d   1      -3.073   1.002   1.917  0.00  0.00     0.004 C 
ATOM     10  C4' N4B d   1      -4.201   0.103   2.327  0.00  0.00     0.003 C 
ENDBRANCH   8   9
ENDBRANCH   7   8
ENDBRANCH   1   7
TORSDOF 3
ENDMDL
