MODEL 1
REMARK minimizedAffinity -6.47057533
REMARK minimizedRMSD -1
REMARK  3 active torsions:
REMARK  status: ('A' for Active; 'I' for Inactive)
REMARK    1  A    between atoms: C3'_2  and  C2'_3 
REMARK    2  A    between atoms: C2'_3  and  C1'_4 
REMARK    3  A    between atoms: C1'_4  and  C1_5 
ROOT
ATOM      1  C1  N4B d   1       0.769   0.263   0.077  0.00  0.00    -0.075 A 
ATOM      2  C2  N4B d   1       0.941  -1.125   0.272  0.00  0.00     0.002 A 
ATOM      3  C3  N4B d   1       2.177  -1.623   0.606  0.00  0.00     0.002 A 
ATOM      4  C4  N4B d   1       3.254  -0.758   0.731  0.00  0.00    -0.004 A 
ATOM      5  C5  N4B d   1       3.073   0.584   0.566  0.00  0.00     0.002 A 
ATOM      6  C6  N4B d   1       1.836   1.099   0.234  0.00  0.00     0.002 A 
ENDROOT
BRANCH   1   7
ATOM      7  C1' N4B d   1      -0.544   0.845  -0.373  0.00  0.00     0.057 C 
BRANCH   7   8
ATOM      8  C2' N4B d   1      -1.677   0.184   0.406  0.00  0.00     0.009 C 
BRANCH   8   9
ATOM      9  C3' N4B d   1      -2.395   1.171   1.310  0.00  0.00     0.004 C 
ATOM     10  C4' N4B d   1      -3.867   0.901   1.412  0.00  0.00     0.003 C 
ENDBRANCH   8   9
ENDBRANCH   7   8
ENDBRANCH   1   7
TORSDOF 3
ENDMDL
