MODEL 1
REMARK minimizedAffinity -5.37047672
REMARK minimizedRMSD -1
REMARK  3 active torsions:
REMARK  status: ('A' for Active; 'I' for Inactive)
REMARK    1  A    between atoms: C3'_2  and  C2'_3 
REMARK    2  A    between atoms: C2'_3  and  C1'_4 
REMARK    3  A    between atoms: C1'_4  and  C1_5 
ROOT
ATOM      1  C1  N4B d   1      -0.029   0.107  -0.043  0.00  0.00    -0.075 A 
ATOM      2  C2  N4B d   1      -0.263  -1.211  -0.491  0.00  0.00     0.002 A 
ATOM      3  C3  N4B d   1       0.736  -2.151  -0.413  0.00  0.00     0.002 A 
ATOM      4  C4  N4B d   1       1.978  -1.791   0.089  0.00  0.00    -0.004 A 
ATOM      5  C5  N4B d   1       2.188  -0.522   0.543  0.00  0.00     0.002 A 
ATOM      6  C6  N4B d   1       1.192   0.431   0.475  0.00  0.00     0.002 A 
ENDROOT
BRANCH   1   7
ATOM      7  C1' N4B d   1      -1.063   1.190  -0.187  0.00  0.00     0.057 C 
BRANCH   7   8
ATOM      8  C2' N4B d   1      -2.453   0.574  -0.066  0.00  0.00     0.009 C 
BRANCH   8   9
ATOM      9  C3' N4B d   1      -3.285   1.256   1.007  0.00  0.00     0.004 C 
ATOM     10  C4' N4B d   1      -4.345   0.360   1.576  0.00  0.00     0.003 C 
ENDBRANCH   8   9
ENDBRANCH   7   8
ENDBRANCH   1   7
TORSDOF 3
ENDMDL
