MODEL 1
REMARK minimizedAffinity -5.7208662
REMARK minimizedRMSD -1
REMARK  3 active torsions:
REMARK  status: ('A' for Active; 'I' for Inactive)
REMARK    1  A    between atoms: C3'_2  and  C2'_3 
REMARK    2  A    between atoms: C2'_3  and  C1'_4 
REMARK    3  A    between atoms: C1'_4  and  C1_5 
ROOT
ATOM      1  C1  N4B d   1       0.989  -0.273  -0.182  0.00  0.00    -0.075 A 
ATOM      2  C2  N4B d   1       1.642  -1.512  -0.002  0.00  0.00     0.002 A 
ATOM      3  C3  N4B d   1       2.967  -1.543   0.358  0.00  0.00     0.002 A 
ATOM      4  C4  N4B d   1       3.661  -0.353   0.524  0.00  0.00    -0.004 A 
ATOM      5  C5  N4B d   1       3.016   0.839   0.372  0.00  0.00     0.002 A 
ATOM      6  C6  N4B d   1       1.684   0.885   0.015  0.00  0.00     0.002 A 
ENDROOT
BRANCH   1   7
ATOM      7  C1' N4B d   1      -0.435  -0.188  -0.659  0.00  0.00     0.057 C 
BRANCH   7   8
ATOM      8  C2' N4B d   1      -1.127   0.982   0.034  0.00  0.00     0.009 C 
BRANCH   8   9
ATOM      9  C3' N4B d   1      -2.637   0.824   0.045  0.00  0.00     0.004 C 
ATOM     10  C4' N4B d   1      -3.252   1.205   1.359  0.00  0.00     0.003 C 
ENDBRANCH   8   9
ENDBRANCH   7   8
ENDBRANCH   1   7
TORSDOF 3
ENDMDL
