MODEL 1
REMARK minimizedAffinity -2.78361225
REMARK minimizedRMSD -1
REMARK  3 active torsions:
REMARK  status: ('A' for Active; 'I' for Inactive)
REMARK    1  A    between atoms: C3'_2  and  C2'_3 
REMARK    2  A    between atoms: C2'_3  and  C1'_4 
REMARK    3  A    between atoms: C1'_4  and  C1_5 
ROOT
ATOM      1  C1  N4B d   1      -0.198   0.398  -0.074  0.00  0.00    -0.075 A 
ATOM      2  C2  N4B d   1       0.308   1.704  -0.255  0.00  0.00     0.002 A 
ATOM      3  C3  N4B d   1       1.535   2.043   0.261  0.00  0.00     0.002 A 
ATOM      4  C4  N4B d   1       2.261   1.102   0.976  0.00  0.00    -0.004 A 
ATOM      5  C5  N4B d   1       1.776  -0.164   1.126  0.00  0.00     0.002 A 
ATOM      6  C6  N4B d   1       0.547  -0.520   0.608  0.00  0.00     0.002 A 
ENDROOT
BRANCH   1   7
ATOM      7  C1' N4B d   1      -1.572   0.007  -0.547  0.00  0.00     0.057 C 
BRANCH   7   8
ATOM      8  C2' N4B d   1      -2.524   1.181  -0.345  0.00  0.00     0.009 C 
BRANCH   8   9
ATOM      9  C3' N4B d   1      -3.630   0.854   0.644  0.00  0.00     0.004 C 
ATOM     10  C4' N4B d   1      -3.670   1.802   1.805  0.00  0.00     0.003 C 
ENDBRANCH   8   9
ENDBRANCH   7   8
ENDBRANCH   1   7
TORSDOF 3
ENDMDL
