MODEL 1
REMARK minimizedAffinity -3.12838316
REMARK minimizedRMSD -1
REMARK  3 active torsions:
REMARK  status: ('A' for Active; 'I' for Inactive)
REMARK    1  A    between atoms: C3'_2  and  C2'_3 
REMARK    2  A    between atoms: C2'_3  and  C1'_4 
REMARK    3  A    between atoms: C1'_4  and  C1_5 
ROOT
ATOM      1  C1  N4B d   1      -0.134   0.070  -0.018  0.00  0.00    -0.075 A 
ATOM      2  C2  N4B d   1      -0.178  -1.155  -0.719  0.00  0.00     0.002 A 
ATOM      3  C3  N4B d   1       0.885  -2.021  -0.654  0.00  0.00     0.002 A 
ATOM      4  C4  N4B d   1       2.006  -1.678   0.087  0.00  0.00    -0.004 A 
ATOM      5  C5  N4B d   1       2.030  -0.504   0.782  0.00  0.00     0.002 A 
ATOM      6  C6  N4B d   1       0.967   0.375   0.729  0.00  0.00     0.002 A 
ENDROOT
BRANCH   1   7
ATOM      7  C1' N4B d   1      -1.237   1.088  -0.128  0.00  0.00     0.057 C 
BRANCH   7   8
ATOM      8  C2' N4B d   1      -2.582   0.391   0.053  0.00  0.00     0.009 C 
BRANCH   8   9
ATOM      9  C3' N4B d   1      -3.666   1.355   0.503  0.00  0.00     0.004 C 
ATOM     10  C4' N4B d   1      -3.381   1.965   1.843  0.00  0.00     0.003 C 
ENDBRANCH   8   9
ENDBRANCH   7   8
ENDBRANCH   1   7
TORSDOF 3
ENDMDL
