MODEL 1
REMARK minimizedAffinity -2.7818954
REMARK minimizedRMSD -1
REMARK  0 active torsions:
REMARK  status: ('A' for Active; 'I' for Inactive)
ROOT
ATOM      1  C1  BNZ d   1      -2.251   1.849   1.456  0.00  0.00     0.000 A 
ATOM      2  C2  BNZ d   1      -2.304   1.465   0.143  0.00  0.00     0.000 A 
ATOM      3  C3  BNZ d   1      -1.184   1.491  -0.640  0.00  0.00     0.000 A 
ATOM      4  C4  BNZ d   1      -0.023   1.938  -0.120  0.00  0.00     0.000 A 
ATOM      5  C5  BNZ d   1       0.045   2.338   1.200  0.00  0.00     0.000 A 
ATOM      6  C6  BNZ d   1      -1.076   2.273   1.995  0.00  0.00     0.000 A 
ENDROOT
TORSDOF 0
ENDMDL
