MODEL 1
REMARK minimizedAffinity 0.000710300403
REMARK minimizedRMSD -1
REMARK  0 active torsions:
REMARK  status: ('A' for Active; 'I' for Inactive)
ROOT
ATOM      1  C1  BNZ d   1      -0.070  -2.549  -1.533  0.00  0.00     0.000 A 
ATOM      2  C2  BNZ d   1       0.974  -1.675  -1.395  0.00  0.00     0.000 A 
ATOM      3  C3  BNZ d   1       2.034  -1.973  -0.585  0.00  0.00     0.000 A 
ATOM      4  C4  BNZ d   1       2.030  -3.125   0.116  0.00  0.00     0.000 A 
ATOM      5  C5  BNZ d   1       0.980  -4.013  -0.006  0.00  0.00     0.000 A 
ATOM      6  C6  BNZ d   1      -0.067  -3.728  -0.852  0.00  0.00     0.000 A 
ENDROOT
TORSDOF 0
ENDMDL
