MODEL 1
REMARK minimizedAffinity 0.348731637
REMARK minimizedRMSD -1
REMARK  0 active torsions:
REMARK  status: ('A' for Active; 'I' for Inactive)
ROOT
ATOM      1  C1  BNZ d   1       0.573  -3.386   0.409  0.00  0.00     0.000 A 
ATOM      2  C2  BNZ d   1       1.848  -2.898   0.517  0.00  0.00     0.000 A 
ATOM      3  C3  BNZ d   1       2.308  -1.945  -0.348  0.00  0.00     0.000 A 
ATOM      4  C4  BNZ d   1       1.508  -1.511  -1.343  0.00  0.00     0.000 A 
ATOM      5  C5  BNZ d   1       0.223  -2.000  -1.471  0.00  0.00     0.000 A 
ATOM      6  C6  BNZ d   1      -0.250  -2.931  -0.575  0.00  0.00     0.000 A 
ENDROOT
TORSDOF 0
ENDMDL
