MODEL 1
REMARK minimizedAffinity 0.0286239684
REMARK minimizedRMSD -1
REMARK  0 active torsions:
REMARK  status: ('A' for Active; 'I' for Inactive)
ROOT
ATOM      1  C1  BNZ d   1       0.613   2.505   0.085  0.00  0.00     0.000 A 
ATOM      2  C2  BNZ d   1      -0.039   1.467   0.697  0.00  0.00     0.000 A 
ATOM      3  C3  BNZ d   1      -1.046   1.704   1.591  0.00  0.00     0.000 A 
ATOM      4  C4  BNZ d   1      -1.372   2.975   1.902  0.00  0.00     0.000 A 
ATOM      5  C5  BNZ d   1      -0.718   4.031   1.300  0.00  0.00     0.000 A 
ATOM      6  C6  BNZ d   1       0.269   3.790   0.371  0.00  0.00     0.000 A 
ENDROOT
TORSDOF 0
ENDMDL
