MODEL 1
REMARK minimizedAffinity 0.00218971306
REMARK minimizedRMSD -1
REMARK  0 active torsions:
REMARK  status: ('A' for Active; 'I' for Inactive)
ROOT
ATOM      1  C1  BNZ d   1       0.768  -0.385  -0.756  0.00  0.00     0.000 A 
ATOM      2  C2  BNZ d   1       0.252  -1.642  -0.926  0.00  0.00     0.000 A 
ATOM      3  C3  BNZ d   1       0.937  -2.744  -0.498  0.00  0.00     0.000 A 
ATOM      4  C4  BNZ d   1       2.155  -2.592   0.062  0.00  0.00     0.000 A 
ATOM      5  C5  BNZ d   1       2.693  -1.332   0.232  0.00  0.00     0.000 A 
ATOM      6  C6  BNZ d   1       1.983  -0.222  -0.165  0.00  0.00     0.000 A 
ENDROOT
TORSDOF 0
ENDMDL
