MODEL 1
REMARK minimizedAffinity 4.41442871
REMARK minimizedRMSD -1
REMARK  0 active torsions:
REMARK  status: ('A' for Active; 'I' for Inactive)
ROOT
ATOM      1  C1  BNZ d   1       1.443  -2.876  -0.695  0.00  0.00     0.000 A 
ATOM      2  C2  BNZ d   1       1.802  -3.006  -2.010  0.00  0.00     0.000 A 
ATOM      3  C3  BNZ d   1       2.754  -2.193  -2.560  0.00  0.00     0.000 A 
ATOM      4  C4  BNZ d   1       3.316  -1.226  -1.806  0.00  0.00     0.000 A 
ATOM      5  C5  BNZ d   1       2.958  -1.076  -0.481  0.00  0.00     0.000 A 
ATOM      6  C6  BNZ d   1       2.028  -1.921   0.079  0.00  0.00     0.000 A 
ENDROOT
TORSDOF 0
ENDMDL
