MODEL 1
REMARK minimizedAffinity -1.19166255
REMARK minimizedRMSD -1
REMARK  0 active torsions:
REMARK  status: ('A' for Active; 'I' for Inactive)
ROOT
ATOM      1  C1  BNZ d   1      -4.130   0.996  -4.419  0.00  0.00     0.000 A 
ATOM      2  C2  BNZ d   1      -5.069   1.992  -4.376  0.00  0.00     0.000 A 
ATOM      3  C3  BNZ d   1      -5.790   2.226  -3.238  0.00  0.00     0.000 A 
ATOM      4  C4  BNZ d   1      -5.600   1.438  -2.160  0.00  0.00     0.000 A 
ATOM      5  C5  BNZ d   1      -4.664   0.424  -2.191  0.00  0.00     0.000 A 
ATOM      6  C6  BNZ d   1      -3.913   0.217  -3.325  0.00  0.00     0.000 A 
ENDROOT
TORSDOF 0
ENDMDL
