MODEL 1
REMARK minimizedAffinity 2.71167922
REMARK minimizedRMSD -1
REMARK  0 active torsions:
REMARK  status: ('A' for Active; 'I' for Inactive)
ROOT
ATOM      1  C1  BNZ d   1      -1.943   3.497   1.320  0.00  0.00     0.000 A 
ATOM      2  C2  BNZ d   1      -0.682   3.615   0.798  0.00  0.00     0.000 A 
ATOM      3  C3  BNZ d   1       0.335   2.815   1.237  0.00  0.00     0.000 A 
ATOM      4  C4  BNZ d   1       0.101   1.927   2.224  0.00  0.00     0.000 A 
ATOM      5  C5  BNZ d   1      -1.162   1.802   2.767  0.00  0.00     0.000 A 
ATOM      6  C6  BNZ d   1      -2.193   2.582   2.296  0.00  0.00     0.000 A 
ENDROOT
TORSDOF 0
ENDMDL
