MODEL 1
REMARK minimizedAffinity 1.85118246
REMARK minimizedRMSD -1
REMARK  0 active torsions:
REMARK  status: ('A' for Active; 'I' for Inactive)
ROOT
ATOM      1  C1  BNZ d   1       2.196  -2.676  -0.359  0.00  0.00     0.000 A 
ATOM      2  C2  BNZ d   1       0.898  -3.051  -0.585  0.00  0.00     0.000 A 
ATOM      3  C3  BNZ d   1      -0.051  -2.123  -0.911  0.00  0.00     0.000 A 
ATOM      4  C4  BNZ d   1       0.289  -0.819  -0.972  0.00  0.00     0.000 A 
ATOM      5  C5  BNZ d   1       1.592  -0.425  -0.738  0.00  0.00     0.000 A 
ATOM      6  C6  BNZ d   1       2.553  -1.366  -0.448  0.00  0.00     0.000 A 
ENDROOT
TORSDOF 0
ENDMDL
