MODEL 1
REMARK minimizedAffinity 1.14874077
REMARK minimizedRMSD -1
REMARK  0 active torsions:
REMARK  status: ('A' for Active; 'I' for Inactive)
ROOT
ATOM      1  C1  BNZ d   1      -0.627   1.525   1.659  0.00  0.00     0.000 A 
ATOM      2  C2  BNZ d   1      -0.401   1.790   0.335  0.00  0.00     0.000 A 
ATOM      3  C3  BNZ d   1       0.693   1.278  -0.304  0.00  0.00     0.000 A 
ATOM      4  C4  BNZ d   1       1.581   0.538   0.391  0.00  0.00     0.000 A 
ATOM      5  C5  BNZ d   1       1.372   0.271   1.729  0.00  0.00     0.000 A 
ATOM      6  C6  BNZ d   1       0.249   0.754   2.359  0.00  0.00     0.000 A 
ENDROOT
TORSDOF 0
ENDMDL
