MODEL 1
REMARK minimizedAffinity -2.72579193
REMARK minimizedRMSD -1
REMARK  0 active torsions:
REMARK  status: ('A' for Active; 'I' for Inactive)
ROOT
ATOM      1  C   UNL d   1       0.451   2.973  -0.004  0.00  0.00     0.077 C 
ATOM      2  C1  UNL d   1       0.535   1.582  -0.561  0.00  0.00    -0.074 A 
ATOM      3  C2  UNL d   1       0.526   1.359  -1.942  0.00  0.00    -0.005 A 
ATOM      4  C3  UNL d   1       0.614   0.062  -2.445  0.00  0.00     0.006 A 
ATOM      5  C4  UNL d   1       0.712  -1.025  -1.574  0.00  0.00    -0.005 A 
ATOM      6  C5  UNL d   1       0.723  -0.821  -0.191  0.00  0.00    -0.074 A 
ATOM      7  C6  UNL d   1       0.837  -1.976   0.759  0.00  0.00     0.077 C 
ATOM      8  C7  UNL d   1       0.641   0.487   0.307  0.00  0.00    -0.001 A 
ENDROOT
TORSDOF 0
ENDMDL
