MODEL 1
REMARK minimizedAffinity -4.58268785
REMARK minimizedRMSD -1
REMARK  0 active torsions:
REMARK  status: ('A' for Active; 'I' for Inactive)
ROOT
ATOM      1  C   UNL d   1       0.202  -3.718   0.369  0.00  0.00     0.077 C 
ATOM      2  C1  UNL d   1      -0.082  -2.270   0.638  0.00  0.00    -0.074 A 
ATOM      3  C2  UNL d   1      -0.862  -1.882   1.733  0.00  0.00    -0.005 A 
ATOM      4  C3  UNL d   1      -1.109  -0.531   1.976  0.00  0.00     0.006 A 
ATOM      5  C4  UNL d   1      -0.581   0.444   1.129  0.00  0.00    -0.005 A 
ATOM      6  C5  UNL d   1       0.201   0.074   0.030  0.00  0.00    -0.074 A 
ATOM      7  C6  UNL d   1       0.785   1.110  -0.885  0.00  0.00     0.077 C 
ATOM      8  C7  UNL d   1       0.452  -1.285  -0.204  0.00  0.00    -0.001 A 
ENDROOT
TORSDOF 0
ENDMDL
