MODEL 1
REMARK minimizedAffinity -1.3097254
REMARK minimizedRMSD -1
REMARK  0 active torsions:
REMARK  status: ('A' for Active; 'I' for Inactive)
ROOT
ATOM      1  C   UNL d   1       0.298   2.041   0.079  0.00  0.00     0.077 C 
ATOM      2  C1  UNL d   1       0.181   0.650  -0.470  0.00  0.00    -0.074 A 
ATOM      3  C2  UNL d   1       0.436   0.386  -1.820  0.00  0.00    -0.005 A 
ATOM      4  C3  UNL d   1       0.333  -0.914  -2.314  0.00  0.00     0.006 A 
ATOM      5  C4  UNL d   1      -0.025  -1.962  -1.465  0.00  0.00    -0.005 A 
ATOM      6  C5  UNL d   1      -0.283  -1.718  -0.113  0.00  0.00    -0.074 A 
ATOM      7  C6  UNL d   1      -0.659  -2.834   0.815  0.00  0.00     0.077 C 
ATOM      8  C7  UNL d   1      -0.170  -0.410   0.378  0.00  0.00    -0.001 A 
ENDROOT
TORSDOF 0
ENDMDL
