MODEL 1
REMARK minimizedAffinity -1.72063935
REMARK minimizedRMSD -1
REMARK  0 active torsions:
REMARK  status: ('A' for Active; 'I' for Inactive)
ROOT
ATOM      1  C   UNL d   1      -0.003  -2.968  -2.290  0.00  0.00     0.077 C 
ATOM      2  C1  UNL d   1      -0.129  -2.241  -0.984  0.00  0.00    -0.074 A 
ATOM      3  C2  UNL d   1      -0.270  -2.942   0.218  0.00  0.00    -0.005 A 
ATOM      4  C3  UNL d   1      -0.376  -2.253   1.426  0.00  0.00     0.006 A 
ATOM      5  C4  UNL d   1      -0.342  -0.858   1.444  0.00  0.00    -0.005 A 
ATOM      6  C5  UNL d   1      -0.200  -0.140   0.253  0.00  0.00    -0.074 A 
ATOM      7  C6  UNL d   1      -0.152   1.359   0.255  0.00  0.00     0.077 C 
ATOM      8  C7  UNL d   1      -0.087  -0.840  -0.956  0.00  0.00    -0.001 A 
ENDROOT
TORSDOF 0
ENDMDL
