MODEL 1
REMARK minimizedAffinity -1.94687665
REMARK minimizedRMSD -1
REMARK  0 active torsions:
REMARK  status: ('A' for Active; 'I' for Inactive)
ROOT
ATOM      1  C   UNL d   1       0.058   1.539  -0.147  0.00  0.00     0.077 C 
ATOM      2  C1  UNL d   1      -0.273   0.128   0.236  0.00  0.00    -0.074 A 
ATOM      3  C2  UNL d   1      -0.562  -0.208   1.562  0.00  0.00    -0.005 A 
ATOM      4  C3  UNL d   1      -0.877  -1.524   1.902  0.00  0.00     0.006 A 
ATOM      5  C4  UNL d   1      -0.906  -2.515   0.920  0.00  0.00    -0.005 A 
ATOM      6  C5  UNL d   1      -0.621  -2.198  -0.411  0.00  0.00    -0.074 A 
ATOM      7  C6  UNL d   1      -0.658  -3.250  -1.480  0.00  0.00     0.077 C 
ATOM      8  C7  UNL d   1      -0.312  -0.873  -0.746  0.00  0.00    -0.001 A 
ENDROOT
TORSDOF 0
ENDMDL
