MODEL 1
REMARK minimizedAffinity -5.03900194
REMARK minimizedRMSD -1
REMARK  0 active torsions:
REMARK  status: ('A' for Active; 'I' for Inactive)
ROOT
ATOM      1  C   UNL d   1       0.404  -3.748   0.330  0.00  0.00     0.077 C 
ATOM      2  C1  UNL d   1       0.018  -2.300   0.274  0.00  0.00    -0.074 A 
ATOM      3  C2  UNL d   1      -0.657  -1.694   1.339  0.00  0.00    -0.005 A 
ATOM      4  C3  UNL d   1      -1.001  -0.344   1.277  0.00  0.00     0.006 A 
ATOM      5  C4  UNL d   1      -0.675   0.413   0.151  0.00  0.00    -0.005 A 
ATOM      6  C5  UNL d   1       0.000  -0.175  -0.923  0.00  0.00    -0.074 A 
ATOM      7  C6  UNL d   1       0.367   0.627  -2.136  0.00  0.00     0.077 C 
ATOM      8  C7  UNL d   1       0.349  -1.530  -0.850  0.00  0.00    -0.001 A 
ENDROOT
TORSDOF 0
ENDMDL
