MODEL 1
REMARK minimizedAffinity -4.75751352
REMARK minimizedRMSD -1
REMARK  0 active torsions:
REMARK  status: ('A' for Active; 'I' for Inactive)
ROOT
ATOM      1  C   UNL d   1       0.392  -2.646  -2.936  0.00  0.00     0.077 C 
ATOM      2  C1  UNL d   1       0.028  -2.058  -1.605  0.00  0.00    -0.074 A 
ATOM      3  C2  UNL d   1      -0.486  -2.861  -0.581  0.00  0.00    -0.005 A 
ATOM      4  C3  UNL d   1      -0.811  -2.303   0.655  0.00  0.00     0.006 A 
ATOM      5  C4  UNL d   1      -0.625  -0.938   0.880  0.00  0.00    -0.005 A 
ATOM      6  C5  UNL d   1      -0.112  -0.120  -0.131  0.00  0.00    -0.074 A 
ATOM      7  C6  UNL d   1       0.103   1.347   0.097  0.00  0.00     0.077 C 
ATOM      8  C7  UNL d   1       0.219  -0.690  -1.368  0.00  0.00    -0.001 A 
ENDROOT
TORSDOF 0
ENDMDL
