MODEL 1
REMARK minimizedAffinity -4.1553297
REMARK minimizedRMSD -1
REMARK  0 active torsions:
REMARK  status: ('A' for Active; 'I' for Inactive)
ROOT
ATOM      1  C   UNL d   1       0.165  -2.619   0.676  0.00  0.00     0.077 C 
ATOM      2  C1  UNL d   1       0.294  -1.180   0.273  0.00  0.00    -0.074 A 
ATOM      3  C2  UNL d   1      -0.070  -0.758  -1.010  0.00  0.00    -0.005 A 
ATOM      4  C3  UNL d   1       0.046   0.585  -1.368  0.00  0.00     0.006 A 
ATOM      5  C4  UNL d   1       0.526   1.519  -0.449  0.00  0.00    -0.005 A 
ATOM      6  C5  UNL d   1       0.894   1.115   0.839  0.00  0.00    -0.074 A 
ATOM      7  C6  UNL d   1       1.403   2.107   1.842  0.00  0.00     0.077 C 
ATOM      8  C7  UNL d   1       0.768  -0.235   1.193  0.00  0.00    -0.001 A 
ENDROOT
TORSDOF 0
ENDMDL
