MODEL 1
REMARK minimizedAffinity -3.24567842
REMARK minimizedRMSD -1
REMARK  0 active torsions:
REMARK  status: ('A' for Active; 'I' for Inactive)
ROOT
ATOM      1  C   UNL d   1       0.586   0.766  -2.283  0.00  0.00     0.077 C 
ATOM      2  C1  UNL d   1       0.259   0.026  -1.020  0.00  0.00    -0.074 A 
ATOM      3  C2  UNL d   1      -0.177   0.708   0.121  0.00  0.00    -0.005 A 
ATOM      4  C3  UNL d   1      -0.487   0.006   1.285  0.00  0.00     0.006 A 
ATOM      5  C4  UNL d   1      -0.364  -1.384   1.321  0.00  0.00    -0.005 A 
ATOM      6  C5  UNL d   1       0.069  -2.083   0.190  0.00  0.00    -0.074 A 
ATOM      7  C6  UNL d   1       0.197  -3.578   0.209  0.00  0.00     0.077 C 
ATOM      8  C7  UNL d   1       0.372  -1.371  -0.978  0.00  0.00    -0.001 A 
ENDROOT
TORSDOF 0
ENDMDL
