MODEL 1
REMARK minimizedAffinity 0.561197698
REMARK minimizedRMSD -1
REMARK  0 active torsions:
REMARK  status: ('A' for Active; 'I' for Inactive)
ROOT
ATOM      1  C   UNL d   1       0.524  -0.759  -2.337  0.00  0.00     0.077 C 
ATOM      2  C1  UNL d   1       0.121  -1.141  -0.944  0.00  0.00    -0.074 A 
ATOM      3  C2  UNL d   1      -0.544  -2.346  -0.692  0.00  0.00    -0.005 A 
ATOM      4  C3  UNL d   1      -0.903  -2.692   0.610  0.00  0.00     0.006 A 
ATOM      5  C4  UNL d   1      -0.603  -1.839   1.673  0.00  0.00    -0.005 A 
ATOM      6  C5  UNL d   1       0.062  -0.630   1.441  0.00  0.00    -0.074 A 
ATOM      7  C6  UNL d   1       0.402   0.294   2.572  0.00  0.00     0.077 C 
ATOM      8  C7  UNL d   1       0.426  -0.293   0.130  0.00  0.00    -0.001 A 
ENDROOT
TORSDOF 0
ENDMDL
