MODEL 1
REMARK minimizedAffinity -2.60007381
REMARK minimizedRMSD -1
REMARK  0 active torsions:
REMARK  status: ('A' for Active; 'I' for Inactive)
ROOT
ATOM      1  C   UNL d   1       0.347   1.693   0.356  0.00  0.00     0.077 C 
ATOM      2  C1  UNL d   1       0.248   0.208   0.173  0.00  0.00    -0.074 A 
ATOM      3  C2  UNL d   1       1.174  -0.483  -0.615  0.00  0.00    -0.005 A 
ATOM      4  C3  UNL d   1       1.075  -1.866  -0.767  0.00  0.00     0.006 A 
ATOM      5  C4  UNL d   1       0.050  -2.571  -0.135  0.00  0.00    -0.005 A 
ATOM      6  C5  UNL d   1      -0.885  -1.897   0.658  0.00  0.00    -0.074 A 
ATOM      7  C6  UNL d   1      -1.986  -2.641   1.353  0.00  0.00     0.077 C 
ATOM      8  C7  UNL d   1      -0.774  -0.509   0.812  0.00  0.00    -0.001 A 
ENDROOT
TORSDOF 0
ENDMDL
