MODEL 1
REMARK minimizedAffinity -5.46280003
REMARK minimizedRMSD -1
REMARK  0 active torsions:
REMARK  status: ('A' for Active; 'I' for Inactive)
ROOT
ATOM      1  C   UNL d   1       0.875   1.537   0.252  0.00  0.00     0.077 C 
ATOM      2  C1  UNL d   1       0.264   0.175   0.398  0.00  0.00    -0.074 A 
ATOM      3  C2  UNL d   1      -0.511  -0.148   1.516  0.00  0.00    -0.005 A 
ATOM      4  C3  UNL d   1      -1.081  -1.416   1.633  0.00  0.00     0.006 A 
ATOM      5  C4  UNL d   1      -0.881  -2.371   0.636  0.00  0.00    -0.005 A 
ATOM      6  C5  UNL d   1      -0.109  -2.066  -0.489  0.00  0.00    -0.074 A 
ATOM      7  C6  UNL d   1       0.107  -3.077  -1.575  0.00  0.00     0.077 C 
ATOM      8  C7  UNL d   1       0.454  -0.787  -0.604  0.00  0.00    -0.001 A 
ENDROOT
TORSDOF 0
ENDMDL
