MODEL 1
REMARK minimizedAffinity -5.04957676
REMARK minimizedRMSD -1
REMARK  0 active torsions:
REMARK  status: ('A' for Active; 'I' for Inactive)
ROOT
ATOM      1  C   UNL d   1      -0.139  -3.081  -2.539  0.00  0.00     0.077 C 
ATOM      2  C1  UNL d   1      -0.080  -2.317  -1.250  0.00  0.00    -0.074 A 
ATOM      3  C2  UNL d   1      -0.122  -2.980  -0.019  0.00  0.00    -0.005 A 
ATOM      4  C3  UNL d   1      -0.057  -2.256   1.172  0.00  0.00     0.006 A 
ATOM      5  C4  UNL d   1       0.051  -0.865   1.144  0.00  0.00    -0.005 A 
ATOM      6  C5  UNL d   1       0.095  -0.186  -0.077  0.00  0.00    -0.074 A 
ATOM      7  C6  UNL d   1       0.221   1.308  -0.125  0.00  0.00     0.077 C 
ATOM      8  C7  UNL d   1       0.036  -0.920  -1.269  0.00  0.00    -0.001 A 
ENDROOT
TORSDOF 0
ENDMDL
