MODEL 1
REMARK minimizedAffinity -2.92428041
REMARK minimizedRMSD -1
REMARK  0 active torsions:
REMARK  status: ('A' for Active; 'I' for Inactive)
ROOT
ATOM      1  C   UNL d   1      -0.924   1.327  -1.469  0.00  0.00     0.077 C 
ATOM      2  C1  UNL d   1      -0.994   0.301  -0.377  0.00  0.00    -0.074 A 
ATOM      3  C2  UNL d   1      -1.739   0.536   0.783  0.00  0.00    -0.005 A 
ATOM      4  C3  UNL d   1      -1.802  -0.432   1.786  0.00  0.00     0.006 A 
ATOM      5  C4  UNL d   1      -1.122  -1.641   1.639  0.00  0.00    -0.005 A 
ATOM      6  C5  UNL d   1      -0.373  -1.894   0.485  0.00  0.00    -0.074 A 
ATOM      7  C6  UNL d   1       0.356  -3.193   0.307  0.00  0.00     0.077 C 
ATOM      8  C7  UNL d   1      -0.320  -0.920  -0.521  0.00  0.00    -0.001 A 
ENDROOT
TORSDOF 0
ENDMDL
