MODEL 1
REMARK minimizedAffinity -4.53723383
REMARK minimizedRMSD -1
REMARK  0 active torsions:
REMARK  status: ('A' for Active; 'I' for Inactive)
ROOT
ATOM      1  C   UNL d   1       0.861   1.372   0.008  0.00  0.00     0.077 C 
ATOM      2  C1  UNL d   1       0.201   0.080   0.389  0.00  0.00    -0.074 A 
ATOM      3  C2  UNL d   1      -0.684   0.017   1.471  0.00  0.00    -0.005 A 
ATOM      4  C3  UNL d   1      -1.298  -1.190   1.807  0.00  0.00     0.006 A 
ATOM      5  C4  UNL d   1      -1.033  -2.343   1.068  0.00  0.00    -0.005 A 
ATOM      6  C5  UNL d   1      -0.152  -2.299  -0.017  0.00  0.00    -0.074 A 
ATOM      7  C6  UNL d   1       0.135  -3.527  -0.829  0.00  0.00     0.077 C 
ATOM      8  C7  UNL d   1       0.455  -1.081  -0.354  0.00  0.00    -0.001 A 
ENDROOT
TORSDOF 0
ENDMDL
