MODEL 1
REMARK minimizedAffinity -4.29547691
REMARK minimizedRMSD -1
REMARK  0 active torsions:
REMARK  status: ('A' for Active; 'I' for Inactive)
ROOT
ATOM      1  C   UNL d   1       0.170  -1.402   0.687  0.00  0.00     0.077 C 
ATOM      2  C1  UNL d   1       0.226  -0.020   0.107  0.00  0.00    -0.074 A 
ATOM      3  C2  UNL d   1      -0.500   0.307  -1.042  0.00  0.00    -0.005 A 
ATOM      4  C3  UNL d   1      -0.446   1.600  -1.564  0.00  0.00     0.006 A 
ATOM      5  C4  UNL d   1       0.334   2.576  -0.943  0.00  0.00    -0.005 A 
ATOM      6  C5  UNL d   1       1.067   2.267   0.207  0.00  0.00    -0.074 A 
ATOM      7  C6  UNL d   1       1.902   3.307   0.892  0.00  0.00     0.077 C 
ATOM      8  C7  UNL d   1       1.001   0.968   0.730  0.00  0.00    -0.001 A 
ENDROOT
TORSDOF 0
ENDMDL
