MODEL 1
REMARK minimizedAffinity 7.84420633
REMARK minimizedRMSD -1
REMARK  0 active torsions:
REMARK  status: ('A' for Active; 'I' for Inactive)
ROOT
ATOM      1  C   UNL d   1      -3.561   2.256  -4.870  0.00  0.00    -0.002 A 
ATOM      2  C1  UNL d   1      -3.697   1.365  -5.925  0.00  0.00     0.010 A 
ATOM      3  C2  UNL d   1      -3.982   0.019  -5.687  0.00  0.00     0.041 A 
ATOM      4  C3  UNL d   1      -4.132  -0.420  -4.357  0.00  0.00    -0.075 A 
ATOM      5  S   UNL d   1      -4.484  -2.022  -3.825  0.00  0.00     0.015 SA
ATOM      6  C4  UNL d   1      -4.463  -1.562  -2.184  0.00  0.00     0.022 A 
ATOM      7  C5  UNL d   1      -4.195  -0.222  -2.027  0.00  0.00     0.026 A 
ATOM      8  C6  UNL d   1      -4.001   0.458  -3.277  0.00  0.00    -0.082 A 
ATOM      9  C7  UNL d   1      -3.711   1.816  -3.552  0.00  0.00     0.045 A 
ENDROOT
TORSDOF 0
ENDMDL
