MODEL 1
REMARK minimizedAffinity 0.554492414
REMARK minimizedRMSD -1
REMARK  0 active torsions:
REMARK  status: ('A' for Active; 'I' for Inactive)
ROOT
ATOM      1  C   UNL d   1      -2.616   2.213  -2.224  0.00  0.00    -0.002 A 
ATOM      2  C1  UNL d   1      -2.793   2.823  -3.458  0.00  0.00     0.010 A 
ATOM      3  C2  UNL d   1      -3.264   2.091  -4.550  0.00  0.00     0.041 A 
ATOM      4  C3  UNL d   1      -3.559   0.724  -4.379  0.00  0.00    -0.075 A 
ATOM      5  S   UNL d   1      -4.148  -0.369  -5.575  0.00  0.00     0.015 SA
ATOM      6  C4  UNL d   1      -4.180  -1.671  -4.475  0.00  0.00     0.022 A 
ATOM      7  C5  UNL d   1      -3.754  -1.298  -3.222  0.00  0.00     0.026 A 
ATOM      8  C6  UNL d   1      -3.389   0.089  -3.146  0.00  0.00    -0.082 A 
ATOM      9  C7  UNL d   1      -2.909   0.857  -2.058  0.00  0.00     0.045 A 
ENDROOT
TORSDOF 0
ENDMDL
