MODEL 1
REMARK minimizedAffinity 3.21781635
REMARK minimizedRMSD -1
REMARK  0 active torsions:
REMARK  status: ('A' for Active; 'I' for Inactive)
ROOT
ATOM      1  C   UNL d   1      -4.525  -1.907  -3.392  0.00  0.00    -0.002 A 
ATOM      2  C1  UNL d   1      -5.659  -1.180  -3.727  0.00  0.00     0.010 A 
ATOM      3  C2  UNL d   1      -5.561  -0.042  -4.529  0.00  0.00     0.041 A 
ATOM      4  C3  UNL d   1      -4.293   0.356  -4.996  0.00  0.00    -0.075 A 
ATOM      5  S   UNL d   1      -3.931   1.715  -5.993  0.00  0.00     0.015 SA
ATOM      6  C4  UNL d   1      -2.264   1.362  -6.000  0.00  0.00     0.022 A 
ATOM      7  C5  UNL d   1      -1.973   0.238  -5.264  0.00  0.00     0.026 A 
ATOM      8  C6  UNL d   1      -3.137  -0.361  -4.674  0.00  0.00    -0.082 A 
ATOM      9  C7  UNL d   1      -3.269  -1.510  -3.857  0.00  0.00     0.045 A 
ENDROOT
TORSDOF 0
ENDMDL
