MODEL 1
REMARK minimizedAffinity 3.12329578
REMARK minimizedRMSD -1
REMARK  0 active torsions:
REMARK  status: ('A' for Active; 'I' for Inactive)
ROOT
ATOM      1  C   UNL d   1       3.375   0.140  -0.481  0.00  0.00    -0.002 A 
ATOM      2  C1  UNL d   1       4.750   0.045  -0.320  0.00  0.00     0.010 A 
ATOM      3  C2  UNL d   1       5.320  -1.085   0.271  0.00  0.00     0.041 A 
ATOM      4  C3  UNL d   1       4.476  -2.128   0.700  0.00  0.00    -0.075 A 
ATOM      5  S   UNL d   1       4.950  -3.607   1.449  0.00  0.00     0.015 SA
ATOM      6  C4  UNL d   1       3.338  -4.148   1.572  0.00  0.00     0.022 A 
ATOM      7  C5  UNL d   1       2.448  -3.235   1.059  0.00  0.00     0.026 A 
ATOM      8  C6  UNL d   1       3.088  -2.056   0.547  0.00  0.00    -0.082 A 
ATOM      9  C7  UNL d   1       2.541  -0.898  -0.055  0.00  0.00     0.045 A 
ENDROOT
TORSDOF 0
ENDMDL
