MODEL 1
REMARK minimizedAffinity 6.50832891
REMARK minimizedRMSD -1
REMARK  0 active torsions:
REMARK  status: ('A' for Active; 'I' for Inactive)
ROOT
ATOM      1  C   UNL d   1       5.027  -4.519   1.363  0.00  0.00    -0.002 A 
ATOM      2  C1  UNL d   1       4.237  -5.569   1.808  0.00  0.00     0.010 A 
ATOM      3  C2  UNL d   1       4.048  -5.786   3.174  0.00  0.00     0.041 A 
ATOM      4  C3  UNL d   1       4.671  -4.920   4.095  0.00  0.00    -0.075 A 
ATOM      5  S   UNL d   1       4.580  -4.992   5.815  0.00  0.00     0.015 SA
ATOM      6  C4  UNL d   1       5.588  -3.630   5.999  0.00  0.00     0.022 A 
ATOM      7  C5  UNL d   1       5.992  -3.120   4.788  0.00  0.00     0.026 A 
ATOM      8  C6  UNL d   1       5.470  -3.855   3.670  0.00  0.00    -0.082 A 
ATOM      9  C7  UNL d   1       5.643  -3.662   2.279  0.00  0.00     0.045 A 
ENDROOT
TORSDOF 0
ENDMDL
