MODEL 1
REMARK minimizedAffinity -1.01895857
REMARK minimizedRMSD -1
REMARK  0 active torsions:
REMARK  status: ('A' for Active; 'I' for Inactive)
ROOT
ATOM      1  C   UNL d   1       2.640  -2.812   0.501  0.00  0.00    -0.002 A 
ATOM      2  C1  UNL d   1       3.956  -3.211   0.690  0.00  0.00     0.010 A 
ATOM      3  C2  UNL d   1       4.997  -2.284   0.609  0.00  0.00     0.041 A 
ATOM      4  C3  UNL d   1       4.691  -0.937   0.334  0.00  0.00    -0.075 A 
ATOM      5  S   UNL d   1       5.803   0.373   0.189  0.00  0.00     0.015 SA
ATOM      6  C4  UNL d   1       4.557   1.493  -0.127  0.00  0.00     0.022 A 
ATOM      7  C5  UNL d   1       3.317   0.899  -0.125  0.00  0.00     0.026 A 
ATOM      8  C6  UNL d   1       3.374  -0.511   0.141  0.00  0.00    -0.082 A 
ATOM      9  C7  UNL d   1       2.340  -1.475   0.228  0.00  0.00     0.045 A 
ENDROOT
TORSDOF 0
ENDMDL
