MODEL 1
REMARK minimizedAffinity 2.08391285
REMARK minimizedRMSD -1
REMARK  0 active torsions:
REMARK  status: ('A' for Active; 'I' for Inactive)
ROOT
ATOM      1  C   UNL d   1       5.361  -4.547   1.851  0.00  0.00    -0.002 A 
ATOM      2  C1  UNL d   1       4.932  -4.188   3.121  0.00  0.00     0.010 A 
ATOM      3  C2  UNL d   1       3.850  -3.321   3.286  0.00  0.00     0.041 A 
ATOM      4  C3  UNL d   1       3.200  -2.817   2.143  0.00  0.00    -0.075 A 
ATOM      5  S   UNL d   1       1.853  -1.741   2.103  0.00  0.00     0.015 SA
ATOM      6  C4  UNL d   1       1.815  -1.733   0.399  0.00  0.00     0.022 A 
ATOM      7  C5  UNL d   1       2.799  -2.526  -0.142  0.00  0.00     0.026 A 
ATOM      8  C6  UNL d   1       3.613  -3.164   0.854  0.00  0.00    -0.082 A 
ATOM      9  C7  UNL d   1       4.713  -4.045   0.719  0.00  0.00     0.045 A 
ENDROOT
TORSDOF 0
ENDMDL
