MODEL 1
REMARK minimizedAffinity 3.4848454
REMARK minimizedRMSD -1
REMARK  0 active torsions:
REMARK  status: ('A' for Active; 'I' for Inactive)
ROOT
ATOM      1  C   UNL d   1      -3.913  -1.267  -2.521  0.00  0.00    -0.002 A 
ATOM      2  C1  UNL d   1      -4.560  -1.342  -3.747  0.00  0.00     0.010 A 
ATOM      3  C2  UNL d   1      -4.734  -0.198  -4.529  0.00  0.00     0.041 A 
ATOM      4  C3  UNL d   1      -4.241   1.034  -4.054  0.00  0.00    -0.075 A 
ATOM      5  S   UNL d   1      -4.339   2.565  -4.841  0.00  0.00     0.015 SA
ATOM      6  C4  UNL d   1      -3.524   3.354  -3.569  0.00  0.00     0.022 A 
ATOM      7  C5  UNL d   1      -3.178   2.485  -2.561  0.00  0.00     0.026 A 
ATOM      8  C6  UNL d   1      -3.586   1.134  -2.824  0.00  0.00    -0.082 A 
ATOM      9  C7  UNL d   1      -3.425  -0.044  -2.054  0.00  0.00     0.045 A 
ENDROOT
TORSDOF 0
ENDMDL
