MODEL 1
REMARK minimizedAffinity 1.61860287
REMARK minimizedRMSD -1
REMARK  0 active torsions:
REMARK  status: ('A' for Active; 'I' for Inactive)
ROOT
ATOM      1  C   UNL d   1      -6.000   1.241  -4.347  0.00  0.00    -0.002 A 
ATOM      2  C1  UNL d   1      -5.478   1.390  -5.624  0.00  0.00     0.010 A 
ATOM      3  C2  UNL d   1      -4.316   0.713  -6.000  0.00  0.00     0.041 A 
ATOM      4  C3  UNL d   1      -3.682  -0.124  -5.062  0.00  0.00    -0.075 A 
ATOM      5  S   UNL d   1      -2.248  -1.053  -5.299  0.00  0.00     0.015 SA
ATOM      6  C4  UNL d   1      -2.295  -1.669  -3.710  0.00  0.00     0.022 A 
ATOM      7  C5  UNL d   1      -3.371  -1.188  -3.002  0.00  0.00     0.026 A 
ATOM      8  C6  UNL d   1      -4.188  -0.291  -3.770  0.00  0.00    -0.082 A 
ATOM      9  C7  UNL d   1      -5.368   0.409  -3.419  0.00  0.00     0.045 A 
ENDROOT
TORSDOF 0
ENDMDL
