MODEL 1
REMARK minimizedAffinity 10.1725883
REMARK minimizedRMSD -1
REMARK  0 active torsions:
REMARK  status: ('A' for Active; 'I' for Inactive)
ROOT
ATOM      1  C2' OXE d   1       0.371   4.703  -2.622  0.00  0.00     0.078 C 
ATOM      2  C1' OXE d   1      -1.976   5.523  -1.319  0.00  0.00     0.078 C 
ATOM      3  C1  OXE d   1      -1.122   4.482  -0.640  0.00  0.00    -0.078 A 
ATOM      4  C2  OXE d   1       0.000   4.052  -1.307  0.00  0.00    -0.078 A 
ATOM      5  C3  OXE d   1       0.852   3.132  -0.701  0.00  0.00     0.003 A 
ATOM      6  C4  OXE d   1       0.496   2.528   0.510  0.00  0.00    -0.002 A 
ATOM      7  C5  OXE d   1      -0.663   2.922   1.187  0.00  0.00    -0.002 A 
ATOM      8  C6  OXE d   1      -1.459   3.926   0.647  0.00  0.00     0.003 A 
ENDROOT
TORSDOF 0
ENDMDL
