MODEL 1
REMARK minimizedAffinity 0.371952981
REMARK minimizedRMSD -1
REMARK  0 active torsions:
REMARK  status: ('A' for Active; 'I' for Inactive)
ROOT
ATOM      1  C2' OXE d   1      -6.000   1.741  -2.126  0.00  0.00     0.078 C 
ATOM      2  C1' OXE d   1      -5.995   1.834  -4.932  0.00  0.00     0.078 C 
ATOM      3  C1  OXE d   1      -5.463   3.033  -4.187  0.00  0.00    -0.078 A 
ATOM      4  C2  OXE d   1      -5.512   2.997  -2.814  0.00  0.00    -0.078 A 
ATOM      5  C3  OXE d   1      -4.983   4.054  -2.078  0.00  0.00     0.003 A 
ATOM      6  C4  OXE d   1      -4.543   5.217  -2.723  0.00  0.00    -0.002 A 
ATOM      7  C5  OXE d   1      -4.521   5.289  -4.120  0.00  0.00    -0.002 A 
ATOM      8  C6  OXE d   1      -4.937   4.192  -4.865  0.00  0.00     0.003 A 
ENDROOT
TORSDOF 0
ENDMDL
