MODEL 1
REMARK minimizedAffinity 4.16143608
REMARK minimizedRMSD -1
REMARK  0 active torsions:
REMARK  status: ('A' for Active; 'I' for Inactive)
ROOT
ATOM      1  C2' OXE d   1       1.080   2.897   1.380  0.00  0.00     0.078 C 
ATOM      2  C1' OXE d   1      -0.760   1.405  -0.126  0.00  0.00     0.078 C 
ATOM      3  C1  OXE d   1      -0.302   2.729  -0.686  0.00  0.00    -0.078 A 
ATOM      4  C2  OXE d   1       0.563   3.474   0.080  0.00  0.00    -0.078 A 
ATOM      5  C3  OXE d   1       1.059   4.677  -0.414  0.00  0.00     0.003 A 
ATOM      6  C4  OXE d   1       0.568   5.207  -1.613  0.00  0.00    -0.002 A 
ATOM      7  C5  OXE d   1      -0.343   4.483  -2.390  0.00  0.00    -0.002 A 
ATOM      8  C6  OXE d   1      -0.754   3.226  -1.962  0.00  0.00     0.003 A 
ENDROOT
TORSDOF 0
ENDMDL
