MODEL 1
REMARK minimizedAffinity 10.6069002
REMARK minimizedRMSD -1
REMARK  0 active torsions:
REMARK  status: ('A' for Active; 'I' for Inactive)
ROOT
ATOM      1  C2' OXE d   1      -1.381  -1.917  -4.587  0.00  0.00     0.078 C 
ATOM      2  C1' OXE d   1       0.205  -4.187  -5.050  0.00  0.00     0.078 C 
ATOM      3  C1  OXE d   1      -0.006  -3.755  -3.620  0.00  0.00    -0.078 A 
ATOM      4  C2  OXE d   1      -0.745  -2.617  -3.405  0.00  0.00    -0.078 A 
ATOM      5  C3  OXE d   1      -1.015  -2.206  -2.103  0.00  0.00     0.003 A 
ATOM      6  C4  OXE d   1      -0.414  -2.853  -1.016  0.00  0.00    -0.002 A 
ATOM      7  C5  OXE d   1       0.374  -3.991  -1.215  0.00  0.00    -0.002 A 
ATOM      8  C6  OXE d   1       0.553  -4.479  -2.505  0.00  0.00     0.003 A 
ENDROOT
TORSDOF 0
ENDMDL
