MODEL 1
REMARK minimizedAffinity 13.7964106
REMARK minimizedRMSD -1
REMARK  0 active torsions:
REMARK  status: ('A' for Active; 'I' for Inactive)
ROOT
ATOM      1  C2' OXE d   1      -0.785  -3.900  -2.892  0.00  0.00     0.078 C 
ATOM      2  C1' OXE d   1       0.794  -5.637  -1.353  0.00  0.00     0.078 C 
ATOM      3  C1  OXE d   1       0.856  -4.163  -1.037  0.00  0.00    -0.078 A 
ATOM      4  C2  OXE d   1       0.116  -3.316  -1.826  0.00  0.00    -0.078 A 
ATOM      5  C3  OXE d   1       0.094  -1.953  -1.543  0.00  0.00     0.003 A 
ATOM      6  C4  OXE d   1       0.938  -1.420  -0.561  0.00  0.00    -0.002 A 
ATOM      7  C5  OXE d   1       1.731  -2.261   0.227  0.00  0.00    -0.002 A 
ATOM      8  C6  OXE d   1       1.669  -3.636   0.031  0.00  0.00     0.003 A 
ENDROOT
TORSDOF 0
ENDMDL
