MODEL 1
REMARK minimizedAffinity 4.13683796
REMARK minimizedRMSD -1
REMARK  0 active torsions:
REMARK  status: ('A' for Active; 'I' for Inactive)
ROOT
ATOM      1  C2' OXE d   1      -5.999   1.601  -1.474  0.00  0.00     0.078 C 
ATOM      2  C1' OXE d   1      -6.000   1.538  -4.280  0.00  0.00     0.078 C 
ATOM      3  C1  OXE d   1      -5.787   2.870  -3.607  0.00  0.00    -0.078 A 
ATOM      4  C2  OXE d   1      -5.835   2.899  -2.234  0.00  0.00    -0.078 A 
ATOM      5  C3  OXE d   1      -5.590   4.093  -1.560  0.00  0.00     0.003 A 
ATOM      6  C4  OXE d   1      -5.449   5.291  -2.271  0.00  0.00    -0.002 A 
ATOM      7  C5  OXE d   1      -5.437   5.290  -3.669  0.00  0.00    -0.002 A 
ATOM      8  C6  OXE d   1      -5.562   4.085  -4.351  0.00  0.00     0.003 A 
ENDROOT
TORSDOF 0
ENDMDL
