MODEL 1
REMARK minimizedAffinity 4.49177647
REMARK minimizedRMSD -1
REMARK  0 active torsions:
REMARK  status: ('A' for Active; 'I' for Inactive)
ROOT
ATOM      1  C2' OXE d   1      -1.167   6.000  -2.602  0.00  0.00     0.078 C 
ATOM      2  C1' OXE d   1      -2.488   3.541  -2.307  0.00  0.00     0.078 C 
ATOM      3  C1  OXE d   1      -1.369   3.858  -1.347  0.00  0.00    -0.078 A 
ATOM      4  C2  OXE d   1      -0.698   5.043  -1.528  0.00  0.00    -0.078 A 
ATOM      5  C3  OXE d   1       0.307   5.410  -0.637  0.00  0.00     0.003 A 
ATOM      6  C4  OXE d   1       0.742   4.515   0.348  0.00  0.00    -0.002 A 
ATOM      7  C5  OXE d   1       0.098   3.285   0.525  0.00  0.00    -0.002 A 
ATOM      8  C6  OXE d   1      -0.985   2.961  -0.285  0.00  0.00     0.003 A 
ENDROOT
TORSDOF 0
ENDMDL
