MODEL 1
REMARK minimizedAffinity 5.99562645
REMARK minimizedRMSD -1
REMARK  0 active torsions:
REMARK  status: ('A' for Active; 'I' for Inactive)
ROOT
ATOM      1  C2' OXE d   1      -5.905   2.885  -5.971  0.00  0.00     0.078 C 
ATOM      2  C1' OXE d   1      -5.884   0.146  -5.354  0.00  0.00     0.078 C 
ATOM      3  C1  OXE d   1      -5.935   1.125  -4.208  0.00  0.00    -0.078 A 
ATOM      4  C2  OXE d   1      -5.898   2.463  -4.517  0.00  0.00    -0.078 A 
ATOM      5  C3  OXE d   1      -5.999   3.409  -3.500  0.00  0.00     0.003 A 
ATOM      6  C4  OXE d   1      -5.982   3.010  -2.158  0.00  0.00    -0.002 A 
ATOM      7  C5  OXE d   1      -5.980   1.653  -1.820  0.00  0.00    -0.002 A 
ATOM      8  C6  OXE d   1      -6.000   0.699  -2.831  0.00  0.00     0.003 A 
ENDROOT
TORSDOF 0
ENDMDL
