MODEL 1
REMARK minimizedAffinity 7.66191149
REMARK minimizedRMSD -1
REMARK  0 active torsions:
REMARK  status: ('A' for Active; 'I' for Inactive)
ROOT
ATOM      1  C2' OXE d   1      -5.940   3.827  -2.105  0.00  0.00     0.078 C 
ATOM      2  C1' OXE d   1      -5.999   1.152  -1.258  0.00  0.00     0.078 C 
ATOM      3  C1  OXE d   1      -5.975   1.420  -2.742  0.00  0.00    -0.078 A 
ATOM      4  C2  OXE d   1      -5.993   2.732  -3.148  0.00  0.00    -0.078 A 
ATOM      5  C3  OXE d   1      -5.917   3.036  -4.505  0.00  0.00     0.003 A 
ATOM      6  C4  OXE d   1      -5.977   2.017  -5.463  0.00  0.00    -0.002 A 
ATOM      7  C5  OXE d   1      -5.999   0.674  -5.072  0.00  0.00    -0.002 A 
ATOM      8  C6  OXE d   1      -5.956   0.358  -3.718  0.00  0.00     0.003 A 
ENDROOT
TORSDOF 0
ENDMDL
