MODEL 1
REMARK minimizedAffinity -2.34280682
REMARK minimizedRMSD -1
REMARK  0 active torsions:
REMARK  status: ('A' for Active; 'I' for Inactive)
ROOT
ATOM      1  C   UNL d   1      -1.005   1.745  -0.530  0.00  0.00     0.124 A 
ATOM      2  C1  UNL d   1      -1.642   0.612  -0.042  0.00  0.00     0.062 A 
ATOM      3  C2  UNL d   1      -0.995  -0.620  -0.069  0.00  0.00     0.162 A 
ATOM      4  C3  UNL d   1       0.297  -0.726  -0.584  0.00  0.00    -0.034 A 
ATOM      5  C4  UNL d   1       0.930   0.418  -1.073  0.00  0.00     0.162 A 
ATOM      6  C5  UNL d   1       0.280   1.647  -1.044  0.00  0.00     0.062 A 
ATOM      7  F   UNL d   1       0.896   2.741  -1.516  0.00  0.00    -0.097 F 
ATOM      8  F1  UNL d   1       2.172   0.352  -1.575  0.00  0.00    -0.096 F 
ATOM      9  I   UNL d   1       1.267  -2.566  -0.625  0.00  0.00    -0.060 I 
ATOM     10  F2  UNL d   1      -1.634  -1.698   0.409  0.00  0.00    -0.096 F 
ATOM     11  F3  UNL d   1      -2.884   0.704   0.455  0.00  0.00    -0.097 F 
ATOM     12  F4  UNL d   1      -1.630   2.930  -0.504  0.00  0.00    -0.092 F 
ENDROOT
TORSDOF 0
ENDMDL
