MODEL 1
REMARK minimizedAffinity 9.34064484
REMARK minimizedRMSD -1
REMARK  0 active torsions:
REMARK  status: ('A' for Active; 'I' for Inactive)
ROOT
ATOM      1  C   UNL d   1       0.213   1.732   0.482  0.00  0.00     0.124 A 
ATOM      2  C1  UNL d   1       0.648   1.626  -0.831  0.00  0.00     0.062 A 
ATOM      3  C2  UNL d   1       0.988   0.384  -1.358  0.00  0.00     0.162 A 
ATOM      4  C3  UNL d   1       0.894  -0.764  -0.571  0.00  0.00    -0.034 A 
ATOM      5  C4  UNL d   1       0.456  -0.649   0.750  0.00  0.00     0.162 A 
ATOM      6  C5  UNL d   1       0.117   0.595   1.272  0.00  0.00     0.062 A 
ATOM      7  F   UNL d   1      -0.303   0.696   2.541  0.00  0.00    -0.097 F 
ATOM      8  F1  UNL d   1       0.354  -1.732   1.535  0.00  0.00    -0.096 F 
ATOM      9  I   UNL d   1       1.402  -2.624  -1.354  0.00  0.00    -0.060 I 
ATOM     10  F2  UNL d   1       1.406   0.311  -2.630  0.00  0.00    -0.096 F 
ATOM     11  F3  UNL d   1       0.742   2.724  -1.596  0.00  0.00    -0.097 F 
ATOM     12  F4  UNL d   1      -0.113   2.930   0.987  0.00  0.00    -0.092 F 
ENDROOT
TORSDOF 0
ENDMDL
