MODEL 1
REMARK minimizedAffinity -0.361208647
REMARK minimizedRMSD -1
REMARK  0 active torsions:
REMARK  status: ('A' for Active; 'I' for Inactive)
ROOT
ATOM      1  C   UNL d   1       0.151   0.461  -0.308  0.00  0.00     0.124 A 
ATOM      2  C1  UNL d   1       1.251  -0.162  -0.880  0.00  0.00     0.062 A 
ATOM      3  C2  UNL d   1       1.286  -1.549  -0.999  0.00  0.00     0.162 A 
ATOM      4  C3  UNL d   1       0.217  -2.321  -0.546  0.00  0.00    -0.034 A 
ATOM      5  C4  UNL d   1      -0.885  -1.687   0.030  0.00  0.00     0.162 A 
ATOM      6  C5  UNL d   1      -0.915  -0.301   0.147  0.00  0.00     0.062 A 
ATOM      7  F   UNL d   1      -1.979   0.300   0.700  0.00  0.00    -0.097 F 
ATOM      8  F1  UNL d   1      -1.930  -2.400   0.476  0.00  0.00    -0.096 F 
ATOM      9  I   UNL d   1       0.266  -4.395  -0.722  0.00  0.00    -0.060 I 
ATOM     10  F2  UNL d   1       2.362  -2.125  -1.557  0.00  0.00    -0.096 F 
ATOM     11  F3  UNL d   1       2.283   0.572  -1.319  0.00  0.00    -0.097 F 
ATOM     12  F4  UNL d   1       0.121   1.795  -0.193  0.00  0.00    -0.092 F 
ENDROOT
TORSDOF 0
ENDMDL
