MODEL 1
REMARK minimizedAffinity -0.360990971
REMARK minimizedRMSD -1
REMARK  0 active torsions:
REMARK  status: ('A' for Active; 'I' for Inactive)
ROOT
ATOM      1  C   UNL d   1       0.781  -4.415  -1.369  0.00  0.00     0.124 A 
ATOM      2  C1  UNL d   1       0.012  -3.808  -2.353  0.00  0.00     0.062 A 
ATOM      3  C2  UNL d   1       0.014  -2.423  -2.488  0.00  0.00     0.162 A 
ATOM      4  C3  UNL d   1       0.788  -1.634  -1.637  0.00  0.00    -0.034 A 
ATOM      5  C4  UNL d   1       1.558  -2.251  -0.649  0.00  0.00     0.162 A 
ATOM      6  C5  UNL d   1       1.553  -3.636  -0.518  0.00  0.00     0.062 A 
ATOM      7  F   UNL d   1       2.296  -4.220   0.433  0.00  0.00    -0.097 F 
ATOM      8  F1  UNL d   1       2.313  -1.522   0.186  0.00  0.00    -0.096 F 
ATOM      9  I   UNL d   1       0.793   0.438  -1.835  0.00  0.00    -0.060 I 
ATOM     10  F2  UNL d   1      -0.739  -1.864  -3.447  0.00  0.00    -0.096 F 
ATOM     11  F3  UNL d   1      -0.735  -4.559  -3.175  0.00  0.00    -0.097 F 
ATOM     12  F4  UNL d   1       0.777  -5.748  -1.241  0.00  0.00    -0.092 F 
ENDROOT
TORSDOF 0
ENDMDL
