MODEL 1
REMARK minimizedAffinity -3.39457369
REMARK minimizedRMSD -1
REMARK  0 active torsions:
REMARK  status: ('A' for Active; 'I' for Inactive)
ROOT
ATOM      1  C   UNL d   1      -0.037  -2.708  -2.014  0.00  0.00     0.124 A 
ATOM      2  C1  UNL d   1       1.089  -2.156  -1.419  0.00  0.00     0.062 A 
ATOM      3  C2  UNL d   1       1.833  -2.899  -0.507  0.00  0.00     0.162 A 
ATOM      4  C3  UNL d   1       1.455  -4.202  -0.185  0.00  0.00    -0.034 A 
ATOM      5  C4  UNL d   1       0.321  -4.750  -0.787  0.00  0.00     0.162 A 
ATOM      6  C5  UNL d   1      -0.420  -4.004  -1.698  0.00  0.00     0.062 A 
ATOM      7  F   UNL d   1      -1.508  -4.538  -2.272  0.00  0.00    -0.097 F 
ATOM      8  F1  UNL d   1      -0.071  -6.000  -0.500  0.00  0.00    -0.096 F 
ATOM      9  I   UNL d   1       2.565  -5.315   1.179  0.00  0.00    -0.060 I 
ATOM     10  F2  UNL d   1       2.917  -2.340   0.053  0.00  0.00    -0.096 F 
ATOM     11  F3  UNL d   1       1.460  -0.904  -1.722  0.00  0.00    -0.097 F 
ATOM     12  F4  UNL d   1      -0.752  -1.991  -2.891  0.00  0.00    -0.092 F 
ENDROOT
TORSDOF 0
ENDMDL
