MODEL 1
REMARK minimizedAffinity -3.85848427
REMARK minimizedRMSD -1
REMARK  0 active torsions:
REMARK  status: ('A' for Active; 'I' for Inactive)
ROOT
ATOM      1  C   UNL d   1      -1.554   2.942   0.894  0.00  0.00     0.124 A 
ATOM      2  C1  UNL d   1      -1.576   1.706   1.525  0.00  0.00     0.062 A 
ATOM      3  C2  UNL d   1      -0.788   0.662   1.048  0.00  0.00     0.162 A 
ATOM      4  C3  UNL d   1       0.030   0.850  -0.065  0.00  0.00    -0.034 A 
ATOM      5  C4  UNL d   1       0.047   2.096  -0.696  0.00  0.00     0.162 A 
ATOM      6  C5  UNL d   1      -0.743   3.136  -0.216  0.00  0.00     0.062 A 
ATOM      7  F   UNL d   1      -0.720   4.329  -0.827  0.00  0.00    -0.097 F 
ATOM      8  F1  UNL d   1       0.822   2.311  -1.769  0.00  0.00    -0.096 F 
ATOM      9  I   UNL d   1       1.211  -0.708  -0.781  0.00  0.00    -0.060 I 
ATOM     10  F2  UNL d   1      -0.829  -0.521   1.678  0.00  0.00    -0.096 F 
ATOM     11  F3  UNL d   1      -2.360   1.516   2.596  0.00  0.00    -0.097 F 
ATOM     12  F4  UNL d   1      -2.314   3.944   1.354  0.00  0.00    -0.092 F 
ENDROOT
TORSDOF 0
ENDMDL
