MODEL 1
REMARK minimizedAffinity -5.33918095
REMARK minimizedRMSD -1
REMARK  0 active torsions:
REMARK  status: ('A' for Active; 'I' for Inactive)
ROOT
ATOM      1  C   UNL d   1      -1.210   2.882   0.621  0.00  0.00     0.124 A 
ATOM      2  C1  UNL d   1      -1.285   1.761   1.437  0.00  0.00     0.062 A 
ATOM      3  C2  UNL d   1      -0.518   0.636   1.152  0.00  0.00     0.162 A 
ATOM      4  C3  UNL d   1       0.333   0.625   0.047  0.00  0.00    -0.034 A 
ATOM      5  C4  UNL d   1       0.403   1.755  -0.769  0.00  0.00     0.162 A 
ATOM      6  C5  UNL d   1      -0.366   2.878  -0.481  0.00  0.00     0.062 A 
ATOM      7  F   UNL d   1      -0.291   3.960  -1.270  0.00  0.00    -0.097 F 
ATOM      8  F1  UNL d   1       1.211   1.779  -1.839  0.00  0.00    -0.096 F 
ATOM      9  I   UNL d   1       1.482  -1.057  -0.381  0.00  0.00    -0.060 I 
ATOM     10  F2  UNL d   1      -0.611  -0.433   1.958  0.00  0.00    -0.096 F 
ATOM     11  F3  UNL d   1      -2.101   1.762   2.501  0.00  0.00    -0.097 F 
ATOM     12  F4  UNL d   1      -1.950   3.963   0.896  0.00  0.00    -0.092 F 
ENDROOT
TORSDOF 0
ENDMDL
