MODEL 1
REMARK minimizedAffinity -2.07928324
REMARK minimizedRMSD -1
REMARK  0 active torsions:
REMARK  status: ('A' for Active; 'I' for Inactive)
ROOT
ATOM      1  C   UNL d   1      -1.761   1.644   1.372  0.00  0.00     0.124 A 
ATOM      2  C1  UNL d   1      -1.992   1.189   0.081  0.00  0.00     0.062 A 
ATOM      3  C2  UNL d   1      -1.111   0.289  -0.512  0.00  0.00     0.162 A 
ATOM      4  C3  UNL d   1       0.009  -0.163   0.186  0.00  0.00    -0.034 A 
ATOM      5  C4  UNL d   1       0.235   0.300   1.484  0.00  0.00     0.162 A 
ATOM      6  C5  UNL d   1      -0.648   1.199   2.072  0.00  0.00     0.062 A 
ATOM      7  F   UNL d   1      -0.423   1.638   3.319  0.00  0.00    -0.097 F 
ATOM      8  F1  UNL d   1       1.302  -0.115   2.183  0.00  0.00    -0.096 F 
ATOM      9  I   UNL d   1       1.328  -1.509  -0.697  0.00  0.00    -0.060 I 
ATOM     10  F2  UNL d   1      -1.359  -0.134  -1.760  0.00  0.00    -0.096 F 
ATOM     11  F3  UNL d   1      -3.066   1.618  -0.597  0.00  0.00    -0.097 F 
ATOM     12  F4  UNL d   1      -2.609   2.511   1.940  0.00  0.00    -0.092 F 
ENDROOT
TORSDOF 0
ENDMDL
