MODEL 1
REMARK minimizedAffinity 0.419404536
REMARK minimizedRMSD -1
REMARK  0 active torsions:
REMARK  status: ('A' for Active; 'I' for Inactive)
ROOT
ATOM      1  C   UNL d   1       0.993  -1.141  -1.251  0.00  0.00     0.124 A 
ATOM      2  C1  UNL d   1      -0.192  -1.619  -0.708  0.00  0.00     0.062 A 
ATOM      3  C2  UNL d   1      -1.051  -0.756  -0.033  0.00  0.00     0.162 A 
ATOM      4  C3  UNL d   1      -0.728   0.594   0.103  0.00  0.00    -0.034 A 
ATOM      5  C4  UNL d   1       0.465   1.067  -0.445  0.00  0.00     0.162 A 
ATOM      6  C5  UNL d   1       1.321   0.201  -1.118  0.00  0.00     0.062 A 
ATOM      7  F   UNL d   1       2.465   0.665  -1.642  0.00  0.00    -0.097 F 
ATOM      8  F1  UNL d   1       0.806   2.360  -0.332  0.00  0.00    -0.096 F 
ATOM      9  I   UNL d   1      -2.010   1.887   1.112  0.00  0.00    -0.060 I 
ATOM     10  F2  UNL d   1      -2.189  -1.246   0.481  0.00  0.00    -0.096 F 
ATOM     11  F3  UNL d   1      -0.510  -2.915  -0.834  0.00  0.00    -0.097 F 
ATOM     12  F4  UNL d   1       1.818  -1.973  -1.899  0.00  0.00    -0.092 F 
ENDROOT
TORSDOF 0
ENDMDL
