MODEL 1
REMARK minimizedAffinity 15.7174692
REMARK minimizedRMSD -1
REMARK  0 active torsions:
REMARK  status: ('A' for Active; 'I' for Inactive)
ROOT
ATOM      1  C   UNL d   1      -1.782   2.464   3.005  0.00  0.00     0.124 A 
ATOM      2  C1  UNL d   1      -1.990   1.100   2.857  0.00  0.00     0.062 A 
ATOM      3  C2  UNL d   1      -0.985   0.198   3.193  0.00  0.00     0.162 A 
ATOM      4  C3  UNL d   1       0.238   0.657   3.682  0.00  0.00    -0.034 A 
ATOM      5  C4  UNL d   1       0.441   2.030   3.827  0.00  0.00     0.162 A 
ATOM      6  C5  UNL d   1      -0.567   2.928   3.489  0.00  0.00     0.062 A 
ATOM      7  F   UNL d   1      -0.364   4.246   3.633  0.00  0.00    -0.097 F 
ATOM      8  F1  UNL d   1       1.605   2.506   4.293  0.00  0.00    -0.096 F 
ATOM      9  I   UNL d   1       1.744  -0.689   4.185  0.00  0.00    -0.060 I 
ATOM     10  F2  UNL d   1      -1.214  -1.115   3.040  0.00  0.00    -0.096 F 
ATOM     11  F3  UNL d   1      -3.163   0.649   2.389  0.00  0.00    -0.097 F 
ATOM     12  F4  UNL d   1      -2.751   3.330   2.680  0.00  0.00    -0.092 F 
ENDROOT
TORSDOF 0
ENDMDL
