MODEL 1
REMARK minimizedAffinity 7.49175262
REMARK minimizedRMSD -1
REMARK  0 active torsions:
REMARK  status: ('A' for Active; 'I' for Inactive)
ROOT
ATOM      1  C   UNL d   1      -1.870   1.843  -0.079  0.00  0.00     0.124 A 
ATOM      2  C1  UNL d   1      -2.252   0.749   0.685  0.00  0.00     0.062 A 
ATOM      3  C2  UNL d   1      -1.871  -0.535   0.310  0.00  0.00     0.162 A 
ATOM      4  C3  UNL d   1      -1.101  -0.734  -0.837  0.00  0.00    -0.034 A 
ATOM      5  C4  UNL d   1      -0.721   0.371  -1.602  0.00  0.00     0.162 A 
ATOM      6  C5  UNL d   1      -1.105   1.653  -1.222  0.00  0.00     0.062 A 
ATOM      7  F   UNL d   1      -0.735   2.708  -1.962  0.00  0.00    -0.097 F 
ATOM      8  F1  UNL d   1       0.018   0.215  -2.710  0.00  0.00    -0.096 F 
ATOM      9  I   UNL d   1      -0.529  -2.653  -1.402  0.00  0.00    -0.060 I 
ATOM     10  F2  UNL d   1      -2.254  -1.573   1.067  0.00  0.00    -0.096 F 
ATOM     11  F3  UNL d   1      -2.991   0.931   1.789  0.00  0.00    -0.097 F 
ATOM     12  F4  UNL d   1      -2.239   3.078   0.284  0.00  0.00    -0.092 F 
ENDROOT
TORSDOF 0
ENDMDL
