MODEL 1
REMARK minimizedAffinity -1.65938663
REMARK minimizedRMSD -1
REMARK  0 active torsions:
REMARK  status: ('A' for Active; 'I' for Inactive)
ROOT
ATOM      1  C   UNL d   1      -0.649   1.304   2.214  0.00  0.00     0.124 A 
ATOM      2  C1  UNL d   1       0.325   0.417   1.777  0.00  0.00     0.062 A 
ATOM      3  C2  UNL d   1       0.613   0.308   0.420  0.00  0.00     0.162 A 
ATOM      4  C3  UNL d   1      -0.072   1.089  -0.511  0.00  0.00    -0.034 A 
ATOM      5  C4  UNL d   1      -1.051   1.978  -0.063  0.00  0.00     0.162 A 
ATOM      6  C5  UNL d   1      -1.336   2.084   1.294  0.00  0.00     0.062 A 
ATOM      7  F   UNL d   1      -2.277   2.941   1.715  0.00  0.00    -0.097 F 
ATOM      8  F1  UNL d   1      -1.729   2.744  -0.931  0.00  0.00    -0.096 F 
ATOM      9  I   UNL d   1       0.357   0.929  -2.541  0.00  0.00    -0.060 I 
ATOM     10  F2  UNL d   1       1.559  -0.558   0.025  0.00  0.00    -0.096 F 
ATOM     11  F3  UNL d   1       0.989  -0.338   2.664  0.00  0.00    -0.097 F 
ATOM     12  F4  UNL d   1      -0.925   1.406   3.521  0.00  0.00    -0.092 F 
ENDROOT
TORSDOF 0
ENDMDL
