MODEL 1
REMARK minimizedAffinity 2.70160937
REMARK minimizedRMSD -1
REMARK  0 active torsions:
REMARK  status: ('A' for Active; 'I' for Inactive)
ROOT
ATOM      1  C   UNL d   1      -0.766   1.381   2.275  0.00  0.00     0.124 A 
ATOM      2  C1  UNL d   1      -0.287   0.219   1.686  0.00  0.00     0.062 A 
ATOM      3  C2  UNL d   1      -0.431   0.018   0.316  0.00  0.00     0.162 A 
ATOM      4  C3  UNL d   1      -1.055   0.982  -0.475  0.00  0.00    -0.034 A 
ATOM      5  C4  UNL d   1      -1.534   2.148   0.125  0.00  0.00     0.162 A 
ATOM      6  C5  UNL d   1      -1.389   2.344   1.494  0.00  0.00     0.062 A 
ATOM      7  F   UNL d   1      -1.852   3.467   2.061  0.00  0.00    -0.097 F 
ATOM      8  F1  UNL d   1      -2.140   3.096  -0.607  0.00  0.00    -0.096 F 
ATOM      9  I   UNL d   1      -1.271   0.686  -2.524  0.00  0.00    -0.060 I 
ATOM     10  F2  UNL d   1       0.042  -1.114  -0.226  0.00  0.00    -0.096 F 
ATOM     11  F3  UNL d   1       0.314  -0.714   2.438  0.00  0.00    -0.097 F 
ATOM     12  F4  UNL d   1      -0.628   1.571   3.593  0.00  0.00    -0.092 F 
ENDROOT
TORSDOF 0
ENDMDL
