MODEL 1
REMARK minimizedAffinity 6.63976383
REMARK minimizedRMSD -1
REMARK  0 active torsions:
REMARK  status: ('A' for Active; 'I' for Inactive)
ROOT
ATOM      1  C   UNL d   1      -1.264   1.833   1.256  0.00  0.00     0.124 A 
ATOM      2  C1  UNL d   1      -1.101   1.600  -0.102  0.00  0.00     0.062 A 
ATOM      3  C2  UNL d   1      -0.373   0.498  -0.541  0.00  0.00     0.162 A 
ATOM      4  C3  UNL d   1       0.197  -0.381   0.380  0.00  0.00    -0.034 A 
ATOM      5  C4  UNL d   1       0.030  -0.139   1.745  0.00  0.00     0.162 A 
ATOM      6  C5  UNL d   1      -0.699   0.964   2.178  0.00  0.00     0.062 A 
ATOM      7  F   UNL d   1      -0.855   1.187   3.491  0.00  0.00    -0.097 F 
ATOM      8  F1  UNL d   1       0.565  -0.963   2.658  0.00  0.00    -0.096 F 
ATOM      9  I   UNL d   1       1.287  -2.030  -0.272  0.00  0.00    -0.060 I 
ATOM     10  F2  UNL d   1      -0.232   0.297  -1.860  0.00  0.00    -0.096 F 
ATOM     11  F3  UNL d   1      -1.646   2.439  -0.995  0.00  0.00    -0.097 F 
ATOM     12  F4  UNL d   1      -1.965   2.895   1.676  0.00  0.00    -0.092 F 
ENDROOT
TORSDOF 0
ENDMDL
