MODEL 1
REMARK minimizedAffinity 12.4409237
REMARK minimizedRMSD -1
REMARK  0 active torsions:
REMARK  status: ('A' for Active; 'I' for Inactive)
ROOT
ATOM      1  C4' PXY d   1      -5.962   6.000   5.996  0.00  0.00     0.077 C 
ATOM      2  C1' PXY d   1      -5.227   3.335   0.919  0.00  0.00     0.077 C 
ATOM      3  C1  PXY d   1      -5.418   4.045   2.244  0.00  0.00    -0.082 A 
ATOM      4  C2  PXY d   1      -5.189   3.395   3.374  0.00  0.00     0.003 A 
ATOM      5  C3  PXY d   1      -5.388   4.013   4.582  0.00  0.00     0.003 A 
ATOM      6  C4  PXY d   1      -5.773   5.325   4.634  0.00  0.00    -0.082 A 
ATOM      7  C5  PXY d   1      -5.999   5.999   3.486  0.00  0.00     0.003 A 
ATOM      8  C6  PXY d   1      -5.831   5.341   2.270  0.00  0.00     0.003 A 
ENDROOT
TORSDOF 0
ENDMDL
