MODEL 1
REMARK minimizedAffinity 6.14467955
REMARK minimizedRMSD -1
REMARK  0 active torsions:
REMARK  status: ('A' for Active; 'I' for Inactive)
ROOT
ATOM      1  C4' PXY d   1       5.704   5.612   0.758  0.00  0.00     0.077 C 
ATOM      2  C1' PXY d   1       2.871   1.146  -1.576  0.00  0.00     0.077 C 
ATOM      3  C1  PXY d   1       3.607   2.316  -0.953  0.00  0.00    -0.082 A 
ATOM      4  C2  PXY d   1       4.149   3.238  -1.732  0.00  0.00     0.003 A 
ATOM      5  C3  PXY d   1       4.846   4.285  -1.186  0.00  0.00     0.003 A 
ATOM      6  C4  PXY d   1       4.944   4.419   0.173  0.00  0.00    -0.082 A 
ATOM      7  C5  PXY d   1       4.384   3.488   0.975  0.00  0.00     0.003 A 
ATOM      8  C6  PXY d   1       3.717   2.411   0.400  0.00  0.00     0.003 A 
ENDROOT
TORSDOF 0
ENDMDL
