MODEL 1
REMARK minimizedAffinity 2.617028
REMARK minimizedRMSD -1
REMARK  0 active torsions:
REMARK  status: ('A' for Active; 'I' for Inactive)
ROOT
ATOM      1  C4' PXY d   1       1.900  -0.891  -0.433  0.00  0.00     0.077 C 
ATOM      2  C1' PXY d   1       6.000   3.183  -0.330  0.00  0.00     0.077 C 
ATOM      3  C1  PXY d   1       4.931   2.108  -0.347  0.00  0.00    -0.082 A 
ATOM      4  C2  PXY d   1       4.246   1.884  -1.457  0.00  0.00     0.003 A 
ATOM      5  C3  PXY d   1       3.254   0.939  -1.481  0.00  0.00     0.003 A 
ATOM      6  C4  PXY d   1       2.995   0.177  -0.373  0.00  0.00    -0.082 A 
ATOM      7  C5  PXY d   1       3.697   0.392   0.761  0.00  0.00     0.003 A 
ATOM      8  C6  PXY d   1       4.672   1.386   0.776  0.00  0.00     0.003 A 
ENDROOT
TORSDOF 0
ENDMDL
