MODEL 1
REMARK minimizedAffinity 12.0623951
REMARK minimizedRMSD -1
REMARK  0 active torsions:
REMARK  status: ('A' for Active; 'I' for Inactive)
ROOT
ATOM      1  C4' PXY d   1       5.357   3.705  -1.390  0.00  0.00     0.077 C 
ATOM      2  C1' PXY d   1       2.111  -0.939  -0.247  0.00  0.00     0.077 C 
ATOM      3  C1  PXY d   1       2.967   0.273  -0.558  0.00  0.00    -0.082 A 
ATOM      4  C2  PXY d   1       3.365   1.062   0.427  0.00  0.00     0.003 A 
ATOM      5  C3  PXY d   1       4.112   2.181   0.160  0.00  0.00     0.003 A 
ATOM      6  C4  PXY d   1       4.500   2.465  -1.122  0.00  0.00    -0.082 A 
ATOM      7  C5  PXY d   1       4.107   1.658  -2.131  0.00  0.00     0.003 A 
ATOM      8  C6  PXY d   1       3.314   0.551  -1.843  0.00  0.00     0.003 A 
ENDROOT
TORSDOF 0
ENDMDL
