MODEL 1
REMARK minimizedAffinity 3.3094058
REMARK minimizedRMSD -1
REMARK  0 active torsions:
REMARK  status: ('A' for Active; 'I' for Inactive)
ROOT
ATOM      1  C4' PXY d   1       3.764   3.039  -1.663  0.00  0.00     0.077 C 
ATOM      2  C1' PXY d   1       2.433  -1.673   1.410  0.00  0.00     0.077 C 
ATOM      3  C1  PXY d   1       2.779  -0.443   0.593  0.00  0.00    -0.082 A 
ATOM      4  C2  PXY d   1       3.631   0.445   1.077  0.00  0.00     0.003 A 
ATOM      5  C3  PXY d   1       3.931   1.578   0.366  0.00  0.00     0.003 A 
ATOM      6  C4  PXY d   1       3.393   1.778  -0.877  0.00  0.00    -0.082 A 
ATOM      7  C5  PXY d   1       2.531   0.871  -1.383  0.00  0.00     0.003 A 
ATOM      8  C6  PXY d   1       2.208  -0.252  -0.627  0.00  0.00     0.003 A 
ENDROOT
TORSDOF 0
ENDMDL
