MODEL 1
REMARK minimizedAffinity 8.26605797
REMARK minimizedRMSD -1
REMARK  0 active torsions:
REMARK  status: ('A' for Active; 'I' for Inactive)
ROOT
ATOM      1  C4' PXY d   1       5.190   3.320   1.096  0.00  0.00     0.077 C 
ATOM      2  C1' PXY d   1       1.636  -0.603  -1.227  0.00  0.00     0.077 C 
ATOM      3  C1  PXY d   1       2.573   0.429  -0.630  0.00  0.00    -0.082 A 
ATOM      4  C2  PXY d   1       2.959   0.310   0.630  0.00  0.00     0.003 A 
ATOM      5  C3  PXY d   1       3.780   1.251   1.196  0.00  0.00     0.003 A 
ATOM      6  C4  PXY d   1       4.253   2.297   0.448  0.00  0.00    -0.082 A 
ATOM      7  C5  PXY d   1       3.872   2.419  -0.841  0.00  0.00     0.003 A 
ATOM      8  C6  PXY d   1       3.005   1.475  -1.384  0.00  0.00     0.003 A 
ENDROOT
TORSDOF 0
ENDMDL
