MODEL 1
REMARK minimizedAffinity 14.8258801
REMARK minimizedRMSD -1
REMARK  0 active torsions:
REMARK  status: ('A' for Active; 'I' for Inactive)
ROOT
ATOM      1  C4' PXY d   1       2.281  -2.359  -2.958  0.00  0.00     0.077 C 
ATOM      2  C1' PXY d   1       3.753   3.088  -1.700  0.00  0.00     0.077 C 
ATOM      3  C1  PXY d   1       3.367   1.657  -2.017  0.00  0.00    -0.082 A 
ATOM      4  C2  PXY d   1       3.680   1.140  -3.194  0.00  0.00     0.003 A 
ATOM      5  C3  PXY d   1       3.309  -0.142  -3.510  0.00  0.00     0.003 A 
ATOM      6  C4  PXY d   1       2.659  -0.921  -2.591  0.00  0.00    -0.082 A 
ATOM      7  C5  PXY d   1       2.346  -0.405  -1.383  0.00  0.00     0.003 A 
ATOM      8  C6  PXY d   1       2.694   0.912  -1.098  0.00  0.00     0.003 A 
ENDROOT
TORSDOF 0
ENDMDL
