MODEL 1
REMARK minimizedAffinity 15.1235704
REMARK minimizedRMSD -1
REMARK  0 active torsions:
REMARK  status: ('A' for Active; 'I' for Inactive)
ROOT
ATOM      1  C4' PXY d   1       5.488   5.776  -0.718  0.00  0.00     0.077 C 
ATOM      2  C1' PXY d   1       4.820   1.621  -4.681  0.00  0.00     0.077 C 
ATOM      3  C1  PXY d   1       4.983   2.708  -3.637  0.00  0.00    -0.082 A 
ATOM      4  C2  PXY d   1       5.813   3.713  -3.864  0.00  0.00     0.003 A 
ATOM      5  C3  PXY d   1       5.997   4.688  -2.917  0.00  0.00     0.003 A 
ATOM      6  C4  PXY d   1       5.285   4.661  -1.748  0.00  0.00    -0.082 A 
ATOM      7  C5  PXY d   1       4.428   3.644  -1.513  0.00  0.00     0.003 A 
ATOM      8  C6  PXY d   1       4.287   2.643  -2.470  0.00  0.00     0.003 A 
ENDROOT
TORSDOF 0
ENDMDL
