MODEL 1
REMARK minimizedAffinity 9.38212395
REMARK minimizedRMSD -1
REMARK  0 active torsions:
REMARK  status: ('A' for Active; 'I' for Inactive)
ROOT
ATOM      1  C4' PXY d   1       6.000   5.690  -2.646  0.00  0.00     0.077 C 
ATOM      2  C1' PXY d   1       3.659   0.540  -3.835  0.00  0.00     0.077 C 
ATOM      3  C1  PXY d   1       4.261   1.895  -3.520  0.00  0.00    -0.082 A 
ATOM      4  C2  PXY d   1       5.426   2.233  -4.050  0.00  0.00     0.003 A 
ATOM      5  C3  PXY d   1       6.000   3.441  -3.751  0.00  0.00     0.003 A 
ATOM      6  C4  PXY d   1       5.350   4.336  -2.943  0.00  0.00    -0.082 A 
ATOM      7  C5  PXY d   1       4.156   4.003  -2.407  0.00  0.00     0.003 A 
ATOM      8  C6  PXY d   1       3.610   2.755  -2.691  0.00  0.00     0.003 A 
ENDROOT
TORSDOF 0
ENDMDL
