MODEL 1
REMARK minimizedAffinity -4.52308941
REMARK minimizedRMSD -1
REMARK  1 active torsions:
REMARK  status: ('A' for Active; 'I' for Inactive)
REMARK    1  A    between atoms: N_2  and  C1_3 
ROOT
ATOM      1  C1  UNL d   1       1.479   2.601  -1.114  0.00  0.00     0.143 A 
ATOM      2  C2  UNL d   1       1.966   2.529   0.196  0.00  0.00    -0.057 A 
ATOM      3  C3  UNL d   1       1.759   1.391   0.986  0.00  0.00     0.033 A 
ATOM      4  C4  UNL d   1       1.035   0.313   0.487  0.00  0.00    -0.042 A 
ATOM      5  C5  UNL d   1       0.520   0.373  -0.803  0.00  0.00     0.033 A 
ATOM      6  C6  UNL d   1       0.735   1.509  -1.589  0.00  0.00    -0.057 A 
ENDROOT
BRANCH   1   7
ATOM      7  N   UNL d   1       1.567   3.742  -1.914  0.00  0.00    -0.732 N 
ATOM      8  C   UNL d   1       2.285   4.912  -1.455  0.00  0.00     0.284 C 
ATOM      9  H3  UNL d   1       1.721   3.518  -2.894  0.00  0.00     0.395 HD
ENDBRANCH   1   7
TORSDOF 1
ENDMDL
