MODEL 1
REMARK minimizedAffinity -4.14659595
REMARK minimizedRMSD -1
REMARK  1 active torsions:
REMARK  status: ('A' for Active; 'I' for Inactive)
REMARK    1  A    between atoms: N_2  and  C1_3 
ROOT
ATOM      1  C1  UNL d   1       1.146   3.676  -0.435  0.00  0.00     0.143 A 
ATOM      2  C2  UNL d   1       0.872   3.032   0.777  0.00  0.00    -0.057 A 
ATOM      3  C3  UNL d   1       0.884   1.636   0.876  0.00  0.00     0.033 A 
ATOM      4  C4  UNL d   1       1.143   0.855  -0.246  0.00  0.00    -0.042 A 
ATOM      5  C5  UNL d   1       1.393   1.473  -1.466  0.00  0.00     0.033 A 
ATOM      6  C6  UNL d   1       1.386   2.868  -1.557  0.00  0.00    -0.057 A 
ENDROOT
BRANCH   1   7
ATOM      7  N   UNL d   1       1.052   5.057  -0.620  0.00  0.00    -0.732 N 
ATOM      8  C   UNL d   1       2.216   5.832  -0.991  0.00  0.00     0.284 C 
ATOM      9  H3  UNL d   1       0.200   5.327  -1.108  0.00  0.00     0.395 HD
ENDBRANCH   1   7
TORSDOF 1
ENDMDL
