MODEL 1
REMARK minimizedAffinity -3.68665552
REMARK minimizedRMSD -1
REMARK  1 active torsions:
REMARK  status: ('A' for Active; 'I' for Inactive)
REMARK    1  A    between atoms: N_2  and  C1_3 
ROOT
ATOM      1  C1  UNL d   1       1.334   1.382  -0.517  0.00  0.00     0.143 A 
ATOM      2  C2  UNL d   1       1.307   2.237   0.590  0.00  0.00    -0.057 A 
ATOM      3  C3  UNL d   1       1.403   3.625   0.438  0.00  0.00     0.033 A 
ATOM      4  C4  UNL d   1       1.558   4.184  -0.827  0.00  0.00    -0.042 A 
ATOM      5  C5  UNL d   1       1.613   3.352  -1.939  0.00  0.00     0.033 A 
ATOM      6  C6  UNL d   1       1.510   1.966  -1.782  0.00  0.00    -0.057 A 
ENDROOT
BRANCH   1   7
ATOM      7  N   UNL d   1       1.343  -0.012  -0.424  0.00  0.00    -0.732 N 
ATOM      8  C   UNL d   1       0.789  -0.825  -1.486  0.00  0.00     0.284 C 
ATOM      9  H3  UNL d   1       2.213  -0.370  -0.037  0.00  0.00     0.395 HD
ENDBRANCH   1   7
TORSDOF 1
ENDMDL
