MODEL 1
REMARK minimizedAffinity -0.945364654
REMARK minimizedRMSD -1
REMARK  1 active torsions:
REMARK  status: ('A' for Active; 'I' for Inactive)
REMARK    1  A    between atoms: N_2  and  C1_3 
ROOT
ATOM      1  C1  UNL d   1       1.249   3.710  -0.480  0.00  0.00     0.143 A 
ATOM      2  C2  UNL d   1       0.832   2.848   0.540  0.00  0.00    -0.057 A 
ATOM      3  C3  UNL d   1       0.543   1.503   0.282  0.00  0.00     0.033 A 
ATOM      4  C4  UNL d   1       0.638   1.001  -1.012  0.00  0.00    -0.042 A 
ATOM      5  C5  UNL d   1       1.027   1.846  -2.046  0.00  0.00     0.033 A 
ATOM      6  C6  UNL d   1       1.321   3.186  -1.780  0.00  0.00    -0.057 A 
ENDROOT
BRANCH   1   7
ATOM      7  N   UNL d   1       1.456   5.080  -0.304  0.00  0.00    -0.732 N 
ATOM      8  C   UNL d   1       2.306   5.820  -1.213  0.00  0.00     0.284 C 
ATOM      9  H3  UNL d   1       0.606   5.571  -0.038  0.00  0.00     0.395 HD
ENDBRANCH   1   7
TORSDOF 1
ENDMDL
