MODEL 1
REMARK minimizedAffinity -1.00874162
REMARK minimizedRMSD -1
REMARK  1 active torsions:
REMARK  status: ('A' for Active; 'I' for Inactive)
REMARK    1  A    between atoms: N_2  and  C1_3 
ROOT
ATOM      1  C1  UNL d   1       1.112   2.597  -0.865  0.00  0.00     0.143 A 
ATOM      2  C2  UNL d   1       0.901   2.275   0.480  0.00  0.00    -0.057 A 
ATOM      3  C3  UNL d   1       1.165   0.989   0.969  0.00  0.00     0.033 A 
ATOM      4  C4  UNL d   1       1.618  -0.008   0.112  0.00  0.00    -0.042 A 
ATOM      5  C5  UNL d   1       1.810   0.282  -1.234  0.00  0.00     0.033 A 
ATOM      6  C6  UNL d   1       1.551   1.570  -1.715  0.00  0.00    -0.057 A 
ENDROOT
BRANCH   1   7
ATOM      7  N   UNL d   1       0.775   3.828  -1.432  0.00  0.00    -0.732 N 
ATOM      8  C   UNL d   1       1.239   5.064  -0.839  0.00  0.00     0.284 C 
ATOM      9  H3  UNL d   1       0.818   3.813  -2.448  0.00  0.00     0.395 HD
ENDBRANCH   1   7
TORSDOF 1
ENDMDL
