MODEL 1
REMARK minimizedAffinity -2.11340213
REMARK minimizedRMSD -1
REMARK  1 active torsions:
REMARK  status: ('A' for Active; 'I' for Inactive)
REMARK    1  A    between atoms: N_2  and  C1_3 
ROOT
ATOM      1  C1  UNL d   1       0.898   1.170  -1.002  0.00  0.00     0.143 A 
ATOM      2  C2  UNL d   1       1.218   2.164  -1.933  0.00  0.00    -0.057 A 
ATOM      3  C3  UNL d   1       1.470   3.481  -1.531  0.00  0.00     0.033 A 
ATOM      4  C4  UNL d   1       1.378   3.835  -0.189  0.00  0.00    -0.042 A 
ATOM      5  C5  UNL d   1       1.038   2.869   0.751  0.00  0.00     0.033 A 
ATOM      6  C6  UNL d   1       0.794   1.553   0.344  0.00  0.00    -0.057 A 
ENDROOT
BRANCH   1   7
ATOM      7  N   UNL d   1       0.541  -0.135  -1.349  0.00  0.00    -0.732 N 
ATOM      8  C   UNL d   1       1.046  -1.263  -0.597  0.00  0.00     0.284 C 
ATOM      9  H3  UNL d   1      -0.441  -0.214  -1.607  0.00  0.00     0.395 HD
ENDBRANCH   1   7
TORSDOF 1
ENDMDL
