MODEL 1
REMARK minimizedAffinity -1.67815626
REMARK minimizedRMSD -1
REMARK  1 active torsions:
REMARK  status: ('A' for Active; 'I' for Inactive)
REMARK    1  A    between atoms: N_2  and  C1_3 
ROOT
ATOM      1  C1  UNL d   1       1.315   0.582  -0.634  0.00  0.00     0.143 A 
ATOM      2  C2  UNL d   1       0.908   0.998   0.638  0.00  0.00    -0.057 A 
ATOM      3  C3  UNL d   1       0.834   2.357   0.968  0.00  0.00     0.033 A 
ATOM      4  C4  UNL d   1       1.196   3.326   0.038  0.00  0.00    -0.042 A 
ATOM      5  C5  UNL d   1       1.628   2.934  -1.224  0.00  0.00     0.033 A 
ATOM      6  C6  UNL d   1       1.693   1.576  -1.550  0.00  0.00    -0.057 A 
ENDROOT
BRANCH   1   7
ATOM      7  N   UNL d   1       1.503  -0.755  -0.991  0.00  0.00    -0.732 N 
ATOM      8  C   UNL d   1       0.625  -1.785  -0.480  0.00  0.00     0.284 C 
ATOM      9  H3  UNL d   1       1.745  -0.864  -1.974  0.00  0.00     0.395 HD
ENDBRANCH   1   7
TORSDOF 1
ENDMDL
