MODEL 1
REMARK minimizedAffinity -2.24168301
REMARK minimizedRMSD -1
REMARK  1 active torsions:
REMARK  status: ('A' for Active; 'I' for Inactive)
REMARK    1  A    between atoms: N_2  and  C1_3 
ROOT
ATOM      1  C1  UNL d   1       1.563   3.453  -1.332  0.00  0.00     0.143 A 
ATOM      2  C2  UNL d   1       1.576   2.995  -0.011  0.00  0.00    -0.057 A 
ATOM      3  C3  UNL d   1       1.146   1.703   0.314  0.00  0.00     0.033 A 
ATOM      4  C4  UNL d   1       0.666   0.853  -0.678  0.00  0.00    -0.042 A 
ATOM      5  C5  UNL d   1       0.621   1.296  -1.995  0.00  0.00     0.033 A 
ATOM      6  C6  UNL d   1       1.058   2.586  -2.313  0.00  0.00    -0.057 A 
ENDROOT
BRANCH   1   7
ATOM      7  N   UNL d   1       1.885   4.761  -1.706  0.00  0.00    -0.732 N 
ATOM      8  C   UNL d   1       2.188   5.760  -0.704  0.00  0.00     0.284 C 
ATOM      9  H3  UNL d   1       2.492   4.793  -2.522  0.00  0.00     0.395 HD
ENDBRANCH   1   7
TORSDOF 1
ENDMDL
