MODEL 1
REMARK minimizedAffinity -4.04413557
REMARK minimizedRMSD -1
REMARK  1 active torsions:
REMARK  status: ('A' for Active; 'I' for Inactive)
REMARK    1  A    between atoms: N_2  and  C1_3 
ROOT
ATOM      1  C1  UNL d   1       1.185   0.629  -0.846  0.00  0.00     0.143 A 
ATOM      2  C2  UNL d   1       0.848   0.856   0.492  0.00  0.00    -0.057 A 
ATOM      3  C3  UNL d   1       0.672   2.154   0.986  0.00  0.00     0.033 A 
ATOM      4  C4  UNL d   1       0.858   3.253   0.153  0.00  0.00    -0.042 A 
ATOM      5  C5  UNL d   1       1.218   3.051  -1.174  0.00  0.00     0.033 A 
ATOM      6  C6  UNL d   1       1.386   1.752  -1.663  0.00  0.00    -0.057 A 
ENDROOT
BRANCH   1   7
ATOM      7  N   UNL d   1       1.471  -0.634  -1.373  0.00  0.00    -0.732 N 
ATOM      8  C   UNL d   1       2.229  -1.598  -0.606  0.00  0.00     0.284 C 
ATOM      9  H3  UNL d   1       0.682  -1.032  -1.877  0.00  0.00     0.395 HD
ENDBRANCH   1   7
TORSDOF 1
ENDMDL
