MODEL 1
REMARK minimizedAffinity -4.61073923
REMARK minimizedRMSD -1
REMARK  1 active torsions:
REMARK  status: ('A' for Active; 'I' for Inactive)
REMARK    1  A    between atoms: N_2  and  C1_3 
ROOT
ATOM      1  C1  UNL d   1       1.078   0.933  -0.886  0.00  0.00     0.143 A 
ATOM      2  C2  UNL d   1       0.873   0.791   0.491  0.00  0.00    -0.057 A 
ATOM      3  C3  UNL d   1       0.808   1.907   1.334  0.00  0.00     0.033 A 
ATOM      4  C4  UNL d   1       0.977   3.187   0.817  0.00  0.00    -0.042 A 
ATOM      5  C5  UNL d   1       1.206   3.350  -0.545  0.00  0.00     0.033 A 
ATOM      6  C6  UNL d   1       1.263   2.232  -1.382  0.00  0.00    -0.057 A 
ENDROOT
BRANCH   1   7
ATOM      7  N   UNL d   1       1.250  -0.142  -1.761  0.00  0.00    -0.732 N 
ATOM      8  C   UNL d   1       1.664  -1.438  -1.266  0.00  0.00     0.284 C 
ATOM      9  H3  UNL d   1       0.526  -0.183  -2.475  0.00  0.00     0.395 HD
ENDBRANCH   1   7
TORSDOF 1
ENDMDL
