MODEL 1
REMARK minimizedAffinity 0.77595669
REMARK minimizedRMSD -1
REMARK  2 active torsions:
REMARK  status: ('A' for Active; 'I' for Inactive)
REMARK    1  A    between atoms: C1_2  and  C2_3 
REMARK    2  A    between atoms: C2_3  and  C3_4 
ROOT
ATOM      1  C3  UNL d   1      -4.066  -0.480   0.855  0.00  0.00    -0.075 A 
ATOM      2  C4  UNL d   1      -4.663  -1.745   0.955  0.00  0.00     0.002 A 
ATOM      3  C5  UNL d   1      -5.621  -2.152   0.025  0.00  0.00     0.002 A 
ATOM      4  C6  UNL d   1      -6.000  -1.297  -1.008  0.00  0.00    -0.004 A 
ATOM      5  C7  UNL d   1      -5.425  -0.032  -1.107  0.00  0.00     0.002 A 
ATOM      6  C8  UNL d   1      -4.464   0.376  -0.181  0.00  0.00     0.002 A 
ENDROOT
BRANCH   1   7
ATOM      7  C2  UNL d   1      -3.008  -0.045   1.840  0.00  0.00     0.056 C 
BRANCH   7   8
ATOM      8  C1  UNL d   1      -2.996  -0.856   3.141  0.00  0.00     0.007 C 
ATOM      9  C   UNL d   1      -1.937  -0.388   4.130  0.00  0.00     0.009 C 
ENDBRANCH   7   8
ENDBRANCH   1   7
TORSDOF 2
ENDMDL
