MODEL 1
REMARK minimizedAffinity 3.17416859
REMARK minimizedRMSD -1
REMARK  2 active torsions:
REMARK  status: ('A' for Active; 'I' for Inactive)
REMARK    1  A    between atoms: C1_2  and  C2_3 
REMARK    2  A    between atoms: C2_3  and  C3_4 
ROOT
ATOM      1  C3  UNL d   1       0.553   0.165   5.276  0.00  0.00    -0.075 A 
ATOM      2  C4  UNL d   1      -0.847   0.095   5.248  0.00  0.00     0.002 A 
ATOM      3  C5  UNL d   1      -1.504  -1.083   5.605  0.00  0.00     0.002 A 
ATOM      4  C6  UNL d   1      -0.772  -2.206   5.983  0.00  0.00    -0.004 A 
ATOM      5  C7  UNL d   1       0.620  -2.152   5.999  0.00  0.00     0.002 A 
ATOM      6  C8  UNL d   1       1.281  -0.974   5.646  0.00  0.00     0.002 A 
ENDROOT
BRANCH   1   7
ATOM      7  C2  UNL d   1       1.270   1.446   4.919  0.00  0.00     0.056 C 
BRANCH   7   8
ATOM      8  C1  UNL d   1       0.336   2.588   4.506  0.00  0.00     0.007 C 
ATOM      9  C   UNL d   1       0.380   2.890   3.014  0.00  0.00     0.009 C 
ENDBRANCH   7   8
ENDBRANCH   1   7
TORSDOF 2
ENDMDL
