MODEL 1
REMARK minimizedAffinity 14.7504587
REMARK minimizedRMSD -1
REMARK  2 active torsions:
REMARK  status: ('A' for Active; 'I' for Inactive)
REMARK    1  A    between atoms: C1_2  and  C2_3 
REMARK    2  A    between atoms: C2_3  and  C3_4 
ROOT
ATOM      1  C3  UNL d   1      -4.525   1.243  -1.037  0.00  0.00    -0.075 A 
ATOM      2  C4  UNL d   1      -5.426   0.272  -1.498  0.00  0.00     0.002 A 
ATOM      3  C5  UNL d   1      -5.791  -0.799  -0.682  0.00  0.00     0.002 A 
ATOM      4  C6  UNL d   1      -5.254  -0.919   0.597  0.00  0.00    -0.004 A 
ATOM      5  C7  UNL d   1      -4.345   0.031   1.059  0.00  0.00     0.002 A 
ATOM      6  C8  UNL d   1      -3.981   1.106   0.247  0.00  0.00     0.002 A 
ENDROOT
BRANCH   1   7
ATOM      7  C2  UNL d   1      -4.148   2.421  -1.904  0.00  0.00     0.056 C 
BRANCH   7   8
ATOM      8  C1  UNL d   1      -5.315   3.364  -2.217  0.00  0.00     0.007 C 
ATOM      9  C   UNL d   1      -5.764   3.301  -3.670  0.00  0.00     0.009 C 
ENDBRANCH   7   8
ENDBRANCH   1   7
TORSDOF 2
ENDMDL
