MODEL 1
REMARK minimizedAffinity 14.7101822
REMARK minimizedRMSD -1
REMARK  2 active torsions:
REMARK  status: ('A' for Active; 'I' for Inactive)
REMARK    1  A    between atoms: C1_2  and  C2_3 
REMARK    2  A    between atoms: C2_3  and  C3_4 
ROOT
ATOM      1  C3  UNL d   1      -3.545  -0.285  -1.271  0.00  0.00    -0.075 A 
ATOM      2  C4  UNL d   1      -3.547  -0.263   0.131  0.00  0.00     0.002 A 
ATOM      3  C5  UNL d   1      -4.627  -0.779   0.847  0.00  0.00     0.002 A 
ATOM      4  C6  UNL d   1      -5.722  -1.314   0.171  0.00  0.00    -0.004 A 
ATOM      5  C7  UNL d   1      -5.739  -1.326  -1.222  0.00  0.00     0.002 A 
ATOM      6  C8  UNL d   1      -4.657  -0.814  -1.940  0.00  0.00     0.002 A 
ENDROOT
BRANCH   1   7
ATOM      7  C2  UNL d   1      -2.366   0.245  -2.051  0.00  0.00     0.056 C 
BRANCH   7   8
ATOM      8  C1  UNL d   1      -1.057  -0.509  -1.793  0.00  0.00     0.007 C 
ATOM      9  C   UNL d   1       0.057   0.384  -1.265  0.00  0.00     0.009 C 
ENDBRANCH   7   8
ENDBRANCH   1   7
TORSDOF 2
ENDMDL
