MODEL 1
REMARK minimizedAffinity 6.71108341
REMARK minimizedRMSD -1
REMARK  2 active torsions:
REMARK  status: ('A' for Active; 'I' for Inactive)
REMARK    1  A    between atoms: C1_2  and  C2_3 
REMARK    2  A    between atoms: C2_3  and  C3_4 
ROOT
ATOM      1  C3  UNL d   1       5.133   0.605   0.887  0.00  0.00    -0.075 A 
ATOM      2  C4  UNL d   1       6.000   1.471   0.204  0.00  0.00     0.002 A 
ATOM      3  C5  UNL d   1       5.757   1.811  -1.128  0.00  0.00     0.002 A 
ATOM      4  C6  UNL d   1       4.653   1.284  -1.794  0.00  0.00    -0.004 A 
ATOM      5  C7  UNL d   1       3.794   0.411  -1.130  0.00  0.00     0.002 A 
ATOM      6  C8  UNL d   1       4.032   0.072   0.203  0.00  0.00     0.002 A 
ENDROOT
BRANCH   1   7
ATOM      7  C2  UNL d   1       5.373   0.256   2.336  0.00  0.00     0.056 C 
BRANCH   7   8
ATOM      8  C1  UNL d   1       5.993   1.393   3.157  0.00  0.00     0.007 C 
ATOM      9  C   UNL d   1       5.235   2.707   3.029  0.00  0.00     0.009 C 
ENDBRANCH   7   8
ENDBRANCH   1   7
TORSDOF 2
ENDMDL
