MODEL 1
REMARK minimizedAffinity 7.33329153
REMARK minimizedRMSD -1
REMARK  2 active torsions:
REMARK  status: ('A' for Active; 'I' for Inactive)
REMARK    1  A    between atoms: C1_2  and  C2_3 
REMARK    2  A    between atoms: C2_3  and  C3_4 
ROOT
ATOM      1  C3  UNL d   1       3.040   1.017   3.378  0.00  0.00    -0.075 A 
ATOM      2  C4  UNL d   1       3.802   0.072   2.676  0.00  0.00     0.002 A 
ATOM      3  C5  UNL d   1       5.140   0.325   2.373  0.00  0.00     0.002 A 
ATOM      4  C6  UNL d   1       5.730   1.526   2.760  0.00  0.00    -0.004 A 
ATOM      5  C7  UNL d   1       4.978   2.479   3.444  0.00  0.00     0.002 A 
ATOM      6  C8  UNL d   1       3.639   2.227   3.751  0.00  0.00     0.002 A 
ENDROOT
BRANCH   1   7
ATOM      7  C2  UNL d   1       1.599   0.737   3.734  0.00  0.00     0.056 C 
BRANCH   7   8
ATOM      8  C1  UNL d   1       1.423  -0.245   4.897  0.00  0.00     0.007 C 
ATOM      9  C   UNL d   1       0.053  -0.909   4.920  0.00  0.00     0.009 C 
ENDBRANCH   7   8
ENDBRANCH   1   7
TORSDOF 2
ENDMDL
