MODEL 1
REMARK minimizedAffinity 13.4484034
REMARK minimizedRMSD -1
REMARK  2 active torsions:
REMARK  status: ('A' for Active; 'I' for Inactive)
REMARK    1  A    between atoms: C1_2  and  C2_3 
REMARK    2  A    between atoms: C2_3  and  C3_4 
ROOT
ATOM      1  C3  UNL d   1       3.514   1.552   2.376  0.00  0.00    -0.075 A 
ATOM      2  C4  UNL d   1       4.689   2.094   2.918  0.00  0.00     0.002 A 
ATOM      3  C5  UNL d   1       5.924   1.493   2.676  0.00  0.00     0.002 A 
ATOM      4  C6  UNL d   1       6.000   0.339   1.900  0.00  0.00    -0.004 A 
ATOM      5  C7  UNL d   1       4.838  -0.218   1.370  0.00  0.00     0.002 A 
ATOM      6  C8  UNL d   1       3.601   0.384   1.607  0.00  0.00     0.002 A 
ENDROOT
BRANCH   1   7
ATOM      7  C2  UNL d   1       2.178   2.215   2.610  0.00  0.00     0.056 C 
BRANCH   7   8
ATOM      8  C1  UNL d   1       1.012   1.543   1.876  0.00  0.00     0.007 C 
ATOM      9  C   UNL d   1       0.039   0.840   2.813  0.00  0.00     0.009 C 
ENDBRANCH   7   8
ENDBRANCH   1   7
TORSDOF 2
ENDMDL
