MODEL 1
REMARK minimizedAffinity -1.88311279
REMARK minimizedRMSD -1
REMARK  0 active torsions:
REMARK  status: ('A' for Active; 'I' for Inactive)
ROOT
ATOM      1  C   UNL d   1       5.321   1.686  -5.926  0.00  0.00     0.023 A 
ATOM      2  C1  UNL d   1       5.978   2.917  -5.938  0.00  0.00     0.003 A 
ATOM      3  C2  UNL d   1       5.241   4.103  -5.959  0.00  0.00     0.048 A 
ATOM      4  C3  UNL d   1       3.848   4.051  -5.968  0.00  0.00     0.023 A 
ATOM      5  C4  UNL d   1       3.186   2.822  -5.955  0.00  0.00     0.048 A 
ATOM      6  C5  UNL d   1       3.927   1.639  -5.935  0.00  0.00     0.003 A 
ATOM      7  I   UNL d   1       2.749   5.815  -6.000  0.00  0.00    -0.146 I 
ENDROOT
TORSDOF 0
ENDMDL
