MODEL 1
REMARK minimizedAffinity 8.07558537
REMARK minimizedRMSD -1
REMARK  0 active torsions:
REMARK  status: ('A' for Active; 'I' for Inactive)
ROOT
ATOM      1  C   UNL d   1       1.758  -2.229   0.322  0.00  0.00     0.023 A 
ATOM      2  C1  UNL d   1       2.858  -3.086   0.287  0.00  0.00     0.003 A 
ATOM      3  C2  UNL d   1       3.739  -3.138   1.369  0.00  0.00     0.048 A 
ATOM      4  C3  UNL d   1       3.514  -2.331   2.483  0.00  0.00     0.023 A 
ATOM      5  C4  UNL d   1       2.415  -1.472   2.523  0.00  0.00     0.048 A 
ATOM      6  C5  UNL d   1       1.537  -1.423   1.439  0.00  0.00     0.003 A 
ATOM      7  I   UNL d   1       4.824  -2.407   4.095  0.00  0.00    -0.146 I 
ENDROOT
TORSDOF 0
ENDMDL
