MODEL 1
REMARK minimizedAffinity 5.88319921
REMARK minimizedRMSD -1
REMARK  0 active torsions:
REMARK  status: ('A' for Active; 'I' for Inactive)
ROOT
ATOM      1  C   UNL d   1       2.763  -3.342  -0.287  0.00  0.00     0.023 A 
ATOM      2  C1  UNL d   1       3.809  -4.236  -0.060  0.00  0.00     0.003 A 
ATOM      3  C2  UNL d   1       4.486  -4.226   1.161  0.00  0.00     0.048 A 
ATOM      4  C3  UNL d   1       4.111  -3.319   2.152  0.00  0.00     0.023 A 
ATOM      5  C4  UNL d   1       3.064  -2.423   1.930  0.00  0.00     0.048 A 
ATOM      6  C5  UNL d   1       2.391  -2.436   0.707  0.00  0.00     0.003 A 
ATOM      7  I   UNL d   1       5.117  -3.302   3.970  0.00  0.00    -0.146 I 
ENDROOT
TORSDOF 0
ENDMDL
