MODEL 1
REMARK minimizedAffinity 16.3213825
REMARK minimizedRMSD -1
REMARK  0 active torsions:
REMARK  status: ('A' for Active; 'I' for Inactive)
ROOT
ATOM      1  C   UNL d   1       1.769   3.396   2.803  0.00  0.00     0.023 A 
ATOM      2  C1  UNL d   1       3.075   3.207   3.255  0.00  0.00     0.003 A 
ATOM      3  C2  UNL d   1       4.016   2.586   2.432  0.00  0.00     0.048 A 
ATOM      4  C3  UNL d   1       3.646   2.157   1.158  0.00  0.00     0.023 A 
ATOM      5  C4  UNL d   1       2.340   2.345   0.701  0.00  0.00     0.048 A 
ATOM      6  C5  UNL d   1       1.402   2.966   1.528  0.00  0.00     0.003 A 
ATOM      7  I   UNL d   1       5.046   1.232  -0.068  0.00  0.00    -0.146 I 
ENDROOT
TORSDOF 0
ENDMDL
