MODEL 1
REMARK minimizedAffinity 7.14988518
REMARK minimizedRMSD -1
REMARK  0 active torsions:
REMARK  status: ('A' for Active; 'I' for Inactive)
ROOT
ATOM      1  C   UNL d   1       1.453   2.095  -5.895  0.00  0.00     0.023 A 
ATOM      2  C1  UNL d   1       1.307   3.480  -5.973  0.00  0.00     0.003 A 
ATOM      3  C2  UNL d   1       2.436   4.302  -6.000  0.00  0.00     0.048 A 
ATOM      4  C3  UNL d   1       3.707   3.732  -5.950  0.00  0.00     0.023 A 
ATOM      5  C4  UNL d   1       3.858   2.347  -5.873  0.00  0.00     0.048 A 
ATOM      6  C5  UNL d   1       2.727   1.529  -5.845  0.00  0.00     0.003 A 
ATOM      7  I   UNL d   1       5.388   4.953  -5.990  0.00  0.00    -0.146 I 
ENDROOT
TORSDOF 0
ENDMDL
