MODEL 1
REMARK minimizedAffinity 4.93918705
REMARK minimizedRMSD -1
REMARK  0 active torsions:
REMARK  status: ('A' for Active; 'I' for Inactive)
ROOT
ATOM      1  C   UNL d   1      -3.844   4.224  -3.702  0.00  0.00     0.023 A 
ATOM      2  C1  UNL d   1      -4.882   4.103  -4.626  0.00  0.00     0.003 A 
ATOM      3  C2  UNL d   1      -5.501   2.867  -4.826  0.00  0.00     0.048 A 
ATOM      4  C3  UNL d   1      -5.076   1.756  -4.098  0.00  0.00     0.023 A 
ATOM      5  C4  UNL d   1      -4.038   1.872  -3.173  0.00  0.00     0.048 A 
ATOM      6  C5  UNL d   1      -3.422   3.109  -2.977  0.00  0.00     0.003 A 
ATOM      7  I   UNL d   1      -5.995  -0.084  -4.394  0.00  0.00    -0.146 I 
ENDROOT
TORSDOF 0
ENDMDL
