MODEL 1
REMARK minimizedAffinity 4.95136404
REMARK minimizedRMSD -1
REMARK  0 active torsions:
REMARK  status: ('A' for Active; 'I' for Inactive)
ROOT
ATOM      1  C   UNL d   1       5.297  -4.162   6.000  0.00  0.00     0.023 A 
ATOM      2  C1  UNL d   1       4.914  -5.131   5.073  0.00  0.00     0.003 A 
ATOM      3  C2  UNL d   1       4.583  -4.759   3.768  0.00  0.00     0.048 A 
ATOM      4  C3  UNL d   1       4.639  -3.416   3.397  0.00  0.00     0.023 A 
ATOM      5  C4  UNL d   1       5.023  -2.443   4.320  0.00  0.00     0.048 A 
ATOM      6  C5  UNL d   1       5.352  -2.819   5.624  0.00  0.00     0.003 A 
ATOM      7  I   UNL d   1       4.147  -2.861   1.455  0.00  0.00    -0.146 I 
ENDROOT
TORSDOF 0
ENDMDL
