MODEL 1
REMARK minimizedAffinity 10.80651
REMARK minimizedRMSD -1
REMARK  0 active torsions:
REMARK  status: ('A' for Active; 'I' for Inactive)
ROOT
ATOM      1  C   UNL d   1      -4.952   1.057   2.035  0.00  0.00     0.023 A 
ATOM      2  C1  UNL d   1      -3.656   1.098   2.550  0.00  0.00     0.003 A 
ATOM      3  C2  UNL d   1      -3.379   1.860   3.686  0.00  0.00     0.048 A 
ATOM      4  C3  UNL d   1      -4.402   2.579   4.303  0.00  0.00     0.023 A 
ATOM      5  C4  UNL d   1      -5.700   2.540   3.792  0.00  0.00     0.048 A 
ATOM      6  C5  UNL d   1      -5.972   1.777   2.655  0.00  0.00     0.003 A 
ATOM      7  I   UNL d   1      -3.992   3.714   5.995  0.00  0.00    -0.146 I 
ENDROOT
TORSDOF 0
ENDMDL
