MODEL 1
REMARK minimizedAffinity 6.17631531
REMARK minimizedRMSD -1
REMARK  0 active torsions:
REMARK  status: ('A' for Active; 'I' for Inactive)
ROOT
ATOM      1  C1  BNZ d   1       4.873   1.477  -0.793  0.00  0.00     0.000 A 
ATOM      2  C2  BNZ d   1       5.991   2.134  -0.354  0.00  0.00     0.000 A 
ATOM      3  C3  BNZ d   1       5.999   2.771   0.856  0.00  0.00     0.000 A 
ATOM      4  C4  BNZ d   1       4.878   2.785   1.605  0.00  0.00     0.000 A 
ATOM      5  C5  BNZ d   1       3.740   2.135   1.172  0.00  0.00     0.000 A 
ATOM      6  C6  BNZ d   1       3.747   1.462  -0.028  0.00  0.00     0.000 A 
ENDROOT
TORSDOF 0
ENDMDL
