MODEL 1
REMARK minimizedAffinity -3.16994905
REMARK minimizedRMSD -1
REMARK  0 active torsions:
REMARK  status: ('A' for Active; 'I' for Inactive)
ROOT
ATOM      1  C1  BNZ d   1       4.416   1.040  -1.507  0.00  0.00     0.000 A 
ATOM      2  C2  BNZ d   1       5.428   1.936  -1.732  0.00  0.00     0.000 A 
ATOM      3  C3  BNZ d   1       5.817   2.810  -0.756  0.00  0.00     0.000 A 
ATOM      4  C4  BNZ d   1       5.170   2.815   0.427  0.00  0.00     0.000 A 
ATOM      5  C5  BNZ d   1       4.143   1.925   0.665  0.00  0.00     0.000 A 
ATOM      6  C6  BNZ d   1       3.779   1.019  -0.305  0.00  0.00     0.000 A 
ENDROOT
TORSDOF 0
ENDMDL
