MODEL 1
REMARK minimizedAffinity -0.420638829
REMARK minimizedRMSD -1
REMARK  0 active torsions:
REMARK  status: ('A' for Active; 'I' for Inactive)
ROOT
ATOM      1  C1  BNZ d   1       4.076   1.986   1.040  0.00  0.00     0.000 A 
ATOM      2  C2  BNZ d   1       3.050   1.614   0.212  0.00  0.00     0.000 A 
ATOM      3  C3  BNZ d   1       3.145   0.486  -0.555  0.00  0.00     0.000 A 
ATOM      4  C4  BNZ d   1       4.278  -0.244  -0.524  0.00  0.00     0.000 A 
ATOM      5  C5  BNZ d   1       5.324   0.124   0.298  0.00  0.00     0.000 A 
ATOM      6  C6  BNZ d   1       5.211   1.238   1.098  0.00  0.00     0.000 A 
ENDROOT
TORSDOF 0
ENDMDL
