MODEL 1
REMARK minimizedAffinity 1.60196328
REMARK minimizedRMSD -1
REMARK  0 active torsions:
REMARK  status: ('A' for Active; 'I' for Inactive)
ROOT
ATOM      1  C1  BNZ d   1       4.840   2.748   0.380  0.00  0.00     0.000 A 
ATOM      2  C2  BNZ d   1       3.680   2.236  -0.140  0.00  0.00     0.000 A 
ATOM      3  C3  BNZ d   1       3.667   1.015  -0.753  0.00  0.00     0.000 A 
ATOM      4  C4  BNZ d   1       4.819   0.325  -0.882  0.00  0.00     0.000 A 
ATOM      5  C5  BNZ d   1       5.998   0.832  -0.372  0.00  0.00     0.000 A 
ATOM      6  C6  BNZ d   1       6.000   2.044   0.280  0.00  0.00     0.000 A 
ENDROOT
TORSDOF 0
ENDMDL
