MODEL 1
REMARK minimizedAffinity -0.053183049
REMARK minimizedRMSD -1
REMARK  0 active torsions:
REMARK  status: ('A' for Active; 'I' for Inactive)
ROOT
ATOM      1  C1  BNZ d   1       4.971   2.785   0.485  0.00  0.00     0.000 A 
ATOM      2  C2  BNZ d   1       3.839   2.386  -0.176  0.00  0.00     0.000 A 
ATOM      3  C3  BNZ d   1       3.690   1.091  -0.589  0.00  0.00     0.000 A 
ATOM      4  C4  BNZ d   1       4.687   0.209  -0.378  0.00  0.00     0.000 A 
ATOM      5  C5  BNZ d   1       5.838   0.598   0.278  0.00  0.00     0.000 A 
ATOM      6  C6  BNZ d   1       5.969   1.892   0.728  0.00  0.00     0.000 A 
ENDROOT
TORSDOF 0
ENDMDL
