MODEL 1
REMARK minimizedAffinity 2.47233748
REMARK minimizedRMSD -1
REMARK  0 active torsions:
REMARK  status: ('A' for Active; 'I' for Inactive)
ROOT
ATOM      1  C1  BNZ d   1       2.599   3.617   5.971  0.00  0.00     0.000 A 
ATOM      2  C2  BNZ d   1       3.280   4.806   5.962  0.00  0.00     0.000 A 
ATOM      3  C3  BNZ d   1       2.609   5.996   5.992  0.00  0.00     0.000 A 
ATOM      4  C4  BNZ d   1       1.261   5.998   5.992  0.00  0.00     0.000 A 
ATOM      5  C5  BNZ d   1       0.560   4.808   5.991  0.00  0.00     0.000 A 
ATOM      6  C6  BNZ d   1       1.239   3.611   6.000  0.00  0.00     0.000 A 
ENDROOT
TORSDOF 0
ENDMDL
