MODEL 1
REMARK minimizedAffinity -4.16145182
REMARK minimizedRMSD -1
REMARK  0 active torsions:
REMARK  status: ('A' for Active; 'I' for Inactive)
ROOT
ATOM      1  N1  IND d   1      -3.563  -5.996  -4.506  0.00  0.00    -0.196 N 
ATOM      2  C2  IND d   1      -2.296  -5.830  -4.993  0.00  0.00     0.054 A 
ATOM      3  C3  IND d   1      -2.117  -4.558  -5.415  0.00  0.00    -0.031 A 
ATOM      4  C4  IND d   1      -3.732  -2.556  -5.306  0.00  0.00     0.051 A 
ATOM      5  C5  IND d   1      -5.016  -2.225  -4.977  0.00  0.00    -0.031 A 
ATOM      6  C6  IND d   1      -5.899  -3.152  -4.461  0.00  0.00     0.015 A 
ATOM      7  C7  IND d   1      -5.524  -4.448  -4.243  0.00  0.00    -0.016 A 
ATOM      8  C8  IND d   1      -4.223  -4.789  -4.583  0.00  0.00    -0.047 A 
ATOM      9  C9  IND d   1      -3.336  -3.863  -5.146  0.00  0.00    -0.096 A 
ATOM     10  HN1 IND d   1      -3.891  -6.730  -4.202  0.00  0.00     0.298 HD
ENDROOT
TORSDOF 0
ENDMDL
