MODEL 1
REMARK minimizedAffinity -3.39063191
REMARK minimizedRMSD -1
REMARK  0 active torsions:
REMARK  status: ('A' for Active; 'I' for Inactive)
ROOT
ATOM      1  N1  IND d   1      -2.628  -5.977  -6.000  0.00  0.00    -0.196 N 
ATOM      2  C2  IND d   1      -1.558  -5.540  -5.269  0.00  0.00     0.054 A 
ATOM      3  C3  IND d   1      -1.954  -4.622  -4.358  0.00  0.00    -0.031 A 
ATOM      4  C4  IND d   1      -4.322  -3.764  -3.824  0.00  0.00     0.051 A 
ATOM      5  C5  IND d   1      -5.618  -3.844  -4.250  0.00  0.00    -0.031 A 
ATOM      6  C6  IND d   1      -5.992  -4.657  -5.300  0.00  0.00     0.015 A 
ATOM      7  C7  IND d   1      -5.081  -5.433  -5.959  0.00  0.00    -0.016 A 
ATOM      8  C8  IND d   1      -3.763  -5.349  -5.534  0.00  0.00    -0.047 A 
ATOM      9  C9  IND d   1      -3.370  -4.494  -4.497  0.00  0.00    -0.096 A 
ATOM     10  HN1 IND d   1      -2.597  -6.548  -6.642  0.00  0.00     0.298 HD
ENDROOT
TORSDOF 0
ENDMDL
