MODEL 1
REMARK minimizedAffinity -4.2498827
REMARK minimizedRMSD -1
REMARK  0 active torsions:
REMARK  status: ('A' for Active; 'I' for Inactive)
ROOT
ATOM      1  N1  IND d   1      -2.648  -6.000  -5.042  0.00  0.00    -0.196 N 
ATOM      2  C2  IND d   1      -1.661  -5.265  -5.638  0.00  0.00     0.054 A 
ATOM      3  C3  IND d   1      -2.131  -4.048  -5.993  0.00  0.00    -0.031 A 
ATOM      4  C4  IND d   1      -4.455  -3.013  -5.601  0.00  0.00     0.051 A 
ATOM      5  C5  IND d   1      -5.702  -3.313  -5.128  0.00  0.00    -0.031 A 
ATOM      6  C6  IND d   1      -6.000  -4.548  -4.590  0.00  0.00     0.015 A 
ATOM      7  C7  IND d   1      -5.054  -5.530  -4.492  0.00  0.00    -0.016 A 
ATOM      8  C8  IND d   1      -3.789  -5.231  -4.977  0.00  0.00    -0.047 A 
ATOM      9  C9  IND d   1      -3.492  -3.994  -5.564  0.00  0.00    -0.096 A 
ATOM     10  HN1 IND d   1      -2.569  -6.807  -4.755  0.00  0.00     0.298 HD
ENDROOT
TORSDOF 0
ENDMDL
