MODEL 1
REMARK minimizedAffinity -1.32838678
REMARK minimizedRMSD -1
REMARK  0 active torsions:
REMARK  status: ('A' for Active; 'I' for Inactive)
ROOT
ATOM      1  N1  IND d   1      -4.301  -5.326  -3.754  0.00  0.00    -0.196 N 
ATOM      2  C2  IND d   1      -3.956  -5.931  -4.930  0.00  0.00     0.054 A 
ATOM      3  C3  IND d   1      -4.339  -5.171  -5.980  0.00  0.00    -0.031 A 
ATOM      4  C4  IND d   1      -5.455  -2.851  -5.999  0.00  0.00     0.051 A 
ATOM      5  C5  IND d   1      -5.997  -1.910  -5.169  0.00  0.00    -0.031 A 
ATOM      6  C6  IND d   1      -5.999  -2.061  -3.798  0.00  0.00     0.015 A 
ATOM      7  C7  IND d   1      -5.446  -3.159  -3.201  0.00  0.00    -0.016 A 
ATOM      8  C8  IND d   1      -4.901  -4.120  -4.041  0.00  0.00    -0.047 A 
ATOM      9  C9  IND d   1      -4.934  -3.992  -5.435  0.00  0.00    -0.096 A 
ATOM     10  HN1 IND d   1      -4.166  -5.646  -2.967  0.00  0.00     0.298 HD
ENDROOT
TORSDOF 0
ENDMDL
