MODEL 1
REMARK minimizedAffinity -2.85566473
REMARK minimizedRMSD -1
REMARK  0 active torsions:
REMARK  status: ('A' for Active; 'I' for Inactive)
ROOT
ATOM      1  N1  IND d   1      -5.725  -4.540  -4.586  0.00  0.00    -0.196 N 
ATOM      2  C2  IND d   1      -5.995  -5.328  -3.502  0.00  0.00     0.054 A 
ATOM      3  C3  IND d   1      -4.884  -5.998  -3.120  0.00  0.00    -0.031 A 
ATOM      4  C4  IND d   1      -2.494  -5.876  -4.067  0.00  0.00     0.051 A 
ATOM      5  C5  IND d   1      -1.764  -5.324  -5.081  0.00  0.00    -0.031 A 
ATOM      6  C6  IND d   1      -2.328  -4.462  -6.000  0.00  0.00     0.015 A 
ATOM      7  C7  IND d   1      -3.646  -4.110  -5.930  0.00  0.00    -0.016 A 
ATOM      8  C8  IND d   1      -4.392  -4.675  -4.906  0.00  0.00    -0.047 A 
ATOM      9  C9  IND d   1      -3.835  -5.584  -3.996  0.00  0.00    -0.096 A 
ATOM     10  HN1 IND d   1      -6.293  -4.044  -4.999  0.00  0.00     0.298 HD
ENDROOT
TORSDOF 0
ENDMDL
