MODEL 1
REMARK minimizedAffinity -4.17666149
REMARK minimizedRMSD -1
REMARK  0 active torsions:
REMARK  status: ('A' for Active; 'I' for Inactive)
ROOT
ATOM      1  N1  IND d   1      -1.874  -3.901  -5.728  0.00  0.00    -0.196 N 
ATOM      2  C2  IND d   1      -1.574  -5.207  -5.997  0.00  0.00     0.054 A 
ATOM      3  C3  IND d   1      -2.633  -6.000  -5.717  0.00  0.00    -0.031 A 
ATOM      4  C4  IND d   1      -4.990  -5.355  -4.905  0.00  0.00     0.051 A 
ATOM      5  C5  IND d   1      -5.729  -4.285  -4.485  0.00  0.00    -0.031 A 
ATOM      6  C6  IND d   1      -5.211  -3.006  -4.460  0.00  0.00     0.015 A 
ATOM      7  C7  IND d   1      -3.933  -2.746  -4.867  0.00  0.00    -0.016 A 
ATOM      8  C8  IND d   1      -3.177  -3.832  -5.287  0.00  0.00    -0.047 A 
ATOM      9  C9  IND d   1      -3.683  -5.138  -5.275  0.00  0.00    -0.096 A 
ATOM     10  HN1 IND d   1      -1.338  -3.234  -5.819  0.00  0.00     0.298 HD
ENDROOT
TORSDOF 0
ENDMDL
