MODEL 1
REMARK minimizedAffinity -4.65714645
REMARK minimizedRMSD -1
REMARK  0 active torsions:
REMARK  status: ('A' for Active; 'I' for Inactive)
ROOT
ATOM      1  N1  IND d   1      -4.344  -5.949  -4.640  0.00  0.00    -0.196 N 
ATOM      2  C2  IND d   1      -3.006  -5.996  -4.914  0.00  0.00     0.054 A 
ATOM      3  C3  IND d   1      -2.491  -4.747  -4.960  0.00  0.00    -0.031 A 
ATOM      4  C4  IND d   1      -3.639  -2.487  -4.518  0.00  0.00     0.051 A 
ATOM      5  C5  IND d   1      -4.863  -1.931  -4.267  0.00  0.00    -0.031 A 
ATOM      6  C6  IND d   1      -5.998  -2.701  -4.122  0.00  0.00     0.015 A 
ATOM      7  C7  IND d   1      -5.950  -4.064  -4.211  0.00  0.00    -0.016 A 
ATOM      8  C8  IND d   1      -4.711  -4.631  -4.473  0.00  0.00    -0.047 A 
ATOM      9  C9  IND d   1      -3.563  -3.851  -4.664  0.00  0.00    -0.096 A 
ATOM     10  HN1 IND d   1      -4.869  -6.627  -4.582  0.00  0.00     0.298 HD
ENDROOT
TORSDOF 0
ENDMDL
