MODEL 1
REMARK minimizedAffinity -1.89459753
REMARK minimizedRMSD -1
REMARK  0 active torsions:
REMARK  status: ('A' for Active; 'I' for Inactive)
ROOT
ATOM      1  N1  IND d   1      -3.419  -5.029  -4.242  0.00  0.00    -0.196 N 
ATOM      2  C2  IND d   1      -3.812  -6.000  -5.120  0.00  0.00     0.054 A 
ATOM      3  C3  IND d   1      -4.812  -5.545  -5.908  0.00  0.00    -0.031 A 
ATOM      4  C4  IND d   1      -5.888  -3.208  -5.998  0.00  0.00     0.051 A 
ATOM      5  C5  IND d   1      -5.887  -1.996  -5.366  0.00  0.00    -0.031 A 
ATOM      6  C6  IND d   1      -5.045  -1.727  -4.307  0.00  0.00     0.015 A 
ATOM      7  C7  IND d   1      -4.159  -2.661  -3.846  0.00  0.00    -0.016 A 
ATOM      8  C8  IND d   1      -4.162  -3.894  -4.481  0.00  0.00    -0.047 A 
ATOM      9  C9  IND d   1      -5.045  -4.187  -5.529  0.00  0.00    -0.096 A 
ATOM     10  HN1 IND d   1      -2.809  -5.113  -3.642  0.00  0.00     0.298 HD
ENDROOT
TORSDOF 0
ENDMDL
