MODEL 1
REMARK minimizedAffinity -3.49986362
REMARK minimizedRMSD -1
REMARK  0 active torsions:
REMARK  status: ('A' for Active; 'I' for Inactive)
ROOT
ATOM      1  N1  IND d   1      -6.000  -4.772  -5.987  0.00  0.00    -0.196 N 
ATOM      2  C2  IND d   1      -5.348  -5.972  -5.935  0.00  0.00     0.054 A 
ATOM      3  C3  IND d   1      -4.146  -5.830  -5.333  0.00  0.00    -0.031 A 
ATOM      4  C4  IND d   1      -3.089  -3.739  -4.267  0.00  0.00     0.051 A 
ATOM      5  C5  IND d   1      -3.289  -2.397  -4.099  0.00  0.00    -0.031 A 
ATOM      6  C6  IND d   1      -4.427  -1.766  -4.558  0.00  0.00     0.015 A 
ATOM      7  C7  IND d   1      -5.417  -2.459  -5.196  0.00  0.00    -0.016 A 
ATOM      8  C8  IND d   1      -5.214  -3.820  -5.375  0.00  0.00    -0.047 A 
ATOM      9  C9  IND d   1      -4.043  -4.458  -4.948  0.00  0.00    -0.096 A 
ATOM     10  HN1 IND d   1      -6.771  -4.634  -6.343  0.00  0.00     0.298 HD
ENDROOT
TORSDOF 0
ENDMDL
