MODEL 1
REMARK minimizedAffinity -3.35466528
REMARK minimizedRMSD -1
REMARK  0 active torsions:
REMARK  status: ('A' for Active; 'I' for Inactive)
ROOT
ATOM      1  N1  IND d   1      -4.589  -2.265  -6.000  0.00  0.00    -0.196 N 
ATOM      2  C2  IND d   1      -5.503  -1.610  -5.221  0.00  0.00     0.054 A 
ATOM      3  C3  IND d   1      -6.000  -2.442  -4.278  0.00  0.00    -0.031 A 
ATOM      4  C4  IND d   1      -5.381  -4.888  -3.766  0.00  0.00     0.051 A 
ATOM      5  C5  IND d   1      -4.624  -5.927  -4.228  0.00  0.00    -0.031 A 
ATOM      6  C6  IND d   1      -3.798  -5.796  -5.326  0.00  0.00     0.015 A 
ATOM      7  C7  IND d   1      -3.689  -4.611  -5.997  0.00  0.00    -0.016 A 
ATOM      8  C8  IND d   1      -4.462  -3.555  -5.535  0.00  0.00    -0.047 A 
ATOM      9  C9  IND d   1      -5.334  -3.695  -4.447  0.00  0.00    -0.096 A 
ATOM     10  HN1 IND d   1      -4.166  -1.927  -6.667  0.00  0.00     0.298 HD
ENDROOT
TORSDOF 0
ENDMDL
