MODEL 1
REMARK minimizedAffinity -4.79362869
REMARK minimizedRMSD -1
REMARK  0 active torsions:
REMARK  status: ('A' for Active; 'I' for Inactive)
ROOT
ATOM      1  N1  IND d   1      -3.059  -5.653  -4.740  0.00  0.00    -0.196 N 
ATOM      2  C2  IND d   1      -1.894  -5.321  -5.373  0.00  0.00     0.054 A 
ATOM      3  C3  IND d   1      -2.017  -4.123  -5.987  0.00  0.00    -0.031 A 
ATOM      4  C4  IND d   1      -4.004  -2.487  -5.999  0.00  0.00     0.051 A 
ATOM      5  C5  IND d   1      -5.303  -2.367  -5.591  0.00  0.00    -0.031 A 
ATOM      6  C6  IND d   1      -5.932  -3.354  -4.861  0.00  0.00     0.015 A 
ATOM      7  C7  IND d   1      -5.279  -4.499  -4.500  0.00  0.00    -0.016 A 
ATOM      8  C8  IND d   1      -3.963  -4.628  -4.920  0.00  0.00    -0.047 A 
ATOM      9  C9  IND d   1      -3.332  -3.648  -5.697  0.00  0.00    -0.096 A 
ATOM     10  HN1 IND d   1      -3.204  -6.379  -4.303  0.00  0.00     0.298 HD
ENDROOT
TORSDOF 0
ENDMDL
