MODEL 1
REMARK minimizedAffinity -3.16691232
REMARK minimizedRMSD -1
REMARK  0 active torsions:
REMARK  status: ('A' for Active; 'I' for Inactive)
ROOT
ATOM      1  N1  IND d   1      -5.893  -4.500  -5.301  0.00  0.00    -0.196 N 
ATOM      2  C2  IND d   1      -5.998  -3.191  -4.924  0.00  0.00     0.054 A 
ATOM      3  C3  IND d   1      -4.770  -2.636  -4.805  0.00  0.00    -0.031 A 
ATOM      4  C4  IND d   1      -2.458  -3.664  -5.280  0.00  0.00     0.051 A 
ATOM      5  C5  IND d   1      -1.851  -4.843  -5.612  0.00  0.00    -0.031 A 
ATOM      6  C6  IND d   1      -2.575  -5.990  -5.866  0.00  0.00     0.015 A 
ATOM      7  C7  IND d   1      -3.940  -5.998  -5.807  0.00  0.00    -0.016 A 
ATOM      8  C8  IND d   1      -4.560  -4.805  -5.463  0.00  0.00    -0.047 A 
ATOM      9  C9  IND d   1      -3.828  -3.649  -5.163  0.00  0.00    -0.096 A 
ATOM     10  HN1 IND d   1      -6.550  -5.043  -5.417  0.00  0.00     0.298 HD
ENDROOT
TORSDOF 0
ENDMDL
