MODEL 1
REMARK minimizedAffinity 3.11582875
REMARK minimizedRMSD -1
REMARK  0 active torsions:
REMARK  status: ('A' for Active; 'I' for Inactive)
ROOT
ATOM      1  N1  IND d   1      -1.375  -4.745  -5.308  0.00  0.00    -0.196 N 
ATOM      2  C2  IND d   1      -1.797  -5.983  -5.705  0.00  0.00     0.054 A 
ATOM      3  C3  IND d   1      -3.116  -5.958  -6.000  0.00  0.00    -0.031 A 
ATOM      4  C4  IND d   1      -4.755  -3.972  -6.000  0.00  0.00     0.051 A 
ATOM      5  C5  IND d   1      -4.842  -2.647  -5.675  0.00  0.00    -0.031 A 
ATOM      6  C6  IND d   1      -3.755  -1.939  -5.204  0.00  0.00     0.015 A 
ATOM      7  C7  IND d   1      -2.533  -2.529  -5.051  0.00  0.00    -0.016 A 
ATOM      8  C8  IND d   1      -2.442  -3.876  -5.373  0.00  0.00    -0.047 A 
ATOM      9  C9  IND d   1      -3.552  -4.610  -5.811  0.00  0.00    -0.096 A 
ATOM     10  HN1 IND d   1      -0.577  -4.542  -5.059  0.00  0.00     0.298 HD
ENDROOT
TORSDOF 0
ENDMDL
