MODEL 1
REMARK minimizedAffinity -3.20860124
REMARK minimizedRMSD -1
REMARK  0 active torsions:
REMARK  status: ('A' for Active; 'I' for Inactive)
ROOT
ATOM      1  N1  IND d   1      -2.269  -5.659  -5.947  0.00  0.00    -0.196 N 
ATOM      2  C2  IND d   1      -1.473  -4.560  -5.779  0.00  0.00     0.054 A 
ATOM      3  C3  IND d   1      -2.231  -3.451  -5.621  0.00  0.00    -0.031 A 
ATOM      4  C4  IND d   1      -4.792  -3.224  -5.502  0.00  0.00     0.051 A 
ATOM      5  C5  IND d   1      -5.945  -3.945  -5.639  0.00  0.00    -0.031 A 
ATOM      6  C6  IND d   1      -5.931  -5.302  -5.888  0.00  0.00     0.015 A 
ATOM      7  C7  IND d   1      -4.759  -5.994  -5.999  0.00  0.00    -0.016 A 
ATOM      8  C8  IND d   1      -3.586  -5.264  -5.867  0.00  0.00    -0.047 A 
ATOM      9  C9  IND d   1      -3.593  -3.879  -5.657  0.00  0.00    -0.096 A 
ATOM     10  HN1 IND d   1      -1.992  -6.462  -6.081  0.00  0.00     0.298 HD
ENDROOT
TORSDOF 0
ENDMDL
