MODEL 1
REMARK minimizedAffinity 6.36524105
REMARK minimizedRMSD -1
REMARK  0 active torsions:
REMARK  status: ('A' for Active; 'I' for Inactive)
ROOT
ATOM      1  N1  IND d   1      -2.048  -5.736  -3.950  0.00  0.00    -0.196 N 
ATOM      2  C2  IND d   1      -1.242  -6.000  -5.023  0.00  0.00     0.054 A 
ATOM      3  C3  IND d   1      -1.439  -5.082  -5.995  0.00  0.00    -0.031 A 
ATOM      4  C4  IND d   1      -2.958  -3.003  -6.000  0.00  0.00     0.051 A 
ATOM      5  C5  IND d   1      -3.911  -2.364  -5.258  0.00  0.00    -0.031 A 
ATOM      6  C6  IND d   1      -4.298  -2.824  -4.016  0.00  0.00     0.015 A 
ATOM      7  C7  IND d   1      -3.735  -3.939  -3.462  0.00  0.00    -0.016 A 
ATOM      8  C8  IND d   1      -2.772  -4.595  -4.216  0.00  0.00    -0.047 A 
ATOM      9  C9  IND d   1      -2.405  -4.157  -5.495  0.00  0.00    -0.096 A 
ATOM     10  HN1 IND d   1      -2.094  -6.205  -3.230  0.00  0.00     0.298 HD
ENDROOT
TORSDOF 0
ENDMDL
