MODEL 1
REMARK minimizedAffinity -2.35552931
REMARK minimizedRMSD -1
REMARK  0 active torsions:
REMARK  status: ('A' for Active; 'I' for Inactive)
ROOT
ATOM      1  N1  IND d   1      -5.999  -3.899  -4.625  0.00  0.00    -0.196 N 
ATOM      2  C2  IND d   1      -5.877  -2.919  -3.680  0.00  0.00     0.054 A 
ATOM      3  C3  IND d   1      -4.574  -2.708  -3.387  0.00  0.00    -0.031 A 
ATOM      4  C4  IND d   1      -2.472  -3.786  -4.412  0.00  0.00     0.051 A 
ATOM      5  C5  IND d   1      -2.078  -4.761  -5.285  0.00  0.00    -0.031 A 
ATOM      6  C6  IND d   1      -2.990  -5.511  -6.000  0.00  0.00     0.015 A 
ATOM      7  C7  IND d   1      -4.335  -5.306  -5.875  0.00  0.00    -0.016 A 
ATOM      8  C8  IND d   1      -4.739  -4.322  -4.984  0.00  0.00    -0.047 A 
ATOM      9  C9  IND d   1      -3.820  -3.586  -4.224  0.00  0.00    -0.096 A 
ATOM     10  HN1 IND d   1      -6.740  -4.200  -4.942  0.00  0.00     0.298 HD
ENDROOT
TORSDOF 0
ENDMDL
