MODEL 1
REMARK minimizedAffinity -3.91794991
REMARK minimizedRMSD -1
REMARK  0 active torsions:
REMARK  status: ('A' for Active; 'I' for Inactive)
ROOT
ATOM      1  N1  IND d   1      -1.874  -3.850  -5.589  0.00  0.00    -0.196 N 
ATOM      2  C2  IND d   1      -1.361  -5.050  -5.999  0.00  0.00     0.054 A 
ATOM      3  C3  IND d   1      -2.324  -5.999  -5.991  0.00  0.00    -0.031 A 
ATOM      4  C4  IND d   1      -4.829  -5.784  -5.441  0.00  0.00     0.051 A 
ATOM      5  C5  IND d   1      -5.759  -4.894  -4.981  0.00  0.00    -0.031 A 
ATOM      6  C6  IND d   1      -5.434  -3.583  -4.697  0.00  0.00     0.015 A 
ATOM      7  C7  IND d   1      -4.165  -3.109  -4.874  0.00  0.00    -0.016 A 
ATOM      8  C8  IND d   1      -3.218  -4.012  -5.334  0.00  0.00    -0.047 A 
ATOM      9  C9  IND d   1      -3.531  -5.354  -5.584  0.00  0.00    -0.096 A 
ATOM     10  HN1 IND d   1      -1.431  -3.118  -5.505  0.00  0.00     0.298 HD
ENDROOT
TORSDOF 0
ENDMDL
