MODEL 1
REMARK minimizedAffinity -2.23099637
REMARK minimizedRMSD -1
REMARK  0 active torsions:
REMARK  status: ('A' for Active; 'I' for Inactive)
ROOT
ATOM      1  N1  IND d   1      -2.009  -4.056  -5.993  0.00  0.00    -0.196 N 
ATOM      2  C2  IND d   1      -1.589  -5.292  -5.586  0.00  0.00     0.054 A 
ATOM      3  C3  IND d   1      -2.626  -5.999  -5.084  0.00  0.00    -0.031 A 
ATOM      4  C4  IND d   1      -5.116  -5.365  -4.928  0.00  0.00     0.051 A 
ATOM      5  C5  IND d   1      -5.978  -4.326  -5.140  0.00  0.00    -0.031 A 
ATOM      6  C6  IND d   1      -5.553  -3.120  -5.659  0.00  0.00     0.015 A 
ATOM      7  C7  IND d   1      -4.247  -2.912  -5.999  0.00  0.00    -0.016 A 
ATOM      8  C8  IND d   1      -3.367  -3.963  -5.779  0.00  0.00    -0.047 A 
ATOM      9  C9  IND d   1      -3.785  -5.174  -5.213  0.00  0.00    -0.096 A 
ATOM     10  HN1 IND d   1      -1.510  -3.441  -6.327  0.00  0.00     0.298 HD
ENDROOT
TORSDOF 0
ENDMDL
