MODEL 1
REMARK minimizedAffinity 3.96430612
REMARK minimizedRMSD -1
REMARK  0 active torsions:
REMARK  status: ('A' for Active; 'I' for Inactive)
ROOT
ATOM      1  C   UNL d   1       5.275   4.348  -5.538  0.00  0.00    -0.002 A 
ATOM      2  C1  UNL d   1       4.012   3.858  -5.239  0.00  0.00     0.010 A 
ATOM      3  C2  UNL d   1       3.447   4.071  -3.980  0.00  0.00     0.041 A 
ATOM      4  C3  UNL d   1       4.181   4.793  -3.018  0.00  0.00    -0.075 A 
ATOM      5  S   UNL d   1       3.690   5.177  -1.410  0.00  0.00     0.015 SA
ATOM      6  C4  UNL d   1       5.146   6.000  -1.082  0.00  0.00     0.022 A 
ATOM      7  C5  UNL d   1       5.997   5.992  -2.162  0.00  0.00     0.026 A 
ATOM      8  C6  UNL d   1       5.454   5.297  -3.295  0.00  0.00    -0.082 A 
ATOM      9  C7  UNL d   1       6.000   5.063  -4.581  0.00  0.00     0.045 A 
ENDROOT
TORSDOF 0
ENDMDL
