MODEL 1
REMARK minimizedAffinity 25.150713
REMARK minimizedRMSD -1
REMARK  0 active torsions:
REMARK  status: ('A' for Active; 'I' for Inactive)
ROOT
ATOM      1  C   UNL d   1      -5.958  -5.345  -5.663  0.00  0.00    -0.002 A 
ATOM      2  C1  UNL d   1      -5.944  -4.145  -4.967  0.00  0.00     0.010 A 
ATOM      3  C2  UNL d   1      -4.735  -3.558  -4.589  0.00  0.00     0.041 A 
ATOM      4  C3  UNL d   1      -3.529  -4.202  -4.929  0.00  0.00    -0.075 A 
ATOM      5  S   UNL d   1      -1.929  -3.668  -4.572  0.00  0.00     0.015 SA
ATOM      6  C4  UNL d   1      -1.227  -5.020  -5.336  0.00  0.00     0.022 A 
ATOM      7  C5  UNL d   1      -2.175  -5.868  -5.856  0.00  0.00     0.026 A 
ATOM      8  C6  UNL d   1      -3.518  -5.411  -5.630  0.00  0.00    -0.082 A 
ATOM      9  C7  UNL d   1      -4.760  -5.982  -5.998  0.00  0.00     0.045 A 
ENDROOT
TORSDOF 0
ENDMDL
