MODEL 1
REMARK minimizedAffinity 12.6143293
REMARK minimizedRMSD -1
REMARK  0 active torsions:
REMARK  status: ('A' for Active; 'I' for Inactive)
ROOT
ATOM      1  C   UNL d   1      -0.029  -1.895  -1.409  0.00  0.00    -0.002 A 
ATOM      2  C1  UNL d   1      -0.667  -1.559  -2.595  0.00  0.00     0.010 A 
ATOM      3  C2  UNL d   1       0.030  -1.571  -3.804  0.00  0.00     0.041 A 
ATOM      4  C3  UNL d   1       1.392  -1.933  -3.803  0.00  0.00    -0.075 A 
ATOM      5  S   UNL d   1       2.446  -2.019  -5.164  0.00  0.00     0.015 SA
ATOM      6  C4  UNL d   1       3.768  -2.506  -4.204  0.00  0.00     0.022 A 
ATOM      7  C5  UNL d   1       3.430  -2.605  -2.875  0.00  0.00     0.026 A 
ATOM      8  C6  UNL d   1       2.056  -2.277  -2.622  0.00  0.00    -0.082 A 
ATOM      9  C7  UNL d   1       1.321  -2.254  -1.411  0.00  0.00     0.045 A 
ENDROOT
TORSDOF 0
ENDMDL
