MODEL 1
REMARK minimizedAffinity 25.2036018
REMARK minimizedRMSD -1
REMARK  0 active torsions:
REMARK  status: ('A' for Active; 'I' for Inactive)
ROOT
ATOM      1  C   UNL d   1       4.950  -5.104   5.984  0.00  0.00    -0.002 A 
ATOM      2  C1  UNL d   1       5.976  -4.170   5.960  0.00  0.00     0.010 A 
ATOM      3  C2  UNL d   1       5.830  -2.972   5.259  0.00  0.00     0.041 A 
ATOM      4  C3  UNL d   1       4.623  -2.724   4.576  0.00  0.00    -0.075 A 
ATOM      5  S   UNL d   1       4.219  -1.326   3.652  0.00  0.00     0.015 SA
ATOM      6  C4  UNL d   1       2.674  -1.935   3.267  0.00  0.00     0.022 A 
ATOM      7  C5  UNL d   1       2.456  -3.174   3.822  0.00  0.00     0.026 A 
ATOM      8  C6  UNL d   1       3.575  -3.649   4.586  0.00  0.00    -0.082 A 
ATOM      9  C7  UNL d   1       3.754  -4.855   5.305  0.00  0.00     0.045 A 
ENDROOT
TORSDOF 0
ENDMDL
