MODEL 1
REMARK minimizedAffinity 9.90577698
REMARK minimizedRMSD -1
REMARK  0 active torsions:
REMARK  status: ('A' for Active; 'I' for Inactive)
ROOT
ATOM      1  C   UNL d   1       3.854   5.183  -5.058  0.00  0.00    -0.002 A 
ATOM      2  C1  UNL d   1       4.131   3.823  -5.065  0.00  0.00     0.010 A 
ATOM      3  C2  UNL d   1       4.794   3.228  -3.990  0.00  0.00     0.041 A 
ATOM      4  C3  UNL d   1       5.176   4.030  -2.896  0.00  0.00    -0.075 A 
ATOM      5  S   UNL d   1       5.997   3.518  -1.469  0.00  0.00     0.015 SA
ATOM      6  C4  UNL d   1       5.998   5.093  -0.816  0.00  0.00     0.022 A 
ATOM      7  C5  UNL d   1       5.391   5.999  -1.653  0.00  0.00     0.026 A 
ATOM      8  C6  UNL d   1       4.907   5.401  -2.866  0.00  0.00    -0.082 A 
ATOM      9  C7  UNL d   1       4.234   5.975  -3.971  0.00  0.00     0.045 A 
ENDROOT
TORSDOF 0
ENDMDL
