MODEL 1
REMARK minimizedAffinity 4.45343828
REMARK minimizedRMSD -1
REMARK  0 active torsions:
REMARK  status: ('A' for Active; 'I' for Inactive)
ROOT
ATOM      1  C   UNL d   1       0.473  -2.222  -3.067  0.00  0.00    -0.002 A 
ATOM      2  C1  UNL d   1       1.023  -2.438  -1.811  0.00  0.00     0.010 A 
ATOM      3  C2  UNL d   1       0.205  -2.529  -0.683  0.00  0.00     0.041 A 
ATOM      4  C3  UNL d   1      -1.189  -2.398  -0.840  0.00  0.00    -0.075 A 
ATOM      5  S   UNL d   1      -2.386  -2.475   0.398  0.00  0.00     0.015 SA
ATOM      6  C4  UNL d   1      -3.656  -2.223  -0.710  0.00  0.00     0.022 A 
ATOM      7  C5  UNL d   1      -3.196  -2.082  -1.998  0.00  0.00     0.026 A 
ATOM      8  C6  UNL d   1      -1.767  -2.181  -2.094  0.00  0.00    -0.082 A 
ATOM      9  C7  UNL d   1      -0.910  -2.093  -3.218  0.00  0.00     0.045 A 
ENDROOT
TORSDOF 0
ENDMDL
