MODEL 1
REMARK minimizedAffinity 12.8366928
REMARK minimizedRMSD -1
REMARK  0 active torsions:
REMARK  status: ('A' for Active; 'I' for Inactive)
ROOT
ATOM      1  C   UNL d   1       0.396  -2.212  -0.460  0.00  0.00    -0.002 A 
ATOM      2  C1  UNL d   1      -0.711  -1.620   0.130  0.00  0.00     0.010 A 
ATOM      3  C2  UNL d   1      -1.924  -1.539  -0.556  0.00  0.00     0.041 A 
ATOM      4  C3  UNL d   1      -2.008  -2.071  -1.858  0.00  0.00    -0.075 A 
ATOM      5  S   UNL d   1      -3.390  -2.086  -2.888  0.00  0.00     0.015 SA
ATOM      6  C4  UNL d   1      -2.544  -2.881  -4.136  0.00  0.00     0.022 A 
ATOM      7  C5  UNL d   1      -1.237  -3.135  -3.792  0.00  0.00     0.026 A 
ATOM      8  C6  UNL d   1      -0.907  -2.673  -2.474  0.00  0.00    -0.082 A 
ATOM      9  C7  UNL d   1       0.310  -2.739  -1.752  0.00  0.00     0.045 A 
ENDROOT
TORSDOF 0
ENDMDL
