MODEL 1
REMARK minimizedAffinity 20.4248123
REMARK minimizedRMSD -1
REMARK  0 active torsions:
REMARK  status: ('A' for Active; 'I' for Inactive)
ROOT
ATOM      1  C   UNL d   1      -1.687  -4.375  -3.953  0.00  0.00    -0.002 A 
ATOM      2  C1  UNL d   1      -2.590  -3.325  -4.047  0.00  0.00     0.010 A 
ATOM      3  C2  UNL d   1      -2.502  -2.233  -3.182  0.00  0.00     0.041 A 
ATOM      4  C3  UNL d   1      -1.481  -2.213  -2.212  0.00  0.00    -0.075 A 
ATOM      5  S   UNL d   1      -1.178  -0.979  -1.046  0.00  0.00     0.015 SA
ATOM      6  C4  UNL d   1       0.156  -1.816  -0.396  0.00  0.00     0.022 A 
ATOM      7  C5  UNL d   1       0.380  -3.010  -1.041  0.00  0.00     0.026 A 
ATOM      8  C6  UNL d   1      -0.559  -3.258  -2.098  0.00  0.00    -0.082 A 
ATOM      9  C7  UNL d   1      -0.675  -4.351  -2.990  0.00  0.00     0.045 A 
ENDROOT
TORSDOF 0
ENDMDL
