MODEL 1
REMARK minimizedAffinity 23.5917778
REMARK minimizedRMSD -1
REMARK  0 active torsions:
REMARK  status: ('A' for Active; 'I' for Inactive)
ROOT
ATOM      1  C   UNL d   1      -5.044  -5.906  -5.449  0.00  0.00    -0.002 A 
ATOM      2  C1  UNL d   1      -5.757  -5.010  -4.664  0.00  0.00     0.010 A 
ATOM      3  C2  UNL d   1      -5.219  -3.762  -4.344  0.00  0.00     0.041 A 
ATOM      4  C3  UNL d   1      -3.941  -3.425  -4.833  0.00  0.00    -0.075 A 
ATOM      5  S   UNL d   1      -3.084  -1.952  -4.570  0.00  0.00     0.015 SA
ATOM      6  C4  UNL d   1      -1.751  -2.477  -5.495  0.00  0.00     0.022 A 
ATOM      7  C5  UNL d   1      -1.939  -3.742  -5.999  0.00  0.00     0.026 A 
ATOM      8  C6  UNL d   1      -3.205  -4.309  -5.626  0.00  0.00    -0.082 A 
ATOM      9  C7  UNL d   1      -3.777  -5.567  -5.932  0.00  0.00     0.045 A 
ENDROOT
TORSDOF 0
ENDMDL
