MODEL 1
REMARK minimizedAffinity 11.5275593
REMARK minimizedRMSD -1
REMARK  0 active torsions:
REMARK  status: ('A' for Active; 'I' for Inactive)
ROOT
ATOM      1  C   UNL d   1      -0.771  -2.963  -3.766  0.00  0.00    -0.002 A 
ATOM      2  C1  UNL d   1      -0.760  -2.041  -2.729  0.00  0.00     0.010 A 
ATOM      3  C2  UNL d   1      -0.381  -2.425  -1.441  0.00  0.00     0.041 A 
ATOM      4  C3  UNL d   1      -0.007  -3.764  -1.212  0.00  0.00    -0.075 A 
ATOM      5  S   UNL d   1       0.495  -4.461   0.283  0.00  0.00     0.015 SA
ATOM      6  C4  UNL d   1       0.708  -5.999  -0.420  0.00  0.00     0.022 A 
ATOM      7  C5  UNL d   1       0.408  -5.999  -1.762  0.00  0.00     0.026 A 
ATOM      8  C6  UNL d   1      -0.009  -4.710  -2.240  0.00  0.00    -0.082 A 
ATOM      9  C7  UNL d   1      -0.399  -4.290  -3.534  0.00  0.00     0.045 A 
ENDROOT
TORSDOF 0
ENDMDL
