MODEL 1
REMARK minimizedAffinity 21.7698784
REMARK minimizedRMSD -1
REMARK  0 active torsions:
REMARK  status: ('A' for Active; 'I' for Inactive)
ROOT
ATOM      1  C   UNL d   1       4.763   0.024  -5.912  0.00  0.00    -0.002 A 
ATOM      2  C1  UNL d   1       5.069   0.611  -4.691  0.00  0.00     0.010 A 
ATOM      3  C2  UNL d   1       5.174  -0.167  -3.536  0.00  0.00     0.041 A 
ATOM      4  C3  UNL d   1       4.966  -1.557  -3.630  0.00  0.00    -0.075 A 
ATOM      5  S   UNL d   1       5.043  -2.708  -2.348  0.00  0.00     0.015 SA
ATOM      6  C4  UNL d   1       4.673  -4.005  -3.390  0.00  0.00     0.022 A 
ATOM      7  C5  UNL d   1       4.491  -3.588  -4.688  0.00  0.00     0.026 A 
ATOM      8  C6  UNL d   1       4.658  -2.171  -4.847  0.00  0.00    -0.082 A 
ATOM      9  C7  UNL d   1       4.557  -1.355  -6.000  0.00  0.00     0.045 A 
ENDROOT
TORSDOF 0
ENDMDL
