MODEL 1
REMARK minimizedAffinity 6.05837774
REMARK minimizedRMSD -1
REMARK  0 active torsions:
REMARK  status: ('A' for Active; 'I' for Inactive)
ROOT
ATOM      1  C   UNL d   1      -0.002  -2.218  -1.405  0.00  0.00    -0.002 A 
ATOM      2  C1  UNL d   1      -1.248  -1.751  -1.799  0.00  0.00     0.010 A 
ATOM      3  C2  UNL d   1      -1.651  -1.839  -3.133  0.00  0.00     0.041 A 
ATOM      4  C3  UNL d   1      -0.773  -2.413  -4.074  0.00  0.00    -0.075 A 
ATOM      5  S   UNL d   1      -1.053  -2.628  -5.761  0.00  0.00     0.015 SA
ATOM      6  C4  UNL d   1       0.475  -3.346  -5.999  0.00  0.00     0.022 A 
ATOM      7  C5  UNL d   1       1.194  -3.427  -4.830  0.00  0.00     0.026 A 
ATOM      8  C6  UNL d   1       0.486  -2.892  -3.701  0.00  0.00    -0.082 A 
ATOM      9  C7  UNL d   1       0.866  -2.787  -2.341  0.00  0.00     0.045 A 
ENDROOT
TORSDOF 0
ENDMDL
