MODEL 1
REMARK minimizedAffinity 16.7529678
REMARK minimizedRMSD -1
REMARK  0 active torsions:
REMARK  status: ('A' for Active; 'I' for Inactive)
ROOT
ATOM      1  C   UNL d   1       0.271  -3.453  -3.713  0.00  0.00    -0.002 A 
ATOM      2  C1  UNL d   1      -0.882  -2.772  -4.074  0.00  0.00     0.010 A 
ATOM      3  C2  UNL d   1      -1.614  -2.059  -3.122  0.00  0.00     0.041 A 
ATOM      4  C3  UNL d   1      -1.161  -2.041  -1.788  0.00  0.00    -0.075 A 
ATOM      5  S   UNL d   1      -1.894  -1.235  -0.452  0.00  0.00     0.015 SA
ATOM      6  C4  UNL d   1      -0.692  -1.775   0.629  0.00  0.00     0.022 A 
ATOM      7  C5  UNL d   1       0.253  -2.553   0.003  0.00  0.00     0.026 A 
ATOM      8  C6  UNL d   1      -0.001  -2.719  -1.400  0.00  0.00    -0.082 A 
ATOM      9  C7  UNL d   1       0.718  -3.433  -2.389  0.00  0.00     0.045 A 
ENDROOT
TORSDOF 0
ENDMDL
