MODEL 1
REMARK minimizedAffinity 19.440218
REMARK minimizedRMSD -1
REMARK  0 active torsions:
REMARK  status: ('A' for Active; 'I' for Inactive)
ROOT
ATOM      1  C   UNL d   1      -2.048   1.414  -0.311  0.00  0.00    -0.002 A 
ATOM      2  C1  UNL d   1      -2.824   2.416   0.255  0.00  0.00     0.010 A 
ATOM      3  C2  UNL d   1      -2.227   3.558   0.794  0.00  0.00     0.041 A 
ATOM      4  C3  UNL d   1      -0.824   3.678   0.752  0.00  0.00    -0.075 A 
ATOM      5  S   UNL d   1       0.125   4.987   1.350  0.00  0.00     0.015 SA
ATOM      6  C4  UNL d   1       1.583   4.248   0.868  0.00  0.00     0.022 A 
ATOM      7  C5  UNL d   1       1.369   3.031   0.264  0.00  0.00     0.026 A 
ATOM      8  C6  UNL d   1      -0.022   2.683   0.187  0.00  0.00    -0.082 A 
ATOM      9  C7  UNL d   1      -0.656   1.537  -0.350  0.00  0.00     0.045 A 
ENDROOT
TORSDOF 0
ENDMDL
