MODEL 1
REMARK minimizedAffinity -6.41367674
REMARK minimizedRMSD -1
REMARK  3 active torsions:
REMARK  status: ('A' for Active; 'I' for Inactive)
REMARK    1  A    between atoms: C3'_2  and  C2'_3 
REMARK    2  A    between atoms: C2'_3  and  C1'_4 
REMARK    3  A    between atoms: C1'_4  and  C1_5 
ROOT
ATOM      1  C1  N4B d   1      -0.508  -0.260  -1.153  0.00  0.00    -0.075 A 
ATOM      2  C2  N4B d   1      -1.918  -0.333  -1.151  0.00  0.00     0.002 A 
ATOM      3  C3  N4B d   1      -2.602  -0.433  -2.337  0.00  0.00     0.002 A 
ATOM      4  C4  N4B d   1      -1.901  -0.444  -3.534  0.00  0.00    -0.004 A 
ATOM      5  C5  N4B d   1      -0.538  -0.399  -3.526  0.00  0.00     0.002 A 
ATOM      6  C6  N4B d   1       0.163  -0.302  -2.341  0.00  0.00     0.002 A 
ENDROOT
BRANCH   1   7
ATOM      7  C1' N4B d   1       0.279  -0.063   0.114  0.00  0.00     0.057 C 
BRANCH   7   8
ATOM      8  C2' N4B d   1       1.097   1.220   0.001  0.00  0.00     0.009 C 
BRANCH   8   9
ATOM      9  C3' N4B d   1       2.573   0.979   0.267  0.00  0.00     0.004 C 
ATOM     10  C4' N4B d   1       2.814   0.157   1.498  0.00  0.00     0.003 C 
ENDBRANCH   8   9
ENDBRANCH   7   8
ENDBRANCH   1   7
TORSDOF 3
ENDMDL
