MODEL 1
REMARK minimizedAffinity -5.82833481
REMARK minimizedRMSD -1
REMARK  3 active torsions:
REMARK  status: ('A' for Active; 'I' for Inactive)
REMARK    1  A    between atoms: C3'_2  and  C2'_3 
REMARK    2  A    between atoms: C2'_3  and  C1'_4 
REMARK    3  A    between atoms: C1'_4  and  C1_5 
ROOT
ATOM      1  C1  N4B d   1      -0.049  -0.313   0.662  0.00  0.00    -0.075 A 
ATOM      2  C2  N4B d   1       0.841  -1.292   1.157  0.00  0.00     0.002 A 
ATOM      3  C3  N4B d   1       2.138  -0.952   1.456  0.00  0.00     0.002 A 
ATOM      4  C4  N4B d   1       2.571   0.349   1.252  0.00  0.00    -0.004 A 
ATOM      5  C5  N4B d   1       1.698   1.295   0.798  0.00  0.00     0.002 A 
ATOM      6  C6  N4B d   1       0.391   0.969   0.497  0.00  0.00     0.002 A 
ENDROOT
BRANCH   1   7
ATOM      7  C1' N4B d   1      -1.451  -0.655   0.240  0.00  0.00     0.057 C 
BRANCH   7   8
ATOM      8  C2' N4B d   1      -1.931   0.371  -0.782  0.00  0.00     0.009 C 
BRANCH   8   9
ATOM      9  C3' N4B d   1      -2.910  -0.231  -1.776  0.00  0.00     0.004 C 
ATOM     10  C4' N4B d   1      -2.246  -0.687  -3.041  0.00  0.00     0.003 C 
ENDBRANCH   8   9
ENDBRANCH   7   8
ENDBRANCH   1   7
TORSDOF 3
ENDMDL
