MODEL 1
REMARK minimizedAffinity -1.28598952
REMARK minimizedRMSD -1
REMARK  0 active torsions:
REMARK  status: ('A' for Active; 'I' for Inactive)
ROOT
ATOM      1  N1  IND d   1       0.502  -0.570   0.857  0.00  0.00    -0.196 N 
ATOM      2  C2  IND d   1       1.422   0.435   0.753  0.00  0.00     0.054 A 
ATOM      3  C3  IND d   1       1.194   1.167  -0.361  0.00  0.00    -0.031 A 
ATOM      4  C4  IND d   1      -0.693   0.956  -2.099  0.00  0.00     0.051 A 
ATOM      5  C5  IND d   1      -1.753   0.166  -2.448  0.00  0.00    -0.031 A 
ATOM      6  C6  IND d   1      -2.123  -0.931  -1.697  0.00  0.00     0.015 A 
ATOM      7  C7  IND d   1      -1.453  -1.273  -0.557  0.00  0.00    -0.016 A 
ATOM      8  C8  IND d   1      -0.373  -0.477  -0.203  0.00  0.00    -0.047 A 
ATOM      9  C9  IND d   1       0.035   0.612  -0.985  0.00  0.00    -0.096 A 
ATOM     10  HN1 IND d   1       0.474  -1.162   1.481  0.00  0.00     0.298 HD
ENDROOT
TORSDOF 0
ENDMDL
