MODEL 1
REMARK minimizedAffinity -1.00072467
REMARK minimizedRMSD -1
REMARK  0 active torsions:
REMARK  status: ('A' for Active; 'I' for Inactive)
ROOT
ATOM      1  N1  IND d   1       1.417  -0.444   0.365  0.00  0.00    -0.196 N 
ATOM      2  C2  IND d   1       2.109   0.723   0.528  0.00  0.00     0.054 A 
ATOM      3  C3  IND d   1       1.445   1.748  -0.054  0.00  0.00    -0.031 A 
ATOM      4  C4  IND d   1      -0.841   1.754  -1.238  0.00  0.00     0.051 A 
ATOM      5  C5  IND d   1      -1.835   0.919  -1.664  0.00  0.00    -0.031 A 
ATOM      6  C6  IND d   1      -1.796  -0.440  -1.429  0.00  0.00     0.015 A 
ATOM      7  C7  IND d   1      -0.763  -1.016  -0.746  0.00  0.00    -0.016 A 
ATOM      8  C8  IND d   1       0.252  -0.172  -0.317  0.00  0.00    -0.047 A 
ATOM      9  C9  IND d   1       0.239   1.202  -0.590  0.00  0.00    -0.096 A 
ATOM     10  HN1 IND d   1       1.668  -1.219   0.642  0.00  0.00     0.298 HD
ENDROOT
TORSDOF 0
ENDMDL
