MODEL 1
REMARK minimizedAffinity -2.4000361
REMARK minimizedRMSD -1
REMARK  0 active torsions:
REMARK  status: ('A' for Active; 'I' for Inactive)
ROOT
ATOM      1  N1  IND d   1       3.517   1.868   0.991  0.00  0.00    -0.196 N 
ATOM      2  C2  IND d   1       3.198   3.130   1.410  0.00  0.00     0.054 A 
ATOM      3  C3  IND d   1       1.863   3.331   1.323  0.00  0.00    -0.031 A 
ATOM      4  C4  IND d   1       0.006   1.694   0.618  0.00  0.00     0.051 A 
ATOM      5  C5  IND d   1      -0.190   0.438   0.116  0.00  0.00    -0.031 A 
ATOM      6  C6  IND d   1       0.861  -0.424  -0.122  0.00  0.00     0.015 A 
ATOM      7  C7  IND d   1       2.152  -0.064   0.145  0.00  0.00    -0.016 A 
ATOM      8  C8  IND d   1       2.355   1.213   0.648  0.00  0.00    -0.047 A 
ATOM      9  C9  IND d   1       1.296   2.107   0.852  0.00  0.00    -0.096 A 
ATOM     10  HN1 IND d   1       4.310   1.539   0.949  0.00  0.00     0.298 HD
ENDROOT
TORSDOF 0
ENDMDL
