MODEL 1
REMARK minimizedAffinity -4.61086082
REMARK minimizedRMSD -1
REMARK  0 active torsions:
REMARK  status: ('A' for Active; 'I' for Inactive)
ROOT
ATOM      1  N1  IND d   1       1.842  -0.069   0.166  0.00  0.00    -0.196 N 
ATOM      2  C2  IND d   1       0.528  -0.442   0.212  0.00  0.00     0.054 A 
ATOM      3  C3  IND d   1      -0.209   0.506   0.832  0.00  0.00    -0.031 A 
ATOM      4  C4  IND d   1       0.517   2.795   1.760  0.00  0.00     0.051 A 
ATOM      5  C5  IND d   1       1.624   3.565   1.981  0.00  0.00    -0.031 A 
ATOM      6  C6  IND d   1       2.885   3.157   1.599  0.00  0.00     0.015 A 
ATOM      7  C7  IND d   1       3.086   1.962   0.968  0.00  0.00    -0.016 A 
ATOM      8  C8  IND d   1       1.966   1.174   0.747  0.00  0.00    -0.047 A 
ATOM      9  C9  IND d   1       0.689   1.564   1.172  0.00  0.00    -0.096 A 
ATOM     10  HN1 IND d   1       2.484  -0.533  -0.169  0.00  0.00     0.298 HD
ENDROOT
TORSDOF 0
ENDMDL
