MODEL 1
REMARK minimizedAffinity -3.83685184
REMARK minimizedRMSD -1
REMARK  0 active torsions:
REMARK  status: ('A' for Active; 'I' for Inactive)
ROOT
ATOM      1  N1  IND d   1      -0.451  -2.752   1.371  0.00  0.00    -0.196 N 
ATOM      2  C2  IND d   1      -1.483  -3.646   1.309  0.00  0.00     0.054 A 
ATOM      3  C3  IND d   1      -2.379  -3.266   0.371  0.00  0.00    -0.031 A 
ATOM      4  C4  IND d   1      -2.303  -1.267  -1.249  0.00  0.00     0.051 A 
ATOM      5  C5  IND d   1      -1.576  -0.148  -1.546  0.00  0.00    -0.031 A 
ATOM      6  C6  IND d   1      -0.412   0.165  -0.874  0.00  0.00     0.015 A 
ATOM      7  C7  IND d   1       0.076  -0.639   0.117  0.00  0.00    -0.016 A 
ATOM      8  C8  IND d   1      -0.663  -1.772   0.426  0.00  0.00    -0.047 A 
ATOM      9  C9  IND d   1      -1.867  -2.073  -0.224  0.00  0.00    -0.096 A 
ATOM     10  HN1 IND d   1       0.217  -2.793   1.910  0.00  0.00     0.298 HD
ENDROOT
TORSDOF 0
ENDMDL
