MODEL 1
REMARK minimizedAffinity -2.98428535
REMARK minimizedRMSD -1
REMARK  0 active torsions:
REMARK  status: ('A' for Active; 'I' for Inactive)
ROOT
ATOM      1  N1  IND d   1       0.826  -0.816   0.849  0.00  0.00    -0.196 N 
ATOM      2  C2  IND d   1       0.823   0.275   0.025  0.00  0.00     0.054 A 
ATOM      3  C3  IND d   1      -0.394   0.432  -0.543  0.00  0.00    -0.031 A 
ATOM      4  C4  IND d   1      -2.553  -0.924  -0.185  0.00  0.00     0.051 A 
ATOM      5  C5  IND d   1      -3.034  -2.036   0.447  0.00  0.00    -0.031 A 
ATOM      6  C6  IND d   1      -2.238  -2.812   1.264  0.00  0.00     0.015 A 
ATOM      7  C7  IND d   1      -0.928  -2.497   1.489  0.00  0.00    -0.016 A 
ATOM      8  C8  IND d   1      -0.434  -1.373   0.843  0.00  0.00    -0.047 A 
ATOM      9  C9  IND d   1      -1.225  -0.605  -0.021  0.00  0.00    -0.096 A 
ATOM     10  HN1 IND d   1       1.501  -1.106   1.295  0.00  0.00     0.298 HD
ENDROOT
TORSDOF 0
ENDMDL
