MODEL 1
REMARK minimizedAffinity -3.1120491
REMARK minimizedRMSD -1
REMARK  0 active torsions:
REMARK  status: ('A' for Active; 'I' for Inactive)
ROOT
ATOM      1  N1  IND d   1      -0.511  -2.692   1.203  0.00  0.00    -0.196 N 
ATOM      2  C2  IND d   1      -1.566  -3.561   1.157  0.00  0.00     0.054 A 
ATOM      3  C3  IND d   1      -2.496  -3.126   0.277  0.00  0.00    -0.031 A 
ATOM      4  C4  IND d   1      -2.448  -1.070  -1.271  0.00  0.00     0.051 A 
ATOM      5  C5  IND d   1      -1.710   0.043  -1.561  0.00  0.00    -0.031 A 
ATOM      6  C6  IND d   1      -0.509   0.305  -0.934  0.00  0.00     0.015 A 
ATOM      7  C7  IND d   1       0.007  -0.546   0.002  0.00  0.00    -0.016 A 
ATOM      8  C8  IND d   1      -0.744  -1.673   0.305  0.00  0.00    -0.047 A 
ATOM      9  C9  IND d   1      -1.984  -1.923  -0.297  0.00  0.00    -0.096 A 
ATOM     10  HN1 IND d   1       0.180  -2.769   1.707  0.00  0.00     0.298 HD
ENDROOT
TORSDOF 0
ENDMDL
