MODEL 1
REMARK minimizedAffinity -3.08337283
REMARK minimizedRMSD -1
REMARK  0 active torsions:
REMARK  status: ('A' for Active; 'I' for Inactive)
ROOT
ATOM      1  N1  IND d   1      -0.569  -2.470   1.298  0.00  0.00    -0.196 N 
ATOM      2  C2  IND d   1      -1.558  -3.385   1.069  0.00  0.00     0.054 A 
ATOM      3  C3  IND d   1      -2.358  -2.969   0.061  0.00  0.00    -0.031 A 
ATOM      4  C4  IND d   1      -2.170  -0.870  -1.418  0.00  0.00     0.051 A 
ATOM      5  C5  IND d   1      -1.451   0.283  -1.565  0.00  0.00    -0.031 A 
ATOM      6  C6  IND d   1      -0.378   0.582  -0.750  0.00  0.00     0.015 A 
ATOM      7  C7  IND d   1       0.025  -0.270   0.239  0.00  0.00    -0.016 A 
ATOM      8  C8  IND d   1      -0.707  -1.438   0.396  0.00  0.00    -0.047 A 
ATOM      9  C9  IND d   1      -1.823  -1.727  -0.400  0.00  0.00    -0.096 A 
ATOM     10  HN1 IND d   1       0.038  -2.528   1.905  0.00  0.00     0.298 HD
ENDROOT
TORSDOF 0
ENDMDL
