MODEL 1
REMARK minimizedAffinity 0.589599252
REMARK minimizedRMSD -1
REMARK  0 active torsions:
REMARK  status: ('A' for Active; 'I' for Inactive)
ROOT
ATOM      1  N1  IND d   1       2.652   1.199   0.734  0.00  0.00    -0.196 N 
ATOM      2  C2  IND d   1       2.441   2.281   1.543  0.00  0.00     0.054 A 
ATOM      3  C3  IND d   1       1.159   2.700   1.443  0.00  0.00    -0.031 A 
ATOM      4  C4  IND d   1      -0.789   1.696   0.094  0.00  0.00     0.051 A 
ATOM      5  C5  IND d   1      -1.076   0.725  -0.825  0.00  0.00    -0.031 A 
ATOM      6  C6  IND d   1      -0.116  -0.157  -1.277  0.00  0.00     0.015 A 
ATOM      7  C7  IND d   1       1.169  -0.108  -0.818  0.00  0.00    -0.016 A 
ATOM      8  C8  IND d   1       1.466   0.881   0.109  0.00  0.00    -0.047 A 
ATOM      9  C9  IND d   1       0.506   1.806   0.540  0.00  0.00    -0.096 A 
ATOM     10  HN1 IND d   1       3.399   0.786   0.633  0.00  0.00     0.298 HD
ENDROOT
TORSDOF 0
ENDMDL
