MODEL 1
REMARK minimizedAffinity -2.09597659
REMARK minimizedRMSD -1
REMARK  0 active torsions:
REMARK  status: ('A' for Active; 'I' for Inactive)
ROOT
ATOM      1  N1  IND d   1      -1.252   1.499  -0.214  0.00  0.00    -0.196 N 
ATOM      2  C2  IND d   1      -1.478   0.291  -0.813  0.00  0.00     0.054 A 
ATOM      3  C3  IND d   1      -0.330  -0.421  -0.883  0.00  0.00    -0.031 A 
ATOM      4  C4  IND d   1       2.012   0.159   0.015  0.00  0.00     0.051 A 
ATOM      5  C5  IND d   1       2.719   1.168   0.606  0.00  0.00    -0.031 A 
ATOM      6  C6  IND d   1       2.127   2.362   0.964  0.00  0.00     0.015 A 
ATOM      7  C7  IND d   1       0.796   2.588   0.753  0.00  0.00    -0.016 A 
ATOM      8  C8  IND d   1       0.076   1.568   0.147  0.00  0.00    -0.047 A 
ATOM      9  C9  IND d   1       0.681   0.371  -0.257  0.00  0.00    -0.096 A 
ATOM     10  HN1 IND d   1      -1.841   2.112  -0.084  0.00  0.00     0.298 HD
ENDROOT
TORSDOF 0
ENDMDL
