MODEL 1
REMARK minimizedAffinity -3.80804491
REMARK minimizedRMSD -1
REMARK  0 active torsions:
REMARK  status: ('A' for Active; 'I' for Inactive)
ROOT
ATOM      1  N1  IND d   1       0.989  -2.106   1.283  0.00  0.00    -0.196 N 
ATOM      2  C2  IND d   1       1.752  -1.057   0.850  0.00  0.00     0.054 A 
ATOM      3  C3  IND d   1       1.110  -0.381  -0.129  0.00  0.00    -0.031 A 
ATOM      4  C4  IND d   1      -1.243  -0.756  -1.104  0.00  0.00     0.051 A 
ATOM      5  C5  IND d   1      -2.306  -1.613  -1.052  0.00  0.00    -0.031 A 
ATOM      6  C6  IND d   1      -2.327  -2.698  -0.200  0.00  0.00     0.015 A 
ATOM      7  C7  IND d   1      -1.285  -2.962   0.643  0.00  0.00    -0.016 A 
ATOM      8  C8  IND d   1      -0.201  -2.098   0.589  0.00  0.00    -0.047 A 
ATOM      9  C9  IND d   1      -0.156  -1.019  -0.304  0.00  0.00    -0.096 A 
ATOM     10  HN1 IND d   1       1.214  -2.674   1.887  0.00  0.00     0.298 HD
ENDROOT
TORSDOF 0
ENDMDL
