MODEL 1
REMARK minimizedAffinity -2.49651241
REMARK minimizedRMSD -1
REMARK  0 active torsions:
REMARK  status: ('A' for Active; 'I' for Inactive)
ROOT
ATOM      1  N1  IND d   1       1.088   3.185   1.527  0.00  0.00    -0.196 N 
ATOM      2  C2  IND d   1       2.378   3.111   1.973  0.00  0.00     0.054 A 
ATOM      3  C3  IND d   1       2.871   1.866   1.783  0.00  0.00    -0.031 A 
ATOM      4  C4  IND d   1       1.770  -0.176   0.667  0.00  0.00     0.051 A 
ATOM      5  C5  IND d   1       0.586  -0.605   0.136  0.00  0.00    -0.031 A 
ATOM      6  C6  IND d   1      -0.512   0.224   0.037  0.00  0.00     0.015 A 
ATOM      7  C7  IND d   1      -0.464   1.523   0.457  0.00  0.00    -0.016 A 
ATOM      8  C8  IND d   1       0.734   1.961   1.003  0.00  0.00    -0.047 A 
ATOM      9  C9  IND d   1       1.839   1.111   1.146  0.00  0.00    -0.096 A 
ATOM     10  HN1 IND d   1       0.582   3.879   1.568  0.00  0.00     0.298 HD
ENDROOT
TORSDOF 0
ENDMDL
