MODEL 1
REMARK minimizedAffinity -3.02958488
REMARK minimizedRMSD -1
REMARK  0 active torsions:
REMARK  status: ('A' for Active; 'I' for Inactive)
ROOT
ATOM      1  N1  IND d   1       1.977  -0.629   0.736  0.00  0.00    -0.196 N 
ATOM      2  C2  IND d   1       2.288   0.581   0.181  0.00  0.00     0.054 A 
ATOM      3  C3  IND d   1       1.174   1.333   0.038  0.00  0.00    -0.031 A 
ATOM      4  C4  IND d   1      -1.249   0.818   0.741  0.00  0.00     0.051 A 
ATOM      5  C5  IND d   1      -2.033  -0.177   1.254  0.00  0.00    -0.031 A 
ATOM      6  C6  IND d   1      -1.510  -1.397   1.632  0.00  0.00     0.015 A 
ATOM      7  C7  IND d   1      -0.175  -1.664   1.519  0.00  0.00    -0.016 A 
ATOM      8  C8  IND d   1       0.624  -0.659   0.992  0.00  0.00    -0.047 A 
ATOM      9  C9  IND d   1       0.091   0.565   0.568  0.00  0.00    -0.096 A 
ATOM     10  HN1 IND d   1       2.533  -1.264   0.898  0.00  0.00     0.298 HD
ENDROOT
TORSDOF 0
ENDMDL
