MODEL 1
REMARK minimizedAffinity -2.56957006
REMARK minimizedRMSD -1
REMARK  0 active torsions:
REMARK  status: ('A' for Active; 'I' for Inactive)
ROOT
ATOM      1  N1  IND d   1       1.067  -1.139   0.819  0.00  0.00    -0.196 N 
ATOM      2  C2  IND d   1       0.559  -2.039   1.713  0.00  0.00     0.054 A 
ATOM      3  C3  IND d   1      -0.752  -2.257   1.468  0.00  0.00    -0.031 A 
ATOM      4  C4  IND d   1      -2.242  -1.322  -0.411  0.00  0.00     0.051 A 
ATOM      5  C5  IND d   1      -2.236  -0.434  -1.450  0.00  0.00    -0.031 A 
ATOM      6  C6  IND d   1      -1.104   0.277  -1.794  0.00  0.00     0.015 A 
ATOM      7  C7  IND d   1       0.071   0.117  -1.116  0.00  0.00    -0.016 A 
ATOM      8  C8  IND d   1       0.066  -0.779  -0.057  0.00  0.00    -0.047 A 
ATOM      9  C9  IND d   1      -1.090  -1.471   0.324  0.00  0.00    -0.096 A 
ATOM     10  HN1 IND d   1       1.875  -0.846   0.805  0.00  0.00     0.298 HD
ENDROOT
TORSDOF 0
ENDMDL
