MODEL 1
REMARK minimizedAffinity -5.26564646
REMARK minimizedRMSD -1
REMARK  0 active torsions:
REMARK  status: ('A' for Active; 'I' for Inactive)
ROOT
ATOM      1  N1  IND d   1       0.732  -0.248  -0.430  0.00  0.00    -0.196 N 
ATOM      2  C2  IND d   1      -0.624  -0.086  -0.361  0.00  0.00     0.054 A 
ATOM      3  C3  IND d   1      -0.929   1.026   0.344  0.00  0.00    -0.031 A 
ATOM      4  C4  IND d   1       0.637   2.783   1.387  0.00  0.00     0.051 A 
ATOM      5  C5  IND d   1       1.958   3.048   1.616  0.00  0.00    -0.031 A 
ATOM      6  C6  IND d   1       2.958   2.212   1.163  0.00  0.00     0.015 A 
ATOM      7  C7  IND d   1       2.674   1.081   0.452  0.00  0.00    -0.016 A 
ATOM      8  C8  IND d   1       1.333   0.805   0.223  0.00  0.00    -0.047 A 
ATOM      9  C9  IND d   1       0.312   1.627   0.717  0.00  0.00    -0.096 A 
ATOM     10  HN1 IND d   1       1.140  -0.899  -0.817  0.00  0.00     0.298 HD
ENDROOT
TORSDOF 0
ENDMDL
