MODEL 1
REMARK minimizedAffinity -2.37596416
REMARK minimizedRMSD -1
REMARK  0 active torsions:
REMARK  status: ('A' for Active; 'I' for Inactive)
ROOT
ATOM      1  N1  IND d   1       2.303   1.467   0.319  0.00  0.00    -0.196 N 
ATOM      2  C2  IND d   1       2.209   2.792   0.644  0.00  0.00     0.054 A 
ATOM      3  C3  IND d   1       0.958   3.247   0.407  0.00  0.00    -0.031 A 
ATOM      4  C4  IND d   1      -1.118   1.968  -0.418  0.00  0.00     0.051 A 
ATOM      5  C5  IND d   1      -1.517   0.746  -0.881  0.00  0.00    -0.031 A 
ATOM      6  C6  IND d   1      -0.646  -0.321  -0.967  0.00  0.00     0.015 A 
ATOM      7  C7  IND d   1       0.660  -0.207  -0.581  0.00  0.00    -0.016 A 
ATOM      8  C8  IND d   1       1.070   1.034  -0.117  0.00  0.00    -0.047 A 
ATOM      9  C9  IND d   1       0.201   2.132  -0.067  0.00  0.00    -0.096 A 
ATOM     10  HN1 IND d   1       3.013   0.986   0.376  0.00  0.00     0.298 HD
ENDROOT
TORSDOF 0
ENDMDL
