MODEL 1
REMARK minimizedAffinity -5.49806309
REMARK minimizedRMSD -1
REMARK  0 active torsions:
REMARK  status: ('A' for Active; 'I' for Inactive)
ROOT
ATOM      1  N1  IND d   1       1.222  -0.269  -0.777  0.00  0.00    -0.196 N 
ATOM      2  C2  IND d   1       1.843  -0.933   0.244  0.00  0.00     0.054 A 
ATOM      3  C3  IND d   1       0.934  -1.352   1.153  0.00  0.00    -0.031 A 
ATOM      4  C4  IND d   1      -1.632  -1.147   1.116  0.00  0.00     0.051 A 
ATOM      5  C5  IND d   1      -2.658  -0.589   0.406  0.00  0.00    -0.031 A 
ATOM      6  C6  IND d   1      -2.439   0.115  -0.760  0.00  0.00     0.015 A 
ATOM      7  C7  IND d   1      -1.181   0.280  -1.268  0.00  0.00    -0.016 A 
ATOM      8  C8  IND d   1      -0.136  -0.279  -0.545  0.00  0.00    -0.047 A 
ATOM      9  C9  IND d   1      -0.348  -0.959   0.661  0.00  0.00    -0.096 A 
ATOM     10  HN1 IND d   1       1.614   0.094  -1.451  0.00  0.00     0.298 HD
ENDROOT
TORSDOF 0
ENDMDL
