MODEL 1
REMARK minimizedAffinity -0.250125766
REMARK minimizedRMSD -1
REMARK  1 active torsions:
REMARK  status: ('A' for Active; 'I' for Inactive)
REMARK    1  A    between atoms: C1_2  and  C2_3 
ROOT
ATOM      1  C2  UNL d   1      -1.106   1.532   1.566  0.00  0.00    -0.077 A 
ATOM      2  C3  UNL d   1      -1.242   0.310   2.240  0.00  0.00     0.002 A 
ATOM      3  C4  UNL d   1      -0.367  -0.745   1.972  0.00  0.00     0.002 A 
ATOM      4  C5  UNL d   1       0.651  -0.587   1.035  0.00  0.00    -0.004 A 
ATOM      5  C6  UNL d   1       0.793   0.624   0.358  0.00  0.00     0.002 A 
ATOM      6  C7  UNL d   1      -0.081   1.679   0.624  0.00  0.00     0.002 A 
ENDROOT
BRANCH   1   7
ATOM      7  C1  UNL d   1      -2.018   2.687   1.889  0.00  0.00     0.055 C 
ATOM      8  C   UNL d   1      -2.965   2.343   3.029  0.00  0.00     0.019 C 
ENDBRANCH   1   7
TORSDOF 1
ENDMDL
