MODEL 1
REMARK minimizedAffinity 0.313213825
REMARK minimizedRMSD -1
REMARK  1 active torsions:
REMARK  status: ('A' for Active; 'I' for Inactive)
REMARK    1  A    between atoms: C1_2  and  C2_3 
ROOT
ATOM      1  C2  UNL d   1      -0.558   1.638   1.321  0.00  0.00    -0.077 A 
ATOM      2  C3  UNL d   1      -0.440   0.360   1.885  0.00  0.00     0.002 A 
ATOM      3  C4  UNL d   1       0.657  -0.448   1.579  0.00  0.00     0.002 A 
ATOM      4  C5  UNL d   1       1.644   0.014   0.711  0.00  0.00    -0.004 A 
ATOM      5  C6  UNL d   1       1.534   1.282   0.143  0.00  0.00     0.002 A 
ATOM      6  C7  UNL d   1       0.438   2.091   0.448  0.00  0.00     0.002 A 
ENDROOT
BRANCH   1   7
ATOM      7  C1  UNL d   1      -1.715   2.531   1.689  0.00  0.00     0.055 C 
ATOM      8  C   UNL d   1      -2.268   2.182   3.063  0.00  0.00     0.019 C 
ENDBRANCH   1   7
TORSDOF 1
ENDMDL
