MODEL 1
REMARK minimizedAffinity -1.50866628
REMARK minimizedRMSD -1
REMARK  1 active torsions:
REMARK  status: ('A' for Active; 'I' for Inactive)
REMARK    1  A    between atoms: C1_2  and  C2_3 
ROOT
ATOM      1  C2  UNL d   1       1.594   1.011   0.215  0.00  0.00    -0.077 A 
ATOM      2  C3  UNL d   1       2.159   1.631  -0.909  0.00  0.00     0.002 A 
ATOM      3  C4  UNL d   1       2.979   0.907  -1.777  0.00  0.00     0.002 A 
ATOM      4  C5  UNL d   1       3.238  -0.440  -1.533  0.00  0.00    -0.004 A 
ATOM      5  C6  UNL d   1       2.682  -1.065  -0.417  0.00  0.00     0.002 A 
ATOM      6  C7  UNL d   1       1.864  -0.343   0.452  0.00  0.00     0.002 A 
ENDROOT
BRANCH   1   7
ATOM      7  C1  UNL d   1       0.670   1.776   1.125  0.00  0.00     0.055 C 
ATOM      8  C   UNL d   1      -0.747   1.223   1.068  0.00  0.00     0.019 C 
ENDBRANCH   1   7
TORSDOF 1
ENDMDL
