MODEL 1
REMARK minimizedAffinity 3.24488306
REMARK minimizedRMSD -1
REMARK  1 active torsions:
REMARK  status: ('A' for Active; 'I' for Inactive)
REMARK    1  A    between atoms: C1_2  and  C2_3 
ROOT
ATOM      1  C2  UNL d   1      -0.057   0.184   1.523  0.00  0.00    -0.077 A 
ATOM      2  C3  UNL d   1       0.936   0.754   0.716  0.00  0.00     0.002 A 
ATOM      3  C4  UNL d   1       0.804   2.065   0.253  0.00  0.00     0.002 A 
ATOM      4  C5  UNL d   1      -0.318   2.817   0.596  0.00  0.00    -0.004 A 
ATOM      5  C6  UNL d   1      -1.313   2.257   1.398  0.00  0.00     0.002 A 
ATOM      6  C7  UNL d   1      -1.182   0.947   1.860  0.00  0.00     0.002 A 
ENDROOT
BRANCH   1   7
ATOM      7  C1  UNL d   1       0.107  -1.213   2.064  0.00  0.00     0.055 C 
ATOM      8  C   UNL d   1       0.608  -1.195   3.500  0.00  0.00     0.019 C 
ENDBRANCH   1   7
TORSDOF 1
ENDMDL
