MODEL 1
REMARK minimizedAffinity 3.09086466
REMARK minimizedRMSD -1
REMARK  1 active torsions:
REMARK  status: ('A' for Active; 'I' for Inactive)
REMARK    1  A    between atoms: C1_2  and  C2_3 
ROOT
ATOM      1  C2  UNL d   1      -1.149   1.505   1.290  0.00  0.00    -0.077 A 
ATOM      2  C3  UNL d   1      -1.606   0.208   1.558  0.00  0.00     0.002 A 
ATOM      3  C4  UNL d   1      -0.723  -0.874   1.522  0.00  0.00     0.002 A 
ATOM      4  C5  UNL d   1       0.622  -0.667   1.222  0.00  0.00    -0.004 A 
ATOM      5  C6  UNL d   1       1.086   0.619   0.952  0.00  0.00     0.002 A 
ATOM      6  C7  UNL d   1       0.205   1.701   0.986  0.00  0.00     0.002 A 
ENDROOT
BRANCH   1   7
ATOM      7  C1  UNL d   1      -2.089   2.679   1.376  0.00  0.00     0.055 C 
ATOM      8  C   UNL d   1      -3.162   2.452   2.431  0.00  0.00     0.019 C 
ENDBRANCH   1   7
TORSDOF 1
ENDMDL
