MODEL 1
REMARK minimizedAffinity -0.564102292
REMARK minimizedRMSD -1
REMARK  1 active torsions:
REMARK  status: ('A' for Active; 'I' for Inactive)
REMARK    1  A    between atoms: C1_2  and  C2_3 
ROOT
ATOM      1  C2  UNL d   1      -0.826   1.501   1.703  0.00  0.00    -0.077 A 
ATOM      2  C3  UNL d   1      -1.367   0.267   2.088  0.00  0.00     0.002 A 
ATOM      3  C4  UNL d   1      -0.771  -0.926   1.674  0.00  0.00     0.002 A 
ATOM      4  C5  UNL d   1       0.370  -0.896   0.876  0.00  0.00    -0.004 A 
ATOM      5  C6  UNL d   1       0.915   0.327   0.485  0.00  0.00     0.002 A 
ATOM      6  C7  UNL d   1       0.320   1.520   0.898  0.00  0.00     0.002 A 
ENDROOT
BRANCH   1   7
ATOM      7  C1  UNL d   1      -1.439   2.789   2.189  0.00  0.00     0.055 C 
ATOM      8  C   UNL d   1      -2.794   2.547   2.838  0.00  0.00     0.019 C 
ENDBRANCH   1   7
TORSDOF 1
ENDMDL
