MODEL 1
REMARK minimizedAffinity -3.2031157
REMARK minimizedRMSD -1
REMARK  1 active torsions:
REMARK  status: ('A' for Active; 'I' for Inactive)
REMARK    1  A    between atoms: C1_2  and  C2_3 
ROOT
ATOM      1  C2  UNL d   1      -0.924   0.812   1.857  0.00  0.00    -0.077 A 
ATOM      2  C3  UNL d   1      -1.837   1.866   2.004  0.00  0.00     0.002 A 
ATOM      3  C4  UNL d   1      -1.511   3.150   1.563  0.00  0.00     0.002 A 
ATOM      4  C5  UNL d   1      -0.275   3.391   0.966  0.00  0.00    -0.004 A 
ATOM      5  C6  UNL d   1       0.641   2.350   0.817  0.00  0.00     0.002 A 
ATOM      6  C7  UNL d   1       0.317   1.066   1.259  0.00  0.00     0.002 A 
ENDROOT
BRANCH   1   7
ATOM      7  C1  UNL d   1      -1.293  -0.583   2.288  0.00  0.00     0.055 C 
ATOM      8  C   UNL d   1      -2.787  -0.705   2.550  0.00  0.00     0.019 C 
ENDBRANCH   1   7
TORSDOF 1
ENDMDL
