MODEL 1
REMARK minimizedAffinity 5.14562178
REMARK minimizedRMSD -1
REMARK  1 active torsions:
REMARK  status: ('A' for Active; 'I' for Inactive)
REMARK    1  A    between atoms: C1_2  and  C2_3 
ROOT
ATOM      1  C2  UNL d   1      -3.183  -3.095  -1.285  0.00  0.00    -0.077 A 
ATOM      2  C3  UNL d   1      -2.608  -2.743  -2.514  0.00  0.00     0.002 A 
ATOM      3  C4  UNL d   1      -3.115  -1.670  -3.249  0.00  0.00     0.002 A 
ATOM      4  C5  UNL d   1      -4.195  -0.937  -2.761  0.00  0.00    -0.004 A 
ATOM      5  C6  UNL d   1      -4.775  -1.281  -1.541  0.00  0.00     0.002 A 
ATOM      6  C7  UNL d   1      -4.271  -2.354  -0.806  0.00  0.00     0.002 A 
ENDROOT
BRANCH   1   7
ATOM      7  C1  UNL d   1      -2.607  -4.222  -0.468  0.00  0.00     0.055 C 
ATOM      8  C   UNL d   1      -3.362  -5.522  -0.707  0.00  0.00     0.019 C 
ENDBRANCH   1   7
TORSDOF 1
ENDMDL
