MODEL 1
REMARK minimizedAffinity -1.92521262
REMARK minimizedRMSD -1
REMARK  1 active torsions:
REMARK  status: ('A' for Active; 'I' for Inactive)
REMARK    1  A    between atoms: C1_2  and  C2_3 
ROOT
ATOM      1  C2  UNL d   1      -0.922   2.105   1.753  0.00  0.00    -0.077 A 
ATOM      2  C3  UNL d   1      -0.456   0.783   1.719  0.00  0.00     0.002 A 
ATOM      3  C4  UNL d   1      -1.277  -0.266   2.135  0.00  0.00     0.002 A 
ATOM      4  C5  UNL d   1      -2.570  -0.006   2.583  0.00  0.00    -0.004 A 
ATOM      5  C6  UNL d   1      -3.042   1.305   2.623  0.00  0.00     0.002 A 
ATOM      6  C7  UNL d   1      -2.222   2.356   2.209  0.00  0.00     0.002 A 
ENDROOT
BRANCH   1   7
ATOM      7  C1  UNL d   1      -0.055   3.233   1.258  0.00  0.00     0.055 C 
ATOM      8  C   UNL d   1       0.894   2.764   0.165  0.00  0.00     0.019 C 
ENDBRANCH   1   7
TORSDOF 1
ENDMDL
