MODEL 1
REMARK minimizedAffinity 3.62337565
REMARK minimizedRMSD -1
REMARK  1 active torsions:
REMARK  status: ('A' for Active; 'I' for Inactive)
REMARK    1  A    between atoms: C1_2  and  C2_3 
ROOT
ATOM      1  C2  UNL d   1       3.906   3.554  -4.669  0.00  0.00    -0.077 A 
ATOM      2  C3  UNL d   1       2.578   3.803  -5.044  0.00  0.00     0.002 A 
ATOM      3  C4  UNL d   1       2.233   5.007  -5.661  0.00  0.00     0.002 A 
ATOM      4  C5  UNL d   1       3.209   5.969  -5.911  0.00  0.00    -0.004 A 
ATOM      5  C6  UNL d   1       4.532   5.731  -5.540  0.00  0.00     0.002 A 
ATOM      6  C7  UNL d   1       4.879   4.529  -4.923  0.00  0.00     0.002 A 
ENDROOT
BRANCH   1   7
ATOM      7  C1  UNL d   1       4.289   2.236  -4.048  0.00  0.00     0.055 C 
ATOM      8  C   UNL d   1       3.079   1.328  -3.886  0.00  0.00     0.019 C 
ENDBRANCH   1   7
TORSDOF 1
ENDMDL
