MODEL 1
REMARK minimizedAffinity 4.53813791
REMARK minimizedRMSD -1
REMARK  1 active torsions:
REMARK  status: ('A' for Active; 'I' for Inactive)
REMARK    1  A    between atoms: C1_2  and  C2_3 
ROOT
ATOM      1  C2  UNL d   1      -0.810   1.046   1.883  0.00  0.00    -0.077 A 
ATOM      2  C3  UNL d   1      -1.860   1.690   2.552  0.00  0.00     0.002 A 
ATOM      3  C4  UNL d   1      -2.251   2.978   2.179  0.00  0.00     0.002 A 
ATOM      4  C5  UNL d   1      -1.601   3.629   1.133  0.00  0.00    -0.004 A 
ATOM      5  C6  UNL d   1      -0.555   2.997   0.462  0.00  0.00     0.002 A 
ATOM      6  C7  UNL d   1      -0.161   1.711   0.835  0.00  0.00     0.002 A 
ENDROOT
BRANCH   1   7
ATOM      7  C1  UNL d   1      -0.419  -0.361   2.251  0.00  0.00     0.055 C 
ATOM      8  C   UNL d   1      -1.613  -1.302   2.187  0.00  0.00     0.019 C 
ENDBRANCH   1   7
TORSDOF 1
ENDMDL
