MODEL 1
REMARK minimizedAffinity 9.20443439
REMARK minimizedRMSD -1
REMARK  0 active torsions:
REMARK  status: ('A' for Active; 'I' for Inactive)
ROOT
ATOM      1  C2' OXE d   1       1.880   6.000  -1.715  0.00  0.00     0.078 C 
ATOM      2  C1' OXE d   1      -0.860   5.392  -1.780  0.00  0.00     0.078 C 
ATOM      3  C1  OXE d   1      -0.009   4.697  -0.746  0.00  0.00    -0.078 A 
ATOM      4  C2  OXE d   1       1.338   4.965  -0.752  0.00  0.00    -0.078 A 
ATOM      5  C3  OXE d   1       2.159   4.393   0.215  0.00  0.00     0.003 A 
ATOM      6  C4  OXE d   1       1.652   3.430   1.095  0.00  0.00    -0.002 A 
ATOM      7  C5  OXE d   1       0.290   3.112   1.092  0.00  0.00    -0.002 A 
ATOM      8  C6  OXE d   1      -0.560   3.767   0.208  0.00  0.00     0.003 A 
ENDROOT
TORSDOF 0
ENDMDL
