MODEL 1
REMARK minimizedAffinity -0.183761701
REMARK minimizedRMSD -1
REMARK  0 active torsions:
REMARK  status: ('A' for Active; 'I' for Inactive)
ROOT
ATOM      1  C2' OXE d   1      -0.991  -4.004  -6.000  0.00  0.00     0.078 C 
ATOM      2  C1' OXE d   1       1.470  -2.877  -5.253  0.00  0.00     0.078 C 
ATOM      3  C1  OXE d   1       0.234  -2.024  -5.113  0.00  0.00    -0.078 A 
ATOM      4  C2  OXE d   1      -0.960  -2.568  -5.524  0.00  0.00    -0.078 A 
ATOM      5  C3  OXE d   1      -2.138  -1.844  -5.365  0.00  0.00     0.003 A 
ATOM      6  C4  OXE d   1      -2.099  -0.512  -4.934  0.00  0.00    -0.002 A 
ATOM      7  C5  OXE d   1      -0.889   0.074  -4.547  0.00  0.00    -0.002 A 
ATOM      8  C6  OXE d   1       0.278  -0.681  -4.590  0.00  0.00     0.003 A 
ENDROOT
TORSDOF 0
ENDMDL
