MODEL 1
REMARK minimizedAffinity 3.18436503
REMARK minimizedRMSD -1
REMARK  0 active torsions:
REMARK  status: ('A' for Active; 'I' for Inactive)
ROOT
ATOM      1  C2' OXE d   1       0.919   1.505  -0.014  0.00  0.00     0.078 C 
ATOM      2  C1' OXE d   1       1.801  -0.971   0.972  0.00  0.00     0.078 C 
ATOM      3  C1  OXE d   1       1.281  -0.922  -0.443  0.00  0.00    -0.078 A 
ATOM      4  C2  OXE d   1       0.808   0.284  -0.902  0.00  0.00    -0.078 A 
ATOM      5  C3  OXE d   1       0.368   0.397  -2.218  0.00  0.00     0.003 A 
ATOM      6  C4  OXE d   1       0.260  -0.739  -3.029  0.00  0.00    -0.002 A 
ATOM      7  C5  OXE d   1       0.699  -1.985  -2.568  0.00  0.00    -0.002 A 
ATOM      8  C6  OXE d   1       1.250  -2.085  -1.295  0.00  0.00     0.003 A 
ENDROOT
TORSDOF 0
ENDMDL
