MODEL 1
REMARK minimizedAffinity 13.2165871
REMARK minimizedRMSD -1
REMARK  0 active torsions:
REMARK  status: ('A' for Active; 'I' for Inactive)
ROOT
ATOM      1  C2' OXE d   1       5.999  -2.975  -1.468  0.00  0.00     0.078 C 
ATOM      2  C1' OXE d   1       4.914  -4.738   0.428  0.00  0.00     0.078 C 
ATOM      3  C1  OXE d   1       4.198  -3.433   0.190  0.00  0.00    -0.078 A 
ATOM      4  C2  OXE d   1       4.761  -2.556  -0.705  0.00  0.00    -0.078 A 
ATOM      5  C3  OXE d   1       4.112  -1.361  -1.002  0.00  0.00     0.003 A 
ATOM      6  C4  OXE d   1       2.972  -0.977  -0.285  0.00  0.00    -0.002 A 
ATOM      7  C5  OXE d   1       2.404  -1.837   0.660  0.00  0.00    -0.002 A 
ATOM      8  C6  OXE d   1       2.979  -3.085   0.878  0.00  0.00     0.003 A 
ENDROOT
TORSDOF 0
ENDMDL
