MODEL 1
REMARK minimizedAffinity 4.44071388
REMARK minimizedRMSD -1
REMARK  0 active torsions:
REMARK  status: ('A' for Active; 'I' for Inactive)
ROOT
ATOM      1  C2' OXE d   1      -3.345   2.253  -3.010  0.00  0.00     0.078 C 
ATOM      2  C1' OXE d   1      -5.999   1.729  -3.759  0.00  0.00     0.078 C 
ATOM      3  C1  OXE d   1      -5.331   2.950  -4.342  0.00  0.00    -0.078 A 
ATOM      4  C2  OXE d   1      -4.048   3.225  -3.933  0.00  0.00    -0.078 A 
ATOM      5  C3  OXE d   1      -3.367   4.308  -4.481  0.00  0.00     0.003 A 
ATOM      6  C4  OXE d   1      -4.028   5.207  -5.327  0.00  0.00    -0.002 A 
ATOM      7  C5  OXE d   1      -5.348   4.967  -5.724  0.00  0.00    -0.002 A 
ATOM      8  C6  OXE d   1      -5.998   3.823  -5.275  0.00  0.00     0.003 A 
ENDROOT
TORSDOF 0
ENDMDL
