MODEL 1
REMARK minimizedAffinity 7.1352787
REMARK minimizedRMSD -1
REMARK  0 active torsions:
REMARK  status: ('A' for Active; 'I' for Inactive)
ROOT
ATOM      1  C2' OXE d   1       1.894   6.000  -1.694  0.00  0.00     0.078 C 
ATOM      2  C1' OXE d   1       3.040   5.999   0.868  0.00  0.00     0.078 C 
ATOM      3  C1  OXE d   1       2.090   4.880   0.522  0.00  0.00    -0.078 A 
ATOM      4  C2  OXE d   1       1.498   4.914  -0.717  0.00  0.00    -0.078 A 
ATOM      5  C3  OXE d   1       0.657   3.876  -1.108  0.00  0.00     0.003 A 
ATOM      6  C4  OXE d   1       0.288   2.880  -0.195  0.00  0.00    -0.002 A 
ATOM      7  C5  OXE d   1       0.849   2.849   1.086  0.00  0.00    -0.002 A 
ATOM      8  C6  OXE d   1       1.782   3.816   1.445  0.00  0.00     0.003 A 
ENDROOT
TORSDOF 0
ENDMDL
