MODEL 1
REMARK minimizedAffinity 4.5438509
REMARK minimizedRMSD -1
REMARK  0 active torsions:
REMARK  status: ('A' for Active; 'I' for Inactive)
ROOT
ATOM      1  C2' OXE d   1       4.863  -5.436   0.117  0.00  0.00     0.078 C 
ATOM      2  C1' OXE d   1       5.997  -2.984  -0.645  0.00  0.00     0.078 C 
ATOM      3  C1  OXE d   1       5.445  -3.872  -1.732  0.00  0.00    -0.078 A 
ATOM      4  C2  OXE d   1       4.934  -5.091  -1.354  0.00  0.00    -0.078 A 
ATOM      5  C3  OXE d   1       4.363  -5.925  -2.311  0.00  0.00     0.003 A 
ATOM      6  C4  OXE d   1       4.442  -5.603  -3.671  0.00  0.00    -0.002 A 
ATOM      7  C5  OXE d   1       4.993  -4.384  -4.081  0.00  0.00    -0.002 A 
ATOM      8  C6  OXE d   1       5.460  -3.491  -3.123  0.00  0.00     0.003 A 
ENDROOT
TORSDOF 0
ENDMDL
