MODEL 1
REMARK minimizedAffinity 5.47348404
REMARK minimizedRMSD -1
REMARK  0 active torsions:
REMARK  status: ('A' for Active; 'I' for Inactive)
ROOT
ATOM      1  C2' OXE d   1       5.690  -4.136   0.030  0.00  0.00     0.078 C 
ATOM      2  C1' OXE d   1       5.364  -2.954  -2.495  0.00  0.00     0.078 C 
ATOM      3  C1  OXE d   1       4.613  -2.352  -1.334  0.00  0.00    -0.078 A 
ATOM      4  C2  OXE d   1       4.741  -2.965  -0.111  0.00  0.00    -0.078 A 
ATOM      5  C3  OXE d   1       4.113  -2.418   1.004  0.00  0.00     0.003 A 
ATOM      6  C4  OXE d   1       3.230  -1.341   0.863  0.00  0.00    -0.002 A 
ATOM      7  C5  OXE d   1       3.053  -0.726  -0.381  0.00  0.00    -0.002 A 
ATOM      8  C6  OXE d   1       3.768  -1.192  -1.479  0.00  0.00     0.003 A 
ENDROOT
TORSDOF 0
ENDMDL
