MODEL 1
REMARK minimizedAffinity 4.11839151
REMARK minimizedRMSD -1
REMARK  0 active torsions:
REMARK  status: ('A' for Active; 'I' for Inactive)
ROOT
ATOM      1  C2' OXE d   1      -0.773   1.712  -2.980  0.00  0.00     0.078 C 
ATOM      2  C1' OXE d   1      -0.474   2.919  -0.463  0.00  0.00     0.078 C 
ATOM      3  C1  OXE d   1       0.324   1.670  -0.743  0.00  0.00    -0.078 A 
ATOM      4  C2  OXE d   1       0.136   1.060  -1.960  0.00  0.00    -0.078 A 
ATOM      5  C3  OXE d   1       0.887  -0.064  -2.291  0.00  0.00     0.003 A 
ATOM      6  C4  OXE d   1       1.718  -0.667  -1.339  0.00  0.00    -0.002 A 
ATOM      7  C5  OXE d   1       1.894  -0.084  -0.079  0.00  0.00    -0.002 A 
ATOM      8  C6  OXE d   1       1.238   1.106   0.219  0.00  0.00     0.003 A 
ENDROOT
TORSDOF 0
ENDMDL
