MODEL 1
REMARK minimizedAffinity 2.63073158
REMARK minimizedRMSD -1
REMARK  0 active torsions:
REMARK  status: ('A' for Active; 'I' for Inactive)
ROOT
ATOM      1  C2' OXE d   1       5.922  -3.710  -3.499  0.00  0.00     0.078 C 
ATOM      2  C1' OXE d   1       3.619  -5.274  -3.867  0.00  0.00     0.078 C 
ATOM      3  C1  OXE d   1       4.251  -5.263  -2.498  0.00  0.00    -0.078 A 
ATOM      4  C2  OXE d   1       5.404  -4.532  -2.338  0.00  0.00    -0.078 A 
ATOM      5  C3  OXE d   1       5.996  -4.445  -1.082  0.00  0.00     0.003 A 
ATOM      6  C4  OXE d   1       5.517  -5.216  -0.017  0.00  0.00    -0.002 A 
ATOM      7  C5  OXE d   1       4.367  -5.999  -0.168  0.00  0.00    -0.002 A 
ATOM      8  C6  OXE d   1       3.699  -6.000  -1.388  0.00  0.00     0.003 A 
ENDROOT
TORSDOF 0
ENDMDL
