MODEL 1
REMARK minimizedAffinity 6.52757263
REMARK minimizedRMSD -1
REMARK  2 active torsions:
REMARK  status: ('A' for Active; 'I' for Inactive)
REMARK    1  A    between atoms: C2'_3  and  C1'_4 
REMARK    2  A    between atoms: C1'_4  and  C1_5 
ROOT
ATOM      1  C1  I4B d   1       1.394   0.743  -1.980  0.00  0.00    -0.075 A 
ATOM      2  C2  I4B d   1       1.883   1.934  -1.505  0.00  0.00     0.003 A 
ATOM      3  C3  I4B d   1       1.789   2.245  -0.126  0.00  0.00     0.002 A 
ATOM      4  C4  I4B d   1       1.157   1.363   0.727  0.00  0.00    -0.004 A 
ATOM      5  C5  I4B d   1       0.682   0.146   0.248  0.00  0.00     0.002 A 
ATOM      6  C6  I4B d   1       0.812  -0.172  -1.112  0.00  0.00     0.003 A 
ENDROOT
BRANCH   1   7
ATOM      7  C1' I4B d   1       1.480   0.462  -3.446  0.00  0.00     0.060 C 
BRANCH   7   8
ATOM      8  C2' I4B d   1       1.768  -1.015  -3.622  0.00  0.00    -0.013 C 
ATOM      9  C4' I4B d   1       0.542  -1.846  -3.346  0.00  0.00     0.013 C 
ATOM     10  C3' I4B d   1       2.261  -1.227  -5.022  0.00  0.00     0.013 C 
ENDBRANCH   7   8
ENDBRANCH   1   7
TORSDOF 2
ENDMDL
