MODEL 1
REMARK minimizedAffinity 8.42087269
REMARK minimizedRMSD -1
REMARK  2 active torsions:
REMARK  status: ('A' for Active; 'I' for Inactive)
REMARK    1  A    between atoms: C2'_3  and  C1'_4 
REMARK    2  A    between atoms: C1'_4  and  C1_5 
ROOT
ATOM      1  C1  I4B d   1      -0.022   0.945  -1.563  0.00  0.00    -0.075 A 
ATOM      2  C2  I4B d   1       0.943   1.860  -1.904  0.00  0.00     0.003 A 
ATOM      3  C3  I4B d   1       2.294   1.639  -1.544  0.00  0.00     0.002 A 
ATOM      4  C4  I4B d   1       2.627   0.522  -0.804  0.00  0.00    -0.004 A 
ATOM      5  C5  I4B d   1       1.651  -0.416  -0.479  0.00  0.00     0.002 A 
ATOM      6  C6  I4B d   1       0.321  -0.210  -0.871  0.00  0.00     0.003 A 
ENDROOT
BRANCH   1   7
ATOM      7  C1' I4B d   1      -1.444   1.226  -1.930  0.00  0.00     0.060 C 
BRANCH   7   8
ATOM      8  C2' I4B d   1      -1.751   2.658  -1.544  0.00  0.00    -0.013 C 
ATOM      9  C4' I4B d   1      -2.466   3.381  -2.656  0.00  0.00     0.013 C 
ATOM     10  C3' I4B d   1      -2.580   2.634  -0.295  0.00  0.00     0.013 C 
ENDBRANCH   7   8
ENDBRANCH   1   7
TORSDOF 2
ENDMDL
