MODEL 1
REMARK minimizedAffinity 2.67732692
REMARK minimizedRMSD -1
REMARK  2 active torsions:
REMARK  status: ('A' for Active; 'I' for Inactive)
REMARK    1  A    between atoms: C2'_3  and  C1'_4 
REMARK    2  A    between atoms: C1'_4  and  C1_5 
ROOT
ATOM      1  C1  I4B d   1       0.671  -0.820  -1.190  0.00  0.00    -0.075 A 
ATOM      2  C2  I4B d   1       0.670   0.373  -1.869  0.00  0.00     0.003 A 
ATOM      3  C3  I4B d   1       1.041   1.569  -1.209  0.00  0.00     0.002 A 
ATOM      4  C4  I4B d   1       1.354   1.535   0.135  0.00  0.00    -0.004 A 
ATOM      5  C5  I4B d   1       1.376   0.322   0.816  0.00  0.00     0.002 A 
ATOM      6  C6  I4B d   1       1.044  -0.865   0.147  0.00  0.00     0.003 A 
ENDROOT
BRANCH   1   7
ATOM      7  C1' I4B d   1       0.242  -2.059  -1.909  0.00  0.00     0.060 C 
BRANCH   7   8
ATOM      8  C2' I4B d   1      -1.113  -2.468  -1.368  0.00  0.00    -0.013 C 
ATOM      9  C4' I4B d   1      -2.219  -2.064  -2.306  0.00  0.00     0.013 C 
ATOM     10  C3' I4B d   1      -1.098  -3.953  -1.156  0.00  0.00     0.013 C 
ENDBRANCH   7   8
ENDBRANCH   1   7
TORSDOF 2
ENDMDL
