MODEL 1
REMARK minimizedAffinity 5.0250082
REMARK minimizedRMSD -1
REMARK  2 active torsions:
REMARK  status: ('A' for Active; 'I' for Inactive)
REMARK    1  A    between atoms: C2'_3  and  C1'_4 
REMARK    2  A    between atoms: C1'_4  and  C1_5 
ROOT
ATOM      1  C1  I4B d   1       1.434  -0.011  -0.090  0.00  0.00    -0.075 A 
ATOM      2  C2  I4B d   1       1.198   1.049   0.750  0.00  0.00     0.003 A 
ATOM      3  C3  I4B d   1       1.021   2.351   0.223  0.00  0.00     0.002 A 
ATOM      4  C4  I4B d   1       1.136   2.554  -1.137  0.00  0.00    -0.004 A 
ATOM      5  C5  I4B d   1       1.351   1.475  -1.989  0.00  0.00     0.002 A 
ATOM      6  C6  I4B d   1       1.489   0.182  -1.464  0.00  0.00     0.003 A 
ENDROOT
BRANCH   1   7
ATOM      7  C1' I4B d   1       1.649  -1.367   0.504  0.00  0.00     0.060 C 
BRANCH   7   8
ATOM      8  C2' I4B d   1       2.996  -1.875   0.031  0.00  0.00    -0.013 C 
ATOM      9  C4' I4B d   1       4.124  -1.156   0.725  0.00  0.00     0.013 C 
ATOM     10  C3' I4B d   1       3.053  -3.350   0.292  0.00  0.00     0.013 C 
ENDBRANCH   7   8
ENDBRANCH   1   7
TORSDOF 2
ENDMDL
