MODEL 1
REMARK minimizedAffinity 4.56958818
REMARK minimizedRMSD -1
REMARK  2 active torsions:
REMARK  status: ('A' for Active; 'I' for Inactive)
REMARK    1  A    between atoms: C2'_3  and  C1'_4 
REMARK    2  A    between atoms: C1'_4  and  C1_5 
ROOT
ATOM      1  C1  I4B d   1       0.845   0.958   0.414  0.00  0.00    -0.075 A 
ATOM      2  C2  I4B d   1       1.143  -0.381   0.428  0.00  0.00     0.003 A 
ATOM      3  C3  I4B d   1       0.919  -1.173  -0.725  0.00  0.00     0.002 A 
ATOM      4  C4  I4B d   1       0.353  -0.598  -1.844  0.00  0.00    -0.004 A 
ATOM      5  C5  I4B d   1       0.072   0.765  -1.864  0.00  0.00     0.002 A 
ATOM      6  C6  I4B d   1       0.331   1.551  -0.732  0.00  0.00     0.003 A 
ENDROOT
BRANCH   1   7
ATOM      7  C1' I4B d   1       1.063   1.758   1.660  0.00  0.00     0.060 C 
BRANCH   7   8
ATOM      8  C2' I4B d   1       1.778   0.874   2.662  0.00  0.00    -0.013 C 
ATOM      9  C4' I4B d   1       3.117   1.450   3.040  0.00  0.00     0.013 C 
ATOM     10  C3' I4B d   1       0.893   0.729   3.864  0.00  0.00     0.013 C 
ENDBRANCH   7   8
ENDBRANCH   1   7
TORSDOF 2
ENDMDL
