MODEL 1
REMARK minimizedAffinity 3.2906177
REMARK minimizedRMSD -1
REMARK  2 active torsions:
REMARK  status: ('A' for Active; 'I' for Inactive)
REMARK    1  A    between atoms: C2'_3  and  C1'_4 
REMARK    2  A    between atoms: C1'_4  and  C1_5 
ROOT
ATOM      1  C1  I4B d   1       1.527  -0.175  -0.377  0.00  0.00    -0.075 A 
ATOM      2  C2  I4B d   1       0.515   0.620   0.099  0.00  0.00     0.003 A 
ATOM      3  C3  I4B d   1       0.799   1.664   1.012  0.00  0.00     0.002 A 
ATOM      4  C4  I4B d   1       2.092   1.845   1.458  0.00  0.00    -0.004 A 
ATOM      5  C5  I4B d   1       3.121   1.053   0.956  0.00  0.00     0.002 A 
ATOM      6  C6  I4B d   1       2.839   0.044   0.023  0.00  0.00     0.003 A 
ENDROOT
BRANCH   1   7
ATOM      7  C1' I4B d   1       1.188  -1.290  -1.315  0.00  0.00     0.060 C 
BRANCH   7   8
ATOM      8  C2' I4B d   1       0.024  -2.060  -0.723  0.00  0.00    -0.013 C 
ATOM      9  C4' I4B d   1      -0.662  -2.900  -1.768  0.00  0.00     0.013 C 
ATOM     10  C3' I4B d   1       0.552  -2.910   0.394  0.00  0.00     0.013 C 
ENDBRANCH   7   8
ENDBRANCH   1   7
TORSDOF 2
ENDMDL
