MODEL 1
REMARK minimizedAffinity 1.37021387
REMARK minimizedRMSD -1
REMARK  2 active torsions:
REMARK  status: ('A' for Active; 'I' for Inactive)
REMARK    1  A    between atoms: C2'_3  and  C1'_4 
REMARK    2  A    between atoms: C1'_4  and  C1_5 
ROOT
ATOM      1  C1  I4B d   1       1.442  -0.695  -1.119  0.00  0.00    -0.075 A 
ATOM      2  C2  I4B d   1       2.012  -0.003  -2.158  0.00  0.00     0.003 A 
ATOM      3  C3  I4B d   1       1.879   1.404  -2.236  0.00  0.00     0.002 A 
ATOM      4  C4  I4B d   1       1.131   2.070  -1.286  0.00  0.00    -0.004 A 
ATOM      5  C5  I4B d   1       0.573   1.370  -0.221  0.00  0.00     0.002 A 
ATOM      6  C6  I4B d   1       0.739  -0.020  -0.129  0.00  0.00     0.003 A 
ENDROOT
BRANCH   1   7
ATOM      7  C1' I4B d   1       1.573  -2.185  -1.086  0.00  0.00     0.060 C 
BRANCH   7   8
ATOM      8  C2' I4B d   1       0.312  -2.751  -0.468  0.00  0.00    -0.013 C 
ATOM      9  C4' I4B d   1      -0.545  -3.431  -1.503  0.00  0.00     0.013 C 
ATOM     10  C3' I4B d   1       0.716  -3.709   0.614  0.00  0.00     0.013 C 
ENDBRANCH   7   8
ENDBRANCH   1   7
TORSDOF 2
ENDMDL
