MODEL 1
REMARK minimizedAffinity 8.50679493
REMARK minimizedRMSD -1
REMARK  2 active torsions:
REMARK  status: ('A' for Active; 'I' for Inactive)
REMARK    1  A    between atoms: C2'_3  and  C1'_4 
REMARK    2  A    between atoms: C1'_4  and  C1_5 
ROOT
ATOM      1  C1  I4B d   1       1.877   0.541  -0.043  0.00  0.00    -0.075 A 
ATOM      2  C2  I4B d   1       1.253  -0.597  -0.491  0.00  0.00     0.003 A 
ATOM      3  C3  I4B d   1       0.410  -0.548  -1.627  0.00  0.00     0.002 A 
ATOM      4  C4  I4B d   1       0.180   0.662  -2.251  0.00  0.00    -0.004 A 
ATOM      5  C5  I4B d   1       0.831   1.810  -1.809  0.00  0.00     0.002 A 
ATOM      6  C6  I4B d   1       1.695   1.747  -0.706  0.00  0.00     0.003 A 
ENDROOT
BRANCH   1   7
ATOM      7  C1' I4B d   1       2.735   0.459   1.180  0.00  0.00     0.060 C 
BRANCH   7   8
ATOM      8  C2' I4B d   1       2.026   1.196   2.298  0.00  0.00    -0.013 C 
ATOM      9  C4' I4B d   1       2.881   2.307   2.847  0.00  0.00     0.013 C 
ATOM     10  C3' I4B d   1       0.732   1.725   1.755  0.00  0.00     0.013 C 
ENDBRANCH   7   8
ENDBRANCH   1   7
TORSDOF 2
ENDMDL
