MODEL 1
REMARK minimizedAffinity 6.14193153
REMARK minimizedRMSD -1
REMARK  2 active torsions:
REMARK  status: ('A' for Active; 'I' for Inactive)
REMARK    1  A    between atoms: C2'_3  and  C1'_4 
REMARK    2  A    between atoms: C1'_4  and  C1_5 
ROOT
ATOM      1  C1  I4B d   1       1.037   1.295   0.378  0.00  0.00    -0.075 A 
ATOM      2  C2  I4B d   1       0.925  -0.073   0.329  0.00  0.00     0.003 A 
ATOM      3  C3  I4B d   1       0.955  -0.746  -0.917  0.00  0.00     0.002 A 
ATOM      4  C4  I4B d   1       1.046  -0.014  -2.083  0.00  0.00    -0.004 A 
ATOM      5  C5  I4B d   1       1.182   1.370  -2.030  0.00  0.00     0.002 A 
ATOM      6  C6  I4B d   1       1.190   2.028  -0.792  0.00  0.00     0.003 A 
ENDROOT
BRANCH   1   7
ATOM      7  C1' I4B d   1       0.968   1.976   1.708  0.00  0.00     0.060 C 
BRANCH   7   8
ATOM      8  C2' I4B d   1       2.385   2.277   2.151  0.00  0.00    -0.013 C 
ATOM      9  C4' I4B d   1       2.494   3.666   2.722  0.00  0.00     0.013 C 
ATOM     10  C3' I4B d   1       2.784   1.243   3.162  0.00  0.00     0.013 C 
ENDBRANCH   7   8
ENDBRANCH   1   7
TORSDOF 2
ENDMDL
