MODEL 1
REMARK minimizedAffinity 6.24537897
REMARK minimizedRMSD -1
REMARK  2 active torsions:
REMARK  status: ('A' for Active; 'I' for Inactive)
REMARK    1  A    between atoms: C2'_3  and  C1'_4 
REMARK    2  A    between atoms: C1'_4  and  C1_5 
ROOT
ATOM      1  C1  I4B d   1      -0.706   2.550   0.748  0.00  0.00    -0.075 A 
ATOM      2  C2  I4B d   1      -1.642   2.379  -0.242  0.00  0.00     0.003 A 
ATOM      3  C3  I4B d   1      -2.954   2.885  -0.077  0.00  0.00     0.002 A 
ATOM      4  C4  I4B d   1      -3.299   3.507   1.106  0.00  0.00    -0.004 A 
ATOM      5  C5  I4B d   1      -2.342   3.699   2.099  0.00  0.00     0.002 A 
ATOM      6  C6  I4B d   1      -1.034   3.229   1.914  0.00  0.00     0.003 A 
ENDROOT
BRANCH   1   7
ATOM      7  C1' I4B d   1       0.661   1.974   0.554  0.00  0.00     0.060 C 
BRANCH   7   8
ATOM      8  C2' I4B d   1       0.644   1.149  -0.717  0.00  0.00    -0.013 C 
ATOM      9  C4' I4B d   1       1.562   1.733  -1.758  0.00  0.00     0.013 C 
ATOM     10  C3' I4B d   1       1.047  -0.252  -0.365  0.00  0.00     0.013 C 
ENDBRANCH   7   8
ENDBRANCH   1   7
TORSDOF 2
ENDMDL
