MODEL 1
REMARK minimizedAffinity -0.294091165
REMARK minimizedRMSD -1
REMARK  2 active torsions:
REMARK  status: ('A' for Active; 'I' for Inactive)
REMARK    1  A    between atoms: C2'_3  and  C1'_4 
REMARK    2  A    between atoms: C1'_4  and  C1_5 
ROOT
ATOM      1  C1  I4B d   1       1.724   0.992   0.383  0.00  0.00    -0.075 A 
ATOM      2  C2  I4B d   1       2.878   0.335   0.037  0.00  0.00     0.003 A 
ATOM      3  C3  I4B d   1       4.087   0.610   0.722  0.00  0.00     0.002 A 
ATOM      4  C4  I4B d   1       4.106   1.579   1.705  0.00  0.00    -0.004 A 
ATOM      5  C5  I4B d   1       2.930   2.227   2.069  0.00  0.00     0.002 A 
ATOM      6  C6  I4B d   1       1.728   1.924   1.413  0.00  0.00     0.003 A 
ENDROOT
BRANCH   1   7
ATOM      7  C1' I4B d   1       0.472   0.701  -0.383  0.00  0.00     0.060 C 
BRANCH   7   8
ATOM      8  C2' I4B d   1       0.777   0.870  -1.857  0.00  0.00    -0.013 C 
ATOM      9  C4' I4B d   1       1.365   2.227  -2.141  0.00  0.00     0.013 C 
ATOM     10  C3' I4B d   1       1.720  -0.224  -2.263  0.00  0.00     0.013 C 
ENDBRANCH   7   8
ENDBRANCH   1   7
TORSDOF 2
ENDMDL
