MODEL 1
REMARK minimizedAffinity -5.64817572
REMARK minimizedRMSD -1
REMARK  1 active torsions:
REMARK  status: ('A' for Active; 'I' for Inactive)
REMARK    1  A    between atoms: C1_2  and  C2_3 
ROOT
ATOM      1  C2  UNL d   1      -0.144  -0.546  -0.553  0.00  0.00    -0.076 A 
ATOM      2  C3  UNL d   1      -0.749  -0.671   0.710  0.00  0.00     0.004 A 
ATOM      3  C4  UNL d   1      -0.957  -1.924   1.285  0.00  0.00    -0.003 A 
ATOM      4  C5  UNL d   1      -0.563  -3.072   0.607  0.00  0.00     0.000 A 
ATOM      5  C6  UNL d   1       0.054  -2.966  -0.639  0.00  0.00     0.000 A 
ATOM      6  C7  UNL d   1       0.286  -1.709  -1.226  0.00  0.00    -0.073 A 
ATOM      7  C8  UNL d   1       0.950  -1.654  -2.574  0.00  0.00     0.078 C 
ENDROOT
BRANCH   1   8
ATOM      8  C1  UNL d   1       0.031   0.837  -1.138  0.00  0.00     0.053 C 
ATOM      9  C   UNL d   1       0.288   1.892  -0.073  0.00  0.00     0.018 C 
ENDBRANCH   1   8
TORSDOF 1
ENDMDL
