MODEL 1
REMARK minimizedAffinity 5.01738405
REMARK minimizedRMSD -1
REMARK  1 active torsions:
REMARK  status: ('A' for Active; 'I' for Inactive)
REMARK    1  A    between atoms: C1_2  and  C2_3 
ROOT
ATOM      1  C2  UNL d   1       0.695   5.141   1.775  0.00  0.00    -0.076 A 
ATOM      2  C3  UNL d   1       1.689   4.462   2.499  0.00  0.00     0.004 A 
ATOM      3  C4  UNL d   1       2.658   3.701   1.848  0.00  0.00    -0.003 A 
ATOM      4  C5  UNL d   1       2.649   3.608   0.460  0.00  0.00     0.000 A 
ATOM      5  C6  UNL d   1       1.681   4.290  -0.276  0.00  0.00     0.000 A 
ATOM      6  C7  UNL d   1       0.706   5.074   0.365  0.00  0.00    -0.073 A 
ATOM      7  C8  UNL d   1      -0.318   5.783  -0.478  0.00  0.00     0.078 C 
ENDROOT
BRANCH   1   8
ATOM      8  C1  UNL d   1      -0.347   5.929   2.537  0.00  0.00     0.053 C 
ATOM      9  C   UNL d   1      -0.058   5.985   4.030  0.00  0.00     0.018 C 
ENDBRANCH   1   8
TORSDOF 1
ENDMDL
