MODEL 1
REMARK minimizedAffinity 0.654883742
REMARK minimizedRMSD -1
REMARK  1 active torsions:
REMARK  status: ('A' for Active; 'I' for Inactive)
REMARK    1  A    between atoms: C1_2  and  C2_3 
ROOT
ATOM      1  C2  UNL d   1      -2.371  -0.152   1.363  0.00  0.00    -0.076 A 
ATOM      2  C3  UNL d   1      -2.660  -1.527   1.413  0.00  0.00     0.004 A 
ATOM      3  C4  UNL d   1      -1.908  -2.445   0.681  0.00  0.00    -0.003 A 
ATOM      4  C5  UNL d   1      -0.855  -2.003  -0.112  0.00  0.00     0.000 A 
ATOM      5  C6  UNL d   1      -0.544  -0.644  -0.160  0.00  0.00     0.000 A 
ATOM      6  C7  UNL d   1      -1.281   0.293   0.584  0.00  0.00    -0.073 A 
ATOM      7  C8  UNL d   1      -0.906   1.746   0.490  0.00  0.00     0.078 C 
ENDROOT
BRANCH   1   8
ATOM      8  C1  UNL d   1      -3.238   0.799   2.157  0.00  0.00     0.053 C 
ATOM      9  C   UNL d   1      -3.592   0.255   3.532  0.00  0.00     0.018 C 
ENDBRANCH   1   8
TORSDOF 1
ENDMDL
