MODEL 1
REMARK minimizedAffinity 4.36399698
REMARK minimizedRMSD -1
REMARK  1 active torsions:
REMARK  status: ('A' for Active; 'I' for Inactive)
REMARK    1  A    between atoms: C1_2  and  C2_3 
ROOT
ATOM      1  C2  UNL d   1      -0.370   1.005   0.024  0.00  0.00    -0.076 A 
ATOM      2  C3  UNL d   1      -1.019   0.665   1.224  0.00  0.00     0.004 A 
ATOM      3  C4  UNL d   1      -1.661  -0.564   1.368  0.00  0.00    -0.003 A 
ATOM      4  C5  UNL d   1      -1.663  -1.473   0.316  0.00  0.00     0.000 A 
ATOM      5  C6  UNL d   1      -1.009  -1.159  -0.875  0.00  0.00     0.000 A 
ATOM      6  C7  UNL d   1      -0.343   0.069  -1.032  0.00  0.00    -0.073 A 
ATOM      7  C8  UNL d   1       0.341   0.358  -2.340  0.00  0.00     0.078 C 
ENDROOT
BRANCH   1   8
ATOM      8  C1  UNL d   1       0.286   2.363  -0.084  0.00  0.00     0.053 C 
ATOM      9  C   UNL d   1      -0.159   3.314   1.016  0.00  0.00     0.018 C 
ENDBRANCH   1   8
TORSDOF 1
ENDMDL
