MODEL 1
REMARK minimizedAffinity -5.82672834
REMARK minimizedRMSD -1
REMARK  1 active torsions:
REMARK  status: ('A' for Active; 'I' for Inactive)
REMARK    1  A    between atoms: C1_2  and  C2_3 
ROOT
ATOM      1  C2  UNL d   1      -0.202  -0.696  -0.524  0.00  0.00    -0.076 A 
ATOM      2  C3  UNL d   1      -0.410  -1.069   0.815  0.00  0.00     0.004 A 
ATOM      3  C4  UNL d   1      -0.473  -2.411   1.185  0.00  0.00    -0.003 A 
ATOM      4  C5  UNL d   1      -0.328  -3.403   0.222  0.00  0.00     0.000 A 
ATOM      5  C6  UNL d   1      -0.103  -3.052  -1.109  0.00  0.00     0.000 A 
ATOM      6  C7  UNL d   1      -0.020  -1.703  -1.496  0.00  0.00    -0.073 A 
ATOM      7  C8  UNL d   1       0.218  -1.382  -2.946  0.00  0.00     0.078 C 
ENDROOT
BRANCH   1   8
ATOM      8  C1  UNL d   1      -0.170   0.775  -0.870  0.00  0.00     0.053 C 
ATOM      9  C   UNL d   1       0.586   1.600   0.161  0.00  0.00     0.018 C 
ENDBRANCH   1   8
TORSDOF 1
ENDMDL
