MODEL 1
REMARK minimizedAffinity 9.08971596
REMARK minimizedRMSD -1
REMARK  1 active torsions:
REMARK  status: ('A' for Active; 'I' for Inactive)
REMARK    1  A    between atoms: C1_2  and  C2_3 
ROOT
ATOM      1  C2  UNL d   1       0.186  -0.079   1.545  0.00  0.00    -0.076 A 
ATOM      2  C3  UNL d   1       1.230   0.441   0.760  0.00  0.00     0.004 A 
ATOM      3  C4  UNL d   1       1.066   0.643  -0.609  0.00  0.00    -0.003 A 
ATOM      4  C5  UNL d   1      -0.145   0.329  -1.216  0.00  0.00     0.000 A 
ATOM      5  C6  UNL d   1      -1.198  -0.171  -0.450  0.00  0.00     0.000 A 
ATOM      6  C7  UNL d   1      -1.054  -0.366   0.935  0.00  0.00    -0.073 A 
ATOM      7  C8  UNL d   1      -2.220  -0.913   1.711  0.00  0.00     0.078 C 
ENDROOT
BRANCH   1   8
ATOM      8  C1  UNL d   1       0.431  -0.303   3.020  0.00  0.00     0.053 C 
ATOM      9  C   UNL d   1       1.758  -0.993   3.292  0.00  0.00     0.018 C 
ENDBRANCH   1   8
TORSDOF 1
ENDMDL
