MODEL 1
REMARK minimizedAffinity -3.744941
REMARK minimizedRMSD -1
REMARK  1 active torsions:
REMARK  status: ('A' for Active; 'I' for Inactive)
REMARK    1  A    between atoms: C1_2  and  C2_3 
ROOT
ATOM      1  C2  UNL d   1       0.156  -1.644  -0.794  0.00  0.00    -0.076 A 
ATOM      2  C3  UNL d   1      -0.452  -2.697  -0.088  0.00  0.00     0.004 A 
ATOM      3  C4  UNL d   1      -0.952  -2.503   1.198  0.00  0.00    -0.003 A 
ATOM      4  C5  UNL d   1      -0.855  -1.253   1.799  0.00  0.00     0.000 A 
ATOM      5  C6  UNL d   1      -0.271  -0.193   1.106  0.00  0.00     0.000 A 
ATOM      6  C7  UNL d   1       0.224  -0.367  -0.197  0.00  0.00    -0.073 A 
ATOM      7  C8  UNL d   1       0.849   0.809  -0.895  0.00  0.00     0.078 C 
ENDROOT
BRANCH   1   8
ATOM      8  C1  UNL d   1       0.705  -1.921  -2.175  0.00  0.00     0.053 C 
ATOM      9  C   UNL d   1       0.288  -3.284  -2.706  0.00  0.00     0.018 C 
ENDBRANCH   1   8
TORSDOF 1
ENDMDL
