MODEL 1
REMARK minimizedAffinity -5.23287535
REMARK minimizedRMSD -1
REMARK  1 active torsions:
REMARK  status: ('A' for Active; 'I' for Inactive)
REMARK    1  A    between atoms: C1_2  and  C2_3 
ROOT
ATOM      1  C2  UNL d   1      -0.038  -1.410  -0.143  0.00  0.00    -0.076 A 
ATOM      2  C3  UNL d   1       0.641  -0.418  -0.872  0.00  0.00     0.004 A 
ATOM      3  C4  UNL d   1       0.379   0.935  -0.660  0.00  0.00    -0.003 A 
ATOM      4  C5  UNL d   1      -0.566   1.317   0.285  0.00  0.00     0.000 A 
ATOM      5  C6  UNL d   1      -1.237   0.348   1.030  0.00  0.00     0.000 A 
ATOM      6  C7  UNL d   1      -0.972  -1.020   0.840  0.00  0.00    -0.073 A 
ATOM      7  C8  UNL d   1      -1.729  -2.023   1.667  0.00  0.00     0.078 C 
ENDROOT
BRANCH   1   8
ATOM      8  C1  UNL d   1       0.268  -2.861  -0.436  0.00  0.00     0.053 C 
ATOM      9  C   UNL d   1       0.450  -3.130  -1.921  0.00  0.00     0.018 C 
ENDBRANCH   1   8
TORSDOF 1
ENDMDL
