MODEL 1
REMARK minimizedAffinity -2.21259522
REMARK minimizedRMSD -1
REMARK  1 active torsions:
REMARK  status: ('A' for Active; 'I' for Inactive)
REMARK    1  A    between atoms: C1_2  and  C2_3 
ROOT
ATOM      1  C2  UNL d   1      -0.303  -0.390  -0.136  0.00  0.00    -0.076 A 
ATOM      2  C3  UNL d   1      -0.722  -0.195   1.191  0.00  0.00     0.004 A 
ATOM      3  C4  UNL d   1      -1.181  -1.261   1.963  0.00  0.00    -0.003 A 
ATOM      4  C5  UNL d   1      -1.228  -2.540   1.420  0.00  0.00     0.000 A 
ATOM      5  C6  UNL d   1      -0.799  -2.756   0.111  0.00  0.00     0.000 A 
ATOM      6  C7  UNL d   1      -0.319  -1.694  -0.676  0.00  0.00    -0.073 A 
ATOM      7  C8  UNL d   1       0.124  -1.983  -2.084  0.00  0.00     0.078 C 
ENDROOT
BRANCH   1   8
ATOM      8  C1  UNL d   1       0.159   0.808  -0.934  0.00  0.00     0.053 C 
ATOM      9  C   UNL d   1      -0.011   2.114  -0.174  0.00  0.00     0.018 C 
ENDBRANCH   1   8
TORSDOF 1
ENDMDL
