MODEL 1
REMARK minimizedAffinity 1.98228157
REMARK minimizedRMSD -1
REMARK  1 active torsions:
REMARK  status: ('A' for Active; 'I' for Inactive)
REMARK    1  A    between atoms: C1_2  and  C2_3 
ROOT
ATOM      1  C2  UNL d   1      -0.330  -0.601   2.606  0.00  0.00    -0.076 A 
ATOM      2  C3  UNL d   1       0.134   0.019   1.433  0.00  0.00     0.004 A 
ATOM      3  C4  UNL d   1      -0.732   0.299   0.378  0.00  0.00    -0.003 A 
ATOM      4  C5  UNL d   1      -2.078  -0.036   0.479  0.00  0.00     0.000 A 
ATOM      5  C6  UNL d   1      -2.560  -0.636   1.642  0.00  0.00     0.000 A 
ATOM      6  C7  UNL d   1      -1.703  -0.910   2.721  0.00  0.00    -0.073 A 
ATOM      7  C8  UNL d   1      -2.275  -1.564   3.949  0.00  0.00     0.078 C 
ENDROOT
BRANCH   1   8
ATOM      8  C1  UNL d   1       0.661  -0.905   3.706  0.00  0.00     0.053 C 
ATOM      9  C   UNL d   1       1.795  -1.803   3.237  0.00  0.00     0.018 C 
ENDBRANCH   1   8
TORSDOF 1
ENDMDL
