MODEL 1
REMARK minimizedAffinity -6.06370497
REMARK minimizedRMSD -1
REMARK  1 active torsions:
REMARK  status: ('A' for Active; 'I' for Inactive)
REMARK    1  A    between atoms: C1_2  and  C2_3 
ROOT
ATOM      1  C2  UNL d   1      -1.464  -0.572   1.179  0.00  0.00    -0.076 A 
ATOM      2  C3  UNL d   1      -1.771  -1.934   1.338  0.00  0.00     0.004 A 
ATOM      3  C4  UNL d   1      -0.955  -2.923   0.792  0.00  0.00    -0.003 A 
ATOM      4  C5  UNL d   1       0.184  -2.565   0.079  0.00  0.00     0.000 A 
ATOM      5  C6  UNL d   1       0.514  -1.219  -0.074  0.00  0.00     0.000 A 
ATOM      6  C7  UNL d   1      -0.290  -0.210   0.484  0.00  0.00    -0.073 A 
ATOM      7  C8  UNL d   1       0.110   1.226   0.283  0.00  0.00     0.078 C 
ENDROOT
BRANCH   1   8
ATOM      8  C1  UNL d   1      -2.402   0.456   1.770  0.00  0.00     0.053 C 
ATOM      9  C   UNL d   1      -2.897   0.066   3.154  0.00  0.00     0.018 C 
ENDBRANCH   1   8
TORSDOF 1
ENDMDL
