MODEL 1
REMARK minimizedAffinity -2.97908211
REMARK minimizedRMSD -1
REMARK  1 active torsions:
REMARK  status: ('A' for Active; 'I' for Inactive)
REMARK    1  A    between atoms: C1_2  and  C2_3 
ROOT
ATOM      1  C2  UNL d   1       0.572  -0.716   0.149  0.00  0.00    -0.073 A 
ATOM      2  C3  UNL d   1       0.426   0.518  -0.494  0.00  0.00    -0.002 A 
ATOM      3  C4  UNL d   1       0.643   0.627  -1.868  0.00  0.00     0.004 A 
ATOM      4  C5  UNL d   1       1.002  -0.496  -2.614  0.00  0.00    -0.004 A 
ATOM      5  C6  UNL d   1       1.142  -1.740  -1.991  0.00  0.00    -0.075 A 
ATOM      6  C7  UNL d   1       1.530  -2.958  -2.779  0.00  0.00     0.076 C 
ATOM      7  C8  UNL d   1       0.924  -1.841  -0.611  0.00  0.00     0.001 A 
ENDROOT
BRANCH   1   8
ATOM      8  C1  UNL d   1       0.332  -0.840   1.631  0.00  0.00     0.053 C 
ATOM      9  C   UNL d   1      -0.048   0.491   2.260  0.00  0.00     0.018 C 
ENDBRANCH   1   8
TORSDOF 1
ENDMDL
