MODEL 1
REMARK minimizedAffinity -2.39173341
REMARK minimizedRMSD -1
REMARK  1 active torsions:
REMARK  status: ('A' for Active; 'I' for Inactive)
REMARK    1  A    between atoms: C1_2  and  C2_3 
ROOT
ATOM      1  C2  UNL d   1       0.762   0.220  -0.955  0.00  0.00    -0.073 A 
ATOM      2  C3  UNL d   1       1.593   0.247   0.171  0.00  0.00    -0.002 A 
ATOM      3  C4  UNL d   1       1.057   0.484   1.437  0.00  0.00     0.004 A 
ATOM      4  C5  UNL d   1      -0.314   0.689   1.592  0.00  0.00    -0.004 A 
ATOM      5  C6  UNL d   1      -1.163   0.654   0.480  0.00  0.00    -0.075 A 
ATOM      6  C7  UNL d   1      -2.639   0.874   0.629  0.00  0.00     0.076 C 
ATOM      7  C8  UNL d   1      -0.616   0.418  -0.788  0.00  0.00     0.001 A 
ENDROOT
BRANCH   1   8
ATOM      8  C1  UNL d   1       1.336  -0.042  -2.323  0.00  0.00     0.053 C 
ATOM      9  C   UNL d   1       0.817  -1.340  -2.920  0.00  0.00     0.018 C 
ENDBRANCH   1   8
TORSDOF 1
ENDMDL
