MODEL 1
REMARK minimizedAffinity -4.09277821
REMARK minimizedRMSD -1
REMARK  1 active torsions:
REMARK  status: ('A' for Active; 'I' for Inactive)
REMARK    1  A    between atoms: C1_2  and  C2_3 
ROOT
ATOM      1  C2  UNL d   1       0.482   0.289  -1.311  0.00  0.00    -0.073 A 
ATOM      2  C3  UNL d   1      -0.912   0.414  -1.279  0.00  0.00    -0.002 A 
ATOM      3  C4  UNL d   1      -1.590   0.439  -0.060  0.00  0.00     0.004 A 
ATOM      4  C5  UNL d   1      -0.882   0.346   1.139  0.00  0.00    -0.004 A 
ATOM      5  C6  UNL d   1       0.512   0.232   1.128  0.00  0.00    -0.075 A 
ATOM      6  C7  UNL d   1       1.287   0.129   2.409  0.00  0.00     0.076 C 
ATOM      7  C8  UNL d   1       1.185   0.205  -0.101  0.00  0.00     0.001 A 
ENDROOT
BRANCH   1   8
ATOM      8  C1  UNL d   1       1.219   0.267  -2.625  0.00  0.00     0.053 C 
ATOM      9  C   UNL d   1       1.477  -1.150  -3.111  0.00  0.00     0.018 C 
ENDBRANCH   1   8
TORSDOF 1
ENDMDL
