MODEL 1
REMARK minimizedAffinity -3.1332314
REMARK minimizedRMSD -1
REMARK  1 active torsions:
REMARK  status: ('A' for Active; 'I' for Inactive)
REMARK    1  A    between atoms: C1_2  and  C2_3 
ROOT
ATOM      1  C2  UNL d   1       0.523   0.031  -1.189  0.00  0.00    -0.073 A 
ATOM      2  C3  UNL d   1       1.422   0.138  -0.123  0.00  0.00    -0.002 A 
ATOM      3  C4  UNL d   1       0.953   0.209   1.190  0.00  0.00     0.004 A 
ATOM      4  C5  UNL d   1      -0.416   0.168   1.449  0.00  0.00    -0.004 A 
ATOM      5  C6  UNL d   1      -1.330   0.049   0.397  0.00  0.00    -0.075 A 
ATOM      6  C7  UNL d   1      -2.807   0.005   0.659  0.00  0.00     0.076 C 
ATOM      7  C8  UNL d   1      -0.852  -0.020  -0.918  0.00  0.00     0.001 A 
ENDROOT
BRANCH   1   8
ATOM      8  C1  UNL d   1       1.025  -0.054  -2.608  0.00  0.00     0.053 C 
ATOM      9  C   UNL d   1       1.182  -1.493  -3.072  0.00  0.00     0.018 C 
ENDBRANCH   1   8
TORSDOF 1
ENDMDL
