MODEL 1
REMARK minimizedAffinity -3.51758814
REMARK minimizedRMSD -1
REMARK  1 active torsions:
REMARK  status: ('A' for Active; 'I' for Inactive)
REMARK    1  A    between atoms: C1_2  and  C2_3 
ROOT
ATOM      1  C2  UNL d   1       0.829  -0.058  -0.777  0.00  0.00    -0.073 A 
ATOM      2  C3  UNL d   1       2.141  -0.324  -0.371  0.00  0.00    -0.002 A 
ATOM      3  C4  UNL d   1       2.474  -0.323   0.984  0.00  0.00     0.004 A 
ATOM      4  C5  UNL d   1       1.498  -0.064   1.947  0.00  0.00    -0.004 A 
ATOM      5  C6  UNL d   1       0.178   0.193   1.561  0.00  0.00    -0.075 A 
ATOM      6  C7  UNL d   1      -0.883   0.476   2.584  0.00  0.00     0.076 C 
ATOM      7  C8  UNL d   1      -0.147   0.193   0.198  0.00  0.00     0.001 A 
ENDROOT
BRANCH   1   8
ATOM      8  C1  UNL d   1       0.463  -0.064  -2.239  0.00  0.00     0.053 C 
ATOM      9  C   UNL d   1       1.636  -0.470  -3.117  0.00  0.00     0.018 C 
ENDBRANCH   1   8
TORSDOF 1
ENDMDL
