MODEL 1
REMARK minimizedAffinity -2.39052677
REMARK minimizedRMSD -1
REMARK  1 active torsions:
REMARK  status: ('A' for Active; 'I' for Inactive)
REMARK    1  A    between atoms: C1_2  and  C2_3 
ROOT
ATOM      1  C2  UNL d   1       4.864  -3.758   4.302  0.00  0.00    -0.073 A 
ATOM      2  C3  UNL d   1       5.206  -4.345   5.526  0.00  0.00    -0.002 A 
ATOM      3  C4  UNL d   1       4.505  -5.456   5.995  0.00  0.00     0.004 A 
ATOM      4  C5  UNL d   1       3.461  -5.997   5.243  0.00  0.00    -0.004 A 
ATOM      5  C6  UNL d   1       3.112  -5.432   4.012  0.00  0.00    -0.075 A 
ATOM      6  C7  UNL d   1       1.991  -6.000   3.193  0.00  0.00     0.076 C 
ATOM      7  C8  UNL d   1       3.819  -4.314   3.549  0.00  0.00     0.001 A 
ENDROOT
BRANCH   1   8
ATOM      8  C1  UNL d   1       5.622  -2.562   3.788  0.00  0.00     0.053 C 
ATOM      9  C   UNL d   1       4.692  -1.433   3.373  0.00  0.00     0.018 C 
ENDBRANCH   1   8
TORSDOF 1
ENDMDL
