MODEL 1
REMARK minimizedAffinity -6.1363349
REMARK minimizedRMSD -1
REMARK  1 active torsions:
REMARK  status: ('A' for Active; 'I' for Inactive)
REMARK    1  A    between atoms: C1_2  and  C2_3 
ROOT
ATOM      1  C2  UNL d   1       0.077   0.310  -0.151  0.00  0.00    -0.073 A 
ATOM      2  C3  UNL d   1       1.425   0.492   0.179  0.00  0.00    -0.002 A 
ATOM      3  C4  UNL d   1       1.863   0.293   1.489  0.00  0.00     0.004 A 
ATOM      4  C5  UNL d   1       0.962  -0.096   2.479  0.00  0.00    -0.004 A 
ATOM      5  C6  UNL d   1      -0.387  -0.294   2.167  0.00  0.00    -0.075 A 
ATOM      6  C7  UNL d   1      -1.370  -0.710   3.221  0.00  0.00     0.076 C 
ATOM      7  C8  UNL d   1      -0.820  -0.090   0.850  0.00  0.00     0.001 A 
ENDROOT
BRANCH   1   8
ATOM      8  C1  UNL d   1      -0.399   0.517  -1.565  0.00  0.00     0.053 C 
ATOM      9  C   UNL d   1       0.707   0.279  -2.581  0.00  0.00     0.018 C 
ENDBRANCH   1   8
TORSDOF 1
ENDMDL
