MODEL 1
REMARK minimizedAffinity -1.4317894
REMARK minimizedRMSD -1
REMARK  1 active torsions:
REMARK  status: ('A' for Active; 'I' for Inactive)
REMARK    1  A    between atoms: C1_2  and  C2_3 
ROOT
ATOM      1  C2  UNL d   1       0.307  -0.066  -1.034  0.00  0.00    -0.073 A 
ATOM      2  C3  UNL d   1      -1.045   0.119  -1.341  0.00  0.00    -0.002 A 
ATOM      3  C4  UNL d   1      -1.966   0.400  -0.331  0.00  0.00     0.004 A 
ATOM      4  C5  UNL d   1      -1.543   0.505   0.994  0.00  0.00    -0.004 A 
ATOM      5  C6  UNL d   1      -0.194   0.335   1.320  0.00  0.00    -0.075 A 
ATOM      6  C7  UNL d   1       0.277   0.443   2.741  0.00  0.00     0.076 C 
ATOM      7  C8  UNL d   1       0.724   0.050   0.300  0.00  0.00     0.001 A 
ENDROOT
BRANCH   1   8
ATOM      8  C1  UNL d   1       1.306  -0.364  -2.123  0.00  0.00     0.053 C 
ATOM      9  C   UNL d   1       0.894  -1.563  -2.962  0.00  0.00     0.018 C 
ENDBRANCH   1   8
TORSDOF 1
ENDMDL
