MODEL 1
REMARK minimizedAffinity -3.84631419
REMARK minimizedRMSD -1
REMARK  1 active torsions:
REMARK  status: ('A' for Active; 'I' for Inactive)
REMARK    1  A    between atoms: C1_2  and  C2_3 
ROOT
ATOM      1  C2  UNL d   1       0.566  -0.453  -0.137  0.00  0.00    -0.073 A 
ATOM      2  C3  UNL d   1      -0.284   0.575  -0.561  0.00  0.00    -0.002 A 
ATOM      3  C4  UNL d   1      -0.527   0.772  -1.921  0.00  0.00     0.004 A 
ATOM      4  C5  UNL d   1       0.070  -0.059  -2.869  0.00  0.00    -0.004 A 
ATOM      5  C6  UNL d   1       0.913  -1.099  -2.464  0.00  0.00    -0.075 A 
ATOM      6  C7  UNL d   1       1.564  -2.000  -3.471  0.00  0.00     0.076 C 
ATOM      7  C8  UNL d   1       1.154  -1.289  -1.097  0.00  0.00     0.001 A 
ENDROOT
BRANCH   1   8
ATOM      8  C1  UNL d   1       0.827  -0.674   1.331  0.00  0.00     0.053 C 
ATOM      9  C   UNL d   1      -0.122   0.129   2.206  0.00  0.00     0.018 C 
ENDBRANCH   1   8
TORSDOF 1
ENDMDL
