MODEL 1
REMARK minimizedAffinity -3.70315504
REMARK minimizedRMSD -1
REMARK  0 active torsions:
REMARK  status: ('A' for Active; 'I' for Inactive)
ROOT
ATOM      1  C   UNL d   1      -0.587  -0.045   1.538  0.00  0.00     0.172 C 
ATOM      2  N   UNL d   1      -0.132  -1.183   0.775  0.00  0.00    -0.070 N 
ATOM      3  C1  UNL d   1       0.748  -1.141  -0.273  0.00  0.00    -0.004 A 
ATOM      4  C2  UNL d   1       0.923  -2.430  -0.729  0.00  0.00    -0.047 A 
ATOM      5  C3  UNL d   1       0.120  -3.275   0.072  0.00  0.00    -0.047 A 
ATOM      6  C4  UNL d   1      -0.523  -2.477   0.995  0.00  0.00    -0.004 A 
ENDROOT
TORSDOF 0
ENDMDL
