MODEL 1
REMARK minimizedAffinity -3.0967803
REMARK minimizedRMSD -1
REMARK  0 active torsions:
REMARK  status: ('A' for Active; 'I' for Inactive)
ROOT
ATOM      1  C   UNL d   1      -0.927   0.536   0.432  0.00  0.00     0.172 C 
ATOM      2  N   UNL d   1      -0.318  -0.610  -0.203  0.00  0.00    -0.070 N 
ATOM      3  C1  UNL d   1       0.352  -0.598  -1.397  0.00  0.00    -0.004 A 
ATOM      4  C2  UNL d   1       0.779  -1.883  -1.654  0.00  0.00    -0.047 A 
ATOM      5  C3  UNL d   1       0.351  -2.695  -0.577  0.00  0.00    -0.047 A 
ATOM      6  C4  UNL d   1      -0.326  -1.881   0.307  0.00  0.00    -0.004 A 
ENDROOT
TORSDOF 0
ENDMDL
