MODEL 1
REMARK minimizedAffinity -2.53072238
REMARK minimizedRMSD -1
REMARK  0 active torsions:
REMARK  status: ('A' for Active; 'I' for Inactive)
ROOT
ATOM      1  C   UNL d   1       0.429   1.028  -0.047  0.00  0.00     0.172 C 
ATOM      2  N   UNL d   1       0.001  -0.296   0.341  0.00  0.00    -0.070 N 
ATOM      3  C1  UNL d   1      -1.266  -0.644   0.728  0.00  0.00    -0.004 A 
ATOM      4  C2  UNL d   1      -1.264  -1.992   1.014  0.00  0.00    -0.047 A 
ATOM      5  C3  UNL d   1       0.049  -2.470   0.792  0.00  0.00    -0.047 A 
ATOM      6  C4  UNL d   1       0.811  -1.400   0.376  0.00  0.00    -0.004 A 
ENDROOT
TORSDOF 0
ENDMDL
