MODEL 1
REMARK minimizedAffinity -3.78543353
REMARK minimizedRMSD -1
REMARK  0 active torsions:
REMARK  status: ('A' for Active; 'I' for Inactive)
ROOT
ATOM      1  C   UNL d   1       0.461   1.399   0.307  0.00  0.00     0.172 C 
ATOM      2  N   UNL d   1       0.172  -0.013   0.392  0.00  0.00    -0.070 N 
ATOM      3  C1  UNL d   1       1.023  -1.025   0.036  0.00  0.00    -0.004 A 
ATOM      4  C2  UNL d   1       0.377  -2.220   0.267  0.00  0.00    -0.047 A 
ATOM      5  C3  UNL d   1      -0.907  -1.916   0.778  0.00  0.00    -0.047 A 
ATOM      6  C4  UNL d   1      -1.008  -0.542   0.845  0.00  0.00    -0.004 A 
ENDROOT
TORSDOF 0
ENDMDL
