MODEL 1
REMARK minimizedAffinity -2.76026917
REMARK minimizedRMSD -1
REMARK  0 active torsions:
REMARK  status: ('A' for Active; 'I' for Inactive)
ROOT
ATOM      1  C   UNL d   1       1.425  -2.462   0.063  0.00  0.00     0.172 C 
ATOM      2  N   UNL d   1       0.459  -1.390   0.113  0.00  0.00    -0.070 N 
ATOM      3  C1  UNL d   1       0.664  -0.110  -0.326  0.00  0.00    -0.004 A 
ATOM      4  C2  UNL d   1      -0.494   0.603  -0.104  0.00  0.00    -0.047 A 
ATOM      5  C3  UNL d   1      -1.427  -0.280   0.490  0.00  0.00    -0.047 A 
ATOM      6  C4  UNL d   1      -0.811  -1.507   0.613  0.00  0.00    -0.004 A 
ENDROOT
TORSDOF 0
ENDMDL
