MODEL 1
REMARK minimizedAffinity -3.25458741
REMARK minimizedRMSD -1
REMARK  0 active torsions:
REMARK  status: ('A' for Active; 'I' for Inactive)
ROOT
ATOM      1  C   UNL d   1       0.057   0.582  -0.754  0.00  0.00     0.172 C 
ATOM      2  N   UNL d   1       0.204  -0.826  -1.038  0.00  0.00    -0.070 N 
ATOM      3  C1  UNL d   1       0.040  -1.844  -0.137  0.00  0.00    -0.004 A 
ATOM      4  C2  UNL d   1       0.267  -3.032  -0.797  0.00  0.00    -0.047 A 
ATOM      5  C3  UNL d   1       0.579  -2.718  -2.141  0.00  0.00    -0.047 A 
ATOM      6  C4  UNL d   1       0.533  -1.345  -2.262  0.00  0.00    -0.004 A 
ENDROOT
TORSDOF 0
ENDMDL
