MODEL 1
REMARK minimizedAffinity -3.54852772
REMARK minimizedRMSD -1
REMARK  0 active torsions:
REMARK  status: ('A' for Active; 'I' for Inactive)
ROOT
ATOM      1  C   UNL d   1       0.341  -0.970  -3.015  0.00  0.00     0.172 C 
ATOM      2  N   UNL d   1      -0.027  -0.504  -1.698  0.00  0.00    -0.070 N 
ATOM      3  C1  UNL d   1       0.020  -1.244  -0.548  0.00  0.00    -0.004 A 
ATOM      4  C2  UNL d   1      -0.409  -0.443   0.488  0.00  0.00    -0.047 A 
ATOM      5  C3  UNL d   1      -0.726   0.823  -0.060  0.00  0.00    -0.047 A 
ATOM      6  C4  UNL d   1      -0.481   0.757  -1.415  0.00  0.00    -0.004 A 
ENDROOT
TORSDOF 0
ENDMDL
