MODEL 1
REMARK minimizedAffinity -2.7857523
REMARK minimizedRMSD -1
REMARK  0 active torsions:
REMARK  status: ('A' for Active; 'I' for Inactive)
ROOT
ATOM      1  C   UNL d   1       0.031   0.872  -0.861  0.00  0.00     0.172 C 
ATOM      2  N   UNL d   1      -0.161  -0.341  -0.102  0.00  0.00    -0.070 N 
ATOM      3  C1  UNL d   1       0.645  -1.447  -0.147  0.00  0.00    -0.004 A 
ATOM      4  C2  UNL d   1       0.125  -2.384   0.720  0.00  0.00    -0.047 A 
ATOM      5  C3  UNL d   1      -1.035  -1.822   1.304  0.00  0.00    -0.047 A 
ATOM      6  C4  UNL d   1      -1.189  -0.557   0.778  0.00  0.00    -0.004 A 
ENDROOT
TORSDOF 0
ENDMDL
