MODEL 1
REMARK minimizedAffinity -3.39949703
REMARK minimizedRMSD -1
REMARK  0 active torsions:
REMARK  status: ('A' for Active; 'I' for Inactive)
ROOT
ATOM      1  C   UNL d   1       0.410   0.989  -0.085  0.00  0.00     0.172 C 
ATOM      2  N   UNL d   1      -0.069  -0.318   0.302  0.00  0.00    -0.070 N 
ATOM      3  C1  UNL d   1      -1.208  -0.570   1.019  0.00  0.00    -0.004 A 
ATOM      4  C2  UNL d   1      -1.312  -1.935   1.179  0.00  0.00    -0.047 A 
ATOM      5  C3  UNL d   1      -0.196  -2.523   0.537  0.00  0.00    -0.047 A 
ATOM      6  C4  UNL d   1       0.557  -1.499   0.003  0.00  0.00    -0.004 A 
ENDROOT
TORSDOF 0
ENDMDL
