MODEL 1
REMARK minimizedAffinity -2.05097461
REMARK minimizedRMSD -1
REMARK  0 active torsions:
REMARK  status: ('A' for Active; 'I' for Inactive)
ROOT
ATOM      1  C   UNL d   1       0.321   1.321  -1.145  0.00  0.00     0.172 C 
ATOM      2  N   UNL d   1       0.995   2.452  -0.553  0.00  0.00    -0.070 N 
ATOM      3  C1  UNL d   1       2.271   2.859  -0.835  0.00  0.00    -0.004 A 
ATOM      4  C2  UNL d   1       2.540   3.971  -0.066  0.00  0.00    -0.047 A 
ATOM      5  C3  UNL d   1       1.385   4.241   0.706  0.00  0.00    -0.047 A 
ATOM      6  C4  UNL d   1       0.444   3.286   0.385  0.00  0.00    -0.004 A 
ENDROOT
TORSDOF 0
ENDMDL
