MODEL 1
REMARK minimizedAffinity 0.124727443
REMARK minimizedRMSD -1
REMARK  0 active torsions:
REMARK  status: ('A' for Active; 'I' for Inactive)
ROOT
ATOM      1  C   UNL d   1      -1.054  -1.569   0.422  0.00  0.00     0.172 C 
ATOM      2  N   UNL d   1      -0.416  -0.497  -0.306  0.00  0.00    -0.070 N 
ATOM      3  C1  UNL d   1      -0.311   0.801   0.115  0.00  0.00    -0.004 A 
ATOM      4  C2  UNL d   1       0.363   1.507  -0.858  0.00  0.00    -0.047 A 
ATOM      5  C3  UNL d   1       0.672   0.601  -1.901  0.00  0.00    -0.047 A 
ATOM      6  C4  UNL d   1       0.178  -0.632  -1.533  0.00  0.00    -0.004 A 
ENDROOT
TORSDOF 0
ENDMDL
