MODEL 1
REMARK minimizedAffinity -4.11609459
REMARK minimizedRMSD -1
REMARK  0 active torsions:
REMARK  status: ('A' for Active; 'I' for Inactive)
ROOT
ATOM      1  C   UNL d   1      -0.203  -0.327   0.016  0.00  0.00     0.172 C 
ATOM      2  N   UNL d   1       0.019  -1.623  -0.582  0.00  0.00    -0.070 N 
ATOM      3  C1  UNL d   1      -0.100  -1.919  -1.913  0.00  0.00    -0.004 A 
ATOM      4  C2  UNL d   1       0.193  -3.256  -2.076  0.00  0.00    -0.047 A 
ATOM      5  C3  UNL d   1       0.498  -3.781  -0.798  0.00  0.00    -0.047 A 
ATOM      6  C4  UNL d   1       0.382  -2.749   0.108  0.00  0.00    -0.004 A 
ENDROOT
TORSDOF 0
ENDMDL
