MODEL 1
REMARK minimizedAffinity -3.98536682
REMARK minimizedRMSD -1
REMARK  0 active torsions:
REMARK  status: ('A' for Active; 'I' for Inactive)
ROOT
ATOM      1  C   UNL d   1       0.004   0.951  -0.703  0.00  0.00     0.172 C 
ATOM      2  N   UNL d   1      -0.076  -0.425  -0.271  0.00  0.00    -0.070 N 
ATOM      3  C1  UNL d   1       0.468  -1.499  -0.923  0.00  0.00    -0.004 A 
ATOM      4  C2  UNL d   1       0.173  -2.630  -0.193  0.00  0.00    -0.047 A 
ATOM      5  C3  UNL d   1      -0.576  -2.221   0.937  0.00  0.00    -0.047 A 
ATOM      6  C4  UNL d   1      -0.715  -0.852   0.863  0.00  0.00    -0.004 A 
ENDROOT
TORSDOF 0
ENDMDL
