MODEL 1
REMARK minimizedAffinity -2.52532887
REMARK minimizedRMSD -1
REMARK  0 active torsions:
REMARK  status: ('A' for Active; 'I' for Inactive)
ROOT
ATOM      1  C   UNL d   1      -1.504  -3.023   0.505  0.00  0.00     0.172 C 
ATOM      2  N   UNL d   1      -0.467  -2.039   0.303  0.00  0.00    -0.070 N 
ATOM      3  C1  UNL d   1       0.869  -2.304   0.164  0.00  0.00    -0.004 A 
ATOM      4  C2  UNL d   1       1.522  -1.102  -0.009  0.00  0.00    -0.047 A 
ATOM      5  C3  UNL d   1       0.544  -0.080   0.028  0.00  0.00    -0.047 A 
ATOM      6  C4  UNL d   1      -0.678  -0.688   0.223  0.00  0.00    -0.004 A 
ENDROOT
TORSDOF 0
ENDMDL
