MODEL 1
REMARK minimizedAffinity -4.16957426
REMARK minimizedRMSD -1
REMARK  0 active torsions:
REMARK  status: ('A' for Active; 'I' for Inactive)
ROOT
ATOM      1  C   UNL d   1       0.456  -2.124  -2.855  0.00  0.00     0.172 C 
ATOM      2  N   UNL d   1       0.157  -1.937  -1.454  0.00  0.00    -0.070 N 
ATOM      3  C1  UNL d   1       0.116  -0.735  -0.800  0.00  0.00    -0.004 A 
ATOM      4  C2  UNL d   1      -0.202  -0.982   0.518  0.00  0.00    -0.047 A 
ATOM      5  C3  UNL d   1      -0.357  -2.381   0.661  0.00  0.00    -0.047 A 
ATOM      6  C4  UNL d   1      -0.128  -2.948  -0.575  0.00  0.00    -0.004 A 
ENDROOT
TORSDOF 0
ENDMDL
