MODEL 1
REMARK minimizedAffinity -2.22577834
REMARK minimizedRMSD -1
REMARK  0 active torsions:
REMARK  status: ('A' for Active; 'I' for Inactive)
ROOT
ATOM      1  C   UNL d   1       0.356   0.579  -0.415  0.00  0.00     0.172 C 
ATOM      2  N   UNL d   1       0.204  -0.818  -0.082  0.00  0.00    -0.070 N 
ATOM      3  C1  UNL d   1       1.178  -1.775  -0.189  0.00  0.00    -0.004 A 
ATOM      4  C2  UNL d   1       0.639  -2.974   0.224  0.00  0.00    -0.047 A 
ATOM      5  C3  UNL d   1      -0.705  -2.730   0.591  0.00  0.00    -0.047 A 
ATOM      6  C4  UNL d   1      -0.948  -1.387   0.392  0.00  0.00    -0.004 A 
ENDROOT
TORSDOF 0
ENDMDL
