MODEL 1
REMARK minimizedAffinity -3.82511425
REMARK minimizedRMSD -1
REMARK  0 active torsions:
REMARK  status: ('A' for Active; 'I' for Inactive)
ROOT
ATOM      1  C   UNL d   1      -0.057   1.408  -0.391  0.00  0.00     0.172 C 
ATOM      2  N   UNL d   1      -0.238   0.073   0.127  0.00  0.00    -0.070 N 
ATOM      3  C1  UNL d   1       0.387  -1.055  -0.335  0.00  0.00    -0.004 A 
ATOM      4  C2  UNL d   1      -0.053  -2.120   0.421  0.00  0.00    -0.047 A 
ATOM      5  C3  UNL d   1      -0.975  -1.616   1.368  0.00  0.00    -0.047 A 
ATOM      6  C4  UNL d   1      -1.071  -0.256   1.164  0.00  0.00    -0.004 A 
ENDROOT
TORSDOF 0
ENDMDL
