MODEL 1
REMARK minimizedAffinity -3.7894454
REMARK minimizedRMSD -1
REMARK  0 active torsions:
REMARK  status: ('A' for Active; 'I' for Inactive)
ROOT
ATOM      1  C   UNL d   1      -1.478   0.074   1.872  0.00  0.00     0.172 C 
ATOM      2  N   UNL d   1      -0.756  -0.900   1.089  0.00  0.00    -0.070 N 
ATOM      3  C1  UNL d   1      -1.003  -2.247   1.065  0.00  0.00    -0.004 A 
ATOM      4  C2  UNL d   1      -0.103  -2.826   0.197  0.00  0.00    -0.047 A 
ATOM      5  C3  UNL d   1       0.714  -1.791  -0.318  0.00  0.00    -0.047 A 
ATOM      6  C4  UNL d   1       0.287  -0.610   0.250  0.00  0.00    -0.004 A 
ENDROOT
TORSDOF 0
ENDMDL
