MODEL 1
REMARK minimizedAffinity 11.6059589
REMARK minimizedRMSD -1
REMARK  1 active torsions:
REMARK  status: ('A' for Active; 'I' for Inactive)
REMARK    1  A    between atoms: C1_2  and  C2_3 
ROOT
ATOM      1  C2  UNL d   1       3.017   2.105  -3.110  0.00  0.00    -0.076 A 
ATOM      2  C3  UNL d   1       3.637   3.304  -3.502  0.00  0.00     0.004 A 
ATOM      3  C4  UNL d   1       4.115   3.473  -4.801  0.00  0.00    -0.003 A 
ATOM      4  C5  UNL d   1       3.980   2.445  -5.728  0.00  0.00     0.000 A 
ATOM      5  C6  UNL d   1       3.352   1.256  -5.361  0.00  0.00     0.000 A 
ATOM      6  C7  UNL d   1       2.850   1.075  -4.061  0.00  0.00    -0.073 A 
ATOM      7  C8  UNL d   1       2.187  -0.231  -3.718  0.00  0.00     0.078 C 
ENDROOT
BRANCH   1   8
ATOM      8  C1  UNL d   1       2.543   1.969  -1.681  0.00  0.00     0.053 C 
ATOM      9  C   UNL d   1       2.313   3.315  -1.013  0.00  0.00     0.018 C 
ENDBRANCH   1   8
TORSDOF 1
ENDMDL
