MODEL 1
REMARK minimizedAffinity 16.0947838
REMARK minimizedRMSD -1
REMARK  1 active torsions:
REMARK  status: ('A' for Active; 'I' for Inactive)
REMARK    1  A    between atoms: C1_2  and  C2_3 
ROOT
ATOM      1  C2  UNL d   1       3.635   3.354  -5.525  0.00  0.00    -0.076 A 
ATOM      2  C3  UNL d   1       2.404   3.982  -5.781  0.00  0.00     0.004 A 
ATOM      3  C4  UNL d   1       2.158   5.283  -5.344  0.00  0.00    -0.003 A 
ATOM      4  C5  UNL d   1       3.140   5.976  -4.645  0.00  0.00     0.000 A 
ATOM      5  C6  UNL d   1       4.374   5.375  -4.398  0.00  0.00     0.000 A 
ATOM      6  C7  UNL d   1       4.644   4.070  -4.846  0.00  0.00    -0.073 A 
ATOM      7  C8  UNL d   1       5.989   3.468  -4.547  0.00  0.00     0.078 C 
ENDROOT
BRANCH   1   8
ATOM      8  C1  UNL d   1       3.835   1.932  -6.000  0.00  0.00     0.053 C 
ATOM      9  C   UNL d   1       2.542   1.130  -5.997  0.00  0.00     0.018 C 
ENDBRANCH   1   8
TORSDOF 1
ENDMDL
