MODEL 1
REMARK minimizedAffinity 13.7615938
REMARK minimizedRMSD -1
REMARK  1 active torsions:
REMARK  status: ('A' for Active; 'I' for Inactive)
REMARK    1  A    between atoms: C1_2  and  C2_3 
ROOT
ATOM      1  C2  UNL d   1      -0.243  -2.384  -5.641  0.00  0.00    -0.076 A 
ATOM      2  C3  UNL d   1      -0.259  -3.784  -5.767  0.00  0.00     0.004 A 
ATOM      3  C4  UNL d   1      -1.456  -4.475  -5.945  0.00  0.00    -0.003 A 
ATOM      4  C5  UNL d   1      -2.657  -3.777  -6.000  0.00  0.00     0.000 A 
ATOM      5  C6  UNL d   1      -2.659  -2.387  -5.894  0.00  0.00     0.000 A 
ATOM      6  C7  UNL d   1      -1.459  -1.674  -5.731  0.00  0.00    -0.073 A 
ATOM      7  C8  UNL d   1      -1.520  -0.175  -5.616  0.00  0.00     0.078 C 
ENDROOT
BRANCH   1   8
ATOM      8  C1  UNL d   1       1.083  -1.692  -5.423  0.00  0.00     0.053 C 
ATOM      9  C   UNL d   1       1.234  -1.152  -4.010  0.00  0.00     0.018 C 
ENDBRANCH   1   8
TORSDOF 1
ENDMDL
