MODEL 1
REMARK minimizedAffinity 13.9341526
REMARK minimizedRMSD -1
REMARK  1 active torsions:
REMARK  status: ('A' for Active; 'I' for Inactive)
REMARK    1  A    between atoms: C1_2  and  C2_3 
ROOT
ATOM      1  C2  UNL d   1       0.286  -1.240  -4.260  0.00  0.00    -0.076 A 
ATOM      2  C3  UNL d   1       0.152  -2.580  -3.856  0.00  0.00     0.004 A 
ATOM      3  C4  UNL d   1      -0.730  -3.441  -4.507  0.00  0.00    -0.003 A 
ATOM      4  C5  UNL d   1      -1.491  -2.977  -5.573  0.00  0.00     0.000 A 
ATOM      5  C6  UNL d   1      -1.358  -1.656  -6.000  0.00  0.00     0.000 A 
ATOM      6  C7  UNL d   1      -0.461  -0.779  -5.364  0.00  0.00    -0.073 A 
ATOM      7  C8  UNL d   1      -0.362   0.637  -5.862  0.00  0.00     0.078 C 
ENDROOT
BRANCH   1   8
ATOM      8  C1  UNL d   1       1.239  -0.346  -3.499  0.00  0.00     0.053 C 
ATOM      9  C   UNL d   1       2.628  -0.315  -4.116  0.00  0.00     0.018 C 
ENDBRANCH   1   8
TORSDOF 1
ENDMDL
