MODEL 1
REMARK minimizedAffinity 13.400754
REMARK minimizedRMSD -1
REMARK  1 active torsions:
REMARK  status: ('A' for Active; 'I' for Inactive)
REMARK    1  A    between atoms: C1_2  and  C2_3 
ROOT
ATOM      1  C2  UNL d   1       0.393   0.567  -1.879  0.00  0.00    -0.076 A 
ATOM      2  C3  UNL d   1       0.008  -0.583  -2.591  0.00  0.00     0.004 A 
ATOM      3  C4  UNL d   1       0.937  -1.316  -3.327  0.00  0.00    -0.003 A 
ATOM      4  C5  UNL d   1       2.267  -0.913  -3.362  0.00  0.00     0.000 A 
ATOM      5  C6  UNL d   1       2.671   0.215  -2.648  0.00  0.00     0.000 A 
ATOM      6  C7  UNL d   1       1.750   0.956  -1.888  0.00  0.00    -0.073 A 
ATOM      7  C8  UNL d   1       2.239   2.167  -1.142  0.00  0.00     0.078 C 
ENDROOT
BRANCH   1   8
ATOM      8  C1  UNL d   1      -0.663   1.338  -1.121  0.00  0.00     0.053 C 
ATOM      9  C   UNL d   1      -1.022   0.685   0.204  0.00  0.00     0.018 C 
ENDBRANCH   1   8
TORSDOF 1
ENDMDL
