MODEL 1
REMARK minimizedAffinity 12.7779779
REMARK minimizedRMSD -1
REMARK  1 active torsions:
REMARK  status: ('A' for Active; 'I' for Inactive)
REMARK    1  A    between atoms: C1_2  and  C2_3 
ROOT
ATOM      1  C2  UNL d   1      -5.287  -3.570  -1.489  0.00  0.00    -0.076 A 
ATOM      2  C3  UNL d   1      -5.562  -4.787  -2.137  0.00  0.00     0.004 A 
ATOM      3  C4  UNL d   1      -5.065  -5.992  -1.643  0.00  0.00    -0.003 A 
ATOM      4  C5  UNL d   1      -4.285  -5.999  -0.492  0.00  0.00     0.000 A 
ATOM      5  C6  UNL d   1      -4.016  -4.804   0.174  0.00  0.00     0.000 A 
ATOM      6  C7  UNL d   1      -4.523  -3.582  -0.302  0.00  0.00    -0.073 A 
ATOM      7  C8  UNL d   1      -4.197  -2.322   0.452  0.00  0.00     0.078 C 
ENDROOT
BRANCH   1   8
ATOM      8  C1  UNL d   1      -5.830  -2.292  -2.087  0.00  0.00     0.053 C 
ATOM      9  C   UNL d   1      -5.054  -1.849  -3.318  0.00  0.00     0.018 C 
ENDBRANCH   1   8
TORSDOF 1
ENDMDL
