MODEL 1
REMARK minimizedAffinity 14.257781
REMARK minimizedRMSD -1
REMARK  1 active torsions:
REMARK  status: ('A' for Active; 'I' for Inactive)
REMARK    1  A    between atoms: C1_2  and  C2_3 
ROOT
ATOM      1  C2  UNL d   1       3.248   2.470  -2.992  0.00  0.00    -0.076 A 
ATOM      2  C3  UNL d   1       4.203   2.691  -3.999  0.00  0.00     0.004 A 
ATOM      3  C4  UNL d   1       4.372   3.954  -4.564  0.00  0.00    -0.003 A 
ATOM      4  C5  UNL d   1       3.589   5.018  -4.129  0.00  0.00     0.000 A 
ATOM      5  C6  UNL d   1       2.649   4.821  -3.118  0.00  0.00     0.000 A 
ATOM      6  C7  UNL d   1       2.477   3.557  -2.528  0.00  0.00    -0.073 A 
ATOM      7  C8  UNL d   1       1.443   3.400  -1.446  0.00  0.00     0.078 C 
ENDROOT
BRANCH   1   8
ATOM      8  C1  UNL d   1       3.090   1.072  -2.437  0.00  0.00     0.053 C 
ATOM      9  C   UNL d   1       2.130   0.224  -3.257  0.00  0.00     0.018 C 
ENDBRANCH   1   8
TORSDOF 1
ENDMDL
