MODEL 1
REMARK minimizedAffinity 15.065156
REMARK minimizedRMSD -1
REMARK  1 active torsions:
REMARK  status: ('A' for Active; 'I' for Inactive)
REMARK    1  A    between atoms: C1_2  and  C2_3 
ROOT
ATOM      1  C2  UNL d   1       2.913   3.660  -3.410  0.00  0.00    -0.076 A 
ATOM      2  C3  UNL d   1       1.574   3.577  -3.830  0.00  0.00     0.004 A 
ATOM      3  C4  UNL d   1       1.200   3.970  -5.114  0.00  0.00    -0.003 A 
ATOM      4  C5  UNL d   1       2.158   4.451  -5.999  0.00  0.00     0.000 A 
ATOM      5  C6  UNL d   1       3.494   4.523  -5.606  0.00  0.00     0.000 A 
ATOM      6  C7  UNL d   1       3.891   4.116  -4.320  0.00  0.00    -0.073 A 
ATOM      7  C8  UNL d   1       5.344   4.220  -3.947  0.00  0.00     0.078 C 
ENDROOT
BRANCH   1   8
ATOM      8  C1  UNL d   1       3.256   3.245  -1.997  0.00  0.00     0.053 C 
ATOM      9  C   UNL d   1       2.141   2.450  -1.337  0.00  0.00     0.018 C 
ENDBRANCH   1   8
TORSDOF 1
ENDMDL
