MODEL 1
REMARK minimizedAffinity 15.3115578
REMARK minimizedRMSD -1
REMARK  1 active torsions:
REMARK  status: ('A' for Active; 'I' for Inactive)
REMARK    1  A    between atoms: C1_2  and  C2_3 
ROOT
ATOM      1  C2  UNL d   1       2.806   0.795   2.087  0.00  0.00    -0.076 A 
ATOM      2  C3  UNL d   1       2.408  -0.101   3.094  0.00  0.00     0.004 A 
ATOM      3  C4  UNL d   1       1.149  -0.004   3.685  0.00  0.00    -0.003 A 
ATOM      4  C5  UNL d   1       0.267   0.991   3.276  0.00  0.00     0.000 A 
ATOM      5  C6  UNL d   1       0.639   1.877   2.266  0.00  0.00     0.000 A 
ATOM      6  C7  UNL d   1       1.898   1.783   1.649  0.00  0.00    -0.073 A 
ATOM      7  C8  UNL d   1       2.249   2.769   0.569  0.00  0.00     0.078 C 
ENDROOT
BRANCH   1   8
ATOM      8  C1  UNL d   1       4.194   0.658   1.502  0.00  0.00     0.053 C 
ATOM      9  C   UNL d   1       5.084  -0.262   2.324  0.00  0.00     0.018 C 
ENDBRANCH   1   8
TORSDOF 1
ENDMDL
