MODEL 1
REMARK minimizedAffinity 12.312007
REMARK minimizedRMSD -1
REMARK  1 active torsions:
REMARK  status: ('A' for Active; 'I' for Inactive)
REMARK    1  A    between atoms: C1_2  and  C2_3 
ROOT
ATOM      1  C2  UNL d   1      -3.212  -3.684  -5.777  0.00  0.00    -0.076 A 
ATOM      2  C3  UNL d   1      -3.486  -5.063  -5.756  0.00  0.00     0.004 A 
ATOM      3  C4  UNL d   1      -2.460  -6.000  -5.862  0.00  0.00    -0.003 A 
ATOM      4  C5  UNL d   1      -1.142  -5.574  -5.991  0.00  0.00     0.000 A 
ATOM      5  C6  UNL d   1      -0.851  -4.210  -5.996  0.00  0.00     0.000 A 
ATOM      6  C7  UNL d   1      -1.872  -3.252  -5.873  0.00  0.00    -0.073 A 
ATOM      7  C8  UNL d   1      -1.500  -1.795  -5.890  0.00  0.00     0.078 C 
ENDROOT
BRANCH   1   8
ATOM      8  C1  UNL d   1      -4.368  -2.714  -5.685  0.00  0.00     0.053 C 
ATOM      9  C   UNL d   1      -5.182  -2.897  -4.413  0.00  0.00     0.018 C 
ENDBRANCH   1   8
TORSDOF 1
ENDMDL
