MODEL 1
REMARK minimizedAffinity 18.4411373
REMARK minimizedRMSD -1
REMARK  1 active torsions:
REMARK  status: ('A' for Active; 'I' for Inactive)
REMARK    1  A    between atoms: C1_2  and  C2_3 
ROOT
ATOM      1  C2  UNL d   1       3.368   4.723  -4.717  0.00  0.00    -0.076 A 
ATOM      2  C3  UNL d   1       4.454   5.445  -4.191  0.00  0.00     0.004 A 
ATOM      3  C4  UNL d   1       5.757   4.965  -4.306  0.00  0.00    -0.003 A 
ATOM      4  C5  UNL d   1       5.997   3.756  -4.950  0.00  0.00     0.000 A 
ATOM      5  C6  UNL d   1       4.934   3.035  -5.493  0.00  0.00     0.000 A 
ATOM      6  C7  UNL d   1       3.615   3.513  -5.400  0.00  0.00    -0.073 A 
ATOM      7  C8  UNL d   1       2.506   2.692  -5.999  0.00  0.00     0.078 C 
ENDROOT
BRANCH   1   8
ATOM      8  C1  UNL d   1       1.974   5.280  -4.538  0.00  0.00     0.053 C 
ATOM      9  C   UNL d   1       1.468   5.996  -5.781  0.00  0.00     0.018 C 
ENDBRANCH   1   8
TORSDOF 1
ENDMDL
