MODEL 1
REMARK minimizedAffinity 10.3778448
REMARK minimizedRMSD -1
REMARK  0 active torsions:
REMARK  status: ('A' for Active; 'I' for Inactive)
ROOT
ATOM      1  C   UNL d   1      -0.985  -3.228   1.326  0.00  0.00     0.023 A 
ATOM      2  C1  UNL d   1      -1.340  -1.879   1.362  0.00  0.00     0.003 A 
ATOM      3  C2  UNL d   1      -0.350  -0.895   1.328  0.00  0.00     0.048 A 
ATOM      4  C3  UNL d   1       0.992  -1.266   1.257  0.00  0.00     0.023 A 
ATOM      5  C4  UNL d   1       1.352  -2.614   1.220  0.00  0.00     0.048 A 
ATOM      6  C5  UNL d   1       0.359  -3.595   1.255  0.00  0.00     0.003 A 
ATOM      7  I   UNL d   1       2.467   0.197   1.206  0.00  0.00    -0.146 I 
ENDROOT
TORSDOF 0
ENDMDL
