MODEL 1
REMARK minimizedAffinity 10.8711338
REMARK minimizedRMSD -1
REMARK  0 active torsions:
REMARK  status: ('A' for Active; 'I' for Inactive)
ROOT
ATOM      1  C   UNL d   1       0.213  -0.655   3.119  0.00  0.00     0.023 A 
ATOM      2  C1  UNL d   1       0.937  -0.098   2.065  0.00  0.00     0.003 A 
ATOM      3  C2  UNL d   1       2.183  -0.624   1.716  0.00  0.00     0.048 A 
ATOM      4  C3  UNL d   1       2.699  -1.707   2.426  0.00  0.00     0.023 A 
ATOM      5  C4  UNL d   1       1.978  -2.268   3.482  0.00  0.00     0.048 A 
ATOM      6  C5  UNL d   1       0.733  -1.739   3.827  0.00  0.00     0.003 A 
ATOM      7  I   UNL d   1       4.553  -2.492   1.910  0.00  0.00    -0.146 I 
ENDROOT
TORSDOF 0
ENDMDL
