MODEL 1
REMARK minimizedAffinity 9.3244772
REMARK minimizedRMSD -1
REMARK  0 active torsions:
REMARK  status: ('A' for Active; 'I' for Inactive)
ROOT
ATOM      1  C   UNL d   1      -4.231   1.019  -3.711  0.00  0.00     0.023 A 
ATOM      2  C1  UNL d   1      -3.365   0.127  -3.078  0.00  0.00     0.003 A 
ATOM      3  C2  UNL d   1      -2.793   0.461  -1.848  0.00  0.00     0.048 A 
ATOM      4  C3  UNL d   1      -3.092   1.688  -1.257  0.00  0.00     0.023 A 
ATOM      5  C4  UNL d   1      -3.959   2.583  -1.886  0.00  0.00     0.048 A 
ATOM      6  C5  UNL d   1      -4.528   2.245  -3.116  0.00  0.00     0.003 A 
ATOM      7  I   UNL d   1      -2.242   2.187   0.573  0.00  0.00    -0.146 I 
ENDROOT
TORSDOF 0
ENDMDL
