MODEL 1
REMARK minimizedAffinity 12.9363499
REMARK minimizedRMSD -1
REMARK  0 active torsions:
REMARK  status: ('A' for Active; 'I' for Inactive)
ROOT
ATOM      1  C   UNL d   1       5.290   5.992  -5.806  0.00  0.00     0.023 A 
ATOM      2  C1  UNL d   1       3.921   5.723  -5.810  0.00  0.00     0.003 A 
ATOM      3  C2  UNL d   1       3.259   5.449  -4.612  0.00  0.00     0.048 A 
ATOM      4  C3  UNL d   1       3.971   5.446  -3.413  0.00  0.00     0.023 A 
ATOM      5  C4  UNL d   1       5.341   5.715  -3.404  0.00  0.00     0.048 A 
ATOM      6  C5  UNL d   1       5.999   5.988  -4.604  0.00  0.00     0.003 A 
ATOM      7  I   UNL d   1       2.987   5.038  -1.628  0.00  0.00    -0.146 I 
ENDROOT
TORSDOF 0
ENDMDL
