MODEL 1
REMARK minimizedAffinity 5.6244278
REMARK minimizedRMSD -1
REMARK  0 active torsions:
REMARK  status: ('A' for Active; 'I' for Inactive)
ROOT
ATOM      1  C   UNL d   1      -5.316  -6.000  -5.247  0.00  0.00     0.023 A 
ATOM      2  C1  UNL d   1      -4.498  -5.601  -4.190  0.00  0.00     0.003 A 
ATOM      3  C2  UNL d   1      -4.362  -4.245  -3.884  0.00  0.00     0.048 A 
ATOM      4  C3  UNL d   1      -5.047  -3.294  -4.639  0.00  0.00     0.023 A 
ATOM      5  C4  UNL d   1      -5.867  -3.689  -5.698  0.00  0.00     0.048 A 
ATOM      6  C5  UNL d   1      -6.000  -5.045  -6.000  0.00  0.00     0.003 A 
ATOM      7  I   UNL d   1      -4.846  -1.275  -4.186  0.00  0.00    -0.146 I 
ENDROOT
TORSDOF 0
ENDMDL
