MODEL 1
REMARK minimizedAffinity 12.1186552
REMARK minimizedRMSD -1
REMARK  0 active torsions:
REMARK  status: ('A' for Active; 'I' for Inactive)
ROOT
ATOM      1  C   UNL d   1       2.326  -2.275   1.478  0.00  0.00     0.023 A 
ATOM      2  C1  UNL d   1       2.819  -1.256   0.664  0.00  0.00     0.003 A 
ATOM      3  C2  UNL d   1       2.255   0.021   0.722  0.00  0.00     0.048 A 
ATOM      4  C3  UNL d   1       1.199   0.270   1.598  0.00  0.00     0.023 A 
ATOM      5  C4  UNL d   1       0.703  -0.747   2.415  0.00  0.00     0.048 A 
ATOM      6  C5  UNL d   1       1.269  -2.022   2.353  0.00  0.00     0.003 A 
ATOM      7  I   UNL d   1       0.358   2.169   1.687  0.00  0.00    -0.146 I 
ENDROOT
TORSDOF 0
ENDMDL
