MODEL 1
REMARK minimizedAffinity 8.75508595
REMARK minimizedRMSD -1
REMARK  0 active torsions:
REMARK  status: ('A' for Active; 'I' for Inactive)
ROOT
ATOM      1  C   UNL d   1      -1.276   2.837   0.043  0.00  0.00     0.023 A 
ATOM      2  C1  UNL d   1      -2.228   3.289  -0.872  0.00  0.00     0.003 A 
ATOM      3  C2  UNL d   1      -3.533   3.552  -0.451  0.00  0.00     0.048 A 
ATOM      4  C3  UNL d   1      -3.880   3.361   0.886  0.00  0.00     0.023 A 
ATOM      5  C4  UNL d   1      -2.931   2.910   1.805  0.00  0.00     0.048 A 
ATOM      6  C5  UNL d   1      -1.627   2.648   1.379  0.00  0.00     0.003 A 
ATOM      7  I   UNL d   1      -5.822   3.752   1.515  0.00  0.00    -0.146 I 
ENDROOT
TORSDOF 0
ENDMDL
