MODEL 1
REMARK minimizedAffinity 3.40707111
REMARK minimizedRMSD -1
REMARK  0 active torsions:
REMARK  status: ('A' for Active; 'I' for Inactive)
ROOT
ATOM      1  C   UNL d   1      -0.794  -2.985   1.002  0.00  0.00     0.023 A 
ATOM      2  C1  UNL d   1       0.486  -3.431   1.331  0.00  0.00     0.003 A 
ATOM      3  C2  UNL d   1       1.544  -2.523   1.411  0.00  0.00     0.048 A 
ATOM      4  C3  UNL d   1       1.315  -1.170   1.160  0.00  0.00     0.023 A 
ATOM      5  C4  UNL d   1       0.035  -0.719   0.831  0.00  0.00     0.048 A 
ATOM      6  C5  UNL d   1      -1.019  -1.631   0.752  0.00  0.00     0.003 A 
ATOM      7  I   UNL d   1       2.888   0.183   1.278  0.00  0.00    -0.146 I 
ENDROOT
TORSDOF 0
ENDMDL
