MODEL 1
REMARK minimizedAffinity 6.91874838
REMARK minimizedRMSD -1
REMARK  0 active torsions:
REMARK  status: ('A' for Active; 'I' for Inactive)
ROOT
ATOM      1  C   UNL d   1      -1.202  -2.438  -1.683  0.00  0.00     0.023 A 
ATOM      2  C1  UNL d   1       0.162  -2.488  -1.970  0.00  0.00     0.003 A 
ATOM      3  C2  UNL d   1       1.096  -2.167  -0.983  0.00  0.00     0.048 A 
ATOM      4  C3  UNL d   1       0.659  -1.797   0.289  0.00  0.00     0.023 A 
ATOM      5  C4  UNL d   1      -0.705  -1.746   0.580  0.00  0.00     0.048 A 
ATOM      6  C5  UNL d   1      -1.635  -2.067  -0.410  0.00  0.00     0.003 A 
ATOM      7  I   UNL d   1       2.048  -1.319   1.760  0.00  0.00    -0.146 I 
ENDROOT
TORSDOF 0
ENDMDL
