MODEL 1
REMARK minimizedAffinity -3.59895253
REMARK minimizedRMSD -1
REMARK  1 active torsions:
REMARK  status: ('A' for Active; 'I' for Inactive)
REMARK    1  A    between atoms: C1_2  and  C2_3 
ROOT
ATOM      1  C2  UNL d   1      -3.341  -4.482  -5.346  0.00  0.00    -0.076 A 
ATOM      2  C3  UNL d   1      -3.744  -5.759  -4.919  0.00  0.00     0.004 A 
ATOM      3  C4  UNL d   1      -5.049  -5.994  -4.490  0.00  0.00    -0.003 A 
ATOM      4  C5  UNL d   1      -5.973  -4.955  -4.482  0.00  0.00     0.000 A 
ATOM      5  C6  UNL d   1      -5.596  -3.686  -4.919  0.00  0.00     0.000 A 
ATOM      6  C7  UNL d   1      -4.288  -3.436  -5.370  0.00  0.00    -0.073 A 
ATOM      7  C8  UNL d   1      -3.934  -2.047  -5.825  0.00  0.00     0.078 C 
ENDROOT
BRANCH   1   8
ATOM      8  C1  UNL d   1      -1.905  -4.281  -5.775  0.00  0.00     0.053 C 
ATOM      9  C   UNL d   1      -1.044  -5.508  -5.520  0.00  0.00     0.018 C 
ENDBRANCH   1   8
TORSDOF 1
ENDMDL
