MODEL 1
REMARK minimizedAffinity -3.6698432
REMARK minimizedRMSD -1
REMARK  1 active torsions:
REMARK  status: ('A' for Active; 'I' for Inactive)
REMARK    1  A    between atoms: C1_2  and  C2_3 
ROOT
ATOM      1  C2  UNL d   1      -3.724  -4.728  -5.245  0.00  0.00    -0.076 A 
ATOM      2  C3  UNL d   1      -3.010  -3.519  -5.176  0.00  0.00     0.004 A 
ATOM      3  C4  UNL d   1      -3.636  -2.337  -4.784  0.00  0.00    -0.003 A 
ATOM      4  C5  UNL d   1      -4.987  -2.345  -4.453  0.00  0.00     0.000 A 
ATOM      5  C6  UNL d   1      -5.706  -3.539  -4.499  0.00  0.00     0.000 A 
ATOM      6  C7  UNL d   1      -5.086  -4.742  -4.877  0.00  0.00    -0.073 A 
ATOM      7  C8  UNL d   1      -5.911  -5.999  -4.914  0.00  0.00     0.078 C 
ENDROOT
BRANCH   1   8
ATOM      8  C1  UNL d   1      -2.998  -5.972  -5.704  0.00  0.00     0.053 C 
ATOM      9  C   UNL d   1      -1.523  -5.719  -5.978  0.00  0.00     0.018 C 
ENDBRANCH   1   8
TORSDOF 1
ENDMDL
