MODEL 1
REMARK minimizedAffinity -2.3492837
REMARK minimizedRMSD -1
REMARK  1 active torsions:
REMARK  status: ('A' for Active; 'I' for Inactive)
REMARK    1  A    between atoms: C1_2  and  C2_3 
ROOT
ATOM      1  C2  UNL d   1      -3.788  -4.832  -5.015  0.00  0.00    -0.076 A 
ATOM      2  C3  UNL d   1      -3.901  -3.821  -5.984  0.00  0.00     0.004 A 
ATOM      3  C4  UNL d   1      -4.998  -2.961  -6.000  0.00  0.00    -0.003 A 
ATOM      4  C5  UNL d   1      -6.000  -3.099  -5.046  0.00  0.00     0.000 A 
ATOM      5  C6  UNL d   1      -5.896  -4.085  -4.066  0.00  0.00     0.000 A 
ATOM      6  C7  UNL d   1      -4.788  -4.950  -4.026  0.00  0.00    -0.073 A 
ATOM      7  C8  UNL d   1      -4.730  -6.000  -2.951  0.00  0.00     0.078 C 
ENDROOT
BRANCH   1   8
ATOM      8  C1  UNL d   1      -2.589  -5.752  -5.064  0.00  0.00     0.053 C 
ATOM      9  C   UNL d   1      -1.500  -5.240  -5.994  0.00  0.00     0.018 C 
ENDBRANCH   1   8
TORSDOF 1
ENDMDL
