MODEL 1
REMARK minimizedAffinity 0.998269081
REMARK minimizedRMSD -1
REMARK  1 active torsions:
REMARK  status: ('A' for Active; 'I' for Inactive)
REMARK    1  A    between atoms: C1_2  and  C2_3 
ROOT
ATOM      1  C2  UNL d   1      -4.650  -4.310  -4.140  0.00  0.00    -0.076 A 
ATOM      2  C3  UNL d   1      -4.685  -3.019  -3.585  0.00  0.00     0.004 A 
ATOM      3  C4  UNL d   1      -5.353  -1.979  -4.229  0.00  0.00    -0.003 A 
ATOM      4  C5  UNL d   1      -5.997  -2.213  -5.439  0.00  0.00     0.000 A 
ATOM      5  C6  UNL d   1      -5.988  -3.492  -5.995  0.00  0.00     0.000 A 
ATOM      6  C7  UNL d   1      -5.333  -4.555  -5.351  0.00  0.00    -0.073 A 
ATOM      7  C8  UNL d   1      -5.349  -5.912  -5.999  0.00  0.00     0.078 C 
ENDROOT
BRANCH   1   8
ATOM      8  C1  UNL d   1      -3.887  -5.392  -3.410  0.00  0.00     0.053 C 
ATOM      9  C   UNL d   1      -2.527  -5.667  -4.033  0.00  0.00     0.018 C 
ENDBRANCH   1   8
TORSDOF 1
ENDMDL
