MODEL 1
REMARK minimizedAffinity -3.26079607
REMARK minimizedRMSD -1
REMARK  1 active torsions:
REMARK  status: ('A' for Active; 'I' for Inactive)
REMARK    1  A    between atoms: C1_2  and  C2_3 
ROOT
ATOM      1  C2  UNL d   1      -3.852  -3.786  -4.875  0.00  0.00    -0.076 A 
ATOM      2  C3  UNL d   1      -3.865  -5.176  -4.663  0.00  0.00     0.004 A 
ATOM      3  C4  UNL d   1      -4.930  -5.959  -5.104  0.00  0.00    -0.003 A 
ATOM      4  C5  UNL d   1      -6.000  -5.365  -5.765  0.00  0.00     0.000 A 
ATOM      5  C6  UNL d   1      -5.996  -3.991  -6.000  0.00  0.00     0.000 A 
ATOM      6  C7  UNL d   1      -4.922  -3.189  -5.576  0.00  0.00    -0.073 A 
ATOM      7  C8  UNL d   1      -4.972  -1.711  -5.850  0.00  0.00     0.078 C 
ENDROOT
BRANCH   1   8
ATOM      8  C1  UNL d   1      -2.683  -2.984  -4.350  0.00  0.00     0.053 C 
ATOM      9  C   UNL d   1      -2.993  -2.297  -3.030  0.00  0.00     0.018 C 
ENDBRANCH   1   8
TORSDOF 1
ENDMDL
