MODEL 1
REMARK minimizedAffinity -3.41059804
REMARK minimizedRMSD -1
REMARK  1 active torsions:
REMARK  status: ('A' for Active; 'I' for Inactive)
REMARK    1  A    between atoms: C1_2  and  C2_3 
ROOT
ATOM      1  C2  UNL d   1      -4.624  -3.963  -5.189  0.00  0.00    -0.076 A 
ATOM      2  C3  UNL d   1      -3.365  -3.389  -4.938  0.00  0.00     0.004 A 
ATOM      3  C4  UNL d   1      -2.193  -4.111  -5.152  0.00  0.00    -0.003 A 
ATOM      4  C5  UNL d   1      -2.259  -5.419  -5.620  0.00  0.00     0.000 A 
ATOM      5  C6  UNL d   1      -3.499  -5.998  -5.891  0.00  0.00     0.000 A 
ATOM      6  C7  UNL d   1      -4.690  -5.278  -5.697  0.00  0.00    -0.073 A 
ATOM      7  C8  UNL d   1      -6.000  -5.953  -6.000  0.00  0.00     0.078 C 
ENDROOT
BRANCH   1   8
ATOM      8  C1  UNL d   1      -5.863  -3.140  -4.913  0.00  0.00     0.053 C 
ATOM      9  C   UNL d   1      -5.658  -1.662  -5.207  0.00  0.00     0.018 C 
ENDBRANCH   1   8
TORSDOF 1
ENDMDL
