MODEL 1
REMARK minimizedAffinity -1.68066537
REMARK minimizedRMSD -1
REMARK  1 active torsions:
REMARK  status: ('A' for Active; 'I' for Inactive)
REMARK    1  A    between atoms: C1_2  and  C2_3 
ROOT
ATOM      1  C2  UNL d   1      -4.798  -3.694  -5.277  0.00  0.00    -0.076 A 
ATOM      2  C3  UNL d   1      -3.648  -3.330  -5.998  0.00  0.00     0.004 A 
ATOM      3  C4  UNL d   1      -2.509  -4.134  -5.987  0.00  0.00    -0.003 A 
ATOM      4  C5  UNL d   1      -2.503  -5.316  -5.254  0.00  0.00     0.000 A 
ATOM      5  C6  UNL d   1      -3.641  -5.701  -4.546  0.00  0.00     0.000 A 
ATOM      6  C7  UNL d   1      -4.803  -4.910  -4.561  0.00  0.00    -0.073 A 
ATOM      7  C8  UNL d   1      -6.000  -5.371  -3.775  0.00  0.00     0.078 C 
ENDROOT
BRANCH   1   8
ATOM      8  C1  UNL d   1      -5.993  -2.768  -5.305  0.00  0.00     0.053 C 
ATOM      9  C   UNL d   1      -5.999  -1.788  -4.142  0.00  0.00     0.018 C 
ENDBRANCH   1   8
TORSDOF 1
ENDMDL
