MODEL 1
REMARK minimizedAffinity -1.9999752
REMARK minimizedRMSD -1
REMARK  1 active torsions:
REMARK  status: ('A' for Active; 'I' for Inactive)
REMARK    1  A    between atoms: C1_2  and  C2_3 
ROOT
ATOM      1  C2  UNL d   1      -5.279  -3.274  -4.891  0.00  0.00    -0.076 A 
ATOM      2  C3  UNL d   1      -5.815  -4.219  -5.782  0.00  0.00     0.004 A 
ATOM      3  C4  UNL d   1      -5.185  -5.444  -5.994  0.00  0.00    -0.003 A 
ATOM      4  C5  UNL d   1      -4.008  -5.744  -5.318  0.00  0.00     0.000 A 
ATOM      5  C6  UNL d   1      -3.471  -4.825  -4.416  0.00  0.00     0.000 A 
ATOM      6  C7  UNL d   1      -4.103  -3.592  -4.179  0.00  0.00    -0.073 A 
ATOM      7  C8  UNL d   1      -3.477  -2.637  -3.201  0.00  0.00     0.078 C 
ENDROOT
BRANCH   1   8
ATOM      8  C1  UNL d   1      -5.992  -1.952  -4.722  0.00  0.00     0.053 C 
ATOM      9  C   UNL d   1      -6.000  -1.126  -6.000  0.00  0.00     0.018 C 
ENDBRANCH   1   8
TORSDOF 1
ENDMDL
