MODEL 1
REMARK minimizedAffinity 5.06931877
REMARK minimizedRMSD -1
REMARK  1 active torsions:
REMARK  status: ('A' for Active; 'I' for Inactive)
REMARK    1  A    between atoms: C1_2  and  C2_3 
ROOT
ATOM      1  C2  UNL d   1      -3.661  -3.752  -5.744  0.00  0.00    -0.076 A 
ATOM      2  C3  UNL d   1      -2.342  -3.268  -5.693  0.00  0.00     0.004 A 
ATOM      3  C4  UNL d   1      -1.256  -4.137  -5.778  0.00  0.00    -0.003 A 
ATOM      4  C5  UNL d   1      -1.470  -5.504  -5.916  0.00  0.00     0.000 A 
ATOM      5  C6  UNL d   1      -2.772  -6.000  -5.986  0.00  0.00     0.000 A 
ATOM      6  C7  UNL d   1      -3.878  -5.136  -5.918  0.00  0.00    -0.073 A 
ATOM      7  C8  UNL d   1      -5.260  -5.725  -5.992  0.00  0.00     0.078 C 
ENDROOT
BRANCH   1   8
ATOM      8  C1  UNL d   1      -4.800  -2.765  -5.619  0.00  0.00     0.053 C 
ATOM      9  C   UNL d   1      -4.607  -1.795  -4.464  0.00  0.00     0.018 C 
ENDBRANCH   1   8
TORSDOF 1
ENDMDL
