MODEL 1
REMARK minimizedAffinity -2.00165915
REMARK minimizedRMSD -1
REMARK  1 active torsions:
REMARK  status: ('A' for Active; 'I' for Inactive)
REMARK    1  A    between atoms: C1_2  and  C2_3 
ROOT
ATOM      1  C2  UNL d   1      -3.784  -4.639  -5.675  0.00  0.00    -0.076 A 
ATOM      2  C3  UNL d   1      -3.172  -5.887  -5.885  0.00  0.00     0.004 A 
ATOM      3  C4  UNL d   1      -1.788  -5.998  -5.998  0.00  0.00    -0.003 A 
ATOM      4  C5  UNL d   1      -0.991  -4.862  -5.902  0.00  0.00     0.000 A 
ATOM      5  C6  UNL d   1      -1.579  -3.618  -5.676  0.00  0.00     0.000 A 
ATOM      6  C7  UNL d   1      -2.973  -3.491  -5.543  0.00  0.00    -0.073 A 
ATOM      7  C8  UNL d   1      -3.554  -2.124  -5.306  0.00  0.00     0.078 C 
ENDROOT
BRANCH   1   8
ATOM      8  C1  UNL d   1      -5.292  -4.577  -5.588  0.00  0.00     0.053 C 
ATOM      9  C   UNL d   1      -5.952  -5.894  -5.963  0.00  0.00     0.018 C 
ENDBRANCH   1   8
TORSDOF 1
ENDMDL
