MODEL 1
REMARK minimizedAffinity -2.16159225
REMARK minimizedRMSD -1
REMARK  1 active torsions:
REMARK  status: ('A' for Active; 'I' for Inactive)
REMARK    1  A    between atoms: C1_2  and  C2_3 
ROOT
ATOM      1  C2  UNL d   1      -4.727  -3.884  -4.748  0.00  0.00    -0.076 A 
ATOM      2  C3  UNL d   1      -3.500  -3.350  -4.314  0.00  0.00     0.004 A 
ATOM      3  C4  UNL d   1      -2.299  -4.004  -4.582  0.00  0.00    -0.003 A 
ATOM      4  C5  UNL d   1      -2.304  -5.202  -5.288  0.00  0.00     0.000 A 
ATOM      5  C6  UNL d   1      -3.510  -5.737  -5.741  0.00  0.00     0.000 A 
ATOM      6  C7  UNL d   1      -4.729  -5.082  -5.493  0.00  0.00    -0.073 A 
ATOM      7  C8  UNL d   1      -6.000  -5.707  -6.000  0.00  0.00     0.078 C 
ENDROOT
BRANCH   1   8
ATOM      8  C1  UNL d   1      -6.000  -3.144  -4.404  0.00  0.00     0.053 C 
ATOM      9  C   UNL d   1      -5.961  -2.533  -3.012  0.00  0.00     0.018 C 
ENDBRANCH   1   8
TORSDOF 1
ENDMDL
