MODEL 1
REMARK minimizedAffinity -2.76110148
REMARK minimizedRMSD -1
REMARK  1 active torsions:
REMARK  status: ('A' for Active; 'I' for Inactive)
REMARK    1  A    between atoms: C1_2  and  C2_3 
ROOT
ATOM      1  C2  UNL d   1      -4.471  -4.783  -4.728  0.00  0.00    -0.076 A 
ATOM      2  C3  UNL d   1      -3.631  -5.887  -4.500  0.00  0.00     0.004 A 
ATOM      3  C4  UNL d   1      -2.339  -5.925  -5.021  0.00  0.00    -0.003 A 
ATOM      4  C5  UNL d   1      -1.865  -4.860  -5.778  0.00  0.00     0.000 A 
ATOM      5  C6  UNL d   1      -2.678  -3.748  -5.999  0.00  0.00     0.000 A 
ATOM      6  C7  UNL d   1      -3.977  -3.687  -5.467  0.00  0.00    -0.073 A 
ATOM      7  C8  UNL d   1      -4.813  -2.466  -5.742  0.00  0.00     0.078 C 
ENDROOT
BRANCH   1   8
ATOM      8  C1  UNL d   1      -5.872  -4.809  -4.161  0.00  0.00     0.053 C 
ATOM      9  C   UNL d   1      -5.999  -3.994  -2.883  0.00  0.00     0.018 C 
ENDBRANCH   1   8
TORSDOF 1
ENDMDL
