MODEL 1
REMARK minimizedAffinity 0.841697752
REMARK minimizedRMSD -1
REMARK  1 active torsions:
REMARK  status: ('A' for Active; 'I' for Inactive)
REMARK    1  A    between atoms: C1_2  and  C2_3 
ROOT
ATOM      1  C2  UNL d   1      -3.126  -4.826  -4.724  0.00  0.00    -0.076 A 
ATOM      2  C3  UNL d   1      -3.659  -5.613  -5.761  0.00  0.00     0.004 A 
ATOM      3  C4  UNL d   1      -5.032  -5.652  -5.999  0.00  0.00    -0.003 A 
ATOM      4  C5  UNL d   1      -5.894  -4.905  -5.205  0.00  0.00     0.000 A 
ATOM      5  C6  UNL d   1      -5.382  -4.105  -4.184  0.00  0.00     0.000 A 
ATOM      6  C7  UNL d   1      -3.999  -4.042  -3.941  0.00  0.00    -0.073 A 
ATOM      7  C8  UNL d   1      -3.502  -3.168  -2.822  0.00  0.00     0.078 C 
ENDROOT
BRANCH   1   8
ATOM      8  C1  UNL d   1      -1.632  -4.845  -4.496  0.00  0.00     0.053 C 
ATOM      9  C   UNL d   1      -0.892  -5.663  -5.543  0.00  0.00     0.018 C 
ENDBRANCH   1   8
TORSDOF 1
ENDMDL
