MODEL 1
REMARK minimizedAffinity -2.66332889
REMARK minimizedRMSD -1
REMARK  0 active torsions:
REMARK  status: ('A' for Active; 'I' for Inactive)
ROOT
ATOM      1  N1  IND d   1       0.523   0.244  -1.831  0.00  0.00    -0.196 N 
ATOM      2  C2  IND d   1       1.259   1.050  -1.008  0.00  0.00     0.054 A 
ATOM      3  C3  IND d   1       1.869   0.314  -0.051  0.00  0.00    -0.031 A 
ATOM      4  C4  IND d   1       1.880  -2.238   0.291  0.00  0.00     0.051 A 
ATOM      5  C5  IND d   1       1.323  -3.391  -0.187  0.00  0.00    -0.031 A 
ATOM      6  C6  IND d   1       0.457  -3.392  -1.261  0.00  0.00     0.015 A 
ATOM      7  C7  IND d   1       0.121  -2.235  -1.906  0.00  0.00    -0.016 A 
ATOM      8  C8  IND d   1       0.678  -1.062  -1.419  0.00  0.00    -0.047 A 
ATOM      9  C9  IND d   1       1.525  -1.050  -0.304  0.00  0.00    -0.096 A 
ATOM     10  HN1 IND d   1       0.043   0.508  -2.493  0.00  0.00     0.298 HD
ENDROOT
TORSDOF 0
ENDMDL
