MODEL 1
REMARK minimizedAffinity -1.18248606
REMARK minimizedRMSD -1
REMARK  0 active torsions:
REMARK  status: ('A' for Active; 'I' for Inactive)
ROOT
ATOM      1  N1  IND d   1       1.717   2.876   0.766  0.00  0.00    -0.196 N 
ATOM      2  C2  IND d   1       1.579   2.166   1.926  0.00  0.00     0.054 A 
ATOM      3  C3  IND d   1       1.296   0.872   1.654  0.00  0.00    -0.031 A 
ATOM      4  C4  IND d   1       1.116  -0.319  -0.621  0.00  0.00     0.051 A 
ATOM      5  C5  IND d   1       1.128  -0.079  -1.966  0.00  0.00    -0.031 A 
ATOM      6  C6  IND d   1       1.344   1.183  -2.480  0.00  0.00     0.015 A 
ATOM      7  C7  IND d   1       1.569   2.255  -1.664  0.00  0.00    -0.016 A 
ATOM      8  C8  IND d   1       1.550   2.017  -0.297  0.00  0.00    -0.047 A 
ATOM      9  C9  IND d   1       1.289   0.746   0.231  0.00  0.00    -0.096 A 
ATOM     10  HN1 IND d   1       1.881   3.719   0.711  0.00  0.00     0.298 HD
ENDROOT
TORSDOF 0
ENDMDL
