MODEL 1
REMARK minimizedAffinity -1.16646206
REMARK minimizedRMSD -1
REMARK  0 active torsions:
REMARK  status: ('A' for Active; 'I' for Inactive)
ROOT
ATOM      1  N1  IND d   1       1.261   1.401  -2.550  0.00  0.00    -0.196 N 
ATOM      2  C2  IND d   1       2.095   2.279  -1.916  0.00  0.00     0.054 A 
ATOM      3  C3  IND d   1       2.481   1.783  -0.720  0.00  0.00    -0.031 A 
ATOM      4  C4  IND d   1       1.947  -0.495   0.355  0.00  0.00     0.051 A 
ATOM      5  C5  IND d   1       1.196  -1.623   0.172  0.00  0.00    -0.031 A 
ATOM      6  C6  IND d   1       0.415  -1.805  -0.951  0.00  0.00     0.015 A 
ATOM      7  C7  IND d   1       0.364  -0.867  -1.943  0.00  0.00    -0.016 A 
ATOM      8  C8  IND d   1       1.120   0.282  -1.758  0.00  0.00    -0.047 A 
ATOM      9  C9  IND d   1       1.881   0.491  -0.601  0.00  0.00    -0.096 A 
ATOM     10  HN1 IND d   1       0.888   1.525  -3.314  0.00  0.00     0.298 HD
ENDROOT
TORSDOF 0
ENDMDL
