MODEL 1
REMARK minimizedAffinity -4.43464851
REMARK minimizedRMSD -1
REMARK  0 active torsions:
REMARK  status: ('A' for Active; 'I' for Inactive)
ROOT
ATOM      1  N1  IND d   1       1.538   3.869  -1.912  0.00  0.00    -0.196 N 
ATOM      2  C2  IND d   1       1.925   4.270  -0.664  0.00  0.00     0.054 A 
ATOM      3  C3  IND d   1       1.880   3.230   0.199  0.00  0.00    -0.031 A 
ATOM      4  C4  IND d   1       1.298   0.762  -0.243  0.00  0.00     0.051 A 
ATOM      5  C5  IND d   1       0.846  -0.080  -1.221  0.00  0.00    -0.031 A 
ATOM      6  C6  IND d   1       0.599   0.360  -2.505  0.00  0.00     0.015 A 
ATOM      7  C7  IND d   1       0.807   1.661  -2.865  0.00  0.00    -0.016 A 
ATOM      8  C8  IND d   1       1.259   2.521  -1.873  0.00  0.00    -0.047 A 
ATOM      9  C9  IND d   1       1.470   2.089  -0.557  0.00  0.00    -0.096 A 
ATOM     10  HN1 IND d   1       1.478   4.374  -2.606  0.00  0.00     0.298 HD
ENDROOT
TORSDOF 0
ENDMDL
