MODEL 1
REMARK minimizedAffinity 9.7544651
REMARK minimizedRMSD -1
REMARK  0 active torsions:
REMARK  status: ('A' for Active; 'I' for Inactive)
ROOT
ATOM      1  N1  IND d   1      -3.821   2.156   0.215  0.00  0.00    -0.196 N 
ATOM      2  C2  IND d   1      -3.013   3.226  -0.054  0.00  0.00     0.054 A 
ATOM      3  C3  IND d   1      -2.393   3.642   1.073  0.00  0.00    -0.031 A 
ATOM      4  C4  IND d   1      -2.478   2.653   3.448  0.00  0.00     0.051 A 
ATOM      5  C5  IND d   1      -3.106   1.695   4.194  0.00  0.00    -0.031 A 
ATOM      6  C6  IND d   1      -4.020   0.822   3.640  0.00  0.00     0.015 A 
ATOM      7  C7  IND d   1      -4.334   0.868   2.311  0.00  0.00    -0.016 A 
ATOM      8  C8  IND d   1      -3.704   1.844   1.552  0.00  0.00    -0.047 A 
ATOM      9  C9  IND d   1      -2.807   2.760   2.117  0.00  0.00    -0.096 A 
ATOM     10  HN1 IND d   1      -4.318   1.747  -0.355  0.00  0.00     0.298 HD
ENDROOT
TORSDOF 0
ENDMDL
