MODEL 1
REMARK minimizedAffinity 5.07574797
REMARK minimizedRMSD -1
REMARK  0 active torsions:
REMARK  status: ('A' for Active; 'I' for Inactive)
ROOT
ATOM      1  N1  IND d   1       2.347   0.533   1.843  0.00  0.00    -0.196 N 
ATOM      2  C2  IND d   1       2.095   1.837   2.166  0.00  0.00     0.054 A 
ATOM      3  C3  IND d   1       1.394   2.439   1.179  0.00  0.00    -0.031 A 
ATOM      4  C4  IND d   1       0.468   1.448  -1.009  0.00  0.00     0.051 A 
ATOM      5  C5  IND d   1       0.473   0.307  -1.762  0.00  0.00    -0.031 A 
ATOM      6  C6  IND d   1       1.114  -0.841  -1.342  0.00  0.00     0.015 A 
ATOM      7  C7  IND d   1       1.766  -0.894  -0.143  0.00  0.00    -0.016 A 
ATOM      8  C8  IND d   1       1.769   0.264   0.621  0.00  0.00    -0.047 A 
ATOM      9  C9  IND d   1       1.157   1.445   0.181  0.00  0.00    -0.096 A 
ATOM     10  HN1 IND d   1       2.792  -0.026   2.322  0.00  0.00     0.298 HD
ENDROOT
TORSDOF 0
ENDMDL
