MODEL 1
REMARK minimizedAffinity 3.78454947
REMARK minimizedRMSD -1
REMARK  0 active torsions:
REMARK  status: ('A' for Active; 'I' for Inactive)
ROOT
ATOM      1  N1  IND d   1       0.966   1.953  -3.024  0.00  0.00    -0.196 N 
ATOM      2  C2  IND d   1       1.508   3.161  -2.682  0.00  0.00     0.054 A 
ATOM      3  C3  IND d   1       1.941   3.137  -1.401  0.00  0.00    -0.031 A 
ATOM      4  C4  IND d   1       1.954   1.191   0.284  0.00  0.00     0.051 A 
ATOM      5  C5  IND d   1       1.532  -0.099   0.444  0.00  0.00    -0.031 A 
ATOM      6  C6  IND d   1       0.890  -0.786  -0.566  0.00  0.00     0.015 A 
ATOM      7  C7  IND d   1       0.654  -0.209  -1.782  0.00  0.00    -0.016 A 
ATOM      8  C8  IND d   1       1.075   1.103  -1.945  0.00  0.00    -0.047 A 
ATOM      9  C9  IND d   1       1.690   1.820  -0.910  0.00  0.00    -0.096 A 
ATOM     10  HN1 IND d   1       0.617   1.757  -3.784  0.00  0.00     0.298 HD
ENDROOT
TORSDOF 0
ENDMDL
