MODEL 1
REMARK minimizedAffinity -0.933818817
REMARK minimizedRMSD -1
REMARK  0 active torsions:
REMARK  status: ('A' for Active; 'I' for Inactive)
ROOT
ATOM      1  N1  IND d   1       2.342   3.777  -1.893  0.00  0.00    -0.196 N 
ATOM      2  C2  IND d   1       2.498   4.591  -0.806  0.00  0.00     0.054 A 
ATOM      3  C3  IND d   1       2.122   3.947   0.322  0.00  0.00    -0.031 A 
ATOM      4  C4  IND d   1       1.317   1.521   0.628  0.00  0.00     0.051 A 
ATOM      5  C5  IND d   1       0.978   0.401  -0.078  0.00  0.00    -0.031 A 
ATOM      6  C6  IND d   1       1.082   0.347  -1.453  0.00  0.00     0.015 A 
ATOM      7  C7  IND d   1       1.540   1.412  -2.175  0.00  0.00    -0.016 A 
ATOM      8  C8  IND d   1       1.878   2.553  -1.462  0.00  0.00    -0.047 A 
ATOM      9  C9  IND d   1       1.735   2.629  -0.071  0.00  0.00    -0.096 A 
ATOM     10  HN1 IND d   1       2.506   3.993  -2.709  0.00  0.00     0.298 HD
ENDROOT
TORSDOF 0
ENDMDL
