MODEL 1
REMARK minimizedAffinity -2.09563947
REMARK minimizedRMSD -1
REMARK  0 active torsions:
REMARK  status: ('A' for Active; 'I' for Inactive)
ROOT
ATOM      1  N1  IND d   1       1.739   3.657  -0.183  0.00  0.00    -0.196 N 
ATOM      2  C2  IND d   1       1.901   3.900  -1.518  0.00  0.00     0.054 A 
ATOM      3  C3  IND d   1       1.732   2.762  -2.227  0.00  0.00    -0.031 A 
ATOM      4  C4  IND d   1       1.084   0.408  -1.411  0.00  0.00     0.051 A 
ATOM      5  C5  IND d   1       0.864  -0.315  -0.272  0.00  0.00    -0.031 A 
ATOM      6  C6  IND d   1       0.924   0.262   0.980  0.00  0.00     0.015 A 
ATOM      7  C7  IND d   1       1.195   1.591   1.140  0.00  0.00    -0.016 A 
ATOM      8  C8  IND d   1       1.425   2.327  -0.014  0.00  0.00    -0.047 A 
ATOM      9  C9  IND d   1       1.408   1.738  -1.285  0.00  0.00    -0.096 A 
ATOM     10  HN1 IND d   1       1.820   4.238   0.446  0.00  0.00     0.298 HD
ENDROOT
TORSDOF 0
ENDMDL
