MODEL 1
REMARK minimizedAffinity -4.9185133
REMARK minimizedRMSD -1
REMARK  0 active torsions:
REMARK  status: ('A' for Active; 'I' for Inactive)
ROOT
ATOM      1  N1  IND d   1       1.139   1.467   1.345  0.00  0.00    -0.196 N 
ATOM      2  C2  IND d   1      -0.053   1.074   1.886  0.00  0.00     0.054 A 
ATOM      3  C3  IND d   1      -0.761   0.352   0.990  0.00  0.00    -0.031 A 
ATOM      4  C4  IND d   1      -0.114  -0.393  -1.388  0.00  0.00     0.051 A 
ATOM      5  C5  IND d   1       0.862  -0.247  -2.334  0.00  0.00    -0.031 A 
ATOM      6  C6  IND d   1       2.004   0.490  -2.097  0.00  0.00     0.015 A 
ATOM      7  C7  IND d   1       2.219   1.102  -0.895  0.00  0.00    -0.016 A 
ATOM      8  C8  IND d   1       1.228   0.962   0.066  0.00  0.00    -0.047 A 
ATOM      9  C9  IND d   1       0.047   0.251  -0.184  0.00  0.00    -0.096 A 
ATOM     10  HN1 IND d   1       1.734   1.948   1.737  0.00  0.00     0.298 HD
ENDROOT
TORSDOF 0
ENDMDL
