MODEL 1
REMARK minimizedAffinity 9.69929314
REMARK minimizedRMSD -1
REMARK  0 active torsions:
REMARK  status: ('A' for Active; 'I' for Inactive)
ROOT
ATOM      1  N1  IND d   1      -3.077   1.039   4.419  0.00  0.00    -0.196 N 
ATOM      2  C2  IND d   1      -2.054   1.567   5.155  0.00  0.00     0.054 A 
ATOM      3  C3  IND d   1      -1.480   2.596   4.493  0.00  0.00    -0.031 A 
ATOM      4  C4  IND d   1      -2.125   3.650   2.234  0.00  0.00     0.051 A 
ATOM      5  C5  IND d   1      -2.970   3.488   1.172  0.00  0.00    -0.031 A 
ATOM      6  C6  IND d   1      -3.916   2.483   1.139  0.00  0.00     0.015 A 
ATOM      7  C7  IND d   1      -4.059   1.606   2.176  0.00  0.00    -0.016 A 
ATOM      8  C8  IND d   1      -3.197   1.762   3.253  0.00  0.00    -0.047 A 
ATOM      9  C9  IND d   1      -2.208   2.754   3.273  0.00  0.00    -0.096 A 
ATOM     10  HN1 IND d   1      -3.564   0.368   4.646  0.00  0.00     0.298 HD
ENDROOT
TORSDOF 0
ENDMDL
