MODEL 1
REMARK minimizedAffinity 15.4063749
REMARK minimizedRMSD -1
REMARK  0 active torsions:
REMARK  status: ('A' for Active; 'I' for Inactive)
ROOT
ATOM      1  N1  IND d   1       1.680   3.836  -1.842  0.00  0.00    -0.196 N 
ATOM      2  C2  IND d   1       0.968   3.893  -3.007  0.00  0.00     0.054 A 
ATOM      3  C3  IND d   1       0.313   2.729  -3.216  0.00  0.00    -0.031 A 
ATOM      4  C4  IND d   1       0.185   0.634  -1.724  0.00  0.00     0.051 A 
ATOM      5  C5  IND d   1       0.696   0.096  -0.577  0.00  0.00    -0.031 A 
ATOM      6  C6  IND d   1       1.578   0.792   0.225  0.00  0.00     0.015 A 
ATOM      7  C7  IND d   1       1.973   2.062  -0.086  0.00  0.00    -0.016 A 
ATOM      8  C8  IND d   1       1.461   2.609  -1.254  0.00  0.00    -0.047 A 
ATOM      9  C9  IND d   1       0.600   1.892  -2.094  0.00  0.00    -0.096 A 
ATOM     10  HN1 IND d   1       2.180   4.461  -1.528  0.00  0.00     0.298 HD
ENDROOT
TORSDOF 0
ENDMDL
