MODEL 1
REMARK minimizedAffinity 2.30528808
REMARK minimizedRMSD -1
REMARK  0 active torsions:
REMARK  status: ('A' for Active; 'I' for Inactive)
ROOT
ATOM      1  N1  IND d   1      -3.027   0.472   4.498  0.00  0.00    -0.196 N 
ATOM      2  C2  IND d   1      -2.020   0.954   5.288  0.00  0.00     0.054 A 
ATOM      3  C3  IND d   1      -1.375   1.964   4.662  0.00  0.00    -0.031 A 
ATOM      4  C4  IND d   1      -1.868   3.058   2.384  0.00  0.00     0.051 A 
ATOM      5  C5  IND d   1      -2.666   2.937   1.282  0.00  0.00    -0.031 A 
ATOM      6  C6  IND d   1      -3.648   1.971   1.194  0.00  0.00     0.015 A 
ATOM      7  C7  IND d   1      -3.875   1.093   2.216  0.00  0.00    -0.016 A 
ATOM      8  C8  IND d   1      -3.062   1.208   3.334  0.00  0.00    -0.047 A 
ATOM      9  C9  IND d   1      -2.036   2.159   3.411  0.00  0.00    -0.096 A 
ATOM     10  HN1 IND d   1      -3.551  -0.181   4.696  0.00  0.00     0.298 HD
ENDROOT
TORSDOF 0
ENDMDL
