MODEL 1
REMARK minimizedAffinity 7.67407274
REMARK minimizedRMSD -1
REMARK  0 active torsions:
REMARK  status: ('A' for Active; 'I' for Inactive)
ROOT
ATOM      1  N1  IND d   1       2.131   3.204  -0.047  0.00  0.00    -0.196 N 
ATOM      2  C2  IND d   1       1.985   3.654  -1.330  0.00  0.00     0.054 A 
ATOM      3  C3  IND d   1       1.560   2.653  -2.133  0.00  0.00    -0.031 A 
ATOM      4  C4  IND d   1       0.945   0.225  -1.536  0.00  0.00     0.051 A 
ATOM      5  C5  IND d   1       0.951  -0.663  -0.498  0.00  0.00    -0.031 A 
ATOM      6  C6  IND d   1       1.356  -0.300   0.770  0.00  0.00     0.015 A 
ATOM      7  C7  IND d   1       1.762   0.974   1.051  0.00  0.00    -0.016 A 
ATOM      8  C8  IND d   1       1.764   1.877  -0.003  0.00  0.00    -0.047 A 
ATOM      9  C9  IND d   1       1.394   1.504  -1.301  0.00  0.00    -0.096 A 
ATOM     10  HN1 IND d   1       2.407   3.672   0.620  0.00  0.00     0.298 HD
ENDROOT
TORSDOF 0
ENDMDL
