MODEL 1
REMARK minimizedAffinity 8.90577602
REMARK minimizedRMSD -1
REMARK  0 active torsions:
REMARK  status: ('A' for Active; 'I' for Inactive)
ROOT
ATOM      1  N1  IND d   1       1.871   3.427  -0.927  0.00  0.00    -0.196 N 
ATOM      2  C2  IND d   1       1.554   3.522  -2.254  0.00  0.00     0.054 A 
ATOM      3  C3  IND d   1       1.100   2.335  -2.715  0.00  0.00    -0.031 A 
ATOM      4  C4  IND d   1       0.698   0.133  -1.444  0.00  0.00     0.051 A 
ATOM      5  C5  IND d   1       0.874  -0.453  -0.222  0.00  0.00    -0.031 A 
ATOM      6  C6  IND d   1       1.399   0.239   0.850  0.00  0.00     0.015 A 
ATOM      7  C7  IND d   1       1.759   1.553   0.742  0.00  0.00    -0.016 A 
ATOM      8  C8  IND d   1       1.589   2.149  -0.499  0.00  0.00    -0.047 A 
ATOM      9  C9  IND d   1       1.096   1.439  -1.602  0.00  0.00    -0.096 A 
ATOM     10  HN1 IND d   1       2.193   4.060  -0.442  0.00  0.00     0.298 HD
ENDROOT
TORSDOF 0
ENDMDL
