MODEL 1
REMARK minimizedAffinity 3.92406106
REMARK minimizedRMSD -1
REMARK  0 active torsions:
REMARK  status: ('A' for Active; 'I' for Inactive)
ROOT
ATOM      1  N1  IND d   1       1.312  -1.847  -0.272  0.00  0.00    -0.196 N 
ATOM      2  C2  IND d   1       0.808  -2.380  -1.425  0.00  0.00     0.054 A 
ATOM      3  C3  IND d   1       0.407  -1.397  -2.262  0.00  0.00    -0.031 A 
ATOM      4  C4  IND d   1       0.576   1.157  -1.984  0.00  0.00     0.051 A 
ATOM      5  C5  IND d   1       0.931   2.121  -1.083  0.00  0.00    -0.031 A 
ATOM      6  C6  IND d   1       1.443   1.806   0.159  0.00  0.00     0.015 A 
ATOM      7  C7  IND d   1       1.632   0.508   0.543  0.00  0.00    -0.016 A 
ATOM      8  C8  IND d   1       1.266  -0.474  -0.367  0.00  0.00    -0.047 A 
ATOM      9  C9  IND d   1       0.706  -0.160  -1.612  0.00  0.00    -0.096 A 
ATOM     10  HN1 IND d   1       1.607  -2.295   0.401  0.00  0.00     0.298 HD
ENDROOT
TORSDOF 0
ENDMDL
