MODEL 1
REMARK minimizedAffinity 11.4494886
REMARK minimizedRMSD -1
REMARK  2 active torsions:
REMARK  status: ('A' for Active; 'I' for Inactive)
REMARK    1  A    between atoms: C1_2  and  C2_3 
REMARK    2  A    between atoms: C2_3  and  C3_4 
ROOT
ATOM      1  C3  UNL d   1      -1.357   2.664  -0.855  0.00  0.00    -0.075 A 
ATOM      2  C4  UNL d   1      -0.862   2.639   0.456  0.00  0.00     0.002 A 
ATOM      3  C5  UNL d   1       0.429   3.090   0.735  0.00  0.00     0.002 A 
ATOM      4  C6  UNL d   1       1.243   3.560  -0.293  0.00  0.00    -0.004 A 
ATOM      5  C7  UNL d   1       0.767   3.574  -1.603  0.00  0.00     0.002 A 
ATOM      6  C8  UNL d   1      -0.526   3.128  -1.884  0.00  0.00     0.002 A 
ENDROOT
BRANCH   1   7
ATOM      7  C2  UNL d   1      -2.764   2.206  -1.159  0.00  0.00     0.056 C 
BRANCH   7   8
ATOM      8  C1  UNL d   1      -3.169   2.367  -2.628  0.00  0.00     0.007 C 
ATOM      9  C   UNL d   1      -4.433   1.599  -2.989  0.00  0.00     0.009 C 
ENDBRANCH   7   8
ENDBRANCH   1   7
TORSDOF 2
ENDMDL
