MODEL 1
REMARK minimizedAffinity 8.98371315
REMARK minimizedRMSD -1
REMARK  2 active torsions:
REMARK  status: ('A' for Active; 'I' for Inactive)
REMARK    1  A    between atoms: C1_2  and  C2_3 
REMARK    2  A    between atoms: C2_3  and  C3_4 
ROOT
ATOM      1  C3  UNL d   1       0.253   2.833   0.113  0.00  0.00    -0.075 A 
ATOM      2  C4  UNL d   1       1.072   2.237   1.083  0.00  0.00     0.002 A 
ATOM      3  C5  UNL d   1       0.553   1.883   2.329  0.00  0.00     0.002 A 
ATOM      4  C6  UNL d   1      -0.786   2.129   2.624  0.00  0.00    -0.004 A 
ATOM      5  C7  UNL d   1      -1.605   2.737   1.675  0.00  0.00     0.002 A 
ATOM      6  C8  UNL d   1      -1.089   3.088   0.426  0.00  0.00     0.002 A 
ENDROOT
BRANCH   1   7
ATOM      7  C2  UNL d   1       0.801   3.191  -1.247  0.00  0.00     0.056 C 
BRANCH   7   8
ATOM      8  C1  UNL d   1       1.701   4.432  -1.250  0.00  0.00     0.007 C 
ATOM      9  C   UNL d   1       2.762   4.406  -0.158  0.00  0.00     0.009 C 
ENDBRANCH   7   8
ENDBRANCH   1   7
TORSDOF 2
ENDMDL
