MODEL 1
REMARK minimizedAffinity 9.29240894
REMARK minimizedRMSD -1
REMARK  2 active torsions:
REMARK  status: ('A' for Active; 'I' for Inactive)
REMARK    1  A    between atoms: C1_2  and  C2_3 
REMARK    2  A    between atoms: C2_3  and  C3_4 
ROOT
ATOM      1  C3  UNL d   1       0.382   2.856  -0.043  0.00  0.00    -0.075 A 
ATOM      2  C4  UNL d   1       1.069   2.126   0.938  0.00  0.00     0.002 A 
ATOM      3  C5  UNL d   1       0.455   1.819   2.152  0.00  0.00     0.002 A 
ATOM      4  C6  UNL d   1      -0.847   2.246   2.405  0.00  0.00    -0.004 A 
ATOM      5  C7  UNL d   1      -1.533   2.985   1.444  0.00  0.00     0.002 A 
ATOM      6  C8  UNL d   1      -0.923   3.290   0.226  0.00  0.00     0.002 A 
ENDROOT
BRANCH   1   7
ATOM      7  C2  UNL d   1       1.031   3.166  -1.371  0.00  0.00     0.056 C 
BRANCH   7   8
ATOM      8  C1  UNL d   1       1.810   4.485  -1.392  0.00  0.00     0.007 C 
ATOM      9  C   UNL d   1       2.791   4.621  -0.235  0.00  0.00     0.009 C 
ENDBRANCH   7   8
ENDBRANCH   1   7
TORSDOF 2
ENDMDL
