MODEL 1
REMARK minimizedAffinity 11.8793373
REMARK minimizedRMSD -1
REMARK  2 active torsions:
REMARK  status: ('A' for Active; 'I' for Inactive)
REMARK    1  A    between atoms: C1_2  and  C2_3 
REMARK    2  A    between atoms: C2_3  and  C3_4 
ROOT
ATOM      1  C3  UNL d   1       0.785   1.170   0.890  0.00  0.00    -0.075 A 
ATOM      2  C4  UNL d   1       1.640   1.478   1.958  0.00  0.00     0.002 A 
ATOM      3  C5  UNL d   1       2.637   0.583   2.347  0.00  0.00     0.002 A 
ATOM      4  C6  UNL d   1       2.785  -0.633   1.682  0.00  0.00    -0.004 A 
ATOM      5  C7  UNL d   1       1.929  -0.956   0.631  0.00  0.00     0.002 A 
ATOM      6  C8  UNL d   1       0.934  -0.060   0.237  0.00  0.00     0.002 A 
ENDROOT
BRANCH   1   7
ATOM      7  C2  UNL d   1      -0.277   2.148   0.445  0.00  0.00     0.056 C 
BRANCH   7   8
ATOM      8  C1  UNL d   1      -0.123   2.620  -1.004  0.00  0.00     0.007 C 
ATOM      9  C   UNL d   1       0.225   4.098  -1.120  0.00  0.00     0.009 C 
ENDBRANCH   7   8
ENDBRANCH   1   7
TORSDOF 2
ENDMDL
