MODEL 1
REMARK minimizedAffinity 11.6187935
REMARK minimizedRMSD -1
REMARK  2 active torsions:
REMARK  status: ('A' for Active; 'I' for Inactive)
REMARK    1  A    between atoms: C1_2  and  C2_3 
REMARK    2  A    between atoms: C2_3  and  C3_4 
ROOT
ATOM      1  C3  UNL d   1       1.004   2.521   0.745  0.00  0.00    -0.075 A 
ATOM      2  C4  UNL d   1       1.628   3.339  -0.209  0.00  0.00     0.002 A 
ATOM      3  C5  UNL d   1       0.872   3.998  -1.179  0.00  0.00     0.002 A 
ATOM      4  C6  UNL d   1      -0.512   3.840  -1.215  0.00  0.00    -0.004 A 
ATOM      5  C7  UNL d   1      -1.140   3.017  -0.282  0.00  0.00     0.002 A 
ATOM      6  C8  UNL d   1      -0.387   2.360   0.692  0.00  0.00     0.002 A 
ENDROOT
BRANCH   1   7
ATOM      7  C2  UNL d   1       1.813   1.829   1.815  0.00  0.00     0.056 C 
BRANCH   7   8
ATOM      8  C1  UNL d   1       3.069   2.596   2.243  0.00  0.00     0.007 C 
ATOM      9  C   UNL d   1       2.842   3.492   3.453  0.00  0.00     0.009 C 
ENDBRANCH   7   8
ENDBRANCH   1   7
TORSDOF 2
ENDMDL
