MODEL 1
REMARK minimizedAffinity 10.9299355
REMARK minimizedRMSD -1
REMARK  2 active torsions:
REMARK  status: ('A' for Active; 'I' for Inactive)
REMARK    1  A    between atoms: C1_2  and  C2_3 
REMARK    2  A    between atoms: C2_3  and  C3_4 
ROOT
ATOM      1  C3  UNL d   1       1.007  -3.789  -1.363  0.00  0.00    -0.075 A 
ATOM      2  C4  UNL d   1       0.785  -4.862  -2.238  0.00  0.00     0.002 A 
ATOM      3  C5  UNL d   1      -0.112  -4.737  -3.299  0.00  0.00     0.002 A 
ATOM      4  C6  UNL d   1      -0.805  -3.545  -3.493  0.00  0.00    -0.004 A 
ATOM      5  C7  UNL d   1      -0.606  -2.477  -2.620  0.00  0.00     0.002 A 
ATOM      6  C8  UNL d   1       0.295  -2.598  -1.560  0.00  0.00     0.002 A 
ENDROOT
BRANCH   1   7
ATOM      7  C2  UNL d   1       1.998  -3.907  -0.230  0.00  0.00     0.056 C 
BRANCH   7   8
ATOM      8  C1  UNL d   1       3.073  -2.815  -0.226  0.00  0.00     0.007 C 
ATOM      9  C   UNL d   1       4.490  -3.366  -0.317  0.00  0.00     0.009 C 
ENDBRANCH   7   8
ENDBRANCH   1   7
TORSDOF 2
ENDMDL
