MODEL 1
REMARK minimizedAffinity 7.06851196
REMARK minimizedRMSD -1
REMARK  0 active torsions:
REMARK  status: ('A' for Active; 'I' for Inactive)
ROOT
ATOM      1  N1  IND d   1       1.786   0.546   1.485  0.00  0.00    -0.196 N 
ATOM      2  C2  IND d   1       1.570   1.793   2.004  0.00  0.00     0.054 A 
ATOM      3  C3  IND d   1       1.207   2.653   1.026  0.00  0.00    -0.031 A 
ATOM      4  C4  IND d   1       0.806   2.209  -1.478  0.00  0.00     0.051 A 
ATOM      5  C5  IND d   1       0.911   1.233  -2.429  0.00  0.00    -0.031 A 
ATOM      6  C6  IND d   1       1.318  -0.048  -2.117  0.00  0.00     0.015 A 
ATOM      7  C7  IND d   1       1.626  -0.405  -0.835  0.00  0.00    -0.016 A 
ATOM      8  C8  IND d   1       1.528   0.585   0.132  0.00  0.00    -0.047 A 
ATOM      9  C9  IND d   1       1.156   1.897  -0.185  0.00  0.00    -0.096 A 
ATOM     10  HN1 IND d   1       2.040  -0.145   1.928  0.00  0.00     0.298 HD
ENDROOT
TORSDOF 0
ENDMDL
