MODEL 1
REMARK minimizedAffinity 4.41390514
REMARK minimizedRMSD -1
REMARK  0 active torsions:
REMARK  status: ('A' for Active; 'I' for Inactive)
ROOT
ATOM      1  N1  IND d   1       0.741  -0.056   1.266  0.00  0.00    -0.196 N 
ATOM      2  C2  IND d   1       1.117   1.083   1.923  0.00  0.00     0.054 A 
ATOM      3  C3  IND d   1       1.524   2.022   1.040  0.00  0.00    -0.031 A 
ATOM      4  C4  IND d   1       1.563   1.942  -1.533  0.00  0.00     0.051 A 
ATOM      5  C5  IND d   1       1.348   1.100  -2.588  0.00  0.00    -0.031 A 
ATOM      6  C6  IND d   1       0.908  -0.196  -2.408  0.00  0.00     0.015 A 
ATOM      7  C7  IND d   1       0.655  -0.696  -1.163  0.00  0.00    -0.016 A 
ATOM      8  C8  IND d   1       0.879   0.154  -0.089  0.00  0.00    -0.047 A 
ATOM      9  C9  IND d   1       1.366   1.456  -0.262  0.00  0.00    -0.096 A 
ATOM     10  HN1 IND d   1       0.466  -0.781   1.636  0.00  0.00     0.298 HD
ENDROOT
TORSDOF 0
ENDMDL
