MODEL 1
REMARK minimizedAffinity 5.43886328
REMARK minimizedRMSD -1
REMARK  0 active torsions:
REMARK  status: ('A' for Active; 'I' for Inactive)
ROOT
ATOM      1  N1  IND d   1       1.352   0.197  -2.491  0.00  0.00    -0.196 N 
ATOM      2  C2  IND d   1       0.703  -0.882  -1.957  0.00  0.00     0.054 A 
ATOM      3  C3  IND d   1       0.433  -0.668  -0.649  0.00  0.00    -0.031 A 
ATOM      4  C4  IND d   1       0.872   1.420   0.791  0.00  0.00     0.051 A 
ATOM      5  C5  IND d   1       1.473   2.647   0.755  0.00  0.00    -0.031 A 
ATOM      6  C6  IND d   1       2.075   3.130  -0.389  0.00  0.00     0.015 A 
ATOM      7  C7  IND d   1       2.087   2.407  -1.547  0.00  0.00    -0.016 A 
ATOM      8  C8  IND d   1       1.484   1.158  -1.512  0.00  0.00    -0.047 A 
ATOM      9  C9  IND d   1       0.909   0.644  -0.343  0.00  0.00    -0.096 A 
ATOM     10  HN1 IND d   1       1.631   0.264  -3.301  0.00  0.00     0.298 HD
ENDROOT
TORSDOF 0
ENDMDL
