MODEL 1
REMARK minimizedAffinity 2.89268875
REMARK minimizedRMSD -1
REMARK  0 active torsions:
REMARK  status: ('A' for Active; 'I' for Inactive)
ROOT
ATOM      1  N1  IND d   1       0.550  -1.808   0.200  0.00  0.00    -0.196 N 
ATOM      2  C2  IND d   1       0.110  -2.375  -0.963  0.00  0.00     0.054 A 
ATOM      3  C3  IND d   1       0.138  -1.471  -1.968  0.00  0.00    -0.031 A 
ATOM      4  C4  IND d   1       0.963   0.967  -1.951  0.00  0.00     0.051 A 
ATOM      5  C5  IND d   1       1.422   1.943  -1.112  0.00  0.00    -0.031 A 
ATOM      6  C6  IND d   1       1.621   1.714   0.234  0.00  0.00     0.015 A 
ATOM      7  C7  IND d   1       1.377   0.490   0.791  0.00  0.00    -0.016 A 
ATOM      8  C8  IND d   1       0.904  -0.501  -0.056  0.00  0.00    -0.047 A 
ATOM      9  C9  IND d   1       0.660  -0.262  -1.415  0.00  0.00    -0.096 A 
ATOM     10  HN1 IND d   1       0.598  -2.200   0.963  0.00  0.00     0.298 HD
ENDROOT
TORSDOF 0
ENDMDL
