MODEL 1
REMARK minimizedAffinity 9.20405579
REMARK minimizedRMSD -1
REMARK  0 active torsions:
REMARK  status: ('A' for Active; 'I' for Inactive)
ROOT
ATOM      1  N1  IND d   1      -0.191   1.145  -0.810  0.00  0.00    -0.196 N 
ATOM      2  C2  IND d   1       0.069   0.429  -1.945  0.00  0.00     0.054 A 
ATOM      3  C3  IND d   1       1.318  -0.086  -1.900  0.00  0.00    -0.031 A 
ATOM      4  C4  IND d   1       3.069   0.033  -0.017  0.00  0.00     0.051 A 
ATOM      5  C5  IND d   1       3.304   0.607   1.202  0.00  0.00    -0.031 A 
ATOM      6  C6  IND d   1       2.365   1.403   1.825  0.00  0.00     0.015 A 
ATOM      7  C7  IND d   1       1.147   1.647   1.257  0.00  0.00    -0.016 A 
ATOM      8  C8  IND d   1       0.908   1.072   0.016  0.00  0.00    -0.047 A 
ATOM      9  C9  IND d   1       1.873   0.298  -0.641  0.00  0.00    -0.096 A 
ATOM     10  HN1 IND d   1      -0.919   1.570  -0.641  0.00  0.00     0.298 HD
ENDROOT
TORSDOF 0
ENDMDL
