MODEL 1
REMARK minimizedAffinity 8.82370281
REMARK minimizedRMSD -1
REMARK  0 active torsions:
REMARK  status: ('A' for Active; 'I' for Inactive)
ROOT
ATOM      1  N1  IND d   1      -2.705   2.296   3.917  0.00  0.00    -0.196 N 
ATOM      2  C2  IND d   1      -3.276   1.056   3.990  0.00  0.00     0.054 A 
ATOM      3  C3  IND d   1      -3.796   0.706   2.793  0.00  0.00    -0.031 A 
ATOM      4  C4  IND d   1      -3.734   1.969   0.550  0.00  0.00     0.051 A 
ATOM      5  C5  IND d   1      -3.355   3.158  -0.006  0.00  0.00    -0.031 A 
ATOM      6  C6  IND d   1      -2.724   4.140   0.731  0.00  0.00     0.015 A 
ATOM      7  C7  IND d   1      -2.438   3.963   2.055  0.00  0.00    -0.016 A 
ATOM      8  C8  IND d   1      -2.828   2.760   2.625  0.00  0.00    -0.047 A 
ATOM      9  C9  IND d   1      -3.506   1.777   1.893  0.00  0.00    -0.096 A 
ATOM     10  HN1 IND d   1      -2.332   2.716   4.568  0.00  0.00     0.298 HD
ENDROOT
TORSDOF 0
ENDMDL
