MODEL 1
REMARK minimizedAffinity 3.74034047
REMARK minimizedRMSD -1
REMARK  0 active torsions:
REMARK  status: ('A' for Active; 'I' for Inactive)
ROOT
ATOM      1  N1  IND d   1      -0.005   0.753  -0.140  0.00  0.00    -0.196 N 
ATOM      2  C2  IND d   1       0.344   0.027  -1.244  0.00  0.00     0.054 A 
ATOM      3  C3  IND d   1       1.688  -0.100  -1.318  0.00  0.00    -0.031 A 
ATOM      4  C4  IND d   1       3.500   0.714   0.320  0.00  0.00     0.051 A 
ATOM      5  C5  IND d   1       3.671   1.455   1.456  0.00  0.00    -0.031 A 
ATOM      6  C6  IND d   1       2.604   2.008   2.133  0.00  0.00     0.015 A 
ATOM      7  C7  IND d   1       1.319   1.831   1.704  0.00  0.00    -0.016 A 
ATOM      8  C8  IND d   1       1.142   1.086   0.547  0.00  0.00    -0.047 A 
ATOM      9  C9  IND d   1       2.224   0.557  -0.168  0.00  0.00    -0.096 A 
ATOM     10  HN1 IND d   1      -0.806   0.966   0.088  0.00  0.00     0.298 HD
ENDROOT
TORSDOF 0
ENDMDL
