MODEL 1
REMARK minimizedAffinity 0.151147693
REMARK minimizedRMSD -1
REMARK  0 active torsions:
REMARK  status: ('A' for Active; 'I' for Inactive)
ROOT
ATOM      1  N1  IND d   1       2.623   0.412  -1.348  0.00  0.00    -0.196 N 
ATOM      2  C2  IND d   1       1.507   1.157  -1.606  0.00  0.00     0.054 A 
ATOM      3  C3  IND d   1       0.391   0.433  -1.365  0.00  0.00    -0.031 A 
ATOM      4  C4  IND d   1       0.161  -1.960  -0.444  0.00  0.00     0.051 A 
ATOM      5  C5  IND d   1       0.901  -3.054  -0.093  0.00  0.00    -0.031 A 
ATOM      6  C6  IND d   1       2.280  -3.048  -0.139  0.00  0.00     0.015 A 
ATOM      7  C7  IND d   1       2.974  -1.939  -0.531  0.00  0.00    -0.016 A 
ATOM      8  C8  IND d   1       2.227  -0.828  -0.896  0.00  0.00    -0.047 A 
ATOM      9  C9  IND d   1       0.826  -0.842  -0.891  0.00  0.00    -0.096 A 
ATOM     10  HN1 IND d   1       3.435   0.673  -1.450  0.00  0.00     0.298 HD
ENDROOT
TORSDOF 0
ENDMDL
