MODEL 1
REMARK minimizedAffinity 6.15868807
REMARK minimizedRMSD -1
REMARK  0 active torsions:
REMARK  status: ('A' for Active; 'I' for Inactive)
ROOT
ATOM      1  N1  IND d   1       1.784   0.289   1.572  0.00  0.00    -0.196 N 
ATOM      2  C2  IND d   1       1.694   1.579   2.015  0.00  0.00     0.054 A 
ATOM      3  C3  IND d   1       1.339   2.401   1.002  0.00  0.00    -0.031 A 
ATOM      4  C4  IND d   1       0.755   1.829  -1.439  0.00  0.00     0.051 A 
ATOM      5  C5  IND d   1       0.728   0.789  -2.325  0.00  0.00    -0.031 A 
ATOM      6  C6  IND d   1       1.055  -0.498  -1.949  0.00  0.00     0.015 A 
ATOM      7  C7  IND d   1       1.413  -0.795  -0.664  0.00  0.00    -0.016 A 
ATOM      8  C8  IND d   1       1.448   0.260   0.237  0.00  0.00    -0.047 A 
ATOM      9  C9  IND d   1       1.158   1.575  -0.149  0.00  0.00    -0.096 A 
ATOM     10  HN1 IND d   1       2.011  -0.390   2.048  0.00  0.00     0.298 HD
ENDROOT
TORSDOF 0
ENDMDL
