MODEL 1
REMARK minimizedAffinity 1.92325854
REMARK minimizedRMSD -1
REMARK  0 active torsions:
REMARK  status: ('A' for Active; 'I' for Inactive)
ROOT
ATOM      1  N1  IND d   1       1.541   0.360   2.033  0.00  0.00    -0.196 N 
ATOM      2  C2  IND d   1       1.379   1.692   2.291  0.00  0.00     0.054 A 
ATOM      3  C3  IND d   1       0.900   2.328   1.198  0.00  0.00    -0.031 A 
ATOM      4  C4  IND d   1       0.215   1.361  -1.087  0.00  0.00     0.051 A 
ATOM      5  C5  IND d   1       0.215   0.201  -1.810  0.00  0.00    -0.031 A 
ATOM      6  C6  IND d   1       0.663  -0.990  -1.277  0.00  0.00     0.015 A 
ATOM      7  C7  IND d   1       1.120  -1.068   0.008  0.00  0.00    -0.016 A 
ATOM      8  C8  IND d   1       1.128   0.109   0.743  0.00  0.00    -0.047 A 
ATOM      9  C9  IND d   1       0.714   1.329   0.193  0.00  0.00    -0.096 A 
ATOM     10  HN1 IND d   1       1.849  -0.224   2.584  0.00  0.00     0.298 HD
ENDROOT
TORSDOF 0
ENDMDL
