MODEL 1
REMARK minimizedAffinity 2.00955415
REMARK minimizedRMSD -1
REMARK  0 active torsions:
REMARK  status: ('A' for Active; 'I' for Inactive)
ROOT
ATOM      1  N1  IND d   1       0.107  -0.465  -0.519  0.00  0.00    -0.196 N 
ATOM      2  C2  IND d   1       0.864  -1.370  -1.209  0.00  0.00     0.054 A 
ATOM      3  C3  IND d   1       2.180  -1.142  -0.997  0.00  0.00    -0.031 A 
ATOM      4  C4  IND d   1       3.313   0.597   0.527  0.00  0.00     0.051 A 
ATOM      5  C5  IND d   1       3.037   1.667   1.331  0.00  0.00    -0.031 A 
ATOM      6  C6  IND d   1       1.744   2.087   1.567  0.00  0.00     0.015 A 
ATOM      7  C7  IND d   1       0.673   1.444   1.014  0.00  0.00    -0.016 A 
ATOM      8  C8  IND d   1       0.950   0.361   0.191  0.00  0.00    -0.047 A 
ATOM      9  C9  IND d   1       2.262  -0.044  -0.086  0.00  0.00    -0.096 A 
ATOM     10  HN1 IND d   1      -0.752  -0.420  -0.526  0.00  0.00     0.298 HD
ENDROOT
TORSDOF 0
ENDMDL
