MODEL 1
REMARK minimizedAffinity 5.93512964
REMARK minimizedRMSD -1
REMARK  0 active torsions:
REMARK  status: ('A' for Active; 'I' for Inactive)
ROOT
ATOM      1  N1  IND d   1       1.562   3.272  -1.932  0.00  0.00    -0.196 N 
ATOM      2  C2  IND d   1       1.546   4.248  -0.976  0.00  0.00     0.054 A 
ATOM      3  C3  IND d   1       1.339   3.706   0.246  0.00  0.00    -0.031 A 
ATOM      4  C4  IND d   1       1.104   1.232   0.919  0.00  0.00     0.051 A 
ATOM      5  C5  IND d   1       1.017  -0.025   0.389  0.00  0.00    -0.031 A 
ATOM      6  C6  IND d   1       1.111  -0.252  -0.969  0.00  0.00     0.015 A 
ATOM      7  C7  IND d   1       1.309   0.773  -1.851  0.00  0.00    -0.016 A 
ATOM      8  C8  IND d   1       1.391   2.051  -1.317  0.00  0.00    -0.047 A 
ATOM      9  C9  IND d   1       1.253   2.292   0.056  0.00  0.00    -0.096 A 
ATOM     10  HN1 IND d   1       1.662   3.399  -2.777  0.00  0.00     0.298 HD
ENDROOT
TORSDOF 0
ENDMDL
