MODEL 1
REMARK minimizedAffinity 7.29397583
REMARK minimizedRMSD -1
REMARK  0 active torsions:
REMARK  status: ('A' for Active; 'I' for Inactive)
ROOT
ATOM      1  N1  IND d   1       1.128   0.032  -2.447  0.00  0.00    -0.196 N 
ATOM      2  C2  IND d   1       0.964   1.241  -3.064  0.00  0.00     0.054 A 
ATOM      3  C3  IND d   1       0.852   2.226  -2.144  0.00  0.00    -0.031 A 
ATOM      4  C4  IND d   1       1.011   2.095   0.422  0.00  0.00     0.051 A 
ATOM      5  C5  IND d   1       1.118   1.201   1.450  0.00  0.00    -0.031 A 
ATOM      6  C6  IND d   1       1.240  -0.156   1.227  0.00  0.00     0.015 A 
ATOM      7  C7  IND d   1       1.270  -0.670  -0.038  0.00  0.00    -0.016 A 
ATOM      8  C8  IND d   1       1.154   0.234  -1.085  0.00  0.00    -0.047 A 
ATOM      9  C9  IND d   1       0.987   1.607  -0.864  0.00  0.00    -0.096 A 
ATOM     10  HN1 IND d   1       1.203  -0.727  -2.844  0.00  0.00     0.298 HD
ENDROOT
TORSDOF 0
ENDMDL
