MODEL 1
REMARK minimizedAffinity -1.62279594
REMARK minimizedRMSD -1
REMARK  0 active torsions:
REMARK  status: ('A' for Active; 'I' for Inactive)
ROOT
ATOM      1  N1  IND d   1       3.246   1.369   1.630  0.00  0.00    -0.196 N 
ATOM      2  C2  IND d   1       4.292   0.634   1.146  0.00  0.00     0.054 A 
ATOM      3  C3  IND d   1       3.955   0.051  -0.026  0.00  0.00    -0.031 A 
ATOM      4  C4  IND d   1       1.778   0.248  -1.385  0.00  0.00     0.051 A 
ATOM      5  C5  IND d   1       0.519   0.778  -1.332  0.00  0.00    -0.031 A 
ATOM      6  C6  IND d   1       0.097   1.550  -0.269  0.00  0.00     0.015 A 
ATOM      7  C7  IND d   1       0.926   1.831   0.780  0.00  0.00    -0.016 A 
ATOM      8  C8  IND d   1       2.203   1.289   0.733  0.00  0.00    -0.047 A 
ATOM      9  C9  IND d   1       2.622   0.470  -0.323  0.00  0.00    -0.096 A 
ATOM     10  HN1 IND d   1       3.240   1.807   2.369  0.00  0.00     0.298 HD
ENDROOT
TORSDOF 0
ENDMDL
