MODEL 1
REMARK minimizedAffinity 4.41391325
REMARK minimizedRMSD -1
REMARK  0 active torsions:
REMARK  status: ('A' for Active; 'I' for Inactive)
ROOT
ATOM      1  N1  IND d   1       2.366   1.010   1.844  0.00  0.00    -0.196 N 
ATOM      2  C2  IND d   1       1.841   2.254   2.057  0.00  0.00     0.054 A 
ATOM      3  C3  IND d   1       0.935   2.551   1.099  0.00  0.00    -0.031 A 
ATOM      4  C4  IND d   1       0.084   1.105  -0.854  0.00  0.00     0.051 A 
ATOM      5  C5  IND d   1       0.294  -0.092  -1.479  0.00  0.00    -0.031 A 
ATOM      6  C6  IND d   1       1.223  -1.002  -1.018  0.00  0.00     0.015 A 
ATOM      7  C7  IND d   1       1.971  -0.753   0.098  0.00  0.00    -0.016 A 
ATOM      8  C8  IND d   1       1.765   0.464   0.732  0.00  0.00    -0.047 A 
ATOM      9  C9  IND d   1       0.855   1.410   0.243  0.00  0.00    -0.096 A 
ATOM     10  HN1 IND d   1       2.971   0.632   2.325  0.00  0.00     0.298 HD
ENDROOT
TORSDOF 0
ENDMDL
