MODEL 1
REMARK minimizedAffinity 3.97753096
REMARK minimizedRMSD -1
REMARK  0 active torsions:
REMARK  status: ('A' for Active; 'I' for Inactive)
ROOT
ATOM      1  N1  IND d   1       1.250  -2.302   0.357  0.00  0.00    -0.196 N 
ATOM      2  C2  IND d   1       0.584  -2.743  -0.752  0.00  0.00     0.054 A 
ATOM      3  C3  IND d   1       0.019  -1.703  -1.406  0.00  0.00    -0.031 A 
ATOM      4  C4  IND d   1       0.146   0.816  -0.891  0.00  0.00     0.051 A 
ATOM      5  C5  IND d   1       0.610   1.703   0.039  0.00  0.00    -0.031 A 
ATOM      6  C6  IND d   1       1.328   1.292   1.144  0.00  0.00     0.015 A 
ATOM      7  C7  IND d   1       1.620  -0.026   1.354  0.00  0.00    -0.016 A 
ATOM      8  C8  IND d   1       1.144  -0.930   0.415  0.00  0.00    -0.047 A 
ATOM      9  C9  IND d   1       0.379  -0.524  -0.685  0.00  0.00    -0.096 A 
ATOM     10  HN1 IND d   1       1.665  -2.799   0.923  0.00  0.00     0.298 HD
ENDROOT
TORSDOF 0
ENDMDL
