MODEL 1
REMARK minimizedAffinity 4.19839334
REMARK minimizedRMSD -1
REMARK  1 active torsions:
REMARK  status: ('A' for Active; 'I' for Inactive)
REMARK    1  A    between atoms: C3_4  and  O_7 
ROOT
ATOM      1  C   UNL d   1       2.680  -0.320  -1.450  0.00  0.00    -0.033 A 
ATOM      2  C1  UNL d   1       2.584   0.581  -0.388  0.00  0.00     0.039 A 
ATOM      3  C2  UNL d   1       3.536   1.592  -0.240  0.00  0.00    -0.080 A 
ATOM      4  C3  UNL d   1       4.576   1.690  -1.160  0.00  0.00     0.150 A 
ATOM      5  C4  UNL d   1       4.676   0.798  -2.222  0.00  0.00    -0.007 A 
ATOM      6  C5  UNL d   1       3.725  -0.211  -2.368  0.00  0.00     0.039 A 
ENDROOT
BRANCH   4   7
ATOM      7  O   UNL d   1       5.532   2.657  -1.054  0.00  0.00    -0.526 OA
ATOM      8  H5  UNL d   1       5.351   3.182  -0.256  0.00  0.00     0.418 HD
ENDBRANCH   4   7
TORSDOF 1
ENDMDL
