MODEL 1
REMARK minimizedAffinity -1.44818413
REMARK minimizedRMSD -1
REMARK  1 active torsions:
REMARK  status: ('A' for Active; 'I' for Inactive)
REMARK    1  A    between atoms: C3_4  and  O_7 
ROOT
ATOM      1  C   UNL d   1       1.081   2.883   1.253  0.00  0.00    -0.033 A 
ATOM      2  C1  UNL d   1       0.131   3.131   0.260  0.00  0.00     0.039 A 
ATOM      3  C2  UNL d   1      -0.240   2.114  -0.623  0.00  0.00    -0.080 A 
ATOM      4  C3  UNL d   1       0.346   0.857  -0.502  0.00  0.00     0.150 A 
ATOM      5  C4  UNL d   1       1.290   0.603   0.487  0.00  0.00    -0.007 A 
ATOM      6  C5  UNL d   1       1.660   1.619   1.367  0.00  0.00     0.039 A 
ENDROOT
BRANCH   4   7
ATOM      7  O   UNL d   1       0.020  -0.165  -1.343  0.00  0.00    -0.526 OA
ATOM      8  H5  UNL d   1      -0.623   0.165  -1.993  0.00  0.00     0.418 HD
ENDBRANCH   4   7
TORSDOF 1
ENDMDL
