MODEL 1
REMARK minimizedAffinity 8.31665897
REMARK minimizedRMSD -1
REMARK  1 active torsions:
REMARK  status: ('A' for Active; 'I' for Inactive)
REMARK    1  A    between atoms: C3_4  and  O_7 
ROOT
ATOM      1  C   UNL d   1       5.988   2.233  -1.624  0.00  0.00    -0.033 A 
ATOM      2  C1  UNL d   1       5.576   2.161  -0.292  0.00  0.00     0.039 A 
ATOM      3  C2  UNL d   1       4.413   1.466   0.044  0.00  0.00    -0.080 A 
ATOM      4  C3  UNL d   1       3.672   0.848  -0.959  0.00  0.00     0.150 A 
ATOM      5  C4  UNL d   1       4.079   0.913  -2.288  0.00  0.00    -0.007 A 
ATOM      6  C5  UNL d   1       5.240   1.608  -2.622  0.00  0.00     0.039 A 
ENDROOT
BRANCH   4   7
ATOM      7  O   UNL d   1       2.527   0.163  -0.680  0.00  0.00    -0.526 OA
ATOM      8  H5  UNL d   1       2.354   0.227   0.274  0.00  0.00     0.418 HD
ENDBRANCH   4   7
TORSDOF 1
ENDMDL
