MODEL 1
REMARK minimizedAffinity -4.81838417
REMARK minimizedRMSD -1
REMARK  1 active torsions:
REMARK  status: ('A' for Active; 'I' for Inactive)
REMARK    1  A    between atoms: C3_4  and  O_7 
ROOT
ATOM      1  C   UNL d   1       1.825   4.135   4.513  0.00  0.00    -0.033 A 
ATOM      2  C1  UNL d   1       2.610   4.424   5.631  0.00  0.00     0.039 A 
ATOM      3  C2  UNL d   1       3.996   4.530   5.504  0.00  0.00    -0.080 A 
ATOM      4  C3  UNL d   1       4.584   4.346   4.256  0.00  0.00     0.150 A 
ATOM      5  C4  UNL d   1       3.808   4.061   3.137  0.00  0.00    -0.007 A 
ATOM      6  C5  UNL d   1       2.424   3.955   3.266  0.00  0.00     0.039 A 
ENDROOT
BRANCH   4   7
ATOM      7  O   UNL d   1       5.934   4.435   4.084  0.00  0.00    -0.526 OA
ATOM      8  H5  UNL d   1       6.344   4.608   4.948  0.00  0.00     0.418 HD
ENDBRANCH   4   7
TORSDOF 1
ENDMDL
