MODEL 1
REMARK minimizedAffinity 4.22069168
REMARK minimizedRMSD -1
REMARK  1 active torsions:
REMARK  status: ('A' for Active; 'I' for Inactive)
REMARK    1  A    between atoms: C3_4  and  O_7 
ROOT
ATOM      1  C   UNL d   1       2.761  -0.464  -0.890  0.00  0.00    -0.033 A 
ATOM      2  C1  UNL d   1       3.042  -0.407  -2.256  0.00  0.00     0.039 A 
ATOM      3  C2  UNL d   1       3.989   0.497  -2.739  0.00  0.00    -0.080 A 
ATOM      4  C3  UNL d   1       4.649   1.338  -1.846  0.00  0.00     0.150 A 
ATOM      5  C4  UNL d   1       4.377   1.284  -0.483  0.00  0.00    -0.007 A 
ATOM      6  C5  UNL d   1       3.429   0.381  -0.003  0.00  0.00     0.039 A 
ENDROOT
BRANCH   4   7
ATOM      7  O   UNL d   1       5.578   2.240  -2.271  0.00  0.00    -0.526 OA
ATOM      8  H5  UNL d   1       5.641   2.184  -3.239  0.00  0.00     0.418 HD
ENDBRANCH   4   7
TORSDOF 1
ENDMDL
