MODEL 1
REMARK minimizedAffinity 1.96265161
REMARK minimizedRMSD -1
REMARK  1 active torsions:
REMARK  status: ('A' for Active; 'I' for Inactive)
REMARK    1  A    between atoms: C3_4  and  O_7 
ROOT
ATOM      1  C   UNL d   1       3.107   0.429  -2.242  0.00  0.00    -0.033 A 
ATOM      2  C1  UNL d   1       2.886   0.265  -0.873  0.00  0.00     0.039 A 
ATOM      3  C2  UNL d   1       3.758   0.845   0.051  0.00  0.00    -0.080 A 
ATOM      4  C3  UNL d   1       4.843   1.588  -0.406  0.00  0.00     0.150 A 
ATOM      5  C4  UNL d   1       5.066   1.758  -1.768  0.00  0.00    -0.007 A 
ATOM      6  C5  UNL d   1       4.196   1.177  -2.689  0.00  0.00     0.039 A 
ENDROOT
BRANCH   4   7
ATOM      7  O   UNL d   1       5.723   2.169   0.457  0.00  0.00    -0.526 OA
ATOM      8  H5  UNL d   1       5.459   1.942   1.365  0.00  0.00     0.418 HD
ENDBRANCH   4   7
TORSDOF 1
ENDMDL
