MODEL 1
REMARK minimizedAffinity 1.46169543
REMARK minimizedRMSD -1
REMARK  1 active torsions:
REMARK  status: ('A' for Active; 'I' for Inactive)
REMARK    1  A    between atoms: C3_4  and  O_7 
ROOT
ATOM      1  C   UNL d   1       5.718   1.815  -1.017  0.00  0.00    -0.033 A 
ATOM      2  C1  UNL d   1       5.025   1.145  -0.007  0.00  0.00     0.039 A 
ATOM      3  C2  UNL d   1       3.870   0.422  -0.312  0.00  0.00    -0.080 A 
ATOM      4  C3  UNL d   1       3.420   0.376  -1.629  0.00  0.00     0.150 A 
ATOM      5  C4  UNL d   1       4.108   1.038  -2.640  0.00  0.00    -0.007 A 
ATOM      6  C5  UNL d   1       5.261   1.760  -2.334  0.00  0.00     0.039 A 
ENDROOT
BRANCH   4   7
ATOM      7  O   UNL d   1       2.295  -0.312  -1.974  0.00  0.00    -0.526 OA
ATOM      8  H5  UNL d   1       1.909  -0.695  -1.168  0.00  0.00     0.418 HD
ENDBRANCH   4   7
TORSDOF 1
ENDMDL
