MODEL 1
REMARK minimizedAffinity -5.67727327
REMARK minimizedRMSD -1
REMARK  1 active torsions:
REMARK  status: ('A' for Active; 'I' for Inactive)
REMARK    1  A    between atoms: C1_2  and  C2_3 
ROOT
ATOM      1  C2  UNL d   1       0.652   0.340  -0.983  0.00  0.00    -0.081 A 
ATOM      2  C3  UNL d   1       0.471  -0.526   0.102  0.00  0.00     0.006 A 
ATOM      3  C4  UNL d   1      -0.664  -0.423   0.909  0.00  0.00     0.002 A 
ATOM      4  C5  UNL d   1      -1.641   0.542   0.639  0.00  0.00    -0.080 A 
ATOM      5  C6  UNL d   1      -2.880   0.643   1.478  0.00  0.00     0.076 C 
ATOM      6  C7  UNL d   1      -1.452   1.418  -0.435  0.00  0.00     0.002 A 
ATOM      7  C8  UNL d   1      -0.316   1.315  -1.241  0.00  0.00     0.006 A 
ENDROOT
BRANCH   1   8
ATOM      8  C1  UNL d   1       1.845   0.189  -1.893  0.00  0.00     0.054 C 
ATOM      9  C   UNL d   1       2.219  -1.275  -2.077  0.00  0.00     0.018 C 
ENDBRANCH   1   8
TORSDOF 1
ENDMDL
