MODEL 1
REMARK minimizedAffinity -2.80207253
REMARK minimizedRMSD -1
REMARK  1 active torsions:
REMARK  status: ('A' for Active; 'I' for Inactive)
REMARK    1  A    between atoms: C1_2  and  C2_3 
ROOT
ATOM      1  C2  UNL d   1      -0.055  -0.567   0.301  0.00  0.00    -0.081 A 
ATOM      2  C3  UNL d   1       0.484  -1.806  -0.066  0.00  0.00     0.006 A 
ATOM      3  C4  UNL d   1       1.490  -1.882  -1.032  0.00  0.00     0.002 A 
ATOM      4  C5  UNL d   1       1.980  -0.722  -1.639  0.00  0.00    -0.080 A 
ATOM      5  C6  UNL d   1       3.082  -0.787  -2.655  0.00  0.00     0.076 C 
ATOM      6  C7  UNL d   1       1.429   0.515  -1.285  0.00  0.00     0.002 A 
ATOM      7  C8  UNL d   1       0.422   0.591  -0.321  0.00  0.00     0.006 A 
ENDROOT
BRANCH   1   8
ATOM      8  C1  UNL d   1      -1.096  -0.476   1.388  0.00  0.00     0.054 C 
ATOM      9  C   UNL d   1      -2.392   0.125   0.865  0.00  0.00     0.018 C 
ENDBRANCH   1   8
TORSDOF 1
ENDMDL
