MODEL 1
REMARK minimizedAffinity -0.299096256
REMARK minimizedRMSD -1
REMARK  1 active torsions:
REMARK  status: ('A' for Active; 'I' for Inactive)
REMARK    1  A    between atoms: C1_2  and  C2_3 
ROOT
ATOM      1  C2  UNL d   1      -1.077   0.367   0.945  0.00  0.00    -0.081 A 
ATOM      2  C3  UNL d   1      -0.703   1.544   0.283  0.00  0.00     0.006 A 
ATOM      3  C4  UNL d   1       0.412   1.560  -0.557  0.00  0.00     0.002 A 
ATOM      4  C5  UNL d   1       1.169   0.400  -0.755  0.00  0.00    -0.080 A 
ATOM      5  C6  UNL d   1       2.351   0.396  -1.678  0.00  0.00     0.076 C 
ATOM      6  C7  UNL d   1       0.806  -0.771  -0.080  0.00  0.00     0.002 A 
ATOM      7  C8  UNL d   1      -0.309  -0.788   0.760  0.00  0.00     0.006 A 
ENDROOT
BRANCH   1   8
ATOM      8  C1  UNL d   1      -2.317   0.330   1.801  0.00  0.00     0.054 C 
ATOM      9  C   UNL d   1      -3.043   1.667   1.781  0.00  0.00     0.018 C 
ENDBRANCH   1   8
TORSDOF 1
ENDMDL
