MODEL 1
REMARK minimizedAffinity -4.82751465
REMARK minimizedRMSD -1
REMARK  1 active torsions:
REMARK  status: ('A' for Active; 'I' for Inactive)
REMARK    1  A    between atoms: C1_2  and  C2_3 
ROOT
ATOM      1  C2  UNL d   1      -1.442   0.528   1.377  0.00  0.00    -0.081 A 
ATOM      2  C3  UNL d   1      -0.138   0.795   1.810  0.00  0.00     0.006 A 
ATOM      3  C4  UNL d   1       0.843   1.197   0.900  0.00  0.00     0.002 A 
ATOM      4  C5  UNL d   1       0.534   1.346  -0.456  0.00  0.00    -0.080 A 
ATOM      5  C6  UNL d   1       1.569   1.806  -1.439  0.00  0.00     0.076 C 
ATOM      6  C7  UNL d   1      -0.765   1.063  -0.892  0.00  0.00     0.002 A 
ATOM      7  C8  UNL d   1      -1.746   0.661   0.017  0.00  0.00     0.006 A 
ENDROOT
BRANCH   1   8
ATOM      8  C1  UNL d   1      -2.518   0.158   2.366  0.00  0.00     0.054 C 
ATOM      9  C   UNL d   1      -3.870   0.009   1.683  0.00  0.00     0.018 C 
ENDBRANCH   1   8
TORSDOF 1
ENDMDL
