MODEL 1
REMARK minimizedAffinity -4.01721764
REMARK minimizedRMSD -1
REMARK  1 active torsions:
REMARK  status: ('A' for Active; 'I' for Inactive)
REMARK    1  A    between atoms: C1_2  and  C2_3 
ROOT
ATOM      1  C2  UNL d   1       0.635  -0.067  -1.492  0.00  0.00    -0.081 A 
ATOM      2  C3  UNL d   1      -0.094   1.115  -1.314  0.00  0.00     0.006 A 
ATOM      3  C4  UNL d   1      -1.036   1.219  -0.288  0.00  0.00     0.002 A 
ATOM      4  C5  UNL d   1      -1.259   0.146   0.583  0.00  0.00    -0.080 A 
ATOM      5  C6  UNL d   1      -2.245   0.256   1.708  0.00  0.00     0.076 C 
ATOM      6  C7  UNL d   1      -0.543  -1.041   0.395  0.00  0.00     0.002 A 
ATOM      7  C8  UNL d   1       0.398  -1.145  -0.632  0.00  0.00     0.006 A 
ENDROOT
BRANCH   1   8
ATOM      8  C1  UNL d   1       1.697  -0.160  -2.557  0.00  0.00     0.054 C 
ATOM      9  C   UNL d   1       3.039   0.343  -2.045  0.00  0.00     0.018 C 
ENDBRANCH   1   8
TORSDOF 1
ENDMDL
