MODEL 1
REMARK minimizedAffinity -4.83621931
REMARK minimizedRMSD -1
REMARK  1 active torsions:
REMARK  status: ('A' for Active; 'I' for Inactive)
REMARK    1  A    between atoms: C1_2  and  C2_3 
ROOT
ATOM      1  C2  UNL d   1      -0.714  -0.087   0.548  0.00  0.00    -0.081 A 
ATOM      2  C3  UNL d   1      -0.211  -1.330   0.147  0.00  0.00     0.006 A 
ATOM      3  C4  UNL d   1       0.531  -1.446  -1.031  0.00  0.00     0.002 A 
ATOM      4  C5  UNL d   1       0.788  -0.322  -1.822  0.00  0.00    -0.080 A 
ATOM      5  C6  UNL d   1       1.609  -0.428  -3.073  0.00  0.00     0.076 C 
ATOM      6  C7  UNL d   1       0.270   0.917  -1.430  0.00  0.00     0.002 A 
ATOM      7  C8  UNL d   1      -0.472   1.034  -0.253  0.00  0.00     0.006 A 
ENDROOT
BRANCH   1   8
ATOM      8  C1  UNL d   1      -1.460   0.054   1.851  0.00  0.00     0.054 C 
ATOM      9  C   UNL d   1      -2.944   0.295   1.616  0.00  0.00     0.018 C 
ENDBRANCH   1   8
TORSDOF 1
ENDMDL
