MODEL 1
REMARK minimizedAffinity -1.47418571
REMARK minimizedRMSD -1
REMARK  1 active torsions:
REMARK  status: ('A' for Active; 'I' for Inactive)
REMARK    1  A    between atoms: C1_2  and  C2_3 
ROOT
ATOM      1  C2  UNL d   1      -1.075   0.222   1.228  0.00  0.00    -0.081 A 
ATOM      2  C3  UNL d   1      -0.200  -0.826   0.917  0.00  0.00     0.006 A 
ATOM      3  C4  UNL d   1       0.844  -0.631   0.009  0.00  0.00     0.002 A 
ATOM      4  C5  UNL d   1       1.033   0.615  -0.598  0.00  0.00    -0.080 A 
ATOM      5  C6  UNL d   1       2.167   0.846  -1.552  0.00  0.00     0.076 C 
ATOM      6  C7  UNL d   1       0.148   1.657  -0.301  0.00  0.00     0.002 A 
ATOM      7  C8  UNL d   1      -0.896   1.463   0.606  0.00  0.00     0.006 A 
ENDROOT
BRANCH   1   8
ATOM      8  C1  UNL d   1      -2.162   0.034   2.256  0.00  0.00     0.054 C 
ATOM      9  C   UNL d   1      -2.829   1.356   2.604  0.00  0.00     0.018 C 
ENDBRANCH   1   8
TORSDOF 1
ENDMDL
