MODEL 1
REMARK minimizedAffinity -4.10330057
REMARK minimizedRMSD -1
REMARK  1 active torsions:
REMARK  status: ('A' for Active; 'I' for Inactive)
REMARK    1  A    between atoms: C1_2  and  C2_3 
ROOT
ATOM      1  C2  UNL d   1       0.095  -0.072   0.550  0.00  0.00    -0.081 A 
ATOM      2  C3  UNL d   1       0.786   0.611  -0.459  0.00  0.00     0.006 A 
ATOM      3  C4  UNL d   1       1.646  -0.076  -1.319  0.00  0.00     0.002 A 
ATOM      4  C5  UNL d   1       1.823  -1.458  -1.190  0.00  0.00    -0.080 A 
ATOM      5  C6  UNL d   1       2.719  -2.213  -2.126  0.00  0.00     0.076 C 
ATOM      6  C7  UNL d   1       1.146  -2.138  -0.171  0.00  0.00     0.002 A 
ATOM      7  C8  UNL d   1       0.287  -1.450   0.689  0.00  0.00     0.006 A 
ENDROOT
BRANCH   1   8
ATOM      8  C1  UNL d   1      -0.882   0.656   1.437  0.00  0.00     0.054 C 
ATOM      9  C   UNL d   1      -2.233  -0.045   1.465  0.00  0.00     0.018 C 
ENDBRANCH   1   8
TORSDOF 1
ENDMDL
