MODEL 1
REMARK minimizedAffinity -0.171098799
REMARK minimizedRMSD -1
REMARK  1 active torsions:
REMARK  status: ('A' for Active; 'I' for Inactive)
REMARK    1  A    between atoms: C1_2  and  C2_3 
ROOT
ATOM      1  C2  UNL d   1       1.419  -0.718  -0.954  0.00  0.00    -0.081 A 
ATOM      2  C3  UNL d   1       0.729  -1.761  -0.325  0.00  0.00     0.006 A 
ATOM      3  C4  UNL d   1      -0.418  -1.498   0.429  0.00  0.00     0.002 A 
ATOM      4  C5  UNL d   1      -0.897  -0.190   0.560  0.00  0.00    -0.080 A 
ATOM      5  C6  UNL d   1      -2.144   0.101   1.341  0.00  0.00     0.076 C 
ATOM      6  C7  UNL d   1      -0.198   0.854  -0.054  0.00  0.00     0.002 A 
ATOM      7  C8  UNL d   1       0.949   0.592  -0.807  0.00  0.00     0.006 A 
ENDROOT
BRANCH   1   8
ATOM      8  C1  UNL d   1       2.618  -1.005  -1.821  0.00  0.00     0.054 C 
ATOM      9  C   UNL d   1       2.641  -0.107  -3.049  0.00  0.00     0.018 C 
ENDBRANCH   1   8
TORSDOF 1
ENDMDL
