MODEL 1
REMARK minimizedAffinity -2.00152111
REMARK minimizedRMSD -1
REMARK  1 active torsions:
REMARK  status: ('A' for Active; 'I' for Inactive)
REMARK    1  A    between atoms: C1_2  and  C2_3 
ROOT
ATOM      1  C2  UNL d   1      -0.216   0.255  -0.076  0.00  0.00    -0.081 A 
ATOM      2  C3  UNL d   1      -0.272  -0.207   1.244  0.00  0.00     0.006 A 
ATOM      3  C4  UNL d   1      -1.457  -0.112   1.978  0.00  0.00     0.002 A 
ATOM      4  C5  UNL d   1      -2.607   0.438   1.402  0.00  0.00    -0.080 A 
ATOM      5  C6  UNL d   1      -3.893   0.518   2.168  0.00  0.00     0.076 C 
ATOM      6  C7  UNL d   1      -2.546   0.916   0.088  0.00  0.00     0.002 A 
ATOM      7  C8  UNL d   1      -1.361   0.822  -0.646  0.00  0.00     0.006 A 
ENDROOT
BRANCH   1   8
ATOM      8  C1  UNL d   1       1.042   0.095  -0.891  0.00  0.00     0.054 C 
ATOM      9  C   UNL d   1       0.922  -1.062  -1.873  0.00  0.00     0.018 C 
ENDBRANCH   1   8
TORSDOF 1
ENDMDL
