MODEL 1
REMARK minimizedAffinity -1.79603386
REMARK minimizedRMSD -1
REMARK  1 active torsions:
REMARK  status: ('A' for Active; 'I' for Inactive)
REMARK    1  A    between atoms: C1_2  and  C2_3 
ROOT
ATOM      1  C2  UNL d   1       0.520   1.088  -0.812  0.00  0.00    -0.081 A 
ATOM      2  C3  UNL d   1      -0.648   1.724  -1.249  0.00  0.00     0.006 A 
ATOM      3  C4  UNL d   1      -1.883   1.405  -0.680  0.00  0.00     0.002 A 
ATOM      4  C5  UNL d   1      -1.970   0.451   0.340  0.00  0.00    -0.080 A 
ATOM      5  C6  UNL d   1      -3.286   0.122   0.980  0.00  0.00     0.076 C 
ATOM      6  C7  UNL d   1      -0.805  -0.196   0.765  0.00  0.00     0.002 A 
ATOM      7  C8  UNL d   1       0.430   0.122   0.196  0.00  0.00     0.006 A 
ENDROOT
BRANCH   1   8
ATOM      8  C1  UNL d   1       1.862   1.477  -1.378  0.00  0.00     0.054 C 
ATOM      9  C   UNL d   1       2.549   0.289  -2.037  0.00  0.00     0.018 C 
ENDBRANCH   1   8
TORSDOF 1
ENDMDL
