MODEL 1
REMARK minimizedAffinity -5.61859512
REMARK minimizedRMSD -1
REMARK  1 active torsions:
REMARK  status: ('A' for Active; 'I' for Inactive)
REMARK    1  A    between atoms: C1_2  and  C2_3 
ROOT
ATOM      1  C2  UNL d   1      -0.296   0.151   0.631  0.00  0.00    -0.081 A 
ATOM      2  C3  UNL d   1      -0.348  -0.764  -0.428  0.00  0.00     0.006 A 
ATOM      3  C4  UNL d   1       0.537  -0.654  -1.503  0.00  0.00     0.002 A 
ATOM      4  C5  UNL d   1       1.493   0.366  -1.534  0.00  0.00    -0.080 A 
ATOM      5  C6  UNL d   1       2.468   0.477  -2.668  0.00  0.00     0.076 C 
ATOM      6  C7  UNL d   1       1.534   1.291  -0.485  0.00  0.00     0.002 A 
ATOM      7  C8  UNL d   1       0.649   1.182   0.590  0.00  0.00     0.006 A 
ENDROOT
BRANCH   1   8
ATOM      8  C1  UNL d   1      -1.205  -0.003   1.823  0.00  0.00     0.054 C 
ATOM      9  C   UNL d   1      -2.668  -0.038   1.402  0.00  0.00     0.018 C 
ENDBRANCH   1   8
TORSDOF 1
ENDMDL
