MODEL 1
REMARK minimizedAffinity -5.32438564
REMARK minimizedRMSD -1
REMARK  1 active torsions:
REMARK  status: ('A' for Active; 'I' for Inactive)
REMARK    1  A    between atoms: C1_2  and  C2_3 
ROOT
ATOM      1  C2  UNL d   1       1.199   0.490  -1.248  0.00  0.00    -0.081 A 
ATOM      2  C3  UNL d   1       0.561  -0.746  -1.085  0.00  0.00     0.006 A 
ATOM      3  C4  UNL d   1      -0.413  -0.915  -0.098  0.00  0.00     0.002 A 
ATOM      4  C5  UNL d   1      -0.771   0.149   0.737  0.00  0.00    -0.080 A 
ATOM      5  C6  UNL d   1      -1.836  -0.012   1.780  0.00  0.00     0.076 C 
ATOM      6  C7  UNL d   1      -0.121   1.379   0.586  0.00  0.00     0.002 A 
ATOM      7  C8  UNL d   1       0.853   1.549  -0.400  0.00  0.00     0.006 A 
ENDROOT
BRANCH   1   8
ATOM      8  C1  UNL d   1       2.203   0.695  -2.353  0.00  0.00     0.054 C 
ATOM      9  C   UNL d   1       2.334  -0.550  -3.218  0.00  0.00     0.018 C 
ENDBRANCH   1   8
TORSDOF 1
ENDMDL
