MODEL 1
REMARK minimizedAffinity -4.21367073
REMARK minimizedRMSD -1
REMARK  3 active torsions:
REMARK  status: ('A' for Active; 'I' for Inactive)
REMARK    1  A    between atoms: C3'_2  and  C2'_3 
REMARK    2  A    between atoms: C2'_3  and  C1'_4 
REMARK    3  A    between atoms: C1'_4  and  C1_5 
ROOT
ATOM      1  C1  N4B d   1       0.222  -0.028  -1.185  0.00  0.00    -0.075 A 
ATOM      2  C2  N4B d   1       1.556  -0.365  -0.865  0.00  0.00     0.002 A 
ATOM      3  C3  N4B d   1       1.934  -0.502   0.448  0.00  0.00     0.002 A 
ATOM      4  C4  N4B d   1       1.004  -0.290   1.455  0.00  0.00    -0.004 A 
ATOM      5  C5  N4B d   1      -0.289   0.010   1.137  0.00  0.00     0.002 A 
ATOM      6  C6  N4B d   1      -0.683   0.147  -0.179  0.00  0.00     0.002 A 
ENDROOT
BRANCH   1   7
ATOM      7  C1' N4B d   1      -0.217   0.217  -2.602  0.00  0.00     0.057 C 
BRANCH   7   8
ATOM      8  C2' N4B d   1      -1.314   1.277  -2.610  0.00  0.00     0.009 C 
BRANCH   8   9
ATOM      9  C3' N4B d   1      -0.797   2.627  -3.074  0.00  0.00     0.004 C 
ATOM     10  C4' N4B d   1       0.524   2.533  -3.777  0.00  0.00     0.003 C 
ENDBRANCH   8   9
ENDBRANCH   7   8
ENDBRANCH   1   7
TORSDOF 3
ENDMDL
