MODEL 1
REMARK minimizedAffinity -3.61159325
REMARK minimizedRMSD -1
REMARK  3 active torsions:
REMARK  status: ('A' for Active; 'I' for Inactive)
REMARK    1  A    between atoms: C3'_2  and  C2'_3 
REMARK    2  A    between atoms: C2'_3  and  C1'_4 
REMARK    3  A    between atoms: C1'_4  and  C1_5 
ROOT
ATOM      1  C1  N4B d   1       0.733   0.042   0.194  0.00  0.00    -0.075 A 
ATOM      2  C2  N4B d   1       2.030  -0.515   0.246  0.00  0.00     0.002 A 
ATOM      3  C3  N4B d   1       2.465  -1.136   1.392  0.00  0.00     0.002 A 
ATOM      4  C4  N4B d   1       1.631  -1.195   2.499  0.00  0.00    -0.004 A 
ATOM      5  C5  N4B d   1       0.371  -0.677   2.431  0.00  0.00     0.002 A 
ATOM      6  C6  N4B d   1      -0.081  -0.054   1.285  0.00  0.00     0.002 A 
ENDROOT
BRANCH   1   7
ATOM      7  C1' N4B d   1       0.245   0.805  -1.007  0.00  0.00     0.057 C 
BRANCH   7   8
ATOM      8  C2' N4B d   1      -0.201   2.197  -0.568  0.00  0.00     0.009 C 
BRANCH   8   9
ATOM      9  C3' N4B d   1      -0.146   3.198  -1.709  0.00  0.00     0.004 C 
ATOM     10  C4' N4B d   1      -1.504   3.676  -2.128  0.00  0.00     0.003 C 
ENDBRANCH   8   9
ENDBRANCH   7   8
ENDBRANCH   1   7
TORSDOF 3
ENDMDL
