MODEL 1
REMARK minimizedAffinity 0.784687638
REMARK minimizedRMSD -1
REMARK  3 active torsions:
REMARK  status: ('A' for Active; 'I' for Inactive)
REMARK    1  A    between atoms: C3'_2  and  C2'_3 
REMARK    2  A    between atoms: C2'_3  and  C1'_4 
REMARK    3  A    between atoms: C1'_4  and  C1_5 
ROOT
ATOM      1  C1  N4B d   1      -0.184   0.681  -0.162  0.00  0.00    -0.075 A 
ATOM      2  C2  N4B d   1       0.695  -0.424  -0.118  0.00  0.00     0.002 A 
ATOM      3  C3  N4B d   1       0.744  -1.219   1.001  0.00  0.00     0.002 A 
ATOM      4  C4  N4B d   1      -0.060  -0.919   2.091  0.00  0.00    -0.004 A 
ATOM      5  C5  N4B d   1      -0.924   0.135   2.031  0.00  0.00     0.002 A 
ATOM      6  C6  N4B d   1      -0.986   0.940   0.911  0.00  0.00     0.002 A 
ENDROOT
BRANCH   1   7
ATOM      7  C1' N4B d   1      -0.210   1.629  -1.329  0.00  0.00     0.057 C 
BRANCH   7   8
ATOM      8  C2' N4B d   1      -1.643   1.760  -1.836  0.00  0.00     0.009 C 
BRANCH   8   9
ATOM      9  C3' N4B d   1      -1.931   3.151  -2.374  0.00  0.00     0.004 C 
ATOM     10  C4' N4B d   1      -0.684   3.945  -2.627  0.00  0.00     0.003 C 
ENDBRANCH   8   9
ENDBRANCH   7   8
ENDBRANCH   1   7
TORSDOF 3
ENDMDL
