MODEL 1
REMARK minimizedAffinity -0.863850892
REMARK minimizedRMSD -1
REMARK  3 active torsions:
REMARK  status: ('A' for Active; 'I' for Inactive)
REMARK    1  A    between atoms: C3'_2  and  C2'_3 
REMARK    2  A    between atoms: C2'_3  and  C1'_4 
REMARK    3  A    between atoms: C1'_4  and  C1_5 
ROOT
ATOM      1  C1  N4B d   1       0.264   3.458  -1.936  0.00  0.00    -0.075 A 
ATOM      2  C2  N4B d   1       0.879   4.707  -2.172  0.00  0.00     0.002 A 
ATOM      3  C3  N4B d   1       1.431   4.980  -3.399  0.00  0.00     0.002 A 
ATOM      4  C4  N4B d   1       1.398   4.017  -4.396  0.00  0.00    -0.004 A 
ATOM      5  C5  N4B d   1       0.780   2.822  -4.168  0.00  0.00     0.002 A 
ATOM      6  C6  N4B d   1       0.217   2.536  -2.941  0.00  0.00     0.002 A 
ENDROOT
BRANCH   1   7
ATOM      7  C1' N4B d   1      -0.278   3.082  -0.584  0.00  0.00     0.057 C 
BRANCH   7   8
ATOM      8  C2' N4B d   1       0.639   2.041   0.051  0.00  0.00     0.009 C 
BRANCH   8   9
ATOM      9  C3' N4B d   1      -0.088   0.736   0.327  0.00  0.00     0.004 C 
ATOM     10  C4' N4B d   1       0.776  -0.469   0.100  0.00  0.00     0.003 C 
ENDBRANCH   8   9
ENDBRANCH   7   8
ENDBRANCH   1   7
TORSDOF 3
ENDMDL
