MODEL 1
REMARK minimizedAffinity -3.38999557
REMARK minimizedRMSD -1
REMARK  3 active torsions:
REMARK  status: ('A' for Active; 'I' for Inactive)
REMARK    1  A    between atoms: C3'_2  and  C2'_3 
REMARK    2  A    between atoms: C2'_3  and  C1'_4 
REMARK    3  A    between atoms: C1'_4  and  C1_5 
ROOT
ATOM      1  C1  N4B d   1      -3.828   2.175   3.993  0.00  0.00    -0.075 A 
ATOM      2  C2  N4B d   1      -4.030   2.359   5.379  0.00  0.00     0.002 A 
ATOM      3  C3  N4B d   1      -5.106   1.773   6.000  0.00  0.00     0.002 A 
ATOM      4  C4  N4B d   1      -5.999   1.016   5.255  0.00  0.00    -0.004 A 
ATOM      5  C5  N4B d   1      -5.782   0.822   3.923  0.00  0.00     0.002 A 
ATOM      6  C6  N4B d   1      -4.703   1.402   3.286  0.00  0.00     0.002 A 
ENDROOT
BRANCH   1   7
ATOM      7  C1' N4B d   1      -2.715   2.866   3.254  0.00  0.00     0.057 C 
BRANCH   7   8
ATOM      8  C2' N4B d   1      -1.876   3.666   4.246  0.00  0.00     0.009 C 
BRANCH   8   9
ATOM      9  C3' N4B d   1      -0.418   3.742   3.826  0.00  0.00     0.004 C 
ATOM     10  C4' N4B d   1       0.266   4.979   4.324  0.00  0.00     0.003 C 
ENDBRANCH   8   9
ENDBRANCH   7   8
ENDBRANCH   1   7
TORSDOF 3
ENDMDL
