MODEL 1
REMARK minimizedAffinity -4.23916101
REMARK minimizedRMSD -1
REMARK  1 active torsions:
REMARK  status: ('A' for Active; 'I' for Inactive)
REMARK    1  A    between atoms: C3_4  and  O_7 
ROOT
ATOM      1  C   UNL d   1      -1.013   0.975   2.384  0.00  0.00    -0.033 A 
ATOM      2  C1  UNL d   1      -0.256   0.164   1.537  0.00  0.00     0.039 A 
ATOM      3  C2  UNL d   1       0.668  -0.737   2.072  0.00  0.00    -0.080 A 
ATOM      4  C3  UNL d   1       0.823  -0.817   3.453  0.00  0.00     0.150 A 
ATOM      5  C4  UNL d   1       0.069  -0.014   4.303  0.00  0.00    -0.007 A 
ATOM      6  C5  UNL d   1      -0.852   0.885   3.767  0.00  0.00     0.039 A 
ENDROOT
BRANCH   4   7
ATOM      7  O   UNL d   1       1.715  -1.677   4.021  0.00  0.00    -0.526 OA
ATOM      8  H5  UNL d   1       2.185  -2.146   3.311  0.00  0.00     0.418 HD
ENDBRANCH   4   7
TORSDOF 1
ENDMDL
