MODEL 1
REMARK minimizedAffinity -1.89878845
REMARK minimizedRMSD -1
REMARK  1 active torsions:
REMARK  status: ('A' for Active; 'I' for Inactive)
REMARK    1  A    between atoms: C3_4  and  O_7 
ROOT
ATOM      1  C   UNL d   1       2.898  -0.397   6.000  0.00  0.00    -0.033 A 
ATOM      2  C1  UNL d   1       1.878   0.479   5.626  0.00  0.00     0.039 A 
ATOM      3  C2  UNL d   1       0.740  -0.008   4.979  0.00  0.00    -0.080 A 
ATOM      4  C3  UNL d   1       0.636  -1.370   4.712  0.00  0.00     0.150 A 
ATOM      5  C4  UNL d   1       1.647  -2.249   5.085  0.00  0.00    -0.007 A 
ATOM      6  C5  UNL d   1       2.783  -1.761   5.731  0.00  0.00     0.039 A 
ENDROOT
BRANCH   4   7
ATOM      7  O   UNL d   1      -0.453  -1.891   4.078  0.00  0.00    -0.526 OA
ATOM      8  H5  UNL d   1      -1.057  -1.163   3.855  0.00  0.00     0.418 HD
ENDBRANCH   4   7
TORSDOF 1
ENDMDL
