MODEL 1
REMARK minimizedAffinity 6.66727686
REMARK minimizedRMSD -1
REMARK  1 active torsions:
REMARK  status: ('A' for Active; 'I' for Inactive)
REMARK    1  A    between atoms: C3_4  and  O_7 
ROOT
ATOM      1  C   UNL d   1      -3.374   0.304  -0.713  0.00  0.00    -0.033 A 
ATOM      2  C1  UNL d   1      -3.302  -0.167   0.600  0.00  0.00     0.039 A 
ATOM      3  C2  UNL d   1      -2.071  -0.229   1.256  0.00  0.00    -0.080 A 
ATOM      4  C3  UNL d   1      -0.921   0.183   0.589  0.00  0.00     0.150 A 
ATOM      5  C4  UNL d   1      -0.985   0.656  -0.718  0.00  0.00    -0.007 A 
ATOM      6  C5  UNL d   1      -2.215   0.716  -1.371  0.00  0.00     0.039 A 
ENDROOT
BRANCH   4   7
ATOM      7  O   UNL d   1       0.304   0.136   1.185  0.00  0.00    -0.526 OA
ATOM      8  H5  UNL d   1       0.199  -0.239   2.076  0.00  0.00     0.418 HD
ENDBRANCH   4   7
TORSDOF 1
ENDMDL
