MODEL 1
REMARK minimizedAffinity 1.54794729
REMARK minimizedRMSD -1
REMARK  1 active torsions:
REMARK  status: ('A' for Active; 'I' for Inactive)
REMARK    1  A    between atoms: C3_4  and  O_7 
ROOT
ATOM      1  C   UNL d   1       0.847  -0.796  -5.985  0.00  0.00    -0.033 A 
ATOM      2  C1  UNL d   1       1.498   0.098  -5.132  0.00  0.00     0.039 A 
ATOM      3  C2  UNL d   1       0.868   0.539  -3.967  0.00  0.00    -0.080 A 
ATOM      4  C3  UNL d   1      -0.410   0.077  -3.665  0.00  0.00     0.150 A 
ATOM      5  C4  UNL d   1      -1.063  -0.817  -4.507  0.00  0.00    -0.007 A 
ATOM      6  C5  UNL d   1      -0.433  -1.255  -5.671  0.00  0.00     0.039 A 
ENDROOT
BRANCH   4   7
ATOM      7  O   UNL d   1      -1.067   0.482  -2.541  0.00  0.00    -0.526 OA
ATOM      8  H5  UNL d   1      -0.506   1.121  -2.070  0.00  0.00     0.418 HD
ENDBRANCH   4   7
TORSDOF 1
ENDMDL
