MODEL 1
REMARK minimizedAffinity 4.88535738
REMARK minimizedRMSD -1
REMARK  1 active torsions:
REMARK  status: ('A' for Active; 'I' for Inactive)
REMARK    1  A    between atoms: C3_4  and  O_7 
ROOT
ATOM      1  C   UNL d   1       1.520  -0.421   0.934  0.00  0.00    -0.033 A 
ATOM      2  C1  UNL d   1       1.676  -0.212  -0.438  0.00  0.00     0.039 A 
ATOM      3  C2  UNL d   1       2.594   0.732  -0.902  0.00  0.00    -0.080 A 
ATOM      4  C3  UNL d   1       3.350   1.458   0.015  0.00  0.00     0.150 A 
ATOM      5  C4  UNL d   1       3.202   1.252   1.383  0.00  0.00    -0.007 A 
ATOM      6  C5  UNL d   1       2.284   0.310   1.844  0.00  0.00     0.039 A 
ENDROOT
BRANCH   4   7
ATOM      7  O   UNL d   1       4.255   2.394  -0.390  0.00  0.00    -0.526 OA
ATOM      8  H5  UNL d   1       4.228   2.448  -1.360  0.00  0.00     0.418 HD
ENDBRANCH   4   7
TORSDOF 1
ENDMDL
