MODEL 1
REMARK minimizedAffinity 5.61705828
REMARK minimizedRMSD -1
REMARK  1 active torsions:
REMARK  status: ('A' for Active; 'I' for Inactive)
REMARK    1  A    between atoms: C3_4  and  O_7 
ROOT
ATOM      1  C   UNL d   1       1.919   5.991   1.692  0.00  0.00    -0.033 A 
ATOM      2  C1  UNL d   1       0.549   5.981   1.960  0.00  0.00     0.039 A 
ATOM      3  C2  UNL d   1      -0.370   5.982   0.909  0.00  0.00    -0.080 A 
ATOM      4  C3  UNL d   1       0.094   5.993  -0.404  0.00  0.00     0.150 A 
ATOM      5  C4  UNL d   1       1.458   5.999  -0.678  0.00  0.00    -0.007 A 
ATOM      6  C5  UNL d   1       2.374   5.998   0.373  0.00  0.00     0.039 A 
ENDROOT
BRANCH   4   7
ATOM      7  O   UNL d   1      -0.764   5.999  -1.463  0.00  0.00    -0.526 OA
ATOM      8  H5  UNL d   1      -1.674   6.023  -1.121  0.00  0.00     0.418 HD
ENDBRANCH   4   7
TORSDOF 1
ENDMDL
