MODEL 1
REMARK minimizedAffinity 3.49422812
REMARK minimizedRMSD -1
REMARK  1 active torsions:
REMARK  status: ('A' for Active; 'I' for Inactive)
REMARK    1  A    between atoms: C3_4  and  O_7 
ROOT
ATOM      1  C   UNL d   1      -2.079   0.028   0.283  0.00  0.00    -0.033 A 
ATOM      2  C1  UNL d   1      -1.294   0.553   1.312  0.00  0.00     0.039 A 
ATOM      3  C2  UNL d   1       0.066   0.241   1.383  0.00  0.00    -0.080 A 
ATOM      4  C3  UNL d   1       0.627  -0.594   0.421  0.00  0.00     0.150 A 
ATOM      5  C4  UNL d   1      -0.149  -1.117  -0.608  0.00  0.00    -0.007 A 
ATOM      6  C5  UNL d   1      -1.506  -0.805  -0.678  0.00  0.00     0.039 A 
ENDROOT
BRANCH   4   7
ATOM      7  O   UNL d   1       1.948  -0.930   0.452  0.00  0.00    -0.526 OA
ATOM      8  H5  UNL d   1       2.351  -0.519   1.235  0.00  0.00     0.418 HD
ENDBRANCH   4   7
TORSDOF 1
ENDMDL
