MODEL 1
REMARK minimizedAffinity 6.60510874
REMARK minimizedRMSD -1
REMARK  1 active torsions:
REMARK  status: ('A' for Active; 'I' for Inactive)
REMARK    1  A    between atoms: C3_4  and  O_7 
ROOT
ATOM      1  C   UNL d   1      -2.063  -0.064  -0.400  0.00  0.00    -0.033 A 
ATOM      2  C1  UNL d   1      -0.974  -0.622  -1.071  0.00  0.00     0.039 A 
ATOM      3  C2  UNL d   1       0.294  -0.602  -0.485  0.00  0.00    -0.080 A 
ATOM      4  C3  UNL d   1       0.457  -0.024   0.771  0.00  0.00     0.150 A 
ATOM      5  C4  UNL d   1      -0.625   0.530   1.447  0.00  0.00    -0.007 A 
ATOM      6  C5  UNL d   1      -1.889   0.510   0.860  0.00  0.00     0.039 A 
ENDROOT
BRANCH   4   7
ATOM      7  O   UNL d   1       1.676   0.023   1.380  0.00  0.00    -0.526 OA
ATOM      8  H5  UNL d   1       2.334  -0.372   0.784  0.00  0.00     0.418 HD
ENDBRANCH   4   7
TORSDOF 1
ENDMDL
