MODEL 1
REMARK minimizedAffinity 5.15716457
REMARK minimizedRMSD -1
REMARK  1 active torsions:
REMARK  status: ('A' for Active; 'I' for Inactive)
REMARK    1  A    between atoms: C3_4  and  O_7 
ROOT
ATOM      1  C   UNL d   1       3.756   1.773   0.932  0.00  0.00    -0.033 A 
ATOM      2  C1  UNL d   1       3.981   1.259  -0.346  0.00  0.00     0.039 A 
ATOM      3  C2  UNL d   1       3.224   0.181  -0.810  0.00  0.00    -0.080 A 
ATOM      4  C3  UNL d   1       2.246  -0.371   0.012  0.00  0.00     0.150 A 
ATOM      5  C4  UNL d   1       2.014   0.139   1.285  0.00  0.00    -0.007 A 
ATOM      6  C5  UNL d   1       2.771   1.214   1.747  0.00  0.00     0.039 A 
ENDROOT
BRANCH   4   7
ATOM      7  O   UNL d   1       1.485  -1.427  -0.396  0.00  0.00    -0.526 OA
ATOM      8  H5  UNL d   1       1.776  -1.691  -1.284  0.00  0.00     0.418 HD
ENDBRANCH   4   7
TORSDOF 1
ENDMDL
