MODEL 1
REMARK minimizedAffinity -2.65677571
REMARK minimizedRMSD -1
REMARK  0 active torsions:
REMARK  status: ('A' for Active; 'I' for Inactive)
ROOT
ATOM      1  C4' PXY d   1       1.637  -2.055  -0.817  0.00  0.00     0.077 C 
ATOM      2  C1' PXY d   1      -1.439   2.366   1.282  0.00  0.00     0.077 C 
ATOM      3  C1  PXY d   1      -0.635   1.211   0.720  0.00  0.00    -0.082 A 
ATOM      4  C2  PXY d   1      -0.478   0.111   1.439  0.00  0.00     0.003 A 
ATOM      5  C3  PXY d   1       0.273  -0.931   0.958  0.00  0.00     0.003 A 
ATOM      6  C4  PXY d   1       0.825  -0.868  -0.293  0.00  0.00    -0.082 A 
ATOM      7  C5  PXY d   1       0.661   0.246  -1.037  0.00  0.00     0.003 A 
ATOM      8  C6  PXY d   1      -0.070   1.309  -0.515  0.00  0.00     0.003 A 
ENDROOT
TORSDOF 0
ENDMDL
