MODEL 1
REMARK minimizedAffinity -3.42333841
REMARK minimizedRMSD -1
REMARK  0 active torsions:
REMARK  status: ('A' for Active; 'I' for Inactive)
ROOT
ATOM      1  C4' PXY d   1      -0.831   3.129   1.471  0.00  0.00     0.077 C 
ATOM      2  C1' PXY d   1       1.098  -1.544  -1.332  0.00  0.00     0.077 C 
ATOM      3  C1  PXY d   1       0.584  -0.326  -0.590  0.00  0.00    -0.082 A 
ATOM      4  C2  PXY d   1       0.698   0.872  -1.141  0.00  0.00     0.003 A 
ATOM      5  C3  PXY d   1       0.267   1.987  -0.470  0.00  0.00     0.003 A 
ATOM      6  C4  PXY d   1      -0.334   1.870   0.754  0.00  0.00    -0.082 A 
ATOM      7  C5  PXY d   1      -0.464   0.651   1.318  0.00  0.00     0.003 A 
ATOM      8  C6  PXY d   1       0.017  -0.465   0.639  0.00  0.00     0.003 A 
ENDROOT
TORSDOF 0
ENDMDL
