MODEL 1
REMARK minimizedAffinity -0.0778912976
REMARK minimizedRMSD -1
REMARK  0 active torsions:
REMARK  status: ('A' for Active; 'I' for Inactive)
ROOT
ATOM      1  C4' PXY d   1       1.993  -3.103  -1.131  0.00  0.00     0.077 C 
ATOM      2  C1' PXY d   1      -0.766   1.711   0.490  0.00  0.00     0.077 C 
ATOM      3  C1  PXY d   1      -0.045   0.451   0.052  0.00  0.00    -0.082 A 
ATOM      4  C2  PXY d   1       0.088  -0.555   0.901  0.00  0.00     0.003 A 
ATOM      5  C3  PXY d   1       0.765  -1.689   0.533  0.00  0.00     0.003 A 
ATOM      6  C4  PXY d   1       1.264  -1.816  -0.736  0.00  0.00    -0.082 A 
ATOM      7  C5  PXY d   1       1.123  -0.798  -1.611  0.00  0.00     0.003 A 
ATOM      8  C6  PXY d   1       0.469   0.361  -1.204  0.00  0.00     0.003 A 
ENDROOT
TORSDOF 0
ENDMDL
