MODEL 1
REMARK minimizedAffinity -3.79307055
REMARK minimizedRMSD -1
REMARK  0 active torsions:
REMARK  status: ('A' for Active; 'I' for Inactive)
ROOT
ATOM      1  C4' PXY d   1       1.495  -2.116  -0.855  0.00  0.00     0.077 C 
ATOM      2  C1' PXY d   1      -1.549   2.247   1.406  0.00  0.00     0.077 C 
ATOM      3  C1  PXY d   1      -0.754   1.106   0.801  0.00  0.00    -0.082 A 
ATOM      4  C2  PXY d   1      -0.481   0.039   1.534  0.00  0.00     0.003 A 
ATOM      5  C3  PXY d   1       0.264  -0.988   1.012  0.00  0.00     0.003 A 
ATOM      6  C4  PXY d   1       0.688  -0.945  -0.289  0.00  0.00    -0.082 A 
ATOM      7  C5  PXY d   1       0.404   0.136  -1.046  0.00  0.00     0.003 A 
ATOM      8  C6  PXY d   1      -0.318   1.186  -0.485  0.00  0.00     0.003 A 
ENDROOT
TORSDOF 0
ENDMDL
