MODEL 1
REMARK minimizedAffinity -0.218735173
REMARK minimizedRMSD -1
REMARK  0 active torsions:
REMARK  status: ('A' for Active; 'I' for Inactive)
ROOT
ATOM      1  C4' PXY d   1      -0.141   1.628  -0.558  0.00  0.00     0.077 C 
ATOM      2  C1' PXY d   1       0.802  -3.778  -2.374  0.00  0.00     0.077 C 
ATOM      3  C1  PXY d   1       0.553  -2.365  -1.886  0.00  0.00    -0.082 A 
ATOM      4  C2  PXY d   1       0.102  -1.451  -2.730  0.00  0.00     0.003 A 
ATOM      5  C3  PXY d   1      -0.098  -0.160  -2.312  0.00  0.00     0.003 A 
ATOM      6  C4  PXY d   1       0.116   0.186  -1.005  0.00  0.00    -0.082 A 
ATOM      7  C5  PXY d   1       0.565  -0.743  -0.135  0.00  0.00     0.003 A 
ATOM      8  C6  PXY d   1       0.802  -2.038  -0.588  0.00  0.00     0.003 A 
ENDROOT
TORSDOF 0
ENDMDL
