MODEL 1
REMARK minimizedAffinity -1.49892032
REMARK minimizedRMSD -1
REMARK  0 active torsions:
REMARK  status: ('A' for Active; 'I' for Inactive)
ROOT
ATOM      1  C4' PXY d   1       1.280  -1.753  -1.207  0.00  0.00     0.077 C 
ATOM      2  C1' PXY d   1      -1.531   2.370   1.711  0.00  0.00     0.077 C 
ATOM      3  C1  PXY d   1      -0.796   1.296   0.935  0.00  0.00    -0.082 A 
ATOM      4  C2  PXY d   1      -0.714   0.071   1.430  0.00  0.00     0.003 A 
ATOM      5  C3  PXY d   1      -0.026  -0.905   0.756  0.00  0.00     0.003 A 
ATOM      6  C4  PXY d   1       0.539  -0.638  -0.462  0.00  0.00    -0.082 A 
ATOM      7  C5  PXY d   1       0.451   0.606  -0.979  0.00  0.00     0.003 A 
ATOM      8  C6  PXY d   1      -0.217   1.593  -0.260  0.00  0.00     0.003 A 
ENDROOT
TORSDOF 0
ENDMDL
