MODEL 1
REMARK minimizedAffinity -0.6746369
REMARK minimizedRMSD -1
REMARK  0 active torsions:
REMARK  status: ('A' for Active; 'I' for Inactive)
ROOT
ATOM      1  C4' PXY d   1      -1.030  -1.502   2.832  0.00  0.00     0.077 C 
ATOM      2  C1' PXY d   1       0.109   2.583  -1.097  0.00  0.00     0.077 C 
ATOM      3  C1  PXY d   1      -0.187   1.502  -0.075  0.00  0.00    -0.082 A 
ATOM      4  C2  PXY d   1      -0.994   1.765   0.940  0.00  0.00     0.003 A 
ATOM      5  C3  PXY d   1      -1.247   0.810   1.890  0.00  0.00     0.003 A 
ATOM      6  C4  PXY d   1      -0.710  -0.445   1.772  0.00  0.00    -0.082 A 
ATOM      7  C5  PXY d   1       0.106  -0.724   0.733  0.00  0.00     0.003 A 
ATOM      8  C6  PXY d   1       0.382   0.273  -0.198  0.00  0.00     0.003 A 
ENDROOT
TORSDOF 0
ENDMDL
