MODEL 1
REMARK minimizedAffinity 3.74645162
REMARK minimizedRMSD -1
REMARK  0 active torsions:
REMARK  status: ('A' for Active; 'I' for Inactive)
ROOT
ATOM      1  C4' PXY d   1       1.035  -1.536   2.328  0.00  0.00     0.077 C 
ATOM      2  C1' PXY d   1       0.166   2.369  -1.844  0.00  0.00     0.077 C 
ATOM      3  C1  PXY d   1       0.397   1.336  -0.759  0.00  0.00    -0.082 A 
ATOM      4  C2  PXY d   1      -0.239   1.446   0.396  0.00  0.00     0.003 A 
ATOM      5  C3  PXY d   1      -0.017   0.539   1.400  0.00  0.00     0.003 A 
ATOM      6  C4  PXY d   1       0.825  -0.522   1.201  0.00  0.00    -0.082 A 
ATOM      7  C5  PXY d   1       1.470  -0.647   0.021  0.00  0.00     0.003 A 
ATOM      8  C6  PXY d   1       1.262   0.307  -0.970  0.00  0.00     0.003 A 
ENDROOT
TORSDOF 0
ENDMDL
