MODEL 1
REMARK minimizedAffinity -1.10263753
REMARK minimizedRMSD -1
REMARK  0 active torsions:
REMARK  status: ('A' for Active; 'I' for Inactive)
ROOT
ATOM      1  C4' PXY d   1       0.459  -1.632  -1.899  0.00  0.00     0.077 C 
ATOM      2  C1' PXY d   1      -1.104   1.937   2.370  0.00  0.00     0.077 C 
ATOM      3  C1  PXY d   1      -0.700   1.009   1.242  0.00  0.00    -0.082 A 
ATOM      4  C2  PXY d   1      -0.447  -0.264   1.501  0.00  0.00     0.003 A 
ATOM      5  C3  PXY d   1      -0.049  -1.110   0.498  0.00  0.00     0.003 A 
ATOM      6  C4  PXY d   1       0.039  -0.661  -0.793  0.00  0.00    -0.082 A 
ATOM      7  C5  PXY d   1      -0.228   0.633  -1.067  0.00  0.00     0.003 A 
ATOM      8  C6  PXY d   1      -0.590   1.486  -0.028  0.00  0.00     0.003 A 
ENDROOT
TORSDOF 0
ENDMDL
