MODEL 1
REMARK minimizedAffinity -3.58792043
REMARK minimizedRMSD -1
REMARK  0 active torsions:
REMARK  status: ('A' for Active; 'I' for Inactive)
ROOT
ATOM      1  C4' PXY d   1       0.746  -2.203  -1.798  0.00  0.00     0.077 C 
ATOM      2  C1' PXY d   1      -1.458   1.547   2.009  0.00  0.00     0.077 C 
ATOM      3  C1  PXY d   1      -0.884   0.572   1.001  0.00  0.00    -0.082 A 
ATOM      4  C2  PXY d   1      -0.747  -0.703   1.329  0.00  0.00     0.003 A 
ATOM      5  C3  PXY d   1      -0.200  -1.593   0.440  0.00  0.00     0.003 A 
ATOM      6  C4  PXY d   1       0.162  -1.184  -0.815  0.00  0.00    -0.082 A 
ATOM      7  C5  PXY d   1       0.016   0.112  -1.161  0.00  0.00     0.003 A 
ATOM      8  C6  PXY d   1      -0.504   1.008  -0.231  0.00  0.00     0.003 A 
ENDROOT
TORSDOF 0
ENDMDL
