MODEL 1
REMARK minimizedAffinity -2.42463279
REMARK minimizedRMSD -1
REMARK  0 active torsions:
REMARK  status: ('A' for Active; 'I' for Inactive)
ROOT
ATOM      1  C4' PXY d   1       1.664  -2.833  -1.090  0.00  0.00     0.077 C 
ATOM      2  C1' PXY d   1       0.050   2.627  -0.097  0.00  0.00     0.077 C 
ATOM      3  C1  PXY d   1       0.476   1.199  -0.370  0.00  0.00    -0.082 A 
ATOM      4  C2  PXY d   1      -0.020   0.216   0.365  0.00  0.00     0.003 A 
ATOM      5  C3  PXY d   1       0.379  -1.078   0.153  0.00  0.00     0.003 A 
ATOM      6  C4  PXY d   1       1.255  -1.377  -0.856  0.00  0.00    -0.082 A 
ATOM      7  C5  PXY d   1       1.758  -0.381  -1.617  0.00  0.00     0.003 A 
ATOM      8  C6  PXY d   1       1.372   0.931  -1.358  0.00  0.00     0.003 A 
ENDROOT
TORSDOF 0
ENDMDL
