MODEL 1
REMARK minimizedAffinity -2.53666186
REMARK minimizedRMSD -1
REMARK  0 active torsions:
REMARK  status: ('A' for Active; 'I' for Inactive)
ROOT
ATOM      1  C4' PXY d   1       0.720  -2.897  -1.639  0.00  0.00     0.077 C 
ATOM      2  C1' PXY d   1      -0.849   1.542   1.715  0.00  0.00     0.077 C 
ATOM      3  C1  PXY d   1      -0.444   0.383   0.826  0.00  0.00    -0.082 A 
ATOM      4  C2  PXY d   1      -0.130  -0.781   1.370  0.00  0.00     0.003 A 
ATOM      5  C3  PXY d   1       0.270  -1.830   0.583  0.00  0.00     0.003 A 
ATOM      6  C4  PXY d   1       0.296  -1.702  -0.780  0.00  0.00    -0.082 A 
ATOM      7  C5  PXY d   1      -0.034  -0.521  -1.344  0.00  0.00     0.003 A 
ATOM      8  C6  PXY d   1      -0.397   0.544  -0.525  0.00  0.00     0.003 A 
ENDROOT
TORSDOF 0
ENDMDL
