MODEL 1
REMARK minimizedAffinity -3.59635019
REMARK minimizedRMSD -1
REMARK  0 active torsions:
REMARK  status: ('A' for Active; 'I' for Inactive)
ROOT
ATOM      1  C4' PXY d   1       0.638  -2.610  -2.126  0.00  0.00     0.077 C 
ATOM      2  C1' PXY d   1      -0.837   1.252   1.915  0.00  0.00     0.077 C 
ATOM      3  C1  PXY d   1      -0.446   0.249   0.847  0.00  0.00    -0.082 A 
ATOM      4  C2  PXY d   1      -1.076  -0.912   0.778  0.00  0.00     0.003 A 
ATOM      5  C3  PXY d   1      -0.713  -1.844  -0.160  0.00  0.00     0.003 A 
ATOM      6  C4  PXY d   1       0.269  -1.563  -1.071  0.00  0.00    -0.082 A 
ATOM      7  C5  PXY d   1       0.910  -0.376  -1.014  0.00  0.00     0.003 A 
ATOM      8  C6  PXY d   1       0.555   0.539  -0.028  0.00  0.00     0.003 A 
ENDROOT
TORSDOF 0
ENDMDL
