MODEL 1
REMARK minimizedAffinity -0.900056124
REMARK minimizedRMSD -1
REMARK  0 active torsions:
REMARK  status: ('A' for Active; 'I' for Inactive)
ROOT
ATOM      1  C4' PXY d   1       0.409   2.288  -1.592  0.00  0.00     0.077 C 
ATOM      2  C1' PXY d   1      -0.846  -1.155   2.879  0.00  0.00     0.077 C 
ATOM      3  C1  PXY d   1      -0.507  -0.260   1.703  0.00  0.00    -0.082 A 
ATOM      4  C2  PXY d   1      -0.815   1.026   1.749  0.00  0.00     0.003 A 
ATOM      5  C3  PXY d   1      -0.546   1.843   0.681  0.00  0.00     0.003 A 
ATOM      6  C4  PXY d   1       0.094   1.349  -0.424  0.00  0.00    -0.082 A 
ATOM      7  C5  PXY d   1       0.422   0.041  -0.475  0.00  0.00     0.003 A 
ATOM      8  C6  PXY d   1       0.102  -0.780   0.603  0.00  0.00     0.003 A 
ENDROOT
TORSDOF 0
ENDMDL
