MODEL 1
REMARK minimizedAffinity -0.629527986
REMARK minimizedRMSD -1
REMARK  0 active torsions:
REMARK  status: ('A' for Active; 'I' for Inactive)
ROOT
ATOM      1  C4' PXY d   1       1.296  -2.748  -1.480  0.00  0.00     0.077 C 
ATOM      2  C1' PXY d   1      -0.780   1.357   2.020  0.00  0.00     0.077 C 
ATOM      3  C1  PXY d   1      -0.239   0.288   1.091  0.00  0.00    -0.082 A 
ATOM      4  C2  PXY d   1      -0.119  -0.956   1.526  0.00  0.00     0.003 A 
ATOM      5  C3  PXY d   1       0.398  -1.929   0.710  0.00  0.00     0.003 A 
ATOM      6  C4  PXY d   1       0.746  -1.637  -0.581  0.00  0.00    -0.082 A 
ATOM      7  C5  PXY d   1       0.617  -0.373  -1.036  0.00  0.00     0.003 A 
ATOM      8  C6  PXY d   1       0.128   0.609  -0.179  0.00  0.00     0.003 A 
ENDROOT
TORSDOF 0
ENDMDL
