MODEL 1
REMARK minimizedAffinity -4.34032869
REMARK minimizedRMSD -1
REMARK  0 active torsions:
REMARK  status: ('A' for Active; 'I' for Inactive)
ROOT
ATOM      1  C4' PXY d   1      -0.514   3.549   0.407  0.00  0.00     0.077 C 
ATOM      2  C1' PXY d   1       1.379  -1.821  -0.592  0.00  0.00     0.077 C 
ATOM      3  C1  PXY d   1       0.872  -0.418  -0.324  0.00  0.00    -0.082 A 
ATOM      4  C2  PXY d   1       1.261   0.578  -1.104  0.00  0.00     0.003 A 
ATOM      5  C3  PXY d   1       0.837   1.859  -0.856  0.00  0.00     0.003 A 
ATOM      6  C4  PXY d   1      -0.035   2.114   0.168  0.00  0.00    -0.082 A 
ATOM      7  C5  PXY d   1      -0.444   1.102   0.962  0.00  0.00     0.003 A 
ATOM      8  C6  PXY d   1       0.030  -0.184   0.719  0.00  0.00     0.003 A 
ENDROOT
TORSDOF 0
ENDMDL
