MODEL 1
REMARK minimizedAffinity -5.82632399
REMARK minimizedRMSD -1
REMARK  0 active torsions:
REMARK  status: ('A' for Active; 'I' for Inactive)
ROOT
ATOM      1  C4' PXY d   1      -2.432   3.943   1.665  0.00  0.00     0.077 C 
ATOM      2  C1' PXY d   1       0.965  -0.154  -0.590  0.00  0.00     0.077 C 
ATOM      3  C1  PXY d   1       0.082   0.929  -0.003  0.00  0.00    -0.082 A 
ATOM      4  C2  PXY d   1      -0.679   0.658   1.045  0.00  0.00     0.003 A 
ATOM      5  C3  PXY d   1      -1.507   1.617   1.568  0.00  0.00     0.003 A 
ATOM      6  C4  PXY d   1      -1.518   2.882   1.046  0.00  0.00    -0.082 A 
ATOM      7  C5  PXY d   1      -0.737   3.171  -0.017  0.00  0.00     0.003 A 
ATOM      8  C6  PXY d   1       0.066   2.171  -0.559  0.00  0.00     0.003 A 
ENDROOT
TORSDOF 0
ENDMDL
