MODEL 1
REMARK minimizedAffinity -3.75801158
REMARK minimizedRMSD -1
REMARK  0 active torsions:
REMARK  status: ('A' for Active; 'I' for Inactive)
ROOT
ATOM      1  C4' PXY d   1       1.555  -2.652  -1.012  0.00  0.00     0.077 C 
ATOM      2  C1' PXY d   1      -1.061   1.798   1.590  0.00  0.00     0.077 C 
ATOM      3  C1  PXY d   1      -0.378   0.636   0.896  0.00  0.00    -0.082 A 
ATOM      4  C2  PXY d   1      -0.190  -0.498   1.551  0.00  0.00     0.003 A 
ATOM      5  C3  PXY d   1       0.454  -1.549   0.949  0.00  0.00     0.003 A 
ATOM      6  C4  PXY d   1       0.862  -1.456  -0.355  0.00  0.00    -0.082 A 
ATOM      7  C5  PXY d   1       0.665  -0.306  -1.033  0.00  0.00     0.003 A 
ATOM      8  C6  PXY d   1       0.046   0.763  -0.391  0.00  0.00     0.003 A 
ENDROOT
TORSDOF 0
ENDMDL
