MODEL 1
REMARK minimizedAffinity -1.16577196
REMARK minimizedRMSD -1
REMARK  0 active torsions:
REMARK  status: ('A' for Active; 'I' for Inactive)
ROOT
ATOM      1  C4' PXY d   1       0.561  -2.783  -1.556  0.00  0.00     0.077 C 
ATOM      2  C1' PXY d   1      -0.830   1.689   1.833  0.00  0.00     0.077 C 
ATOM      3  C1  PXY d   1      -0.466   0.524   0.934  0.00  0.00    -0.082 A 
ATOM      4  C2  PXY d   1      -0.692  -0.714   1.343  0.00  0.00     0.003 A 
ATOM      5  C3  PXY d   1      -0.340  -1.780   0.556  0.00  0.00     0.003 A 
ATOM      6  C4  PXY d   1       0.201  -1.576  -0.685  0.00  0.00    -0.082 A 
ATOM      7  C5  PXY d   1       0.425  -0.316  -1.114  0.00  0.00     0.003 A 
ATOM      8  C6  PXY d   1       0.098   0.752  -0.283  0.00  0.00     0.003 A 
ENDROOT
TORSDOF 0
ENDMDL
