MODEL 1
REMARK minimizedAffinity -3.66874242
REMARK minimizedRMSD -1
REMARK  0 active torsions:
REMARK  status: ('A' for Active; 'I' for Inactive)
ROOT
ATOM      1  C4' PXY d   1       0.926  -1.982  -0.720  0.00  0.00     0.077 C 
ATOM      2  C1' PXY d   1      -1.573   2.789   1.378  0.00  0.00     0.077 C 
ATOM      3  C1  PXY d   1      -0.917   1.533   0.840  0.00  0.00    -0.082 A 
ATOM      4  C2  PXY d   1      -0.239   1.584  -0.295  0.00  0.00     0.003 A 
ATOM      5  C3  PXY d   1       0.334   0.450  -0.812  0.00  0.00     0.003 A 
ATOM      6  C4  PXY d   1       0.256  -0.737  -0.134  0.00  0.00    -0.082 A 
ATOM      7  C5  PXY d   1      -0.426  -0.795   1.030  0.00  0.00     0.003 A 
ATOM      8  C6  PXY d   1      -1.035   0.358   1.517  0.00  0.00     0.003 A 
ENDROOT
TORSDOF 0
ENDMDL
