MODEL 1
REMARK minimizedAffinity 4.09499645
REMARK minimizedRMSD -1
REMARK  0 active torsions:
REMARK  status: ('A' for Active; 'I' for Inactive)
ROOT
ATOM      1  C   UNL d   1      -5.944  -5.962  -3.098  0.00  0.00     0.020 A 
ATOM      2  C1  UNL d   1      -5.820  -6.000  -4.486  0.00  0.00     0.020 A 
ATOM      3  C2  UNL d   1      -5.749  -4.810  -5.213  0.00  0.00     0.034 A 
ATOM      4  C3  UNL d   1      -5.802  -3.577  -4.553  0.00  0.00     0.017 A 
ATOM      5  C4  UNL d   1      -5.926  -3.540  -3.159  0.00  0.00     0.017 A 
ATOM      6  C5  UNL d   1      -5.997  -4.735  -2.436  0.00  0.00     0.034 A 
ATOM      7 Cl   UNL d   1      -5.998  -2.057  -2.274  0.00  0.00    -0.070 Cl
ATOM      8 Cl1  UNL d   1      -5.708  -2.145  -5.515  0.00  0.00    -0.070 Cl
ENDROOT
TORSDOF 0
ENDMDL
