MODEL 1
REMARK minimizedAffinity -0.0945666209
REMARK minimizedRMSD -1
REMARK  0 active torsions:
REMARK  status: ('A' for Active; 'I' for Inactive)
ROOT
ATOM      1  C   UNL d   1       2.742  -2.685   3.759  0.00  0.00     0.020 A 
ATOM      2  C1  UNL d   1       2.192  -1.680   4.554  0.00  0.00     0.020 A 
ATOM      3  C2  UNL d   1       2.278  -0.346   4.152  0.00  0.00     0.034 A 
ATOM      4  C3  UNL d   1       2.914  -0.013   2.951  0.00  0.00     0.017 A 
ATOM      5  C4  UNL d   1       3.466  -1.022   2.153  0.00  0.00     0.017 A 
ATOM      6  C5  UNL d   1       3.378  -2.356   2.561  0.00  0.00     0.034 A 
ATOM      7 Cl   UNL d   1       4.267  -0.688   0.658  0.00  0.00    -0.070 Cl
ATOM      8 Cl1  UNL d   1       2.983   1.658   2.514  0.00  0.00    -0.070 Cl
ENDROOT
TORSDOF 0
ENDMDL
