MODEL 1
REMARK minimizedAffinity 1.95702553
REMARK minimizedRMSD -1
REMARK  0 active torsions:
REMARK  status: ('A' for Active; 'I' for Inactive)
ROOT
ATOM      1  C   UNL d   1      -4.868  -4.010  -1.935  0.00  0.00     0.020 A 
ATOM      2  C1  UNL d   1      -4.861  -5.400  -2.053  0.00  0.00     0.020 A 
ATOM      3  C2  UNL d   1      -4.852  -5.994  -3.316  0.00  0.00     0.034 A 
ATOM      4  C3  UNL d   1      -4.851  -5.198  -4.468  0.00  0.00     0.017 A 
ATOM      5  C4  UNL d   1      -4.858  -3.803  -4.349  0.00  0.00     0.017 A 
ATOM      6  C5  UNL d   1      -4.867  -3.214  -3.081  0.00  0.00     0.034 A 
ATOM      7 Cl   UNL d   1      -4.857  -2.756  -5.724  0.00  0.00    -0.070 Cl
ATOM      8 Cl1  UNL d   1      -4.839  -6.000  -5.999  0.00  0.00    -0.070 Cl
ENDROOT
TORSDOF 0
ENDMDL
