MODEL 1
REMARK minimizedAffinity 4.57353687
REMARK minimizedRMSD -1
REMARK  0 active torsions:
REMARK  status: ('A' for Active; 'I' for Inactive)
ROOT
ATOM      1  C   UNL d   1      -5.788  -5.683  -5.614  0.00  0.00     0.020 A 
ATOM      2  C1  UNL d   1      -5.389  -4.404  -6.000  0.00  0.00     0.020 A 
ATOM      3  C2  UNL d   1      -5.173  -3.419  -5.034  0.00  0.00     0.034 A 
ATOM      4  C3  UNL d   1      -5.355  -3.712  -3.677  0.00  0.00     0.017 A 
ATOM      5  C4  UNL d   1      -5.755  -4.997  -3.291  0.00  0.00     0.017 A 
ATOM      6  C5  UNL d   1      -5.970  -5.979  -4.263  0.00  0.00     0.034 A 
ATOM      7 Cl   UNL d   1      -6.000  -5.433  -1.637  0.00  0.00    -0.070 Cl
ATOM      8 Cl1  UNL d   1      -5.069  -2.446  -2.537  0.00  0.00    -0.070 Cl
ENDROOT
TORSDOF 0
ENDMDL
