MODEL 1
REMARK minimizedAffinity 11.7303619
REMARK minimizedRMSD -1
REMARK  0 active torsions:
REMARK  status: ('A' for Active; 'I' for Inactive)
ROOT
ATOM      1  C   UNL d   1       1.832  -0.618   2.830  0.00  0.00     0.020 A 
ATOM      2  C1  UNL d   1       1.597  -0.437   1.468  0.00  0.00     0.020 A 
ATOM      3  C2  UNL d   1       1.249  -1.527   0.668  0.00  0.00     0.034 A 
ATOM      4  C3  UNL d   1       1.134  -2.804   1.230  0.00  0.00     0.017 A 
ATOM      5  C4  UNL d   1       1.370  -2.985   2.598  0.00  0.00     0.017 A 
ATOM      6  C5  UNL d   1       1.718  -1.889   3.394  0.00  0.00     0.034 A 
ATOM      7 Cl   UNL d   1       1.248  -4.530   3.363  0.00  0.00    -0.070 Cl
ATOM      8 Cl1  UNL d   1       0.700  -4.107   0.182  0.00  0.00    -0.070 Cl
ENDROOT
TORSDOF 0
ENDMDL
