MODEL 1
REMARK minimizedAffinity -1.92425299
REMARK minimizedRMSD -1
REMARK  0 active torsions:
REMARK  status: ('A' for Active; 'I' for Inactive)
ROOT
ATOM      1  C   UNL d   1      -5.696  -4.257  -5.999  0.00  0.00     0.020 A 
ATOM      2  C1  UNL d   1      -4.967  -5.444  -5.963  0.00  0.00     0.020 A 
ATOM      3  C2  UNL d   1      -4.540  -5.965  -4.740  0.00  0.00     0.034 A 
ATOM      4  C3  UNL d   1      -4.842  -5.298  -3.547  0.00  0.00     0.017 A 
ATOM      5  C4  UNL d   1      -5.575  -4.106  -3.584  0.00  0.00     0.017 A 
ATOM      6  C5  UNL d   1      -6.000  -3.589  -4.811  0.00  0.00     0.034 A 
ATOM      7 Cl   UNL d   1      -5.986  -3.227  -2.154  0.00  0.00    -0.070 Cl
ATOM      8 Cl1  UNL d   1      -4.283  -6.000  -2.070  0.00  0.00    -0.070 Cl
ENDROOT
TORSDOF 0
ENDMDL
