MODEL 1
REMARK minimizedAffinity 4.59835339
REMARK minimizedRMSD -1
REMARK  0 active torsions:
REMARK  status: ('A' for Active; 'I' for Inactive)
ROOT
ATOM      1  C   UNL d   1      -5.993  -2.588  -3.067  0.00  0.00     0.020 A 
ATOM      2  C1  UNL d   1      -5.954  -2.589  -4.461  0.00  0.00     0.020 A 
ATOM      3  C2  UNL d   1      -5.357  -3.652  -5.143  0.00  0.00     0.034 A 
ATOM      4  C3  UNL d   1      -4.797  -4.718  -4.430  0.00  0.00     0.017 A 
ATOM      5  C4  UNL d   1      -4.836  -4.717  -3.031  0.00  0.00     0.017 A 
ATOM      6  C5  UNL d   1      -5.435  -3.650  -2.354  0.00  0.00     0.034 A 
ATOM      7 Cl   UNL d   1      -4.165  -5.997  -2.084  0.00  0.00    -0.070 Cl
ATOM      8 Cl1  UNL d   1      -4.075  -5.999  -5.338  0.00  0.00    -0.070 Cl
ENDROOT
TORSDOF 0
ENDMDL
