MODEL 1
REMARK minimizedAffinity -1.30252945
REMARK minimizedRMSD -1
REMARK  0 active torsions:
REMARK  status: ('A' for Active; 'I' for Inactive)
ROOT
ATOM      1  C   UNL d   1      -5.607  -4.435  -1.994  0.00  0.00     0.020 A 
ATOM      2  C1  UNL d   1      -4.756  -5.539  -2.043  0.00  0.00     0.020 A 
ATOM      3  C2  UNL d   1      -4.275  -5.996  -3.272  0.00  0.00     0.034 A 
ATOM      4  C3  UNL d   1      -4.645  -5.350  -4.457  0.00  0.00     0.017 A 
ATOM      5  C4  UNL d   1      -5.499  -4.242  -4.407  0.00  0.00     0.017 A 
ATOM      6  C5  UNL d   1      -5.978  -3.789  -3.174  0.00  0.00     0.034 A 
ATOM      7 Cl   UNL d   1      -6.000  -3.393  -5.827  0.00  0.00    -0.070 Cl
ATOM      8 Cl1  UNL d   1      -4.013  -5.969  -5.941  0.00  0.00    -0.070 Cl
ENDROOT
TORSDOF 0
ENDMDL
