MODEL 1
REMARK minimizedAffinity -0.505329967
REMARK minimizedRMSD -1
REMARK  0 active torsions:
REMARK  status: ('A' for Active; 'I' for Inactive)
ROOT
ATOM      1  C   UNL d   1       0.651  -2.709   2.989  0.00  0.00     0.020 A 
ATOM      2  C1  UNL d   1       1.342  -3.536   3.874  0.00  0.00     0.020 A 
ATOM      3  C2  UNL d   1       2.738  -3.533   3.886  0.00  0.00     0.034 A 
ATOM      4  C3  UNL d   1       3.448  -2.702   3.011  0.00  0.00     0.017 A 
ATOM      5  C4  UNL d   1       2.753  -1.874   2.123  0.00  0.00     0.017 A 
ATOM      6  C5  UNL d   1       1.355  -1.880   2.115  0.00  0.00     0.034 A 
ATOM      7 Cl   UNL d   1       3.560  -0.822   1.014  0.00  0.00    -0.070 Cl
ATOM      8 Cl1  UNL d   1       5.174  -2.750   3.081  0.00  0.00    -0.070 Cl
ENDROOT
TORSDOF 0
ENDMDL
