MODEL 1
REMARK minimizedAffinity 0.121069819
REMARK minimizedRMSD -1
REMARK  0 active torsions:
REMARK  status: ('A' for Active; 'I' for Inactive)
ROOT
ATOM      1  C   UNL d   1       3.552  -1.029  -0.049  0.00  0.00     0.078 C 
ATOM      2  C1  UNL d   1       2.577   0.043  -0.435  0.00  0.00    -0.077 A 
ATOM      3  C2  UNL d   1       1.417   0.267   0.317  0.00  0.00    -0.001 A 
ATOM      4  C3  UNL d   1       0.513   1.262  -0.060  0.00  0.00     0.003 A 
ATOM      5  C4  UNL d   1       0.760   2.040  -1.189  0.00  0.00    -0.005 A 
ATOM      6  C5  UNL d   1       1.911   1.823  -1.944  0.00  0.00     0.003 A 
ATOM      7  C6  UNL d   1       2.815   0.829  -1.569  0.00  0.00    -0.001 A 
ENDROOT
TORSDOF 0
ENDMDL
