MODEL 1
REMARK minimizedAffinity -2.58248663
REMARK minimizedRMSD -1
REMARK  0 active torsions:
REMARK  status: ('A' for Active; 'I' for Inactive)
ROOT
ATOM      1  C   UNL d   1       0.949   3.607   0.262  0.00  0.00     0.078 C 
ATOM      2  C1  UNL d   1       1.188   2.222  -0.260  0.00  0.00    -0.077 A 
ATOM      3  C2  UNL d   1       0.635   1.105   0.380  0.00  0.00    -0.001 A 
ATOM      4  C3  UNL d   1       0.874  -0.179  -0.111  0.00  0.00     0.003 A 
ATOM      5  C4  UNL d   1       1.666  -0.360  -1.243  0.00  0.00    -0.005 A 
ATOM      6  C5  UNL d   1       2.221   0.744  -1.885  0.00  0.00     0.003 A 
ATOM      7  C6  UNL d   1       1.984   2.030  -1.396  0.00  0.00    -0.001 A 
ENDROOT
TORSDOF 0
ENDMDL
