MODEL 1
REMARK minimizedAffinity -5.51367092
REMARK minimizedRMSD -1
REMARK  0 active torsions:
REMARK  status: ('A' for Active; 'I' for Inactive)
ROOT
ATOM      1  C   UNL d   1       1.457   4.778  -0.778  0.00  0.00     0.078 C 
ATOM      2  C1  UNL d   1       1.327   3.293  -0.620  0.00  0.00    -0.077 A 
ATOM      3  C2  UNL d   1       1.368   2.695   0.645  0.00  0.00    -0.001 A 
ATOM      4  C3  UNL d   1       1.255   1.310   0.776  0.00  0.00     0.003 A 
ATOM      5  C4  UNL d   1       1.102   0.511  -0.355  0.00  0.00    -0.005 A 
ATOM      6  C5  UNL d   1       1.062   1.096  -1.619  0.00  0.00     0.003 A 
ATOM      7  C6  UNL d   1       1.175   2.481  -1.751  0.00  0.00    -0.001 A 
ENDROOT
TORSDOF 0
ENDMDL
