MODEL 1
REMARK minimizedAffinity -6.09408045
REMARK minimizedRMSD -1
REMARK  0 active torsions:
REMARK  status: ('A' for Active; 'I' for Inactive)
ROOT
ATOM      1  C   UNL d   1       1.647  -0.883  -1.095  0.00  0.00     0.078 C 
ATOM      2  C1  UNL d   1       1.315   0.545  -0.782  0.00  0.00    -0.077 A 
ATOM      3  C2  UNL d   1       1.575   1.565  -1.706  0.00  0.00    -0.001 A 
ATOM      4  C3  UNL d   1       1.269   2.891  -1.397  0.00  0.00     0.003 A 
ATOM      5  C4  UNL d   1       0.703   3.211  -0.165  0.00  0.00    -0.005 A 
ATOM      6  C5  UNL d   1       0.443   2.203   0.762  0.00  0.00     0.003 A 
ATOM      7  C6  UNL d   1       0.748   0.876   0.455  0.00  0.00    -0.001 A 
ENDROOT
TORSDOF 0
ENDMDL
