MODEL 1
REMARK minimizedAffinity -1.5974741
REMARK minimizedRMSD -1
REMARK  0 active torsions:
REMARK  status: ('A' for Active; 'I' for Inactive)
ROOT
ATOM      1  C   UNL d   1       1.338   4.125  -1.160  0.00  0.00     0.078 C 
ATOM      2  C1  UNL d   1       1.277   2.653  -0.879  0.00  0.00    -0.077 A 
ATOM      3  C2  UNL d   1       1.514   2.153   0.407  0.00  0.00    -0.001 A 
ATOM      4  C3  UNL d   1       1.464   0.780   0.651  0.00  0.00     0.003 A 
ATOM      5  C4  UNL d   1       1.178  -0.105  -0.386  0.00  0.00    -0.005 A 
ATOM      6  C5  UNL d   1       0.942   0.382  -1.670  0.00  0.00     0.003 A 
ATOM      7  C6  UNL d   1       0.992   1.755  -1.916  0.00  0.00    -0.001 A 
ENDROOT
TORSDOF 0
ENDMDL
