MODEL 1
REMARK minimizedAffinity -3.71630883
REMARK minimizedRMSD -1
REMARK  0 active torsions:
REMARK  status: ('A' for Active; 'I' for Inactive)
ROOT
ATOM      1  C   UNL d   1       1.227   3.648   0.401  0.00  0.00     0.078 C 
ATOM      2  C1  UNL d   1       1.183   2.284  -0.220  0.00  0.00    -0.077 A 
ATOM      3  C2  UNL d   1       1.099   1.133   0.573  0.00  0.00    -0.001 A 
ATOM      4  C3  UNL d   1       1.069  -0.131  -0.019  0.00  0.00     0.003 A 
ATOM      5  C4  UNL d   1       1.124  -0.256  -1.406  0.00  0.00    -0.005 A 
ATOM      6  C5  UNL d   1       1.210   0.884  -2.202  0.00  0.00     0.003 A 
ATOM      7  C6  UNL d   1       1.240   2.149  -1.613  0.00  0.00    -0.001 A 
ENDROOT
TORSDOF 0
ENDMDL
