MODEL 1
REMARK minimizedAffinity -3.06462312
REMARK minimizedRMSD -1
REMARK  0 active torsions:
REMARK  status: ('A' for Active; 'I' for Inactive)
ROOT
ATOM      1  C   UNL d   1       0.728  -0.307  -0.565  0.00  0.00     0.078 C 
ATOM      2  C1  UNL d   1       0.984   1.162  -0.724  0.00  0.00    -0.077 A 
ATOM      3  C2  UNL d   1       1.411   1.692  -1.948  0.00  0.00    -0.001 A 
ATOM      4  C3  UNL d   1       1.656   3.060  -2.078  0.00  0.00     0.003 A 
ATOM      5  C4  UNL d   1       1.477   3.909  -0.988  0.00  0.00    -0.005 A 
ATOM      6  C5  UNL d   1       1.054   3.391   0.234  0.00  0.00     0.003 A 
ATOM      7  C6  UNL d   1       0.809   2.023   0.366  0.00  0.00    -0.001 A 
ENDROOT
TORSDOF 0
ENDMDL
