MODEL 1
REMARK minimizedAffinity -3.60813856
REMARK minimizedRMSD -1
REMARK  0 active torsions:
REMARK  status: ('A' for Active; 'I' for Inactive)
ROOT
ATOM      1  C   UNL d   1       1.941   5.273  -0.638  0.00  0.00     0.078 C 
ATOM      2  C1  UNL d   1       1.583   3.817  -0.609  0.00  0.00    -0.077 A 
ATOM      3  C2  UNL d   1       1.535   3.063  -1.787  0.00  0.00    -0.001 A 
ATOM      4  C3  UNL d   1       1.191   1.711  -1.746  0.00  0.00     0.003 A 
ATOM      5  C4  UNL d   1       0.890   1.102  -0.529  0.00  0.00    -0.005 A 
ATOM      6  C5  UNL d   1       0.933   1.845   0.648  0.00  0.00     0.003 A 
ATOM      7  C6  UNL d   1       1.277   3.197   0.609  0.00  0.00    -0.001 A 
ENDROOT
TORSDOF 0
ENDMDL
