MODEL 1
REMARK minimizedAffinity 3.8277092
REMARK minimizedRMSD -1
REMARK  0 active torsions:
REMARK  status: ('A' for Active; 'I' for Inactive)
ROOT
ATOM      1  C   UNL d   1       1.075  -0.075  -1.777  0.00  0.00     0.078 C 
ATOM      2  C1  UNL d   1       1.031   1.378  -1.409  0.00  0.00    -0.077 A 
ATOM      3  C2  UNL d   1       1.066   1.784  -0.069  0.00  0.00    -0.001 A 
ATOM      4  C3  UNL d   1       1.013   3.140   0.259  0.00  0.00     0.003 A 
ATOM      5  C4  UNL d   1       0.925   4.100  -0.747  0.00  0.00    -0.005 A 
ATOM      6  C5  UNL d   1       0.887   3.706  -2.082  0.00  0.00     0.003 A 
ATOM      7  C6  UNL d   1       0.939   2.351  -2.413  0.00  0.00    -0.001 A 
ENDROOT
TORSDOF 0
ENDMDL
