MODEL 1
REMARK minimizedAffinity -3.72801137
REMARK minimizedRMSD -1
REMARK  0 active torsions:
REMARK  status: ('A' for Active; 'I' for Inactive)
ROOT
ATOM      1  C   UNL d   1       1.746   5.206  -1.277  0.00  0.00     0.078 C 
ATOM      2  C1  UNL d   1       1.378   3.768  -1.067  0.00  0.00    -0.077 A 
ATOM      3  C2  UNL d   1       1.093   3.276   0.213  0.00  0.00    -0.001 A 
ATOM      4  C3  UNL d   1       0.760   1.933   0.395  0.00  0.00     0.003 A 
ATOM      5  C4  UNL d   1       0.712   1.070  -0.698  0.00  0.00    -0.005 A 
ATOM      6  C5  UNL d   1       0.996   1.550  -1.975  0.00  0.00     0.003 A 
ATOM      7  C6  UNL d   1       1.329   2.893  -2.159  0.00  0.00    -0.001 A 
ENDROOT
TORSDOF 0
ENDMDL
