MODEL 1
REMARK minimizedAffinity -2.99594808
REMARK minimizedRMSD -1
REMARK  0 active torsions:
REMARK  status: ('A' for Active; 'I' for Inactive)
ROOT
ATOM      1  C   UNL d   1       1.440  -0.475   0.367  0.00  0.00     0.078 C 
ATOM      2  C1  UNL d   1       1.368   0.855  -0.323  0.00  0.00    -0.077 A 
ATOM      3  C2  UNL d   1       1.371   0.943  -1.721  0.00  0.00    -0.001 A 
ATOM      4  C3  UNL d   1       1.313   2.188  -2.349  0.00  0.00     0.003 A 
ATOM      5  C4  UNL d   1       1.254   3.354  -1.588  0.00  0.00    -0.005 A 
ATOM      6  C5  UNL d   1       1.253   3.276  -0.197  0.00  0.00     0.003 A 
ATOM      7  C6  UNL d   1       1.311   2.032   0.433  0.00  0.00    -0.001 A 
ENDROOT
TORSDOF 0
ENDMDL
