MODEL 1
REMARK minimizedAffinity -4.2321887
REMARK minimizedRMSD -1
REMARK  0 active torsions:
REMARK  status: ('A' for Active; 'I' for Inactive)
ROOT
ATOM      1  C   UNL d   1       1.454   3.651  -1.802  0.00  0.00     0.078 C 
ATOM      2  C1  UNL d   1       1.213   2.345  -1.105  0.00  0.00    -0.077 A 
ATOM      3  C2  UNL d   1       1.093   2.283   0.289  0.00  0.00    -0.001 A 
ATOM      4  C3  UNL d   1       0.879   1.060   0.925  0.00  0.00     0.003 A 
ATOM      5  C4  UNL d   1       0.785  -0.112   0.176  0.00  0.00    -0.005 A 
ATOM      6  C5  UNL d   1       0.905  -0.060  -1.211  0.00  0.00     0.003 A 
ATOM      7  C6  UNL d   1       1.119   1.163  -1.849  0.00  0.00    -0.001 A 
ENDROOT
TORSDOF 0
ENDMDL
