MODEL 1
REMARK minimizedAffinity 1.75291514
REMARK minimizedRMSD -1
REMARK  0 active torsions:
REMARK  status: ('A' for Active; 'I' for Inactive)
ROOT
ATOM      1  C   UNL d   1       1.774   3.634  -1.567  0.00  0.00     0.078 C 
ATOM      2  C1  UNL d   1       1.563   2.212  -1.140  0.00  0.00    -0.077 A 
ATOM      3  C2  UNL d   1       1.911   1.786   0.147  0.00  0.00    -0.001 A 
ATOM      4  C3  UNL d   1       1.718   0.457   0.528  0.00  0.00     0.003 A 
ATOM      5  C4  UNL d   1       1.178  -0.458  -0.375  0.00  0.00    -0.005 A 
ATOM      6  C5  UNL d   1       0.831  -0.044  -1.659  0.00  0.00     0.003 A 
ATOM      7  C6  UNL d   1       1.023   1.285  -2.041  0.00  0.00    -0.001 A 
ENDROOT
TORSDOF 0
ENDMDL
