MODEL 1
REMARK minimizedAffinity 1.34310949
REMARK minimizedRMSD -1
REMARK  0 active torsions:
REMARK  status: ('A' for Active; 'I' for Inactive)
ROOT
ATOM      1  C   UNL d   1       0.636  -2.532  -1.251  0.00  0.00     0.078 C 
ATOM      2  C1  UNL d   1       0.907  -1.105  -0.879  0.00  0.00    -0.077 A 
ATOM      3  C2  UNL d   1       1.658  -0.786   0.259  0.00  0.00    -0.001 A 
ATOM      4  C3  UNL d   1       1.894   0.547   0.599  0.00  0.00     0.003 A 
ATOM      5  C4  UNL d   1       1.382   1.572  -0.194  0.00  0.00    -0.005 A 
ATOM      6  C5  UNL d   1       0.632   1.265  -1.327  0.00  0.00     0.003 A 
ATOM      7  C6  UNL d   1       0.395  -0.068  -1.669  0.00  0.00    -0.001 A 
ENDROOT
TORSDOF 0
ENDMDL
