MODEL 1
REMARK minimizedAffinity -3.12651324
REMARK minimizedRMSD -1
REMARK  0 active torsions:
REMARK  status: ('A' for Active; 'I' for Inactive)
ROOT
ATOM      1  C   UNL d   1       2.053   6.000  -0.750  0.00  0.00     0.078 C 
ATOM      2  C1  UNL d   1       1.868   4.522  -0.574  0.00  0.00    -0.077 A 
ATOM      3  C2  UNL d   1       1.875   3.658  -1.675  0.00  0.00    -0.001 A 
ATOM      4  C3  UNL d   1       1.692   2.286  -1.497  0.00  0.00     0.003 A 
ATOM      5  C4  UNL d   1       1.499   1.766  -0.219  0.00  0.00    -0.005 A 
ATOM      6  C5  UNL d   1       1.488   2.618   0.883  0.00  0.00     0.003 A 
ATOM      7  C6  UNL d   1       1.671   3.991   0.707  0.00  0.00    -0.001 A 
ENDROOT
TORSDOF 0
ENDMDL
