MODEL 1
REMARK minimizedAffinity -3.50201297
REMARK minimizedRMSD -1
REMARK  0 active torsions:
REMARK  status: ('A' for Active; 'I' for Inactive)
ROOT
ATOM      1  C   UNL d   1       1.207   0.076  -0.887  0.00  0.00     0.078 C 
ATOM      2  C1  UNL d   1       1.260   1.562  -0.691  0.00  0.00    -0.077 A 
ATOM      3  C2  UNL d   1       1.571   2.419  -1.754  0.00  0.00    -0.001 A 
ATOM      4  C3  UNL d   1       1.626   3.799  -1.555  0.00  0.00     0.003 A 
ATOM      5  C4  UNL d   1       1.373   4.335  -0.294  0.00  0.00    -0.005 A 
ATOM      6  C5  UNL d   1       1.065   3.490   0.771  0.00  0.00     0.003 A 
ATOM      7  C6  UNL d   1       1.009   2.110   0.574  0.00  0.00    -0.001 A 
ENDROOT
TORSDOF 0
ENDMDL
