MODEL 1
REMARK minimizedAffinity 15.2628107
REMARK minimizedRMSD -1
REMARK  1 active torsions:
REMARK  status: ('A' for Active; 'I' for Inactive)
REMARK    1  A    between atoms: C1_2  and  C2_3 
ROOT
ATOM      1  C2  UNL d   1      -1.848  -1.346  -0.199  0.00  0.00    -0.073 A 
ATOM      2  C3  UNL d   1      -3.056  -0.743   0.171  0.00  0.00    -0.002 A 
ATOM      3  C4  UNL d   1      -3.108   0.111   1.273  0.00  0.00     0.004 A 
ATOM      4  C5  UNL d   1      -1.955   0.376   2.011  0.00  0.00    -0.004 A 
ATOM      5  C6  UNL d   1      -0.737  -0.208   1.650  0.00  0.00    -0.075 A 
ATOM      6  C7  UNL d   1       0.513   0.065   2.436  0.00  0.00     0.076 C 
ATOM      7  C8  UNL d   1      -0.692  -1.066   0.544  0.00  0.00     0.001 A 
ENDROOT
BRANCH   1   8
ATOM      8  C1  UNL d   1      -1.785  -2.264  -1.393  0.00  0.00     0.053 C 
ATOM      9  C   UNL d   1      -1.743  -1.494  -2.703  0.00  0.00     0.018 C 
ENDBRANCH   1   8
TORSDOF 1
ENDMDL
