MODEL 1
REMARK minimizedAffinity 8.5114851
REMARK minimizedRMSD -1
REMARK  1 active torsions:
REMARK  status: ('A' for Active; 'I' for Inactive)
REMARK    1  A    between atoms: C1_2  and  C2_3 
ROOT
ATOM      1  C2  UNL d   1       0.041   1.396   4.019  0.00  0.00    -0.073 A 
ATOM      2  C3  UNL d   1      -0.188   1.147   2.660  0.00  0.00    -0.002 A 
ATOM      3  C4  UNL d   1       0.129  -0.095   2.109  0.00  0.00     0.004 A 
ATOM      4  C5  UNL d   1       0.670  -1.101   2.909  0.00  0.00    -0.004 A 
ATOM      5  C6  UNL d   1       0.894  -0.876   4.270  0.00  0.00    -0.075 A 
ATOM      6  C7  UNL d   1       1.477  -1.947   5.144  0.00  0.00     0.076 C 
ATOM      7  C8  UNL d   1       0.576   0.375   4.817  0.00  0.00     0.001 A 
ENDROOT
BRANCH   1   8
ATOM      8  C1  UNL d   1      -0.306   2.733   4.620  0.00  0.00     0.053 C 
ATOM      9  C   UNL d   1       0.362   2.941   5.971  0.00  0.00     0.018 C 
ENDBRANCH   1   8
TORSDOF 1
ENDMDL
