MODEL 1
REMARK minimizedAffinity 8.75638962
REMARK minimizedRMSD -1
REMARK  1 active torsions:
REMARK  status: ('A' for Active; 'I' for Inactive)
REMARK    1  A    between atoms: C1_2  and  C2_3 
ROOT
ATOM      1  C2  UNL d   1      -1.125  -1.491  -3.861  0.00  0.00    -0.073 A 
ATOM      2  C3  UNL d   1      -0.998  -2.546  -4.771  0.00  0.00    -0.002 A 
ATOM      3  C4  UNL d   1       0.024  -2.538  -5.721  0.00  0.00     0.004 A 
ATOM      4  C5  UNL d   1       0.932  -1.480  -5.767  0.00  0.00    -0.004 A 
ATOM      5  C6  UNL d   1       0.828  -0.422  -4.858  0.00  0.00    -0.075 A 
ATOM      6  C7  UNL d   1       1.795   0.725  -4.895  0.00  0.00     0.076 C 
ATOM      7  C8  UNL d   1      -0.203  -0.436  -3.908  0.00  0.00     0.001 A 
ENDROOT
BRANCH   1   8
ATOM      8  C1  UNL d   1      -2.223  -1.498  -2.829  0.00  0.00     0.053 C 
ATOM      9  C   UNL d   1      -1.710  -1.891  -1.453  0.00  0.00     0.018 C 
ENDBRANCH   1   8
TORSDOF 1
ENDMDL
