MODEL 1
REMARK minimizedAffinity 23.5509415
REMARK minimizedRMSD -1
REMARK  1 active torsions:
REMARK  status: ('A' for Active; 'I' for Inactive)
REMARK    1  A    between atoms: C1_2  and  C2_3 
ROOT
ATOM      1  C2  UNL d   1       5.017   0.012  -5.257  0.00  0.00    -0.073 A 
ATOM      2  C3  UNL d   1       3.621   0.112  -5.224  0.00  0.00    -0.002 A 
ATOM      3  C4  UNL d   1       2.997   1.342  -5.433  0.00  0.00     0.004 A 
ATOM      4  C5  UNL d   1       3.760   2.482  -5.684  0.00  0.00    -0.004 A 
ATOM      5  C6  UNL d   1       5.155   2.401  -5.733  0.00  0.00    -0.075 A 
ATOM      6  C7  UNL d   1       5.990   3.619  -5.999  0.00  0.00     0.076 C 
ATOM      7  C8  UNL d   1       5.775   1.163  -5.519  0.00  0.00     0.001 A 
ENDROOT
BRANCH   1   8
ATOM      8  C1  UNL d   1       5.695  -1.315  -5.037  0.00  0.00     0.053 C 
ATOM      9  C   UNL d   1       5.172  -2.025  -3.799  0.00  0.00     0.018 C 
ENDBRANCH   1   8
TORSDOF 1
ENDMDL
