MODEL 1
REMARK minimizedAffinity 9.2527523
REMARK minimizedRMSD -1
REMARK  1 active torsions:
REMARK  status: ('A' for Active; 'I' for Inactive)
REMARK    1  A    between atoms: C1_2  and  C2_3 
ROOT
ATOM      1  C2  UNL d   1       0.261  -1.254   3.514  0.00  0.00    -0.073 A 
ATOM      2  C3  UNL d   1       0.316  -1.602   2.159  0.00  0.00    -0.002 A 
ATOM      3  C4  UNL d   1       0.143  -0.628   1.174  0.00  0.00     0.004 A 
ATOM      4  C5  UNL d   1      -0.080   0.701   1.532  0.00  0.00    -0.004 A 
ATOM      5  C6  UNL d   1      -0.127   1.070   2.881  0.00  0.00    -0.075 A 
ATOM      6  C7  UNL d   1      -0.368   2.495   3.283  0.00  0.00     0.076 C 
ATOM      7  C8  UNL d   1       0.045   0.086   3.864  0.00  0.00     0.001 A 
ENDROOT
BRANCH   1   8
ATOM      8  C1  UNL d   1       0.453  -2.301   4.581  0.00  0.00     0.053 C 
ATOM      9  C   UNL d   1       1.834  -2.223   5.212  0.00  0.00     0.018 C 
ENDBRANCH   1   8
TORSDOF 1
ENDMDL
