MODEL 1
REMARK minimizedAffinity 10.6011133
REMARK minimizedRMSD -1
REMARK  0 active torsions:
REMARK  status: ('A' for Active; 'I' for Inactive)
ROOT
ATOM      1  C   UNL d   1      -0.488  -2.985  -4.905  0.00  0.00    -0.002 A 
ATOM      2  C1  UNL d   1      -1.534  -3.818  -4.535  0.00  0.00     0.010 A 
ATOM      3  C2  UNL d   1      -2.493  -3.388  -3.615  0.00  0.00     0.041 A 
ATOM      4  C3  UNL d   1      -2.382  -2.094  -3.070  0.00  0.00    -0.075 A 
ATOM      5  S   UNL d   1      -3.440  -1.353  -1.928  0.00  0.00     0.015 SA
ATOM      6  C4  UNL d   1      -2.529   0.087  -1.905  0.00  0.00     0.022 A 
ATOM      7  C5  UNL d   1      -1.441   0.022  -2.743  0.00  0.00     0.026 A 
ATOM      8  C6  UNL d   1      -1.338  -1.236  -3.428  0.00  0.00    -0.082 A 
ATOM      9  C7  UNL d   1      -0.382  -1.701  -4.362  0.00  0.00     0.045 A 
ENDROOT
TORSDOF 0
ENDMDL
