MODEL 1
REMARK minimizedAffinity 0.89138031
REMARK minimizedRMSD -1
REMARK  0 active torsions:
REMARK  status: ('A' for Active; 'I' for Inactive)
ROOT
ATOM      1  C   UNL d   1       2.113  -5.991   5.697  0.00  0.00    -0.002 A 
ATOM      2  C1  UNL d   1       0.748  -5.993   5.950  0.00  0.00     0.010 A 
ATOM      3  C2  UNL d   1      -0.170  -5.992   4.898  0.00  0.00     0.041 A 
ATOM      4  C3  UNL d   1       0.312  -5.993   3.574  0.00  0.00    -0.075 A 
ATOM      5  S   UNL d   1      -0.626  -5.994   2.127  0.00  0.00     0.015 SA
ATOM      6  C4  UNL d   1       0.762  -5.993   1.139  0.00  0.00     0.022 A 
ATOM      7  C5  UNL d   1       1.921  -5.993   1.877  0.00  0.00     0.026 A 
ATOM      8  C6  UNL d   1       1.681  -5.993   3.293  0.00  0.00    -0.082 A 
ATOM      9  C7  UNL d   1       2.586  -5.992   4.382  0.00  0.00     0.045 A 
ENDROOT
TORSDOF 0
ENDMDL
