MODEL 1
REMARK minimizedAffinity 10.9761972
REMARK minimizedRMSD -1
REMARK  0 active torsions:
REMARK  status: ('A' for Active; 'I' for Inactive)
ROOT
ATOM      1  C   UNL d   1      -3.244  -3.231  -3.294  0.00  0.00    -0.002 A 
ATOM      2  C1  UNL d   1      -2.959  -2.227  -2.379  0.00  0.00     0.010 A 
ATOM      3  C2  UNL d   1      -1.747  -1.536  -2.438  0.00  0.00     0.041 A 
ATOM      4  C3  UNL d   1      -0.818  -1.872  -3.442  0.00  0.00    -0.075 A 
ATOM      5  S   UNL d   1       0.730  -1.161  -3.708  0.00  0.00     0.015 SA
ATOM      6  C4  UNL d   1       1.048  -2.171  -5.043  0.00  0.00     0.022 A 
ATOM      7  C5  UNL d   1       0.010  -3.037  -5.293  0.00  0.00     0.026 A 
ATOM      8  C6  UNL d   1      -1.083  -2.879  -4.376  0.00  0.00    -0.082 A 
ATOM      9  C7  UNL d   1      -2.320  -3.561  -4.289  0.00  0.00     0.045 A 
ENDROOT
TORSDOF 0
ENDMDL
