MODEL 1
REMARK minimizedAffinity 5.87861633
REMARK minimizedRMSD -1
REMARK  0 active torsions:
REMARK  status: ('A' for Active; 'I' for Inactive)
ROOT
ATOM      1  C   UNL d   1       2.758  -5.989   3.356  0.00  0.00    -0.002 A 
ATOM      2  C1  UNL d   1       2.033  -5.992   4.539  0.00  0.00     0.010 A 
ATOM      3  C2  UNL d   1       0.637  -5.994   4.517  0.00  0.00     0.041 A 
ATOM      4  C3  UNL d   1      -0.024  -5.995   3.273  0.00  0.00    -0.075 A 
ATOM      5  S   UNL d   1      -1.727  -5.999   3.001  0.00  0.00     0.015 SA
ATOM      6  C4  UNL d   1      -1.532  -5.998   1.308  0.00  0.00     0.022 A 
ATOM      7  C5  UNL d   1      -0.207  -5.994   0.942  0.00  0.00     0.026 A 
ATOM      8  C6  UNL d   1       0.684  -5.993   2.068  0.00  0.00    -0.082 A 
ATOM      9  C7  UNL d   1       2.098  -5.990   2.124  0.00  0.00     0.045 A 
ENDROOT
TORSDOF 0
ENDMDL
