MODEL 1
REMARK minimizedAffinity 8.82000446
REMARK minimizedRMSD -1
REMARK  0 active torsions:
REMARK  status: ('A' for Active; 'I' for Inactive)
ROOT
ATOM      1  C   UNL d   1       0.384   1.091   0.550  0.00  0.00    -0.002 A 
ATOM      2  C1  UNL d   1      -0.025   0.156   1.491  0.00  0.00     0.010 A 
ATOM      3  C2  UNL d   1      -1.044  -0.750   1.195  0.00  0.00     0.041 A 
ATOM      4  C3  UNL d   1      -1.652  -0.702  -0.076  0.00  0.00    -0.075 A 
ATOM      5  S   UNL d   1      -2.919  -1.713  -0.661  0.00  0.00     0.015 SA
ATOM      6  C4  UNL d   1      -2.948  -0.928  -2.174  0.00  0.00     0.022 A 
ATOM      7  C5  UNL d   1      -2.020   0.083  -2.247  0.00  0.00     0.026 A 
ATOM      8  C6  UNL d   1      -1.257   0.230  -1.040  0.00  0.00    -0.082 A 
ATOM      9  C7  UNL d   1      -0.221   1.136  -0.709  0.00  0.00     0.045 A 
ENDROOT
TORSDOF 0
ENDMDL
