MODEL 1
REMARK minimizedAffinity 8.47046566
REMARK minimizedRMSD -1
REMARK  0 active torsions:
REMARK  status: ('A' for Active; 'I' for Inactive)
ROOT
ATOM      1  C   UNL d   1       0.184  -5.999   0.596  0.00  0.00    -0.002 A 
ATOM      2  C1  UNL d   1       1.536  -5.999   0.908  0.00  0.00     0.010 A 
ATOM      3  C2  UNL d   1       1.958  -5.999   2.239  0.00  0.00     0.041 A 
ATOM      4  C3  UNL d   1       0.989  -5.999   3.261  0.00  0.00    -0.075 A 
ATOM      5  S   UNL d   1       1.272  -5.999   4.962  0.00  0.00     0.015 SA
ATOM      6  C4  UNL d   1      -0.395  -5.999   5.314  0.00  0.00     0.022 A 
ATOM      7  C5  UNL d   1      -1.164  -5.998   4.174  0.00  0.00     0.026 A 
ATOM      8  C6  UNL d   1      -0.378  -5.999   2.972  0.00  0.00    -0.082 A 
ATOM      9  C7  UNL d   1      -0.774  -5.999   1.613  0.00  0.00     0.045 A 
ENDROOT
TORSDOF 0
ENDMDL
