MODEL 1
REMARK minimizedAffinity 8.9120121
REMARK minimizedRMSD -1
REMARK  0 active torsions:
REMARK  status: ('A' for Active; 'I' for Inactive)
ROOT
ATOM      1  C   UNL d   1       3.539  -5.994   3.835  0.00  0.00    -0.002 A 
ATOM      2  C1  UNL d   1       2.991  -5.997   5.109  0.00  0.00     0.010 A 
ATOM      3  C2  UNL d   1       1.606  -5.998   5.287  0.00  0.00     0.041 A 
ATOM      4  C3  UNL d   1       0.773  -5.997   4.151  0.00  0.00    -0.075 A 
ATOM      5  S   UNL d   1      -0.951  -5.999   4.126  0.00  0.00     0.015 SA
ATOM      6  C4  UNL d   1      -1.001  -5.997   2.423  0.00  0.00     0.022 A 
ATOM      7  C5  UNL d   1       0.258  -5.994   1.870  0.00  0.00     0.026 A 
ATOM      8  C6  UNL d   1       1.301  -5.995   2.857  0.00  0.00    -0.082 A 
ATOM      9  C7  UNL d   1       2.709  -5.994   2.710  0.00  0.00     0.045 A 
ENDROOT
TORSDOF 0
ENDMDL
