MODEL 1
REMARK minimizedAffinity 3.30843902
REMARK minimizedRMSD -1
REMARK  0 active torsions:
REMARK  status: ('A' for Active; 'I' for Inactive)
ROOT
ATOM      1  C   UNL d   1      -5.951  -5.996   1.757  0.00  0.00    -0.002 A 
ATOM      2  C1  UNL d   1      -5.998  -5.995   3.144  0.00  0.00     0.010 A 
ATOM      3  C2  UNL d   1      -4.821  -5.996   3.895  0.00  0.00     0.041 A 
ATOM      4  C3  UNL d   1      -3.583  -5.997   3.222  0.00  0.00    -0.075 A 
ATOM      5  S   UNL d   1      -2.013  -5.998   3.933  0.00  0.00     0.015 SA
ATOM      6  C4  UNL d   1      -1.242  -5.999   2.413  0.00  0.00     0.022 A 
ATOM      7  C5  UNL d   1      -2.146  -5.999   1.377  0.00  0.00     0.026 A 
ATOM      8  C6  UNL d   1      -3.510  -5.997   1.826  0.00  0.00    -0.082 A 
ATOM      9  C7  UNL d   1      -4.721  -5.997   1.093  0.00  0.00     0.045 A 
ENDROOT
TORSDOF 0
ENDMDL
