MODEL 1
REMARK minimizedAffinity 1.62341273
REMARK minimizedRMSD -1
REMARK  0 active torsions:
REMARK  status: ('A' for Active; 'I' for Inactive)
ROOT
ATOM      1  C   UNL d   1      -0.168   0.117   2.143  0.00  0.00    -0.002 A 
ATOM      2  C1  UNL d   1      -0.623  -1.172   2.384  0.00  0.00     0.010 A 
ATOM      3  C2  UNL d   1      -1.914  -1.390   2.869  0.00  0.00     0.041 A 
ATOM      4  C3  UNL d   1      -2.748  -0.280   3.109  0.00  0.00    -0.075 A 
ATOM      5  S   UNL d   1      -4.367  -0.306   3.701  0.00  0.00     0.015 SA
ATOM      6  C4  UNL d   1      -4.493   1.393   3.648  0.00  0.00     0.022 A 
ATOM      7  C5  UNL d   1      -3.337   1.981   3.192  0.00  0.00     0.026 A 
ATOM      8  C6  UNL d   1      -2.313   1.027   2.873  0.00  0.00    -0.082 A 
ATOM      9  C7  UNL d   1      -0.998   1.215   2.382  0.00  0.00     0.045 A 
ENDROOT
TORSDOF 0
ENDMDL
