MODEL 1
REMARK minimizedAffinity 1.30242193
REMARK minimizedRMSD -1
REMARK  0 active torsions:
REMARK  status: ('A' for Active; 'I' for Inactive)
ROOT
ATOM      1  C   UNL d   1      -2.395  -3.138   2.180  0.00  0.00    -0.002 A 
ATOM      2  C1  UNL d   1      -2.557  -2.429   3.362  0.00  0.00     0.010 A 
ATOM      3  C2  UNL d   1      -1.990  -1.162   3.513  0.00  0.00     0.041 A 
ATOM      4  C3  UNL d   1      -1.252  -0.614   2.445  0.00  0.00    -0.075 A 
ATOM      5  S   UNL d   1      -0.469   0.921   2.404  0.00  0.00     0.015 SA
ATOM      6  C4  UNL d   1       0.098   0.673   0.816  0.00  0.00     0.022 A 
ATOM      7  C5  UNL d   1      -0.291  -0.547   0.314  0.00  0.00     0.026 A 
ATOM      8  C6  UNL d   1      -1.076  -1.308   1.245  0.00  0.00    -0.082 A 
ATOM      9  C7  UNL d   1      -1.663  -2.591   1.123  0.00  0.00     0.045 A 
ENDROOT
TORSDOF 0
ENDMDL
