MODEL 1
REMARK minimizedAffinity 5.72296333
REMARK minimizedRMSD -1
REMARK  0 active torsions:
REMARK  status: ('A' for Active; 'I' for Inactive)
ROOT
ATOM      1  C   UNL d   1      -5.082   0.526   4.549  0.00  0.00    -0.002 A 
ATOM      2  C1  UNL d   1      -4.928   1.842   4.136  0.00  0.00     0.010 A 
ATOM      3  C2  UNL d   1      -3.729   2.271   3.564  0.00  0.00     0.041 A 
ATOM      4  C3  UNL d   1      -2.677   1.347   3.411  0.00  0.00    -0.075 A 
ATOM      5  S   UNL d   1      -1.119   1.647   2.736  0.00  0.00     0.015 SA
ATOM      6  C4  UNL d   1      -0.621   0.035   2.979  0.00  0.00     0.022 A 
ATOM      7  C5  UNL d   1      -1.607  -0.727   3.560  0.00  0.00     0.026 A 
ATOM      8  C6  UNL d   1      -2.808   0.016   3.818  0.00  0.00    -0.082 A 
ATOM      9  C7  UNL d   1      -4.036  -0.389   4.395  0.00  0.00     0.045 A 
ENDROOT
TORSDOF 0
ENDMDL
