MODEL 1
REMARK minimizedAffinity 4.28616095
REMARK minimizedRMSD -1
REMARK  0 active torsions:
REMARK  status: ('A' for Active; 'I' for Inactive)
ROOT
ATOM      1  C   UNL d   1       0.980  -2.011   3.643  0.00  0.00     0.124 A 
ATOM      2  C1  UNL d   1       1.221  -0.708   4.057  0.00  0.00     0.062 A 
ATOM      3  C2  UNL d   1       1.926   0.168   3.237  0.00  0.00     0.162 A 
ATOM      4  C3  UNL d   1       2.397  -0.255   1.994  0.00  0.00    -0.034 A 
ATOM      5  C4  UNL d   1       2.152  -1.567   1.585  0.00  0.00     0.162 A 
ATOM      6  C5  UNL d   1       1.446  -2.439   2.408  0.00  0.00     0.062 A 
ATOM      7  F   UNL d   1       1.215  -3.698   2.006  0.00  0.00    -0.097 F 
ATOM      8  F1  UNL d   1       2.590  -2.008   0.396  0.00  0.00    -0.096 F 
ATOM      9  I   UNL d   1       3.452   1.051   0.766  0.00  0.00    -0.060 I 
ATOM     10  F2  UNL d   1       2.144   1.422   3.663  0.00  0.00    -0.096 F 
ATOM     11  F3  UNL d   1       0.772  -0.291   5.250  0.00  0.00    -0.097 F 
ATOM     12  F4  UNL d   1       0.302  -2.852   4.434  0.00  0.00    -0.092 F 
ENDROOT
TORSDOF 0
ENDMDL
