MODEL 1
REMARK minimizedAffinity 16.2099476
REMARK minimizedRMSD -1
REMARK  0 active torsions:
REMARK  status: ('A' for Active; 'I' for Inactive)
ROOT
ATOM      1  C   UNL d   1       0.362   0.169   0.377  0.00  0.00     0.124 A 
ATOM      2  C1  UNL d   1       1.632   0.680   0.149  0.00  0.00     0.062 A 
ATOM      3  C2  UNL d   1       1.794   2.003  -0.250  0.00  0.00     0.162 A 
ATOM      4  C3  UNL d   1       0.681   2.827  -0.424  0.00  0.00    -0.034 A 
ATOM      5  C4  UNL d   1      -0.594   2.306  -0.194  0.00  0.00     0.162 A 
ATOM      6  C5  UNL d   1      -0.750   0.983   0.206  0.00  0.00     0.062 A 
ATOM      7  F   UNL d   1      -1.978   0.491   0.425  0.00  0.00    -0.097 F 
ATOM      8  F1  UNL d   1      -1.685   3.070  -0.351  0.00  0.00    -0.096 F 
ATOM      9  I   UNL d   1       0.918   4.806  -1.021  0.00  0.00    -0.060 I 
ATOM     10  F2  UNL d   1       3.033   2.469  -0.463  0.00  0.00    -0.096 F 
ATOM     11  F3  UNL d   1       2.707  -0.104   0.314  0.00  0.00    -0.097 F 
ATOM     12  F4  UNL d   1       0.209  -1.105   0.761  0.00  0.00    -0.092 F 
ENDROOT
TORSDOF 0
ENDMDL
