MODEL 1
REMARK minimizedAffinity 14.4682236
REMARK minimizedRMSD -1
REMARK  0 active torsions:
REMARK  status: ('A' for Active; 'I' for Inactive)
ROOT
ATOM      1  C   UNL d   1       2.333  -5.969  -0.972  0.00  0.00     0.124 A 
ATOM      2  C1  UNL d   1       1.613  -5.980  -2.158  0.00  0.00     0.062 A 
ATOM      3  C2  UNL d   1       2.278  -5.987  -3.381  0.00  0.00     0.162 A 
ATOM      4  C3  UNL d   1       3.672  -5.984  -3.423  0.00  0.00    -0.034 A 
ATOM      5  C4  UNL d   1       4.389  -5.972  -2.226  0.00  0.00     0.162 A 
ATOM      6  C5  UNL d   1       3.720  -5.966  -1.006  0.00  0.00     0.062 A 
ATOM      7  F   UNL d   1       4.418  -5.955   0.139  0.00  0.00    -0.097 F 
ATOM      8  F1  UNL d   1       5.731  -5.969  -2.231  0.00  0.00    -0.096 F 
ATOM      9  I   UNL d   1       4.670  -5.994  -5.249  0.00  0.00    -0.060 I 
ATOM     10  F2  UNL d   1       1.556  -5.997  -4.511  0.00  0.00    -0.096 F 
ATOM     11  F3  UNL d   1       0.272  -5.983  -2.127  0.00  0.00    -0.097 F 
ATOM     12  F4  UNL d   1       1.690  -5.962   0.203  0.00  0.00    -0.092 F 
ENDROOT
TORSDOF 0
ENDMDL
