MODEL 1
REMARK minimizedAffinity 4.02131414
REMARK minimizedRMSD -1
REMARK  0 active torsions:
REMARK  status: ('A' for Active; 'I' for Inactive)
ROOT
ATOM      1  C   UNL d   1       2.042  -5.998  -2.285  0.00  0.00     0.124 A 
ATOM      2  C1  UNL d   1       3.407  -5.996  -2.033  0.00  0.00     0.062 A 
ATOM      3  C2  UNL d   1       4.315  -5.996  -3.088  0.00  0.00     0.162 A 
ATOM      4  C3  UNL d   1       3.860  -5.996  -4.407  0.00  0.00    -0.034 A 
ATOM      5  C4  UNL d   1       2.486  -5.998  -4.653  0.00  0.00     0.162 A 
ATOM      6  C5  UNL d   1       1.583  -5.999  -3.595  0.00  0.00     0.062 A 
ATOM      7  F   UNL d   1       0.265  -6.000  -3.841  0.00  0.00    -0.097 F 
ATOM      8  F1  UNL d   1       2.014  -5.998  -5.909  0.00  0.00    -0.096 F 
ATOM      9  I   UNL d   1       5.213  -5.995  -5.988  0.00  0.00    -0.060 I 
ATOM     10  F2  UNL d   1       5.628  -5.995  -2.815  0.00  0.00    -0.096 F 
ATOM     11  F3  UNL d   1       3.854  -5.996  -0.768  0.00  0.00    -0.097 F 
ATOM     12  F4  UNL d   1       1.172  -5.999  -1.268  0.00  0.00    -0.092 F 
ENDROOT
TORSDOF 0
ENDMDL
