MODEL 1
REMARK minimizedAffinity 12.4402065
REMARK minimizedRMSD -1
REMARK  0 active torsions:
REMARK  status: ('A' for Active; 'I' for Inactive)
ROOT
ATOM      1  C   UNL d   1       3.364  -5.549   0.195  0.00  0.00     0.124 A 
ATOM      2  C1  UNL d   1       2.038  -5.678  -0.195  0.00  0.00     0.062 A 
ATOM      3  C2  UNL d   1       1.715  -5.805  -1.543  0.00  0.00     0.162 A 
ATOM      4  C3  UNL d   1       2.720  -5.806  -2.511  0.00  0.00    -0.034 A 
ATOM      5  C4  UNL d   1       4.051  -5.675  -2.110  0.00  0.00     0.162 A 
ATOM      6  C5  UNL d   1       4.369  -5.548  -0.762  0.00  0.00     0.062 A 
ATOM      7  F   UNL d   1       5.650  -5.423  -0.386  0.00  0.00    -0.097 F 
ATOM      8  F1  UNL d   1       5.042  -5.671  -3.014  0.00  0.00    -0.096 F 
ATOM      9  I   UNL d   1       2.241  -5.996  -4.527  0.00  0.00    -0.060 I 
ATOM     10  F2  UNL d   1       0.426  -5.928  -1.892  0.00  0.00    -0.096 F 
ATOM     11  F3  UNL d   1       1.066  -5.678   0.728  0.00  0.00    -0.097 F 
ATOM     12  F4  UNL d   1       3.672  -5.425   1.493  0.00  0.00    -0.092 F 
ENDROOT
TORSDOF 0
ENDMDL
