MODEL 1
REMARK minimizedAffinity 11.0767431
REMARK minimizedRMSD -1
REMARK  0 active torsions:
REMARK  status: ('A' for Active; 'I' for Inactive)
ROOT
ATOM      1  C   UNL d   1       3.658  -0.992   1.981  0.00  0.00     0.124 A 
ATOM      2  C1  UNL d   1       2.402  -1.466   2.335  0.00  0.00     0.062 A 
ATOM      3  C2  UNL d   1       2.272  -2.428   3.333  0.00  0.00     0.162 A 
ATOM      4  C3  UNL d   1       3.402  -2.922   3.985  0.00  0.00    -0.034 A 
ATOM      5  C4  UNL d   1       4.662  -2.441   3.623  0.00  0.00     0.162 A 
ATOM      6  C5  UNL d   1       4.786  -1.480   2.625  0.00  0.00     0.062 A 
ATOM      7  F   UNL d   1       6.000  -1.023   2.285  0.00  0.00    -0.097 F 
ATOM      8  F1  UNL d   1       5.769  -2.895   4.230  0.00  0.00    -0.096 F 
ATOM      9  I   UNL d   1       3.213  -4.360   5.478  0.00  0.00    -0.060 I 
ATOM     10  F2  UNL d   1       1.047  -2.868   3.655  0.00  0.00    -0.096 F 
ATOM     11  F3  UNL d   1       1.310  -0.997   1.714  0.00  0.00    -0.097 F 
ATOM     12  F4  UNL d   1       3.779  -0.068   1.020  0.00  0.00    -0.092 F 
ENDROOT
TORSDOF 0
ENDMDL
