MODEL 1
REMARK minimizedAffinity 15.7218704
REMARK minimizedRMSD -1
REMARK  0 active torsions:
REMARK  status: ('A' for Active; 'I' for Inactive)
ROOT
ATOM      1  C   UNL d   1       3.142  -5.757  -4.623  0.00  0.00     0.124 A 
ATOM      2  C1  UNL d   1       4.402  -5.803  -4.043  0.00  0.00     0.062 A 
ATOM      3  C2  UNL d   1       4.534  -5.865  -2.659  0.00  0.00     0.162 A 
ATOM      4  C3  UNL d   1       3.402  -5.883  -1.845  0.00  0.00    -0.034 A 
ATOM      5  C4  UNL d   1       2.137  -5.836  -2.435  0.00  0.00     0.162 A 
ATOM      6  C5  UNL d   1       2.011  -5.773  -3.819  0.00  0.00     0.062 A 
ATOM      7  F   UNL d   1       0.792  -5.729  -4.377  0.00  0.00    -0.097 F 
ATOM      8  F1  UNL d   1       1.028  -5.851  -1.681  0.00  0.00    -0.096 F 
ATOM      9  I   UNL d   1       3.595  -5.976   0.226  0.00  0.00    -0.060 I 
ATOM     10  F2  UNL d   1       5.764  -5.908  -2.126  0.00  0.00    -0.096 F 
ATOM     11  F3  UNL d   1       5.496  -5.786  -4.819  0.00  0.00    -0.097 F 
ATOM     12  F4  UNL d   1       3.018  -5.696  -5.955  0.00  0.00    -0.092 F 
ENDROOT
TORSDOF 0
ENDMDL
