MODEL 1
REMARK minimizedAffinity 23.5043011
REMARK minimizedRMSD -1
REMARK  0 active torsions:
REMARK  status: ('A' for Active; 'I' for Inactive)
ROOT
ATOM      1  C   UNL d   1       2.556  -5.766  -4.708  0.00  0.00     0.124 A 
ATOM      2  C1  UNL d   1       3.902  -5.647  -4.392  0.00  0.00     0.062 A 
ATOM      3  C2  UNL d   1       4.311  -5.645  -3.061  0.00  0.00     0.162 A 
ATOM      4  C3  UNL d   1       3.372  -5.763  -2.036  0.00  0.00    -0.034 A 
ATOM      5  C4  UNL d   1       2.020  -5.881  -2.362  0.00  0.00     0.162 A 
ATOM      6  C5  UNL d   1       1.616  -5.883  -3.693  0.00  0.00     0.062 A 
ATOM      7  F   UNL d   1       0.315  -5.998  -3.997  0.00  0.00    -0.097 F 
ATOM      8  F1  UNL d   1       1.091  -5.997  -1.402  0.00  0.00    -0.096 F 
ATOM      9  I   UNL d   1       3.980  -5.761  -0.046  0.00  0.00    -0.060 I 
ATOM     10  F2  UNL d   1       5.618  -5.529  -2.785  0.00  0.00    -0.096 F 
ATOM     11  F3  UNL d   1       4.812  -5.533  -5.370  0.00  0.00    -0.097 F 
ATOM     12  F4  UNL d   1       2.165  -5.766  -5.989  0.00  0.00    -0.092 F 
ENDROOT
TORSDOF 0
ENDMDL
