MODEL 1
REMARK minimizedAffinity 6.84761286
REMARK minimizedRMSD -1
REMARK  0 active torsions:
REMARK  status: ('A' for Active; 'I' for Inactive)
ROOT
ATOM      1  C   UNL d   1       2.234  -5.997  -0.933  0.00  0.00     0.124 A 
ATOM      2  C1  UNL d   1       3.578  -5.996  -1.278  0.00  0.00     0.062 A 
ATOM      3  C2  UNL d   1       3.957  -5.995  -2.617  0.00  0.00     0.162 A 
ATOM      4  C3  UNL d   1       2.990  -5.993  -3.622  0.00  0.00    -0.034 A 
ATOM      5  C4  UNL d   1       1.640  -5.995  -3.268  0.00  0.00     0.162 A 
ATOM      6  C5  UNL d   1       1.266  -5.996  -1.928  0.00  0.00     0.062 A 
ATOM      7  F   UNL d   1      -0.033  -5.997  -1.596  0.00  0.00    -0.097 F 
ATOM      8  F1  UNL d   1       0.684  -5.993  -4.208  0.00  0.00    -0.096 F 
ATOM      9  I   UNL d   1       3.553  -5.990  -5.626  0.00  0.00    -0.060 I 
ATOM     10  F2  UNL d   1       5.264  -5.994  -2.922  0.00  0.00    -0.096 F 
ATOM     11  F3  UNL d   1       4.515  -5.998  -0.319  0.00  0.00    -0.097 F 
ATOM     12  F4  UNL d   1       1.872  -6.000   0.357  0.00  0.00    -0.092 F 
ENDROOT
TORSDOF 0
ENDMDL
