MODEL 1
REMARK minimizedAffinity 3.81234312
REMARK minimizedRMSD -1
REMARK  0 active torsions:
REMARK  status: ('A' for Active; 'I' for Inactive)
ROOT
ATOM      1  C2' OXE d   1      -1.299   0.546   1.587  0.00  0.00     0.078 C 
ATOM      2  C1' OXE d   1       0.476  -0.401  -0.371  0.00  0.00     0.078 C 
ATOM      3  C1  OXE d   1       0.359  -1.186   0.912  0.00  0.00    -0.078 A 
ATOM      4  C2  OXE d   1      -0.477  -0.690   1.883  0.00  0.00    -0.078 A 
ATOM      5  C3  OXE d   1      -0.662  -1.404   3.064  0.00  0.00     0.003 A 
ATOM      6  C4  OXE d   1       0.110  -2.540   3.333  0.00  0.00    -0.002 A 
ATOM      7  C5  OXE d   1       0.997  -3.040   2.374  0.00  0.00    -0.002 A 
ATOM      8  C6  OXE d   1       1.101  -2.401   1.144  0.00  0.00     0.003 A 
ENDROOT
TORSDOF 0
ENDMDL
