MODEL 1
REMARK minimizedAffinity 8.30469704
REMARK minimizedRMSD -1
REMARK  0 active torsions:
REMARK  status: ('A' for Active; 'I' for Inactive)
ROOT
ATOM      1  C2' OXE d   1      -1.550   0.073   2.339  0.00  0.00     0.078 C 
ATOM      2  C1' OXE d   1       0.928  -0.708   1.276  0.00  0.00     0.078 C 
ATOM      3  C1  OXE d   1       0.145  -1.731   2.061  0.00  0.00    -0.078 A 
ATOM      4  C2  OXE d   1      -1.045  -1.327   2.617  0.00  0.00    -0.078 A 
ATOM      5  C3  OXE d   1      -1.832  -2.246   3.304  0.00  0.00     0.003 A 
ATOM      6  C4  OXE d   1      -1.352  -3.535   3.566  0.00  0.00    -0.002 A 
ATOM      7  C5  OXE d   1      -0.125  -3.955   3.042  0.00  0.00    -0.002 A 
ATOM      8  C6  OXE d   1       0.615  -3.081   2.254  0.00  0.00     0.003 A 
ENDROOT
TORSDOF 0
ENDMDL
