MODEL 1
REMARK minimizedAffinity 0.892712176
REMARK minimizedRMSD -1
REMARK  0 active torsions:
REMARK  status: ('A' for Active; 'I' for Inactive)
ROOT
ATOM      1  C2' OXE d   1       0.721  -0.872   0.144  0.00  0.00     0.078 C 
ATOM      2  C1' OXE d   1      -1.503   0.091   1.560  0.00  0.00     0.078 C 
ATOM      3  C1  OXE d   1      -0.894  -1.214   2.009  0.00  0.00    -0.078 A 
ATOM      4  C2  OXE d   1       0.165  -1.701   1.281  0.00  0.00    -0.078 A 
ATOM      5  C3  OXE d   1       0.798  -2.874   1.685  0.00  0.00     0.003 A 
ATOM      6  C4  OXE d   1       0.270  -3.640   2.732  0.00  0.00    -0.002 A 
ATOM      7  C5  OXE d   1      -0.832  -3.182   3.461  0.00  0.00    -0.002 A 
ATOM      8  C6  OXE d   1      -1.399  -1.953   3.140  0.00  0.00     0.003 A 
ENDROOT
TORSDOF 0
ENDMDL
