MODEL 1
REMARK minimizedAffinity 0.159091279
REMARK minimizedRMSD -1
REMARK  0 active torsions:
REMARK  status: ('A' for Active; 'I' for Inactive)
ROOT
ATOM      1  C2' OXE d   1       1.982  -3.370   1.165  0.00  0.00     0.078 C 
ATOM      2  C1' OXE d   1       0.098  -2.252   2.920  0.00  0.00     0.078 C 
ATOM      3  C1  OXE d   1       0.397  -1.509   1.643  0.00  0.00    -0.078 A 
ATOM      4  C2  OXE d   1       1.355  -2.039   0.812  0.00  0.00    -0.078 A 
ATOM      5  C3  OXE d   1       1.630  -1.422  -0.405  0.00  0.00     0.003 A 
ATOM      6  C4  OXE d   1       1.053  -0.186  -0.720  0.00  0.00    -0.002 A 
ATOM      7  C5  OXE d   1       0.104   0.392   0.131  0.00  0.00    -0.002 A 
ATOM      8  C6  OXE d   1      -0.265  -0.276   1.293  0.00  0.00     0.003 A 
ENDROOT
TORSDOF 0
ENDMDL
