MODEL 1
REMARK minimizedAffinity 6.43621588
REMARK minimizedRMSD -1
REMARK  0 active torsions:
REMARK  status: ('A' for Active; 'I' for Inactive)
ROOT
ATOM      1  C2' OXE d   1      -2.375   2.928  -2.379  0.00  0.00     0.078 C 
ATOM      2  C1' OXE d   1      -4.687   4.518  -2.473  0.00  0.00     0.078 C 
ATOM      3  C1  OXE d   1      -4.773   3.118  -3.028  0.00  0.00    -0.078 A 
ATOM      4  C2  OXE d   1      -3.624   2.364  -3.020  0.00  0.00    -0.078 A 
ATOM      5  C3  OXE d   1      -3.662   1.047  -3.470  0.00  0.00     0.003 A 
ATOM      6  C4  OXE d   1      -4.818   0.536  -4.071  0.00  0.00    -0.002 A 
ATOM      7  C5  OXE d   1      -5.988   1.301  -4.125  0.00  0.00    -0.002 A 
ATOM      8  C6  OXE d   1      -5.994   2.577  -3.571  0.00  0.00     0.003 A 
ENDROOT
TORSDOF 0
ENDMDL
