MODEL 1
REMARK minimizedAffinity 3.9163208
REMARK minimizedRMSD -1
REMARK  0 active torsions:
REMARK  status: ('A' for Active; 'I' for Inactive)
ROOT
ATOM      1  C2' OXE d   1      -1.375  -2.891   3.830  0.00  0.00     0.078 C 
ATOM      2  C1' OXE d   1      -1.008  -0.550   2.326  0.00  0.00     0.078 C 
ATOM      3  C1  OXE d   1      -0.090  -1.714   2.050  0.00  0.00    -0.078 A 
ATOM      4  C2  OXE d   1      -0.246  -2.839   2.823  0.00  0.00    -0.078 A 
ATOM      5  C3  OXE d   1       0.539  -3.961   2.574  0.00  0.00     0.003 A 
ATOM      6  C4  OXE d   1       1.587  -3.901   1.648  0.00  0.00    -0.002 A 
ATOM      7  C5  OXE d   1       1.789  -2.751   0.878  0.00  0.00    -0.002 A 
ATOM      8  C6  OXE d   1       0.935  -1.666   1.036  0.00  0.00     0.003 A 
ENDROOT
TORSDOF 0
ENDMDL
