MODEL 1
REMARK minimizedAffinity 2.92701197
REMARK minimizedRMSD -1
REMARK  0 active torsions:
REMARK  status: ('A' for Active; 'I' for Inactive)
ROOT
ATOM      1  C2' OXE d   1       0.853  -0.636  -0.510  0.00  0.00     0.078 C 
ATOM      2  C1' OXE d   1       1.290  -2.748   1.288  0.00  0.00     0.078 C 
ATOM      3  C1  OXE d   1       0.200  -1.758   1.616  0.00  0.00    -0.078 A 
ATOM      4  C2  OXE d   1       0.025  -0.702   0.755  0.00  0.00    -0.078 A 
ATOM      5  C3  OXE d   1      -1.002   0.210   0.982  0.00  0.00     0.003 A 
ATOM      6  C4  OXE d   1      -1.757   0.148   2.160  0.00  0.00    -0.002 A 
ATOM      7  C5  OXE d   1      -1.568  -0.897   3.071  0.00  0.00    -0.002 A 
ATOM      8  C6  OXE d   1      -0.624  -1.880   2.793  0.00  0.00     0.003 A 
ENDROOT
TORSDOF 0
ENDMDL
