MODEL 1
REMARK minimizedAffinity -3.23364258
REMARK minimizedRMSD -1
REMARK  0 active torsions:
REMARK  status: ('A' for Active; 'I' for Inactive)
ROOT
ATOM      1  C2' OXE d   1      -1.516  -1.653   3.345  0.00  0.00     0.078 C 
ATOM      2  C1' OXE d   1      -0.381  -0.094   1.304  0.00  0.00     0.078 C 
ATOM      3  C1  OXE d   1       0.253  -1.429   1.605  0.00  0.00    -0.078 A 
ATOM      4  C2  OXE d   1      -0.280  -2.165   2.636  0.00  0.00    -0.078 A 
ATOM      5  C3  OXE d   1       0.233  -3.428   2.919  0.00  0.00     0.003 A 
ATOM      6  C4  OXE d   1       1.382  -3.889   2.266  0.00  0.00    -0.002 A 
ATOM      7  C5  OXE d   1       1.965  -3.138   1.239  0.00  0.00    -0.002 A 
ATOM      8  C6  OXE d   1       1.389  -1.928   0.869  0.00  0.00     0.003 A 
ENDROOT
TORSDOF 0
ENDMDL
