MODEL 1
REMARK minimizedAffinity -5.94221306
REMARK minimizedRMSD -1
REMARK  0 active torsions:
REMARK  status: ('A' for Active; 'I' for Inactive)
ROOT
ATOM      1  C   UNL d   1      -0.397  -0.075   0.717  0.00  0.00     0.078 C 
ATOM      2  C1  UNL d   1       0.448  -0.477  -0.455  0.00  0.00    -0.077 A 
ATOM      3  C2  UNL d   1       0.921  -1.788  -0.587  0.00  0.00    -0.001 A 
ATOM      4  C3  UNL d   1       1.714  -2.145  -1.678  0.00  0.00     0.003 A 
ATOM      5  C4  UNL d   1       2.043  -1.197  -2.645  0.00  0.00    -0.005 A 
ATOM      6  C5  UNL d   1       1.579   0.111  -2.521  0.00  0.00     0.003 A 
ATOM      7  C6  UNL d   1       0.785   0.470  -1.430  0.00  0.00    -0.001 A 
ENDROOT
TORSDOF 0
ENDMDL
