MODEL 1
REMARK minimizedAffinity -6.01336575
REMARK minimizedRMSD -1
REMARK  0 active torsions:
REMARK  status: ('A' for Active; 'I' for Inactive)
ROOT
ATOM      1  C   UNL d   1       0.959   1.870   0.161  0.00  0.00     0.078 C 
ATOM      2  C1  UNL d   1       1.138   0.586  -0.592  0.00  0.00    -0.077 A 
ATOM      3  C2  UNL d   1       0.574  -0.608  -0.126  0.00  0.00    -0.001 A 
ATOM      4  C3  UNL d   1       0.757  -1.798  -0.832  0.00  0.00     0.003 A 
ATOM      5  C4  UNL d   1       1.505  -1.806  -2.008  0.00  0.00    -0.005 A 
ATOM      6  C5  UNL d   1       2.072  -0.623  -2.479  0.00  0.00     0.003 A 
ATOM      7  C6  UNL d   1       1.890   0.567  -1.774  0.00  0.00    -0.001 A 
ENDROOT
TORSDOF 0
ENDMDL
