MODEL 1
REMARK minimizedAffinity -3.07533455
REMARK minimizedRMSD -1
REMARK  0 active torsions:
REMARK  status: ('A' for Active; 'I' for Inactive)
ROOT
ATOM      1  C   UNL d   1       1.863  -0.009  -2.974  0.00  0.00     0.078 C 
ATOM      2  C1  UNL d   1       1.069   0.176  -1.715  0.00  0.00    -0.077 A 
ATOM      3  C2  UNL d   1       0.241  -0.844  -1.229  0.00  0.00    -0.001 A 
ATOM      4  C3  UNL d   1      -0.500  -0.654  -0.061  0.00  0.00     0.003 A 
ATOM      5  C4  UNL d   1      -0.422   0.554   0.629  0.00  0.00    -0.005 A 
ATOM      6  C5  UNL d   1       0.398   1.574   0.152  0.00  0.00     0.003 A 
ATOM      7  C6  UNL d   1       1.139   1.387  -1.016  0.00  0.00    -0.001 A 
ENDROOT
TORSDOF 0
ENDMDL
