MODEL 1
REMARK minimizedAffinity -3.63279653
REMARK minimizedRMSD -1
REMARK  0 active torsions:
REMARK  status: ('A' for Active; 'I' for Inactive)
ROOT
ATOM      1  C   UNL d   1      -0.707   0.533   1.313  0.00  0.00     0.078 C 
ATOM      2  C1  UNL d   1       0.171   0.312   0.117  0.00  0.00    -0.077 A 
ATOM      3  C2  UNL d   1      -0.074  -0.740  -0.773  0.00  0.00    -0.001 A 
ATOM      4  C3  UNL d   1       0.757  -0.940  -1.877  0.00  0.00     0.003 A 
ATOM      5  C4  UNL d   1       1.840  -0.091  -2.099  0.00  0.00    -0.005 A 
ATOM      6  C5  UNL d   1       2.093   0.957  -1.217  0.00  0.00     0.003 A 
ATOM      7  C6  UNL d   1       1.263   1.158  -0.113  0.00  0.00    -0.001 A 
ENDROOT
TORSDOF 0
ENDMDL
