MODEL 1
REMARK minimizedAffinity -5.24167681
REMARK minimizedRMSD -1
REMARK  0 active torsions:
REMARK  status: ('A' for Active; 'I' for Inactive)
ROOT
ATOM      1  C   UNL d   1      -0.167  -0.288   0.382  0.00  0.00     0.078 C 
ATOM      2  C1  UNL d   1       0.696  -0.559  -0.814  0.00  0.00    -0.077 A 
ATOM      3  C2  UNL d   1       0.931  -1.868  -1.253  0.00  0.00    -0.001 A 
ATOM      4  C3  UNL d   1       1.744  -2.106  -2.362  0.00  0.00     0.003 A 
ATOM      5  C4  UNL d   1       2.331  -1.040  -3.041  0.00  0.00    -0.005 A 
ATOM      6  C5  UNL d   1       2.105   0.266  -2.611  0.00  0.00     0.003 A 
ATOM      7  C6  UNL d   1       1.292   0.506  -1.502  0.00  0.00    -0.001 A 
ENDROOT
TORSDOF 0
ENDMDL
