MODEL 1
REMARK minimizedAffinity -4.66299486
REMARK minimizedRMSD -1
REMARK  0 active torsions:
REMARK  status: ('A' for Active; 'I' for Inactive)
ROOT
ATOM      1  C   UNL d   1       1.514   0.239  -2.769  0.00  0.00     0.078 C 
ATOM      2  C1  UNL d   1       0.931  -0.132  -1.438  0.00  0.00    -0.077 A 
ATOM      3  C2  UNL d   1       0.542  -1.448  -1.162  0.00  0.00    -0.001 A 
ATOM      4  C3  UNL d   1      -0.008  -1.777   0.078  0.00  0.00     0.003 A 
ATOM      5  C4  UNL d   1      -0.175  -0.794   1.052  0.00  0.00    -0.005 A 
ATOM      6  C5  UNL d   1       0.207   0.519   0.786  0.00  0.00     0.003 A 
ATOM      7  C6  UNL d   1       0.757   0.849  -0.453  0.00  0.00    -0.001 A 
ENDROOT
TORSDOF 0
ENDMDL
