MODEL 1
REMARK minimizedAffinity -3.01446962
REMARK minimizedRMSD -1
REMARK  0 active torsions:
REMARK  status: ('A' for Active; 'I' for Inactive)
ROOT
ATOM      1  C   UNL d   1      -0.647  -1.213   0.487  0.00  0.00     0.078 C 
ATOM      2  C1  UNL d   1       0.120  -0.733  -0.709  0.00  0.00    -0.077 A 
ATOM      3  C2  UNL d   1       0.063  -1.423  -1.926  0.00  0.00    -0.001 A 
ATOM      4  C3  UNL d   1       0.791  -0.970  -3.028  0.00  0.00     0.003 A 
ATOM      5  C4  UNL d   1       1.582   0.173  -2.923  0.00  0.00    -0.005 A 
ATOM      6  C5  UNL d   1       1.646   0.864  -1.715  0.00  0.00     0.003 A 
ATOM      7  C6  UNL d   1       0.920   0.413  -0.612  0.00  0.00    -0.001 A 
ENDROOT
TORSDOF 0
ENDMDL
