MODEL 1
REMARK minimizedAffinity -5.689363
REMARK minimizedRMSD -1
REMARK  0 active torsions:
REMARK  status: ('A' for Active; 'I' for Inactive)
ROOT
ATOM      1  C   UNL d   1      -0.346  -0.089   1.094  0.00  0.00     0.078 C 
ATOM      2  C1  UNL d   1       0.434  -0.347  -0.161  0.00  0.00    -0.077 A 
ATOM      3  C2  UNL d   1       0.518  -1.635  -0.706  0.00  0.00    -0.001 A 
ATOM      4  C3  UNL d   1       1.256  -1.862  -1.869  0.00  0.00     0.003 A 
ATOM      5  C4  UNL d   1       1.916  -0.807  -2.496  0.00  0.00    -0.005 A 
ATOM      6  C5  UNL d   1       1.840   0.477  -1.959  0.00  0.00     0.003 A 
ATOM      7  C6  UNL d   1       1.103   0.706  -0.797  0.00  0.00    -0.001 A 
ENDROOT
TORSDOF 0
ENDMDL
