MODEL 1
REMARK minimizedAffinity -2.91253281
REMARK minimizedRMSD -1
REMARK  0 active torsions:
REMARK  status: ('A' for Active; 'I' for Inactive)
ROOT
ATOM      1  C   UNL d   1      -1.301   0.003   1.429  0.00  0.00     0.078 C 
ATOM      2  C1  UNL d   1      -0.387  -0.065   0.242  0.00  0.00    -0.077 A 
ATOM      3  C2  UNL d   1       0.394   1.036  -0.130  0.00  0.00    -0.001 A 
ATOM      4  C3  UNL d   1       1.233   0.963  -1.243  0.00  0.00     0.003 A 
ATOM      5  C4  UNL d   1       1.298  -0.209  -1.994  0.00  0.00    -0.005 A 
ATOM      6  C5  UNL d   1       0.522  -1.309  -1.633  0.00  0.00     0.003 A 
ATOM      7  C6  UNL d   1      -0.317  -1.238  -0.520  0.00  0.00    -0.001 A 
ENDROOT
TORSDOF 0
ENDMDL
