MODEL 1
REMARK minimizedAffinity -5.28827
REMARK minimizedRMSD -1
REMARK  0 active torsions:
REMARK  status: ('A' for Active; 'I' for Inactive)
ROOT
ATOM      1  C   UNL d   1       1.588   0.155  -2.724  0.00  0.00     0.078 C 
ATOM      2  C1  UNL d   1       0.997  -0.061  -1.363  0.00  0.00    -0.077 A 
ATOM      3  C2  UNL d   1       0.577  -1.332  -0.952  0.00  0.00    -0.001 A 
ATOM      4  C3  UNL d   1       0.020  -1.516   0.315  0.00  0.00     0.003 A 
ATOM      5  C4  UNL d   1      -0.124  -0.434   1.180  0.00  0.00    -0.005 A 
ATOM      6  C5  UNL d   1       0.289   0.835   0.779  0.00  0.00     0.003 A 
ATOM      7  C6  UNL d   1       0.846   1.021  -0.487  0.00  0.00    -0.001 A 
ENDROOT
TORSDOF 0
ENDMDL
