MODEL 1
REMARK minimizedAffinity -4.66321898
REMARK minimizedRMSD -1
REMARK  0 active torsions:
REMARK  status: ('A' for Active; 'I' for Inactive)
ROOT
ATOM      1  C   UNL d   1       1.746  -0.499  -3.009  0.00  0.00     0.078 C 
ATOM      2  C1  UNL d   1       1.124  -0.254  -1.667  0.00  0.00    -0.077 A 
ATOM      3  C2  UNL d   1       1.410   0.909  -0.941  0.00  0.00    -0.001 A 
ATOM      4  C3  UNL d   1       0.831   1.120   0.311  0.00  0.00     0.003 A 
ATOM      5  C4  UNL d   1      -0.037   0.172   0.849  0.00  0.00    -0.005 A 
ATOM      6  C5  UNL d   1      -0.326  -0.990   0.135  0.00  0.00     0.003 A 
ATOM      7  C6  UNL d   1       0.252  -1.202  -1.117  0.00  0.00    -0.001 A 
ENDROOT
TORSDOF 0
ENDMDL
