MODEL 1
REMARK minimizedAffinity -3.51272893
REMARK minimizedRMSD -1
REMARK  0 active torsions:
REMARK  status: ('A' for Active; 'I' for Inactive)
ROOT
ATOM      1  C   UNL d   1       1.539  -0.147  -2.866  0.00  0.00     0.078 C 
ATOM      2  C1  UNL d   1       0.962  -0.512  -1.530  0.00  0.00    -0.077 A 
ATOM      3  C2  UNL d   1       0.506   0.474  -0.648  0.00  0.00    -0.001 A 
ATOM      4  C3  UNL d   1      -0.020   0.120   0.596  0.00  0.00     0.003 A 
ATOM      5  C4  UNL d   1      -0.092  -1.221   0.969  0.00  0.00    -0.005 A 
ATOM      6  C5  UNL d   1       0.362  -2.209   0.098  0.00  0.00     0.003 A 
ATOM      7  C6  UNL d   1       0.887  -1.857  -1.146  0.00  0.00    -0.001 A 
ENDROOT
TORSDOF 0
ENDMDL
