MODEL 1
REMARK minimizedAffinity -4.91490507
REMARK minimizedRMSD -1
REMARK  0 active torsions:
REMARK  status: ('A' for Active; 'I' for Inactive)
ROOT
ATOM      1  C   UNL d   1      -0.061  -1.440   1.045  0.00  0.00     0.078 C 
ATOM      2  C1  UNL d   1       0.490  -0.404   0.111  0.00  0.00    -0.077 A 
ATOM      3  C2  UNL d   1       0.629  -0.667  -1.257  0.00  0.00    -0.001 A 
ATOM      4  C3  UNL d   1       1.152   0.303  -2.113  0.00  0.00     0.003 A 
ATOM      5  C4  UNL d   1       1.541   1.543  -1.611  0.00  0.00    -0.005 A 
ATOM      6  C5  UNL d   1       1.409   1.814  -0.250  0.00  0.00     0.003 A 
ATOM      7  C6  UNL d   1       0.886   0.845   0.607  0.00  0.00    -0.001 A 
ENDROOT
TORSDOF 0
ENDMDL
