MODEL 1
REMARK minimizedAffinity -4.35776615
REMARK minimizedRMSD -1
REMARK  0 active torsions:
REMARK  status: ('A' for Active; 'I' for Inactive)
ROOT
ATOM      1  C   UNL d   1      -0.207  -0.420   0.888  0.00  0.00     0.078 C 
ATOM      2  C1  UNL d   1       0.326  -0.102  -0.477  0.00  0.00    -0.077 A 
ATOM      3  C2  UNL d   1      -0.177  -0.743  -1.616  0.00  0.00    -0.001 A 
ATOM      4  C3  UNL d   1       0.336  -0.444  -2.879  0.00  0.00     0.003 A 
ATOM      5  C4  UNL d   1       1.356   0.496  -3.015  0.00  0.00    -0.005 A 
ATOM      6  C5  UNL d   1       1.864   1.137  -1.888  0.00  0.00     0.003 A 
ATOM      7  C6  UNL d   1       1.353   0.840  -0.624  0.00  0.00    -0.001 A 
ENDROOT
TORSDOF 0
ENDMDL
