MODEL 1
REMARK minimizedAffinity 20.5092869
REMARK minimizedRMSD -1
REMARK  0 active torsions:
REMARK  status: ('A' for Active; 'I' for Inactive)
ROOT
ATOM      1  C   UNL d   1       0.746  -0.265   2.280  0.00  0.00     0.020 A 
ATOM      2  C1  UNL d   1       1.419  -0.281   3.501  0.00  0.00     0.020 A 
ATOM      3  C2  UNL d   1       1.173   0.717   4.446  0.00  0.00     0.034 A 
ATOM      4  C3  UNL d   1       0.253   1.735   4.172  0.00  0.00     0.017 A 
ATOM      5  C4  UNL d   1      -0.422   1.750   2.946  0.00  0.00     0.017 A 
ATOM      6  C5  UNL d   1      -0.172   0.748   2.003  0.00  0.00     0.034 A 
ATOM      7 Cl   UNL d   1      -1.572   2.973   2.535  0.00  0.00    -0.070 Cl
ATOM      8 Cl1  UNL d   1      -0.002   2.937   5.387  0.00  0.00    -0.070 Cl
ENDROOT
TORSDOF 0
ENDMDL
