MODEL 1
REMARK minimizedAffinity 19.517086
REMARK minimizedRMSD -1
REMARK  0 active torsions:
REMARK  status: ('A' for Active; 'I' for Inactive)
ROOT
ATOM      1  C   UNL d   1      -0.554  -1.123   1.191  0.00  0.00     0.020 A 
ATOM      2  C1  UNL d   1       0.602  -1.830   1.521  0.00  0.00     0.020 A 
ATOM      3  C2  UNL d   1       1.505  -1.299   2.445  0.00  0.00     0.034 A 
ATOM      4  C3  UNL d   1       1.254  -0.058   3.042  0.00  0.00     0.017 A 
ATOM      5  C4  UNL d   1       0.094   0.651   2.710  0.00  0.00     0.017 A 
ATOM      6  C5  UNL d   1      -0.807   0.115   1.784  0.00  0.00     0.034 A 
ATOM      7 Cl   UNL d   1      -0.284   2.187   3.405  0.00  0.00    -0.070 Cl
ATOM      8 Cl1  UNL d   1       2.413   0.537   4.176  0.00  0.00    -0.070 Cl
ENDROOT
TORSDOF 0
ENDMDL
