MODEL 1
REMARK minimizedAffinity 12.2884302
REMARK minimizedRMSD -1
REMARK  0 active torsions:
REMARK  status: ('A' for Active; 'I' for Inactive)
ROOT
ATOM      1  C   UNL d   1       0.360  -0.692  -5.262  0.00  0.00     0.020 A 
ATOM      2  C1  UNL d   1      -0.369  -1.762  -5.779  0.00  0.00     0.020 A 
ATOM      3  C2  UNL d   1       0.257  -2.991  -5.999  0.00  0.00     0.034 A 
ATOM      4  C3  UNL d   1       1.615  -3.152  -5.703  0.00  0.00     0.017 A 
ATOM      5  C4  UNL d   1       2.346  -2.077  -5.184  0.00  0.00     0.017 A 
ATOM      6  C5  UNL d   1       1.714  -0.849  -4.965  0.00  0.00     0.034 A 
ATOM      7 Cl   UNL d   1       4.025  -2.200  -4.794  0.00  0.00    -0.070 Cl
ATOM      8 Cl1  UNL d   1       2.324  -4.700  -6.000  0.00  0.00    -0.070 Cl
ENDROOT
TORSDOF 0
ENDMDL
