MODEL 1
REMARK minimizedAffinity 19.9398518
REMARK minimizedRMSD -1
REMARK  0 active torsions:
REMARK  status: ('A' for Active; 'I' for Inactive)
ROOT
ATOM      1  C   UNL d   1       1.020  -4.853  -5.994  0.00  0.00     0.020 A 
ATOM      2  C1  UNL d   1      -0.236  -4.248  -5.997  0.00  0.00     0.020 A 
ATOM      3  C2  UNL d   1      -0.412  -3.002  -5.390  0.00  0.00     0.034 A 
ATOM      4  C3  UNL d   1       0.670  -2.358  -4.778  0.00  0.00     0.017 A 
ATOM      5  C4  UNL d   1       1.930  -2.967  -4.776  0.00  0.00     0.017 A 
ATOM      6  C5  UNL d   1       2.101  -4.214  -5.384  0.00  0.00     0.034 A 
ATOM      7 Cl   UNL d   1       3.312  -2.234  -4.040  0.00  0.00    -0.070 Cl
ATOM      8 Cl1  UNL d   1       0.380  -0.819  -4.048  0.00  0.00    -0.070 Cl
ENDROOT
TORSDOF 0
ENDMDL
