MODEL 1
REMARK minimizedAffinity 18.0198669
REMARK minimizedRMSD -1
REMARK  0 active torsions:
REMARK  status: ('A' for Active; 'I' for Inactive)
ROOT
ATOM      1  C   UNL d   1       3.726   1.632   4.121  0.00  0.00     0.020 A 
ATOM      2  C1  UNL d   1       2.526   1.185   3.568  0.00  0.00     0.020 A 
ATOM      3  C2  UNL d   1       2.121  -0.138   3.756  0.00  0.00     0.034 A 
ATOM      4  C3  UNL d   1       2.915  -1.019   4.499  0.00  0.00     0.017 A 
ATOM      5  C4  UNL d   1       4.119  -0.569   5.054  0.00  0.00     0.017 A 
ATOM      6  C5  UNL d   1       4.520   0.756   4.862  0.00  0.00     0.034 A 
ATOM      7 Cl   UNL d   1       5.153  -1.597   5.983  0.00  0.00    -0.070 Cl
ATOM      8 Cl1  UNL d   1       2.352  -2.641   4.692  0.00  0.00    -0.070 Cl
ENDROOT
TORSDOF 0
ENDMDL
