MODEL 1
REMARK minimizedAffinity 10.6106863
REMARK minimizedRMSD -1
REMARK  0 active torsions:
REMARK  status: ('A' for Active; 'I' for Inactive)
ROOT
ATOM      1  C   UNL d   1       5.875   3.339  -5.310  0.00  0.00     0.020 A 
ATOM      2  C1  UNL d   1       4.655   3.753  -5.842  0.00  0.00     0.020 A 
ATOM      3  C2  UNL d   1       3.557   2.890  -5.825  0.00  0.00     0.034 A 
ATOM      4  C3  UNL d   1       3.677   1.609  -5.275  0.00  0.00     0.017 A 
ATOM      5  C4  UNL d   1       4.903   1.194  -4.741  0.00  0.00     0.017 A 
ATOM      6  C5  UNL d   1       5.999   2.062  -4.760  0.00  0.00     0.034 A 
ATOM      7 Cl   UNL d   1       5.128  -0.372  -4.045  0.00  0.00    -0.070 Cl
ATOM      8 Cl1  UNL d   1       2.279   0.594  -5.288  0.00  0.00    -0.070 Cl
ENDROOT
TORSDOF 0
ENDMDL
