MODEL 1
REMARK minimizedAffinity 7.16515636
REMARK minimizedRMSD -1
REMARK  2 active torsions:
REMARK  status: ('A' for Active; 'I' for Inactive)
REMARK    1  A    between atoms: C1_2  and  C2_3 
REMARK    2  A    between atoms: C2_3  and  C3_4 
ROOT
ATOM      1  C3  UNL d   1       2.199  -0.670   4.898  0.00  0.00    -0.075 A 
ATOM      2  C4  UNL d   1       1.917  -1.430   3.754  0.00  0.00     0.002 A 
ATOM      3  C5  UNL d   1       1.119  -0.909   2.735  0.00  0.00     0.002 A 
ATOM      4  C6  UNL d   1       0.586   0.373   2.851  0.00  0.00    -0.004 A 
ATOM      5  C7  UNL d   1       0.846   1.131   3.991  0.00  0.00     0.002 A 
ATOM      6  C8  UNL d   1       1.647   0.614   5.010  0.00  0.00     0.002 A 
ENDROOT
BRANCH   1   7
ATOM      7  C2  UNL d   1       3.086  -1.217   5.991  0.00  0.00     0.056 C 
BRANCH   7   8
ATOM      8  C1  UNL d   1       4.520  -0.676   5.960  0.00  0.00     0.007 C 
ATOM      9  C   UNL d   1       5.576  -1.773   5.998  0.00  0.00     0.009 C 
ENDBRANCH   7   8
ENDBRANCH   1   7
TORSDOF 2
ENDMDL
