MODEL 1
REMARK minimizedAffinity 12.0496979
REMARK minimizedRMSD -1
REMARK  2 active torsions:
REMARK  status: ('A' for Active; 'I' for Inactive)
REMARK    1  A    between atoms: C1_2  and  C2_3 
REMARK    2  A    between atoms: C2_3  and  C3_4 
ROOT
ATOM      1  C3  UNL d   1       0.590   0.657   3.299  0.00  0.00    -0.075 A 
ATOM      2  C4  UNL d   1       0.639   1.275   4.556  0.00  0.00     0.002 A 
ATOM      3  C5  UNL d   1      -0.090   2.439   4.803  0.00  0.00     0.002 A 
ATOM      4  C6  UNL d   1      -0.867   3.004   3.795  0.00  0.00    -0.004 A 
ATOM      5  C7  UNL d   1      -0.911   2.408   2.537  0.00  0.00     0.002 A 
ATOM      6  C8  UNL d   1      -0.186   1.241   2.288  0.00  0.00     0.002 A 
ENDROOT
BRANCH   1   7
ATOM      7  C2  UNL d   1       1.353  -0.619   3.034  0.00  0.00     0.056 C 
BRANCH   7   8
ATOM      8  C1  UNL d   1       1.094  -1.725   4.062  0.00  0.00     0.007 C 
ATOM      9  C   UNL d   1       2.297  -2.013   4.951  0.00  0.00     0.009 C 
ENDBRANCH   7   8
ENDBRANCH   1   7
TORSDOF 2
ENDMDL
