MODEL 1
REMARK minimizedAffinity 0.725815833
REMARK minimizedRMSD -1
REMARK  2 active torsions:
REMARK  status: ('A' for Active; 'I' for Inactive)
REMARK    1  A    between atoms: C1_2  and  C2_3 
REMARK    2  A    between atoms: C2_3  and  C3_4 
ROOT
ATOM      1  C3  UNL d   1       3.046  -0.767  -5.448  0.00  0.00    -0.075 A 
ATOM      2  C4  UNL d   1       2.687  -2.005  -6.000  0.00  0.00     0.002 A 
ATOM      3  C5  UNL d   1       1.355  -2.420  -6.000  0.00  0.00     0.002 A 
ATOM      4  C6  UNL d   1       0.369  -1.611  -5.441  0.00  0.00    -0.004 A 
ATOM      5  C7  UNL d   1       0.717  -0.386  -4.874  0.00  0.00     0.002 A 
ATOM      6  C8  UNL d   1       2.048   0.035  -4.877  0.00  0.00     0.002 A 
ENDROOT
BRANCH   1   7
ATOM      7  C2  UNL d   1       4.481  -0.298  -5.471  0.00  0.00     0.056 C 
BRANCH   7   8
ATOM      8  C1  UNL d   1       4.656   1.191  -5.153  0.00  0.00     0.007 C 
ATOM      9  C   UNL d   1       5.931   1.784  -5.738  0.00  0.00     0.009 C 
ENDBRANCH   7   8
ENDBRANCH   1   7
TORSDOF 2
ENDMDL
