MODEL 1
REMARK minimizedAffinity 4.15151262
REMARK minimizedRMSD -1
REMARK  2 active torsions:
REMARK  status: ('A' for Active; 'I' for Inactive)
REMARK    1  A    between atoms: C1_2  and  C2_3 
REMARK    2  A    between atoms: C2_3  and  C3_4 
ROOT
ATOM      1  C3  UNL d   1      -1.149  -3.662  -3.322  0.00  0.00    -0.075 A 
ATOM      2  C4  UNL d   1      -1.142  -5.019  -2.968  0.00  0.00     0.002 A 
ATOM      3  C5  UNL d   1      -1.440  -5.999  -3.914  0.00  0.00     0.002 A 
ATOM      4  C6  UNL d   1      -1.757  -5.637  -5.221  0.00  0.00    -0.004 A 
ATOM      5  C7  UNL d   1      -1.783  -4.291  -5.580  0.00  0.00     0.002 A 
ATOM      6  C8  UNL d   1      -1.482  -3.308  -4.636  0.00  0.00     0.002 A 
ENDROOT
BRANCH   1   7
ATOM      7  C2  UNL d   1      -0.799  -2.597  -2.309  0.00  0.00     0.056 C 
BRANCH   7   8
ATOM      8  C1  UNL d   1      -0.982  -1.165  -2.822  0.00  0.00     0.007 C 
ATOM      9  C   UNL d   1       0.147  -0.705  -3.735  0.00  0.00     0.009 C 
ENDBRANCH   7   8
ENDBRANCH   1   7
TORSDOF 2
ENDMDL
