MODEL 1
REMARK minimizedAffinity 4.95965576
REMARK minimizedRMSD -1
REMARK  2 active torsions:
REMARK  status: ('A' for Active; 'I' for Inactive)
REMARK    1  A    between atoms: C1_2  and  C2_3 
REMARK    2  A    between atoms: C2_3  and  C3_4 
ROOT
ATOM      1  C3  UNL d   1      -0.787  -2.795  -4.833  0.00  0.00    -0.075 A 
ATOM      2  C4  UNL d   1      -0.061  -1.620  -5.075  0.00  0.00     0.002 A 
ATOM      3  C5  UNL d   1       0.321  -0.793  -4.018  0.00  0.00     0.002 A 
ATOM      4  C6  UNL d   1      -0.027  -1.123  -2.710  0.00  0.00    -0.004 A 
ATOM      5  C7  UNL d   1      -0.762  -2.279  -2.459  0.00  0.00     0.002 A 
ATOM      6  C8  UNL d   1      -1.142  -3.111  -3.514  0.00  0.00     0.002 A 
ENDROOT
BRANCH   1   7
ATOM      7  C2  UNL d   1      -1.178  -3.710  -5.969  0.00  0.00     0.056 C 
BRANCH   7   8
ATOM      8  C1  UNL d   1      -2.258  -4.733  -5.602  0.00  0.00     0.007 C 
ATOM      9  C   UNL d   1      -1.696  -5.996  -4.963  0.00  0.00     0.009 C 
ENDBRANCH   7   8
ENDBRANCH   1   7
TORSDOF 2
ENDMDL
