MODEL 1
REMARK minimizedAffinity 14.6924658
REMARK minimizedRMSD -1
REMARK  2 active torsions:
REMARK  status: ('A' for Active; 'I' for Inactive)
REMARK    1  A    between atoms: C1_2  and  C2_3 
REMARK    2  A    between atoms: C2_3  and  C3_4 
ROOT
ATOM      1  C3  UNL d   1       0.697  -0.759  -3.607  0.00  0.00    -0.075 A 
ATOM      2  C4  UNL d   1      -0.493  -1.069  -4.281  0.00  0.00     0.002 A 
ATOM      3  C5  UNL d   1      -1.524  -1.743  -3.625  0.00  0.00     0.002 A 
ATOM      4  C6  UNL d   1      -1.374  -2.124  -2.294  0.00  0.00    -0.004 A 
ATOM      5  C7  UNL d   1      -0.190  -1.836  -1.619  0.00  0.00     0.002 A 
ATOM      6  C8  UNL d   1       0.841  -1.158  -2.271  0.00  0.00     0.002 A 
ENDROOT
BRANCH   1   7
ATOM      7  C2  UNL d   1       1.805  -0.005  -4.302  0.00  0.00     0.056 C 
BRANCH   7   8
ATOM      8  C1  UNL d   1       3.213  -0.399  -3.842  0.00  0.00     0.007 C 
ATOM      9  C   UNL d   1       4.311   0.430  -4.494  0.00  0.00     0.009 C 
ENDBRANCH   7   8
ENDBRANCH   1   7
TORSDOF 2
ENDMDL
