MODEL 1
REMARK minimizedAffinity 10.7224627
REMARK minimizedRMSD -1
REMARK  2 active torsions:
REMARK  status: ('A' for Active; 'I' for Inactive)
REMARK    1  A    between atoms: C1_2  and  C2_3 
REMARK    2  A    between atoms: C2_3  and  C3_4 
ROOT
ATOM      1  C3  UNL d   1       1.197  -0.889  -3.272  0.00  0.00    -0.075 A 
ATOM      2  C4  UNL d   1       2.086  -1.961  -3.441  0.00  0.00     0.002 A 
ATOM      3  C5  UNL d   1       3.434  -1.727  -3.716  0.00  0.00     0.002 A 
ATOM      4  C6  UNL d   1       3.907  -0.422  -3.837  0.00  0.00    -0.004 A 
ATOM      5  C7  UNL d   1       3.030   0.650  -3.687  0.00  0.00     0.002 A 
ATOM      6  C8  UNL d   1       1.682   0.419  -3.408  0.00  0.00     0.002 A 
ENDROOT
BRANCH   1   7
ATOM      7  C2  UNL d   1      -0.256  -1.135  -2.945  0.00  0.00     0.056 C 
BRANCH   7   8
ATOM      8  C1  UNL d   1      -0.479  -1.919  -1.648  0.00  0.00     0.007 C 
ATOM      9  C   UNL d   1      -1.811  -2.657  -1.614  0.00  0.00     0.009 C 
ENDBRANCH   7   8
ENDBRANCH   1   7
TORSDOF 2
ENDMDL
