MODEL 1
REMARK minimizedAffinity 9.52365017
REMARK minimizedRMSD -1
REMARK  2 active torsions:
REMARK  status: ('A' for Active; 'I' for Inactive)
REMARK    1  A    between atoms: C1_2  and  C2_3 
REMARK    2  A    between atoms: C2_3  and  C3_4 
ROOT
ATOM      1  C3  UNL d   1      -0.226  -1.119   0.485  0.00  0.00    -0.075 A 
ATOM      2  C4  UNL d   1       0.768  -2.010   0.916  0.00  0.00     0.002 A 
ATOM      3  C5  UNL d   1       1.577  -1.693   2.008  0.00  0.00     0.002 A 
ATOM      4  C6  UNL d   1       1.411  -0.481   2.674  0.00  0.00    -0.004 A 
ATOM      5  C7  UNL d   1       0.438   0.419   2.243  0.00  0.00     0.002 A 
ATOM      6  C8  UNL d   1      -0.376   0.103   1.154  0.00  0.00     0.002 A 
ENDROOT
BRANCH   1   7
ATOM      7  C2  UNL d   1      -1.125  -1.468  -0.678  0.00  0.00     0.056 C 
BRANCH   7   8
ATOM      8  C1  UNL d   1      -0.373  -1.777  -1.976  0.00  0.00     0.007 C 
ATOM      9  C   UNL d   1      -0.424  -0.638  -2.986  0.00  0.00     0.009 C 
ENDBRANCH   7   8
ENDBRANCH   1   7
TORSDOF 2
ENDMDL
