MODEL 1
REMARK minimizedAffinity 8.86169243
REMARK minimizedRMSD -1
REMARK  2 active torsions:
REMARK  status: ('A' for Active; 'I' for Inactive)
REMARK    1  A    between atoms: C1_2  and  C2_3 
REMARK    2  A    between atoms: C2_3  and  C3_4 
ROOT
ATOM      1  C3  UNL d   1      -1.990  -3.604  -3.535  0.00  0.00    -0.075 A 
ATOM      2  C4  UNL d   1      -2.090  -3.403  -4.920  0.00  0.00     0.002 A 
ATOM      3  C5  UNL d   1      -2.216  -4.489  -5.786  0.00  0.00     0.002 A 
ATOM      4  C6  UNL d   1      -2.232  -5.788  -5.282  0.00  0.00    -0.004 A 
ATOM      5  C7  UNL d   1      -2.116  -6.000  -3.910  0.00  0.00     0.002 A 
ATOM      6  C8  UNL d   1      -1.995  -4.915  -3.040  0.00  0.00     0.002 A 
ENDROOT
BRANCH   1   7
ATOM      7  C2  UNL d   1      -1.883  -2.431  -2.590  0.00  0.00     0.056 C 
BRANCH   7   8
ATOM      8  C1  UNL d   1      -3.002  -2.369  -1.544  0.00  0.00     0.007 C 
ATOM      9  C   UNL d   1      -3.770  -1.054  -1.564  0.00  0.00     0.009 C 
ENDBRANCH   7   8
ENDBRANCH   1   7
TORSDOF 2
ENDMDL
