MODEL 1
REMARK minimizedAffinity -4.33863211
REMARK minimizedRMSD -1
REMARK  0 active torsions:
REMARK  status: ('A' for Active; 'I' for Inactive)
ROOT
ATOM      1  C1  BNZ d   1       0.773   0.687   2.029  0.00  0.00     0.000 A 
ATOM      2  C2  BNZ d   1       0.181  -0.051   1.039  0.00  0.00     0.000 A 
ATOM      3  C3  BNZ d   1      -0.908  -0.833   1.306  0.00  0.00     0.000 A 
ATOM      4  C4  BNZ d   1      -1.378  -0.907   2.568  0.00  0.00     0.000 A 
ATOM      5  C5  BNZ d   1      -0.786  -0.176   3.579  0.00  0.00     0.000 A 
ATOM      6  C6  BNZ d   1       0.286   0.640   3.299  0.00  0.00     0.000 A 
ENDROOT
TORSDOF 0
ENDMDL
