MODEL 1
REMARK minimizedAffinity -0.710748434
REMARK minimizedRMSD -1
REMARK  0 active torsions:
REMARK  status: ('A' for Active; 'I' for Inactive)
ROOT
ATOM      1  C1  BNZ d   1      -1.235  -1.893   1.257  0.00  0.00     0.000 A 
ATOM      2  C2  BNZ d   1      -2.360  -1.130   1.094  0.00  0.00     0.000 A 
ATOM      3  C3  BNZ d   1      -2.337  -0.008   0.314  0.00  0.00     0.000 A 
ATOM      4  C4  BNZ d   1      -1.182   0.371  -0.270  0.00  0.00     0.000 A 
ATOM      5  C5  BNZ d   1      -0.037  -0.383  -0.108  0.00  0.00     0.000 A 
ATOM      6  C6  BNZ d   1      -0.073  -1.533   0.647  0.00  0.00     0.000 A 
ENDROOT
TORSDOF 0
ENDMDL
