MODEL 1
REMARK minimizedAffinity -4.30313253
REMARK minimizedRMSD -1
REMARK  0 active torsions:
REMARK  status: ('A' for Active; 'I' for Inactive)
ROOT
ATOM      1  C1  BNZ d   1      -2.134   0.891   1.780  0.00  0.00     0.000 A 
ATOM      2  C2  BNZ d   1      -1.530   0.820   0.553  0.00  0.00     0.000 A 
ATOM      3  C3  BNZ d   1      -0.174   0.682   0.447  0.00  0.00     0.000 A 
ATOM      4  C4  BNZ d   1       0.579   0.657   1.566  0.00  0.00     0.000 A 
ATOM      5  C5  BNZ d   1      -0.015   0.737   2.810  0.00  0.00     0.000 A 
ATOM      6  C6  BNZ d   1      -1.383   0.836   2.913  0.00  0.00     0.000 A 
ENDROOT
TORSDOF 0
ENDMDL
