MODEL 1
REMARK minimizedAffinity -0.38822341
REMARK minimizedRMSD -1
REMARK  0 active torsions:
REMARK  status: ('A' for Active; 'I' for Inactive)
ROOT
ATOM      1  C1  BNZ d   1       3.740  -4.969   3.377  0.00  0.00     0.000 A 
ATOM      2  C2  BNZ d   1       2.863  -5.999   3.591  0.00  0.00     0.000 A 
ATOM      3  C3  BNZ d   1       1.627  -5.999   3.007  0.00  0.00     0.000 A 
ATOM      4  C4  BNZ d   1       1.254  -4.950   2.245  0.00  0.00     0.000 A 
ATOM      5  C5  BNZ d   1       2.123  -3.900   2.028  0.00  0.00     0.000 A 
ATOM      6  C6  BNZ d   1       3.381  -3.922   2.585  0.00  0.00     0.000 A 
ENDROOT
TORSDOF 0
ENDMDL
