MODEL 1
REMARK minimizedAffinity -3.24129701
REMARK minimizedRMSD -1
REMARK  0 active torsions:
REMARK  status: ('A' for Active; 'I' for Inactive)
ROOT
ATOM      1  C1  BNZ d   1       0.460  -0.504   0.016  0.00  0.00     0.000 A 
ATOM      2  C2  BNZ d   1      -0.476  -0.683   1.000  0.00  0.00     0.000 A 
ATOM      3  C3  BNZ d   1      -1.788  -0.367   0.785  0.00  0.00     0.000 A 
ATOM      4  C4  BNZ d   1      -2.156   0.163  -0.399  0.00  0.00     0.000 A 
ATOM      5  C5  BNZ d   1      -1.224   0.358  -1.398  0.00  0.00     0.000 A 
ATOM      6  C6  BNZ d   1       0.090   0.003  -1.191  0.00  0.00     0.000 A 
ENDROOT
TORSDOF 0
ENDMDL
