MODEL 1
REMARK minimizedAffinity -4.94254494
REMARK minimizedRMSD -1
REMARK  0 active torsions:
REMARK  status: ('A' for Active; 'I' for Inactive)
ROOT
ATOM      1  C1  BNZ d   1      -1.223  -0.881   1.960  0.00  0.00     0.000 A 
ATOM      2  C2  BNZ d   1      -0.374  -0.449   2.944  0.00  0.00     0.000 A 
ATOM      3  C3  BNZ d   1       0.709   0.329   2.642  0.00  0.00     0.000 A 
ATOM      4  C4  BNZ d   1       0.965   0.639   1.355  0.00  0.00     0.000 A 
ATOM      5  C5  BNZ d   1       0.123   0.203   0.350  0.00  0.00     0.000 A 
ATOM      6  C6  BNZ d   1      -0.988  -0.547   0.662  0.00  0.00     0.000 A 
ENDROOT
TORSDOF 0
ENDMDL
