MODEL 1
REMARK minimizedAffinity -3.84853816
REMARK minimizedRMSD -1
REMARK  0 active torsions:
REMARK  status: ('A' for Active; 'I' for Inactive)
ROOT
ATOM      1  C1  BNZ d   1       0.239   0.853   0.687  0.00  0.00     0.000 A 
ATOM      2  C2  BNZ d   1      -0.276   0.611   1.933  0.00  0.00     0.000 A 
ATOM      3  C3  BNZ d   1       0.541   0.271   2.974  0.00  0.00     0.000 A 
ATOM      4  C4  BNZ d   1       1.866   0.134   2.761  0.00  0.00     0.000 A 
ATOM      5  C5  BNZ d   1       2.399   0.365   1.508  0.00  0.00     0.000 A 
ATOM      6  C6  BNZ d   1       1.579   0.746   0.471  0.00  0.00     0.000 A 
ENDROOT
TORSDOF 0
ENDMDL
