MODEL 1
REMARK minimizedAffinity -4.64251423
REMARK minimizedRMSD -1
REMARK  0 active torsions:
REMARK  status: ('A' for Active; 'I' for Inactive)
ROOT
ATOM      1  C1  BNZ d   1      -1.033  -0.104   0.612  0.00  0.00     0.000 A 
ATOM      2  C2  BNZ d   1      -1.501  -0.540   1.823  0.00  0.00     0.000 A 
ATOM      3  C3  BNZ d   1      -0.673  -0.617   2.907  0.00  0.00     0.000 A 
ATOM      4  C4  BNZ d   1       0.629  -0.295   2.771  0.00  0.00     0.000 A 
ATOM      5  C5  BNZ d   1       1.119   0.138   1.555  0.00  0.00     0.000 A 
ATOM      6  C6  BNZ d   1       0.274   0.250   0.475  0.00  0.00     0.000 A 
ENDROOT
TORSDOF 0
ENDMDL
