MODEL 1
REMARK minimizedAffinity -1.42860472
REMARK minimizedRMSD -1
REMARK  0 active torsions:
REMARK  status: ('A' for Active; 'I' for Inactive)
ROOT
ATOM      1  C1  BNZ d   1      -1.444  -0.223   0.995  0.00  0.00     0.000 A 
ATOM      2  C2  BNZ d   1      -0.230  -0.672   0.549  0.00  0.00     0.000 A 
ATOM      3  C3  BNZ d   1       0.312  -0.190  -0.609  0.00  0.00     0.000 A 
ATOM      4  C4  BNZ d   1      -0.378   0.709  -1.341  0.00  0.00     0.000 A 
ATOM      5  C5  BNZ d   1      -1.607   1.164  -0.910  0.00  0.00     0.000 A 
ATOM      6  C6  BNZ d   1      -2.132   0.707   0.277  0.00  0.00     0.000 A 
ENDROOT
TORSDOF 0
ENDMDL
