MODEL 1
REMARK minimizedAffinity -4.31743288
REMARK minimizedRMSD -1
REMARK  0 active torsions:
REMARK  status: ('A' for Active; 'I' for Inactive)
ROOT
ATOM      1  C1  BNZ d   1       0.810   0.583  -0.218  0.00  0.00     0.000 A 
ATOM      2  C2  BNZ d   1       1.346   0.224   0.990  0.00  0.00     0.000 A 
ATOM      3  C3  BNZ d   1       0.541  -0.028   2.066  0.00  0.00     0.000 A 
ATOM      4  C4  BNZ d   1      -0.794   0.119   1.943  0.00  0.00     0.000 A 
ATOM      5  C5  BNZ d   1      -1.349   0.490   0.734  0.00  0.00     0.000 A 
ATOM      6  C6  BNZ d   1      -0.538   0.704  -0.357  0.00  0.00     0.000 A 
ENDROOT
TORSDOF 0
ENDMDL
