MODEL 1
REMARK minimizedAffinity -3.83976531
REMARK minimizedRMSD -1
REMARK  0 active torsions:
REMARK  status: ('A' for Active; 'I' for Inactive)
ROOT
ATOM      1  C1  BNZ d   1       0.268  -0.582  -2.547  0.00  0.00     0.000 A 
ATOM      2  C2  BNZ d   1       0.273   0.354  -1.547  0.00  0.00     0.000 A 
ATOM      3  C3  BNZ d   1       0.190  -0.021  -0.236  0.00  0.00     0.000 A 
ATOM      4  C4  BNZ d   1       0.062  -1.328   0.073  0.00  0.00     0.000 A 
ATOM      5  C5  BNZ d   1       0.046  -2.283  -0.924  0.00  0.00     0.000 A 
ATOM      6  C6  BNZ d   1       0.169  -1.904  -2.241  0.00  0.00     0.000 A 
ENDROOT
TORSDOF 0
ENDMDL
