MODEL 1
REMARK minimizedAffinity -4.86820459
REMARK minimizedRMSD -1
REMARK  0 active torsions:
REMARK  status: ('A' for Active; 'I' for Inactive)
ROOT
ATOM      1  C1  BNZ d   1      -1.234  -0.945   0.896  0.00  0.00     0.000 A 
ATOM      2  C2  BNZ d   1      -2.396  -1.210   1.569  0.00  0.00     0.000 A 
ATOM      3  C3  BNZ d   1      -2.568  -0.794   2.860  0.00  0.00     0.000 A 
ATOM      4  C4  BNZ d   1      -1.564  -0.149   3.488  0.00  0.00     0.000 A 
ATOM      5  C5  BNZ d   1      -0.382   0.118   2.825  0.00  0.00     0.000 A 
ATOM      6  C6  BNZ d   1      -0.228  -0.269   1.514  0.00  0.00     0.000 A 
ENDROOT
TORSDOF 0
ENDMDL
