MODEL 1
REMARK minimizedAffinity -2.20689893
REMARK minimizedRMSD -1
REMARK  0 active torsions:
REMARK  status: ('A' for Active; 'I' for Inactive)
ROOT
ATOM      1  C1  BNZ d   1      -1.322   0.856   3.596  0.00  0.00     0.000 A 
ATOM      2  C2  BNZ d   1      -0.835   1.372   2.425  0.00  0.00     0.000 A 
ATOM      3  C3  BNZ d   1      -0.710   0.588   1.313  0.00  0.00     0.000 A 
ATOM      4  C4  BNZ d   1      -1.034  -0.720   1.384  0.00  0.00     0.000 A 
ATOM      5  C5  BNZ d   1      -1.518  -1.257   2.560  0.00  0.00     0.000 A 
ATOM      6  C6  BNZ d   1      -1.679  -0.455   3.667  0.00  0.00     0.000 A 
ENDROOT
TORSDOF 0
ENDMDL
