MODEL 1
REMARK minimizedAffinity -4.47911358
REMARK minimizedRMSD -1
REMARK  0 active torsions:
REMARK  status: ('A' for Active; 'I' for Inactive)
ROOT
ATOM      1  C1  BNZ d   1       0.078   0.617   2.725  0.00  0.00     0.000 A 
ATOM      2  C2  BNZ d   1      -0.424   0.073   1.573  0.00  0.00     0.000 A 
ATOM      3  C3  BNZ d   1       0.181   0.303   0.369  0.00  0.00     0.000 A 
ATOM      4  C4  BNZ d   1       1.262   1.108   0.313  0.00  0.00     0.000 A 
ATOM      5  C5  BNZ d   1       1.774   1.672   1.465  0.00  0.00     0.000 A 
ATOM      6  C6  BNZ d   1       1.186   1.407   2.680  0.00  0.00     0.000 A 
ENDROOT
TORSDOF 0
ENDMDL
