MODEL 1
REMARK minimizedAffinity -5.30682135
REMARK minimizedRMSD -1
REMARK  0 active torsions:
REMARK  status: ('A' for Active; 'I' for Inactive)
ROOT
ATOM      1  C1  BNZ d   1      -0.631   0.131   2.690  0.00  0.00     0.000 A 
ATOM      2  C2  BNZ d   1      -1.307  -0.092   1.521  0.00  0.00     0.000 A 
ATOM      3  C3  BNZ d   1      -0.685   0.055   0.313  0.00  0.00     0.000 A 
ATOM      4  C4  BNZ d   1       0.600   0.463   0.274  0.00  0.00     0.000 A 
ATOM      5  C5  BNZ d   1       1.293   0.701   1.444  0.00  0.00     0.000 A 
ATOM      6  C6  BNZ d   1       0.675   0.515   2.659  0.00  0.00     0.000 A 
ENDROOT
TORSDOF 0
ENDMDL
