MODEL 1
REMARK minimizedAffinity 4.83131933
REMARK minimizedRMSD -1
REMARK  0 active torsions:
REMARK  status: ('A' for Active; 'I' for Inactive)
ROOT
ATOM      1  N1  IND d   1       0.797   2.956   0.230  0.00  0.00    -0.196 N 
ATOM      2  C2  IND d   1       0.346   3.395  -0.983  0.00  0.00     0.054 A 
ATOM      3  C3  IND d   1       0.480   2.424  -1.914  0.00  0.00    -0.031 A 
ATOM      4  C4  IND d   1       1.320   0.006  -1.646  0.00  0.00     0.051 A 
ATOM      5  C5  IND d   1       1.875  -0.847  -0.734  0.00  0.00    -0.031 A 
ATOM      6  C6  IND d   1       2.101  -0.469   0.574  0.00  0.00     0.015 A 
ATOM      7  C7  IND d   1       1.768   0.778   1.023  0.00  0.00    -0.016 A 
ATOM      8  C8  IND d   1       1.211   1.649   0.097  0.00  0.00    -0.047 A 
ATOM      9  C9  IND d   1       1.018   1.285  -1.242  0.00  0.00    -0.096 A 
ATOM     10  HN1 IND d   1       0.818   3.418   0.955  0.00  0.00     0.298 HD
ENDROOT
TORSDOF 0
ENDMDL
