MODEL 1
REMARK minimizedAffinity 1.44406855
REMARK minimizedRMSD -1
REMARK  0 active torsions:
REMARK  status: ('A' for Active; 'I' for Inactive)
ROOT
ATOM      1  N1  IND d   1       0.329   1.030  -1.979  0.00  0.00    -0.196 N 
ATOM      2  C2  IND d   1       0.784   1.998  -1.128  0.00  0.00     0.054 A 
ATOM      3  C3  IND d   1       1.358   1.437  -0.040  0.00  0.00    -0.031 A 
ATOM      4  C4  IND d   1       1.750  -1.049   0.502  0.00  0.00     0.051 A 
ATOM      5  C5  IND d   1       1.478  -2.308   0.045  0.00  0.00    -0.031 A 
ATOM      6  C6  IND d   1       0.797  -2.523  -1.136  0.00  0.00     0.015 A 
ATOM      7  C7  IND d   1       0.371  -1.482  -1.912  0.00  0.00    -0.016 A 
ATOM      8  C8  IND d   1       0.640  -0.203  -1.447  0.00  0.00    -0.047 A 
ATOM      9  C9  IND d   1       1.294   0.022  -0.229  0.00  0.00    -0.096 A 
ATOM     10  HN1 IND d   1      -0.082   1.167  -2.721  0.00  0.00     0.298 HD
ENDROOT
TORSDOF 0
ENDMDL
