MODEL 1
REMARK minimizedAffinity 6.16471338
REMARK minimizedRMSD -1
REMARK  0 active torsions:
REMARK  status: ('A' for Active; 'I' for Inactive)
ROOT
ATOM      1  N1  IND d   1      -4.808   1.964   0.565  0.00  0.00    -0.196 N 
ATOM      2  C2  IND d   1      -4.332   2.890  -0.320  0.00  0.00     0.054 A 
ATOM      3  C3  IND d   1      -3.400   3.670   0.271  0.00  0.00    -0.031 A 
ATOM      4  C4  IND d   1      -2.428   3.539   2.651  0.00  0.00     0.051 A 
ATOM      5  C5  IND d   1      -2.575   2.881   3.840  0.00  0.00    -0.031 A 
ATOM      6  C6  IND d   1      -3.490   1.861   4.000  0.00  0.00     0.015 A 
ATOM      7  C7  IND d   1      -4.289   1.452   2.970  0.00  0.00    -0.016 A 
ATOM      8  C8  IND d   1      -4.147   2.123   1.763  0.00  0.00    -0.047 A 
ATOM      9  C9  IND d   1      -3.250   3.187   1.607  0.00  0.00    -0.096 A 
ATOM     10  HN1 IND d   1      -5.418   1.380   0.401  0.00  0.00     0.298 HD
ENDROOT
TORSDOF 0
ENDMDL
