MODEL 1
REMARK minimizedAffinity -4.27625799
REMARK minimizedRMSD -1
REMARK  0 active torsions:
REMARK  status: ('A' for Active; 'I' for Inactive)
ROOT
ATOM      1  N1  IND d   1       1.409   0.971   0.745  0.00  0.00    -0.196 N 
ATOM      2  C2  IND d   1       1.590   0.060  -0.258  0.00  0.00     0.054 A 
ATOM      3  C3  IND d   1       1.460   0.655  -1.464  0.00  0.00    -0.031 A 
ATOM      4  C4  IND d   1       1.055   3.134  -2.030  0.00  0.00     0.051 A 
ATOM      5  C5  IND d   1       0.789   4.342  -1.448  0.00  0.00    -0.031 A 
ATOM      6  C6  IND d   1       0.717   4.492  -0.078  0.00  0.00     0.015 A 
ATOM      7  C7  IND d   1       0.921   3.436   0.765  0.00  0.00    -0.016 A 
ATOM      8  C8  IND d   1       1.184   2.207   0.178  0.00  0.00    -0.047 A 
ATOM      9  C9  IND d   1       1.216   2.040  -1.212  0.00  0.00    -0.096 A 
ATOM     10  HN1 IND d   1       1.432   0.802   1.587  0.00  0.00     0.298 HD
ENDROOT
TORSDOF 0
ENDMDL
