MODEL 1
REMARK minimizedAffinity -2.31329393
REMARK minimizedRMSD -1
REMARK  0 active torsions:
REMARK  status: ('A' for Active; 'I' for Inactive)
ROOT
ATOM      1  N1  IND d   1       0.993  -0.312  -2.308  0.00  0.00    -0.196 N 
ATOM      2  C2  IND d   1       0.974  -1.469  -1.579  0.00  0.00     0.054 A 
ATOM      3  C3  IND d   1       1.085  -1.195  -0.260  0.00  0.00    -0.031 A 
ATOM      4  C4  IND d   1       1.207   1.082   0.934  0.00  0.00     0.051 A 
ATOM      5  C5  IND d   1       1.294   2.424   0.689  0.00  0.00    -0.031 A 
ATOM      6  C6  IND d   1       1.283   2.933  -0.594  0.00  0.00     0.015 A 
ATOM      7  C7  IND d   1       1.171   2.116  -1.683  0.00  0.00    -0.016 A 
ATOM      8  C8  IND d   1       1.090   0.752  -1.438  0.00  0.00    -0.047 A 
ATOM      9  C9  IND d   1       1.144   0.227  -0.141  0.00  0.00    -0.096 A 
ATOM     10  HN1 IND d   1       0.952  -0.258  -3.165  0.00  0.00     0.298 HD
ENDROOT
TORSDOF 0
ENDMDL
