MODEL 1
REMARK minimizedAffinity -0.651878655
REMARK minimizedRMSD -1
REMARK  0 active torsions:
REMARK  status: ('A' for Active; 'I' for Inactive)
ROOT
ATOM      1  N1  IND d   1       1.162  -0.126  -2.042  0.00  0.00    -0.196 N 
ATOM      2  C2  IND d   1       1.379  -1.030  -1.039  0.00  0.00     0.054 A 
ATOM      3  C3  IND d   1       1.444  -0.400   0.155  0.00  0.00    -0.031 A 
ATOM      4  C4  IND d   1       1.123   2.093   0.710  0.00  0.00     0.051 A 
ATOM      5  C5  IND d   1       0.941   3.313   0.121  0.00  0.00    -0.031 A 
ATOM      6  C6  IND d   1       0.818   3.451  -1.246  0.00  0.00     0.015 A 
ATOM      7  C7  IND d   1       0.861   2.369  -2.079  0.00  0.00    -0.016 A 
ATOM      8  C8  IND d   1       1.053   1.129  -1.485  0.00  0.00    -0.047 A 
ATOM      9  C9  IND d   1       1.222   0.987  -0.101  0.00  0.00    -0.096 A 
ATOM     10  HN1 IND d   1       1.104  -0.310  -2.880  0.00  0.00     0.298 HD
ENDROOT
TORSDOF 0
ENDMDL
