MODEL 1
REMARK minimizedAffinity 2.41012192
REMARK minimizedRMSD -1
REMARK  0 active torsions:
REMARK  status: ('A' for Active; 'I' for Inactive)
ROOT
ATOM      1  N1  IND d   1       1.571  -1.506   0.317  0.00  0.00    -0.196 N 
ATOM      2  C2  IND d   1       1.167  -2.257  -0.752  0.00  0.00     0.054 A 
ATOM      3  C3  IND d   1       0.718  -1.457  -1.745  0.00  0.00    -0.031 A 
ATOM      4  C4  IND d   1       0.652   1.114  -1.872  0.00  0.00     0.051 A 
ATOM      5  C5  IND d   1       0.882   2.235  -1.125  0.00  0.00    -0.031 A 
ATOM      6  C6  IND d   1       1.365   2.165   0.166  0.00  0.00     0.015 A 
ATOM      7  C7  IND d   1       1.649   0.967   0.756  0.00  0.00    -0.016 A 
ATOM      8  C8  IND d   1       1.411  -0.174   0.003  0.00  0.00    -0.047 A 
ATOM      9  C9  IND d   1       0.880  -0.112  -1.292  0.00  0.00    -0.096 A 
ATOM     10  HN1 IND d   1       1.875  -1.815   1.060  0.00  0.00     0.298 HD
ENDROOT
TORSDOF 0
ENDMDL
