MODEL 1
REMARK minimizedAffinity 9.99567795
REMARK minimizedRMSD -1
REMARK  0 active torsions:
REMARK  status: ('A' for Active; 'I' for Inactive)
ROOT
ATOM      1  N1  IND d   1       1.449   3.306   0.974  0.00  0.00    -0.196 N 
ATOM      2  C2  IND d   1       1.988   2.664   2.054  0.00  0.00     0.054 A 
ATOM      3  C3  IND d   1       2.319   1.394   1.730  0.00  0.00    -0.031 A 
ATOM      4  C4  IND d   1       2.160   0.191  -0.540  0.00  0.00     0.051 A 
ATOM      5  C5  IND d   1       1.700   0.356  -1.817  0.00  0.00    -0.031 A 
ATOM      6  C6  IND d   1       1.123   1.537  -2.237  0.00  0.00     0.015 A 
ATOM      7  C7  IND d   1       0.995   2.606  -1.396  0.00  0.00    -0.016 A 
ATOM      8  C8  IND d   1       1.455   2.440  -0.098  0.00  0.00    -0.047 A 
ATOM      9  C9  IND d   1       2.003   1.230   0.347  0.00  0.00    -0.096 A 
ATOM     10  HN1 IND d   1       1.155   4.114   0.965  0.00  0.00     0.298 HD
ENDROOT
TORSDOF 0
ENDMDL
