MODEL 1
REMARK minimizedAffinity 5.05203867
REMARK minimizedRMSD -1
REMARK  0 active torsions:
REMARK  status: ('A' for Active; 'I' for Inactive)
ROOT
ATOM      1  N1  IND d   1       0.793   0.700  -2.439  0.00  0.00    -0.196 N 
ATOM      2  C2  IND d   1       0.796   2.057  -2.607  0.00  0.00     0.054 A 
ATOM      3  C3  IND d   1       0.923   2.679  -1.413  0.00  0.00    -0.031 A 
ATOM      4  C4  IND d   1       1.243   1.667   0.932  0.00  0.00     0.051 A 
ATOM      5  C5  IND d   1       1.269   0.472   1.595  0.00  0.00    -0.031 A 
ATOM      6  C6  IND d   1       1.137  -0.732   0.934  0.00  0.00     0.015 A 
ATOM      7  C7  IND d   1       0.986  -0.787  -0.423  0.00  0.00    -0.016 A 
ATOM      8  C8  IND d   1       0.952   0.424  -1.099  0.00  0.00    -0.047 A 
ATOM      9  C9  IND d   1       1.043   1.651  -0.428  0.00  0.00    -0.096 A 
ATOM     10  HN1 IND d   1       0.706   0.117  -3.065  0.00  0.00     0.298 HD
ENDROOT
TORSDOF 0
ENDMDL
