MODEL 1
REMARK minimizedAffinity -0.396855026
REMARK minimizedRMSD -1
REMARK  0 active torsions:
REMARK  status: ('A' for Active; 'I' for Inactive)
ROOT
ATOM      1  N1  IND d   1       1.118   3.859  -0.436  0.00  0.00    -0.196 N 
ATOM      2  C2  IND d   1       1.168   4.047  -1.789  0.00  0.00     0.054 A 
ATOM      3  C3  IND d   1       1.170   2.856  -2.429  0.00  0.00    -0.031 A 
ATOM      4  C4  IND d   1       0.993   0.478  -1.461  0.00  0.00     0.051 A 
ATOM      5  C5  IND d   1       0.963  -0.204  -0.276  0.00  0.00    -0.031 A 
ATOM      6  C6  IND d   1       0.980   0.448   0.940  0.00  0.00     0.015 A 
ATOM      7  C7  IND d   1       1.018   1.811   1.017  0.00  0.00    -0.016 A 
ATOM      8  C8  IND d   1       1.056   2.506  -0.183  0.00  0.00    -0.047 A 
ATOM      9  C9  IND d   1       1.081   1.849  -1.420  0.00  0.00    -0.096 A 
ATOM     10  HN1 IND d   1       1.125   4.481   0.158  0.00  0.00     0.298 HD
ENDROOT
TORSDOF 0
ENDMDL
