MODEL 1
REMARK minimizedAffinity 5.25282764
REMARK minimizedRMSD -1
REMARK  0 active torsions:
REMARK  status: ('A' for Active; 'I' for Inactive)
ROOT
ATOM      1  N1  IND d   1       0.430   3.290  -0.813  0.00  0.00    -0.196 N 
ATOM      2  C2  IND d   1       0.721   3.470  -2.137  0.00  0.00     0.054 A 
ATOM      3  C3  IND d   1       1.179   2.320  -2.679  0.00  0.00    -0.031 A 
ATOM      4  C4  IND d   1       1.438  -0.005  -1.604  0.00  0.00     0.051 A 
ATOM      5  C5  IND d   1       1.334  -0.656  -0.407  0.00  0.00    -0.031 A 
ATOM      6  C6  IND d   1       0.912  -0.013   0.739  0.00  0.00     0.015 A 
ATOM      7  C7  IND d   1       0.566   1.309   0.727  0.00  0.00    -0.016 A 
ATOM      8  C8  IND d   1       0.677   1.975  -0.485  0.00  0.00    -0.047 A 
ATOM      9  C9  IND d   1       1.145   1.338  -1.642  0.00  0.00    -0.096 A 
ATOM     10  HN1 IND d   1       0.141   3.896  -0.276  0.00  0.00     0.298 HD
ENDROOT
TORSDOF 0
ENDMDL
