MODEL 1
REMARK minimizedAffinity -1.75236547
REMARK minimizedRMSD -1
REMARK  0 active torsions:
REMARK  status: ('A' for Active; 'I' for Inactive)
ROOT
ATOM      1  N1  IND d   1       1.348   2.846   1.598  0.00  0.00    -0.196 N 
ATOM      2  C2  IND d   1       1.463   2.004   2.668  0.00  0.00     0.054 A 
ATOM      3  C3  IND d   1       1.295   0.721   2.277  0.00  0.00    -0.031 A 
ATOM      4  C4  IND d   1       0.924  -0.234  -0.085  0.00  0.00     0.051 A 
ATOM      5  C5  IND d   1       0.712   0.148  -1.380  0.00  0.00    -0.031 A 
ATOM      6  C6  IND d   1       0.704   1.476  -1.757  0.00  0.00     0.015 A 
ATOM      7  C7  IND d   1       0.919   2.475  -0.850  0.00  0.00    -0.016 A 
ATOM      8  C8  IND d   1       1.128   2.091   0.467  0.00  0.00    -0.047 A 
ATOM      9  C9  IND d   1       1.095   0.748   0.863  0.00  0.00    -0.096 A 
ATOM     10  HN1 IND d   1       1.403   3.704   1.627  0.00  0.00     0.298 HD
ENDROOT
TORSDOF 0
ENDMDL
