MODEL 1
REMARK minimizedAffinity 3.3870604
REMARK minimizedRMSD -1
REMARK  0 active torsions:
REMARK  status: ('A' for Active; 'I' for Inactive)
ROOT
ATOM      1  N1  IND d   1      -0.267  -4.046   2.481  0.00  0.00    -0.196 N 
ATOM      2  C2  IND d   1      -1.520  -4.594   2.488  0.00  0.00     0.054 A 
ATOM      3  C3  IND d   1      -2.066  -4.536   1.253  0.00  0.00    -0.031 A 
ATOM      4  C4  IND d   1      -1.044  -3.677  -0.948  0.00  0.00     0.051 A 
ATOM      5  C5  IND d   1       0.061  -3.050  -1.450  0.00  0.00    -0.031 A 
ATOM      6  C6  IND d   1       1.137  -2.718  -0.652  0.00  0.00     0.015 A 
ATOM      7  C7  IND d   1       1.152  -3.014   0.682  0.00  0.00    -0.016 A 
ATOM      8  C8  IND d   1       0.028  -3.644   1.196  0.00  0.00    -0.047 A 
ATOM      9  C9  IND d   1      -1.085  -3.945   0.400  0.00  0.00    -0.096 A 
ATOM     10  HN1 IND d   1       0.250  -3.966   3.163  0.00  0.00     0.298 HD
ENDROOT
TORSDOF 0
ENDMDL
