MODEL 1
REMARK minimizedAffinity 5.31669426
REMARK minimizedRMSD -1
REMARK  0 active torsions:
REMARK  status: ('A' for Active; 'I' for Inactive)
ROOT
ATOM      1  N1  IND d   1       2.000   0.743   2.072  0.00  0.00    -0.196 N 
ATOM      2  C2  IND d   1       1.793   2.094   2.119  0.00  0.00     0.054 A 
ATOM      3  C3  IND d   1       1.174   2.514   0.993  0.00  0.00    -0.031 A 
ATOM      4  C4  IND d   1       0.317   1.145  -1.012  0.00  0.00     0.051 A 
ATOM      5  C5  IND d   1       0.308  -0.121  -1.526  0.00  0.00    -0.031 A 
ATOM      6  C6  IND d   1       0.871  -1.186  -0.853  0.00  0.00     0.015 A 
ATOM      7  C7  IND d   1       1.457  -1.025   0.371  0.00  0.00    -0.016 A 
ATOM      8  C8  IND d   1       1.475   0.260   0.893  0.00  0.00    -0.047 A 
ATOM      9  C9  IND d   1       0.943   1.352   0.195  0.00  0.00    -0.096 A 
ATOM     10  HN1 IND d   1       2.393   0.274   2.676  0.00  0.00     0.298 HD
ENDROOT
TORSDOF 0
ENDMDL
