MODEL 1
REMARK minimizedAffinity -3.36966991
REMARK minimizedRMSD -1
REMARK  0 active torsions:
REMARK  status: ('A' for Active; 'I' for Inactive)
ROOT
ATOM      1  N1  IND d   1       1.332   3.613   0.651  0.00  0.00    -0.196 N 
ATOM      2  C2  IND d   1       1.523   4.263  -0.536  0.00  0.00     0.054 A 
ATOM      3  C3  IND d   1       1.394   3.402  -1.570  0.00  0.00    -0.031 A 
ATOM      4  C4  IND d   1       0.770   0.904  -1.550  0.00  0.00     0.051 A 
ATOM      5  C5  IND d   1       0.536  -0.141  -0.701  0.00  0.00    -0.031 A 
ATOM      6  C6  IND d   1       0.552   0.016   0.670  0.00  0.00     0.015 A 
ATOM      7  C7  IND d   1       0.793   1.232   1.245  0.00  0.00    -0.016 A 
ATOM      8  C8  IND d   1       1.039   2.293   0.386  0.00  0.00    -0.047 A 
ATOM      9  C9  IND d   1       1.066   2.131  -1.005  0.00  0.00    -0.096 A 
ATOM     10  HN1 IND d   1       1.385   3.969   1.432  0.00  0.00     0.298 HD
ENDROOT
TORSDOF 0
ENDMDL
