MODEL 1
REMARK minimizedAffinity -0.88784337
REMARK minimizedRMSD -1
REMARK  0 active torsions:
REMARK  status: ('A' for Active; 'I' for Inactive)
ROOT
ATOM      1  N1  IND d   1       1.645  -0.626   0.265  0.00  0.00    -0.196 N 
ATOM      2  C2  IND d   1       1.312  -1.469  -0.758  0.00  0.00     0.054 A 
ATOM      3  C3  IND d   1       0.735  -0.778  -1.767  0.00  0.00    -0.031 A 
ATOM      4  C4  IND d   1       0.329   1.754  -1.994  0.00  0.00     0.051 A 
ATOM      5  C5  IND d   1       0.431   2.927  -1.301  0.00  0.00    -0.031 A 
ATOM      6  C6  IND d   1       0.956   2.978  -0.026  0.00  0.00     0.015 A 
ATOM      7  C7  IND d   1       1.411   1.853   0.602  0.00  0.00    -0.016 A 
ATOM      8  C8  IND d   1       1.303   0.659  -0.096  0.00  0.00    -0.047 A 
ATOM      9  C9  IND d   1       0.732   0.595  -1.373  0.00  0.00    -0.096 A 
ATOM     10  HN1 IND d   1       2.007  -0.859   1.009  0.00  0.00     0.298 HD
ENDROOT
TORSDOF 0
ENDMDL
