MODEL 1
REMARK minimizedAffinity 3.60962915
REMARK minimizedRMSD -1
REMARK  0 active torsions:
REMARK  status: ('A' for Active; 'I' for Inactive)
ROOT
ATOM      1  N1  IND d   1       2.530   0.761   2.370  0.00  0.00    -0.196 N 
ATOM      2  C2  IND d   1       2.404   2.071   2.740  0.00  0.00     0.054 A 
ATOM      3  C3  IND d   1       1.734   2.765   1.793  0.00  0.00    -0.031 A 
ATOM      4  C4  IND d   1       0.664   1.930  -0.395  0.00  0.00     0.051 A 
ATOM      5  C5  IND d   1       0.547   0.819  -1.182  0.00  0.00    -0.031 A 
ATOM      6  C6  IND d   1       1.093  -0.394  -0.815  0.00  0.00     0.015 A 
ATOM      7  C7  IND d   1       1.771  -0.544   0.362  0.00  0.00    -0.016 A 
ATOM      8  C8  IND d   1       1.898   0.584   1.159  0.00  0.00    -0.047 A 
ATOM      9  C9  IND d   1       1.382   1.828   0.773  0.00  0.00    -0.096 A 
ATOM     10  HN1 IND d   1       2.936   0.150   2.819  0.00  0.00     0.298 HD
ENDROOT
TORSDOF 0
ENDMDL
