MODEL 1
REMARK minimizedAffinity 10.834362
REMARK minimizedRMSD -1
REMARK  0 active torsions:
REMARK  status: ('A' for Active; 'I' for Inactive)
ROOT
ATOM      1  N1  IND d   1       1.945   5.390  -2.237  0.00  0.00    -0.196 N 
ATOM      2  C2  IND d   1       1.903   6.000  -1.015  0.00  0.00     0.054 A 
ATOM      3  C3  IND d   1       1.432   5.146  -0.079  0.00  0.00    -0.031 A 
ATOM      4  C4  IND d   1       0.765   2.670  -0.311  0.00  0.00     0.051 A 
ATOM      5  C5  IND d   1       0.599   1.682  -1.240  0.00  0.00    -0.031 A 
ATOM      6  C6  IND d   1       0.881   1.883  -2.576  0.00  0.00     0.015 A 
ATOM      7  C7  IND d   1       1.353   3.081  -3.032  0.00  0.00    -0.016 A 
ATOM      8  C8  IND d   1       1.516   4.088  -2.092  0.00  0.00    -0.047 A 
ATOM      9  C9  IND d   1       1.191   3.904  -0.742  0.00  0.00    -0.096 A 
ATOM     10  HN1 IND d   1       2.197   5.757  -2.973  0.00  0.00     0.298 HD
ENDROOT
TORSDOF 0
ENDMDL
