MODEL 1
REMARK minimizedAffinity 2.21819067
REMARK minimizedRMSD -1
REMARK  0 active torsions:
REMARK  status: ('A' for Active; 'I' for Inactive)
ROOT
ATOM      1  C   UNL d   1      -1.960  -1.921   1.933  0.00  0.00     0.077 C 
ATOM      2  C1  UNL d   1      -0.515  -1.524   1.985  0.00  0.00    -0.074 A 
ATOM      3  C2  UNL d   1       0.104  -1.223   3.202  0.00  0.00    -0.005 A 
ATOM      4  C3  UNL d   1       1.452  -0.864   3.236  0.00  0.00     0.006 A 
ATOM      5  C4  UNL d   1       2.192  -0.803   2.055  0.00  0.00    -0.005 A 
ATOM      6  C5  UNL d   1       1.590  -1.101   0.828  0.00  0.00    -0.074 A 
ATOM      7  C6  UNL d   1       2.374  -1.050  -0.450  0.00  0.00     0.077 C 
ATOM      8  C7  UNL d   1       0.237  -1.468   0.804  0.00  0.00    -0.001 A 
ENDROOT
TORSDOF 0
ENDMDL
