MODEL 1
REMARK minimizedAffinity 8.51855946
REMARK minimizedRMSD -1
REMARK  0 active torsions:
REMARK  status: ('A' for Active; 'I' for Inactive)
ROOT
ATOM      1  C   UNL d   1       5.064   2.449   0.749  0.00  0.00     0.077 C 
ATOM      2  C1  UNL d   1       4.961   0.959   0.607  0.00  0.00    -0.074 A 
ATOM      3  C2  UNL d   1       5.998   0.123   1.034  0.00  0.00    -0.005 A 
ATOM      4  C3  UNL d   1       5.885  -1.261   0.904  0.00  0.00     0.006 A 
ATOM      5  C4  UNL d   1       4.735  -1.822   0.348  0.00  0.00    -0.005 A 
ATOM      6  C5  UNL d   1       3.687  -1.003  -0.083  0.00  0.00    -0.074 A 
ATOM      7  C6  UNL d   1       2.440  -1.591  -0.674  0.00  0.00     0.077 C 
ATOM      8  C7  UNL d   1       3.806   0.387   0.057  0.00  0.00    -0.001 A 
ENDROOT
TORSDOF 0
ENDMDL
