MODEL 1
REMARK minimizedAffinity 9.06972599
REMARK minimizedRMSD -1
REMARK  0 active torsions:
REMARK  status: ('A' for Active; 'I' for Inactive)
ROOT
ATOM      1  C   UNL d   1      -5.246  -0.014  -5.927  0.00  0.00     0.077 C 
ATOM      2  C1  UNL d   1      -5.087   1.319  -5.259  0.00  0.00    -0.074 A 
ATOM      3  C2  UNL d   1      -5.997   2.354  -5.494  0.00  0.00    -0.005 A 
ATOM      4  C3  UNL d   1      -5.841   3.586  -4.858  0.00  0.00     0.006 A 
ATOM      5  C4  UNL d   1      -4.775   3.794  -3.982  0.00  0.00    -0.005 A 
ATOM      6  C5  UNL d   1      -3.855   2.771  -3.734  0.00  0.00    -0.074 A 
ATOM      7  C6  UNL d   1      -2.709   2.975  -2.788  0.00  0.00     0.077 C 
ATOM      8  C7  UNL d   1      -4.023   1.534  -4.371  0.00  0.00    -0.001 A 
ENDROOT
TORSDOF 0
ENDMDL
