MODEL 1
REMARK minimizedAffinity 6.24241972
REMARK minimizedRMSD -1
REMARK  0 active torsions:
REMARK  status: ('A' for Active; 'I' for Inactive)
ROOT
ATOM      1  C   UNL d   1      -2.584   0.292   1.980  0.00  0.00     0.077 C 
ATOM      2  C1  UNL d   1      -1.257  -0.398   2.087  0.00  0.00    -0.074 A 
ATOM      3  C2  UNL d   1      -0.817  -0.926   3.305  0.00  0.00    -0.005 A 
ATOM      4  C3  UNL d   1       0.415  -1.574   3.386  0.00  0.00     0.006 A 
ATOM      5  C4  UNL d   1       1.219  -1.701   2.253  0.00  0.00    -0.005 A 
ATOM      6  C5  UNL d   1       0.796  -1.180   1.026  0.00  0.00    -0.074 A 
ATOM      7  C6  UNL d   1       1.643  -1.315  -0.204  0.00  0.00     0.077 C 
ATOM      8  C7  UNL d   1      -0.447  -0.536   0.950  0.00  0.00    -0.001 A 
ENDROOT
TORSDOF 0
ENDMDL
