MODEL 1
REMARK minimizedAffinity -0.0187798571
REMARK minimizedRMSD -1
REMARK  0 active torsions:
REMARK  status: ('A' for Active; 'I' for Inactive)
ROOT
ATOM      1  C   UNL d   1      -2.383  -1.959  -1.903  0.00  0.00     0.077 C 
ATOM      2  C1  UNL d   1      -3.389  -1.433  -2.884  0.00  0.00    -0.074 A 
ATOM      3  C2  UNL d   1      -4.722  -1.854  -2.841  0.00  0.00    -0.005 A 
ATOM      4  C3  UNL d   1      -5.649  -1.349  -3.753  0.00  0.00     0.006 A 
ATOM      5  C4  UNL d   1      -5.252  -0.420  -4.716  0.00  0.00    -0.005 A 
ATOM      6  C5  UNL d   1      -3.923   0.013  -4.773  0.00  0.00    -0.074 A 
ATOM      7  C6  UNL d   1      -3.482   1.018  -5.796  0.00  0.00     0.077 C 
ATOM      8  C7  UNL d   1      -3.000  -0.494  -3.849  0.00  0.00    -0.001 A 
ENDROOT
TORSDOF 0
ENDMDL
