MODEL 1
REMARK minimizedAffinity 9.14314175
REMARK minimizedRMSD -1
REMARK  0 active torsions:
REMARK  status: ('A' for Active; 'I' for Inactive)
ROOT
ATOM      1  C   UNL d   1      -5.506   1.847  -4.917  0.00  0.00     0.077 C 
ATOM      2  C1  UNL d   1      -4.512   0.724  -4.884  0.00  0.00    -0.074 A 
ATOM      3  C2  UNL d   1      -4.317  -0.096  -6.000  0.00  0.00    -0.005 A 
ATOM      4  C3  UNL d   1      -3.382  -1.131  -5.957  0.00  0.00     0.006 A 
ATOM      5  C4  UNL d   1      -2.635  -1.356  -4.800  0.00  0.00    -0.005 A 
ATOM      6  C5  UNL d   1      -2.817  -0.545  -3.675  0.00  0.00    -0.074 A 
ATOM      7  C6  UNL d   1      -2.015  -0.767  -2.427  0.00  0.00     0.077 C 
ATOM      8  C7  UNL d   1      -3.752   0.497  -3.728  0.00  0.00    -0.001 A 
ENDROOT
TORSDOF 0
ENDMDL
