MODEL 1
REMARK minimizedAffinity 6.72516966
REMARK minimizedRMSD -1
REMARK  0 active torsions:
REMARK  status: ('A' for Active; 'I' for Inactive)
ROOT
ATOM      1  C   UNL d   1       1.488  -0.933  -0.156  0.00  0.00     0.077 C 
ATOM      2  C1  UNL d   1       0.688  -1.007   1.111  0.00  0.00    -0.074 A 
ATOM      3  C2  UNL d   1       1.064  -1.865   2.149  0.00  0.00    -0.005 A 
ATOM      4  C3  UNL d   1       0.316  -1.916   3.325  0.00  0.00     0.006 A 
ATOM      5  C4  UNL d   1      -0.814  -1.110   3.474  0.00  0.00    -0.005 A 
ATOM      6  C5  UNL d   1      -1.204  -0.245   2.448  0.00  0.00    -0.074 A 
ATOM      7  C6  UNL d   1      -2.410   0.635   2.596  0.00  0.00     0.077 C 
ATOM      8  C7  UNL d   1      -0.443  -0.195   1.272  0.00  0.00    -0.001 A 
ENDROOT
TORSDOF 0
ENDMDL
