MODEL 1
REMARK minimizedAffinity 4.40572214
REMARK minimizedRMSD -1
REMARK  0 active torsions:
REMARK  status: ('A' for Active; 'I' for Inactive)
ROOT
ATOM      1  C   UNL d   1      -4.465   0.893  -6.000  0.00  0.00     0.077 C 
ATOM      2  C1  UNL d   1      -4.502  -0.083  -4.861  0.00  0.00    -0.074 A 
ATOM      3  C2  UNL d   1      -5.670  -0.791  -4.559  0.00  0.00    -0.005 A 
ATOM      4  C3  UNL d   1      -5.686  -1.703  -3.504  0.00  0.00     0.006 A 
ATOM      5  C4  UNL d   1      -4.537  -1.915  -2.740  0.00  0.00    -0.005 A 
ATOM      6  C5  UNL d   1      -3.360  -1.216  -3.028  0.00  0.00    -0.074 A 
ATOM      7  C6  UNL d   1      -2.114  -1.439  -2.224  0.00  0.00     0.077 C 
ATOM      8  C7  UNL d   1      -3.350  -0.307  -4.095  0.00  0.00    -0.001 A 
ENDROOT
TORSDOF 0
ENDMDL
