MODEL 1
REMARK minimizedAffinity 1.95838201
REMARK minimizedRMSD -1
REMARK  0 active torsions:
REMARK  status: ('A' for Active; 'I' for Inactive)
ROOT
ATOM      1  C   UNL d   1       1.547  -1.546   0.778  0.00  0.00     0.077 C 
ATOM      2  C1  UNL d   1       1.755  -0.763  -0.484  0.00  0.00    -0.074 A 
ATOM      3  C2  UNL d   1       1.709  -1.389  -1.734  0.00  0.00    -0.005 A 
ATOM      4  C3  UNL d   1       1.896  -0.646  -2.900  0.00  0.00     0.006 A 
ATOM      5  C4  UNL d   1       2.130   0.728  -2.828  0.00  0.00    -0.005 A 
ATOM      6  C5  UNL d   1       2.178   1.371  -1.587  0.00  0.00    -0.074 A 
ATOM      7  C6  UNL d   1       2.419   2.848  -1.492  0.00  0.00     0.077 C 
ATOM      8  C7  UNL d   1       1.983   0.619  -0.420  0.00  0.00    -0.001 A 
ENDROOT
TORSDOF 0
ENDMDL
