MODEL 1
REMARK minimizedAffinity 8.97175598
REMARK minimizedRMSD -1
REMARK  0 active torsions:
REMARK  status: ('A' for Active; 'I' for Inactive)
ROOT
ATOM      1  C   UNL d   1      -3.856   0.417   1.662  0.00  0.00     0.077 C 
ATOM      2  C1  UNL d   1      -2.513   0.174   2.283  0.00  0.00    -0.074 A 
ATOM      3  C2  UNL d   1      -2.071   0.943   3.365  0.00  0.00    -0.005 A 
ATOM      4  C3  UNL d   1      -0.823   0.699   3.938  0.00  0.00     0.006 A 
ATOM      5  C4  UNL d   1      -0.005  -0.314   3.435  0.00  0.00    -0.005 A 
ATOM      6  C5  UNL d   1      -0.430  -1.093   2.354  0.00  0.00    -0.074 A 
ATOM      7  C6  UNL d   1       0.432  -2.192   1.809  0.00  0.00     0.077 C 
ATOM      8  C7  UNL d   1      -1.689  -0.847   1.789  0.00  0.00    -0.001 A 
ENDROOT
TORSDOF 0
ENDMDL
