MODEL 1
REMARK minimizedAffinity 11.8075905
REMARK minimizedRMSD -1
REMARK  0 active torsions:
REMARK  status: ('A' for Active; 'I' for Inactive)
ROOT
ATOM      1  C   UNL d   1       1.021   2.125  -3.263  0.00  0.00     0.077 C 
ATOM      2  C1  UNL d   1       1.754   1.329  -2.225  0.00  0.00    -0.074 A 
ATOM      3  C2  UNL d   1       2.116  -0.001  -2.462  0.00  0.00    -0.005 A 
ATOM      4  C3  UNL d   1       2.806  -0.725  -1.490  0.00  0.00     0.006 A 
ATOM      5  C4  UNL d   1       3.141  -0.129  -0.274  0.00  0.00    -0.005 A 
ATOM      6  C5  UNL d   1       2.789   1.201  -0.020  0.00  0.00    -0.074 A 
ATOM      7  C6  UNL d   1       3.150   1.860   1.278  0.00  0.00     0.077 C 
ATOM      8  C7  UNL d   1       2.101   1.924  -1.004  0.00  0.00    -0.001 A 
ENDROOT
TORSDOF 0
ENDMDL
