MODEL 1
REMARK minimizedAffinity -4.11489964
REMARK minimizedRMSD -1
REMARK  0 active torsions:
REMARK  status: ('A' for Active; 'I' for Inactive)
ROOT
ATOM      1  C   UNL d   1       1.664  -1.855   0.218  0.00  0.00     0.077 C 
ATOM      2  C1  UNL d   1       2.083  -0.720  -0.668  0.00  0.00    -0.074 A 
ATOM      3  C2  UNL d   1       3.422  -0.549  -1.033  0.00  0.00    -0.005 A 
ATOM      4  C3  UNL d   1       3.794   0.507  -1.866  0.00  0.00     0.006 A 
ATOM      5  C4  UNL d   1       2.833   1.400  -2.340  0.00  0.00    -0.005 A 
ATOM      6  C5  UNL d   1       1.489   1.244  -1.986  0.00  0.00    -0.074 A 
ATOM      7  C6  UNL d   1       0.442   2.190  -2.496  0.00  0.00     0.077 C 
ATOM      8  C7  UNL d   1       1.122   0.177  -1.155  0.00  0.00    -0.001 A 
ENDROOT
TORSDOF 0
ENDMDL
