MODEL 1
REMARK minimizedAffinity 6.34999895
REMARK minimizedRMSD -1
REMARK  0 active torsions:
REMARK  status: ('A' for Active; 'I' for Inactive)
ROOT
ATOM      1  C   UNL d   1      -1.472  -0.957   2.498  0.00  0.00     0.077 C 
ATOM      2  C1  UNL d   1      -2.746  -0.169   2.583  0.00  0.00    -0.074 A 
ATOM      3  C2  UNL d   1      -3.661  -0.165   1.526  0.00  0.00    -0.005 A 
ATOM      4  C3  UNL d   1      -4.845   0.565   1.624  0.00  0.00     0.006 A 
ATOM      5  C4  UNL d   1      -5.127   1.296   2.778  0.00  0.00    -0.005 A 
ATOM      6  C5  UNL d   1      -4.224   1.303   3.847  0.00  0.00    -0.074 A 
ATOM      7  C6  UNL d   1      -4.516   2.075   5.099  0.00  0.00     0.077 C 
ATOM      8  C7  UNL d   1      -3.039   0.562   3.743  0.00  0.00    -0.001 A 
ENDROOT
TORSDOF 0
ENDMDL
