MODEL 1
REMARK minimizedAffinity 6.85131407
REMARK minimizedRMSD -1
REMARK  0 active torsions:
REMARK  status: ('A' for Active; 'I' for Inactive)
ROOT
ATOM      1  C2' OXE d   1       4.819  -3.506   3.122  0.00  0.00     0.078 C 
ATOM      2  C1' OXE d   1       4.822  -5.254   0.926  0.00  0.00     0.078 C 
ATOM      3  C1  OXE d   1       3.860  -4.092   0.899  0.00  0.00    -0.078 A 
ATOM      4  C2  OXE d   1       3.833  -3.269   1.999  0.00  0.00    -0.078 A 
ATOM      5  C3  OXE d   1       3.003  -2.151   2.004  0.00  0.00     0.003 A 
ATOM      6  C4  OXE d   1       2.087  -1.945   0.965  0.00  0.00    -0.002 A 
ATOM      7  C5  OXE d   1       2.070  -2.794  -0.146  0.00  0.00    -0.002 A 
ATOM      8  C6  OXE d   1       2.978  -3.845  -0.214  0.00  0.00     0.003 A 
ENDROOT
TORSDOF 0
ENDMDL
