MODEL 1
REMARK minimizedAffinity 10.3984747
REMARK minimizedRMSD -1
REMARK  0 active torsions:
REMARK  status: ('A' for Active; 'I' for Inactive)
ROOT
ATOM      1  C2' OXE d   1       4.223  -3.715   0.542  0.00  0.00     0.078 C 
ATOM      2  C1' OXE d   1       4.385  -2.602   3.114  0.00  0.00     0.078 C 
ATOM      3  C1  OXE d   1       3.201  -2.227   2.258  0.00  0.00    -0.078 A 
ATOM      4  C2  OXE d   1       3.154  -2.740   0.984  0.00  0.00    -0.078 A 
ATOM      5  C3  OXE d   1       2.056  -2.470   0.172  0.00  0.00     0.003 A 
ATOM      6  C4  OXE d   1       1.076  -1.559   0.585  0.00  0.00    -0.002 A 
ATOM      7  C5  OXE d   1       1.125  -0.994   1.864  0.00  0.00    -0.002 A 
ATOM      8  C6  OXE d   1       2.156  -1.350   2.727  0.00  0.00     0.003 A 
ENDROOT
TORSDOF 0
ENDMDL
