MODEL 1
REMARK minimizedAffinity 9.27307606
REMARK minimizedRMSD -1
REMARK  0 active torsions:
REMARK  status: ('A' for Active; 'I' for Inactive)
ROOT
ATOM      1  C2' OXE d   1       4.274  -5.962   3.167  0.00  0.00     0.078 C 
ATOM      2  C1' OXE d   1       4.395  -5.997   5.971  0.00  0.00     0.078 C 
ATOM      3  C1  OXE d   1       4.925  -4.778   5.259  0.00  0.00    -0.078 A 
ATOM      4  C2  OXE d   1       4.905  -4.789   3.885  0.00  0.00    -0.078 A 
ATOM      5  C3  OXE d   1       5.332  -3.667   3.180  0.00  0.00     0.003 A 
ATOM      6  C4  OXE d   1       5.923  -2.591   3.852  0.00  0.00    -0.002 A 
ATOM      7  C5  OXE d   1       5.990  -2.576   5.249  0.00  0.00    -0.002 A 
ATOM      8  C6  OXE d   1       5.458  -3.640   5.968  0.00  0.00     0.003 A 
ENDROOT
TORSDOF 0
ENDMDL
