MODEL 1
REMARK minimizedAffinity -2.89477134
REMARK minimizedRMSD -1
REMARK  0 active torsions:
REMARK  status: ('A' for Active; 'I' for Inactive)
ROOT
ATOM      1  C2' OXE d   1       2.444   4.722  -5.999  0.00  0.00     0.078 C 
ATOM      2  C1' OXE d   1       5.071   5.713  -5.992  0.00  0.00     0.078 C 
ATOM      3  C1  OXE d   1       4.883   4.216  -5.984  0.00  0.00    -0.078 A 
ATOM      4  C2  OXE d   1       3.594   3.741  -5.941  0.00  0.00    -0.078 A 
ATOM      5  C3  OXE d   1       3.364   2.369  -5.987  0.00  0.00     0.003 A 
ATOM      6  C4  OXE d   1       4.433   1.468  -5.922  0.00  0.00    -0.002 A 
ATOM      7  C5  OXE d   1       5.753   1.931  -5.926  0.00  0.00    -0.002 A 
ATOM      8  C6  OXE d   1       5.995   3.298  -6.000  0.00  0.00     0.003 A 
ENDROOT
TORSDOF 0
ENDMDL
