MODEL 1
REMARK minimizedAffinity 1.81588089
REMARK minimizedRMSD -1
REMARK  0 active torsions:
REMARK  status: ('A' for Active; 'I' for Inactive)
ROOT
ATOM      1  C2' OXE d   1       5.097  -5.013   0.671  0.00  0.00     0.078 C 
ATOM      2  C1' OXE d   1       4.409  -4.252   3.284  0.00  0.00     0.078 C 
ATOM      3  C1  OXE d   1       3.521  -3.784   2.159  0.00  0.00    -0.078 A 
ATOM      4  C2  OXE d   1       3.891  -4.122   0.879  0.00  0.00    -0.078 A 
ATOM      5  C3  OXE d   1       3.077  -3.762  -0.192  0.00  0.00     0.003 A 
ATOM      6  C4  OXE d   1       1.969  -2.930   0.009  0.00  0.00    -0.002 A 
ATOM      7  C5  OXE d   1       1.597  -2.541   1.300  0.00  0.00    -0.002 A 
ATOM      8  C6  OXE d   1       2.336  -2.994   2.387  0.00  0.00     0.003 A 
ENDROOT
TORSDOF 0
ENDMDL
