MODEL 1
REMARK minimizedAffinity -0.23945646
REMARK minimizedRMSD -1
REMARK  0 active torsions:
REMARK  status: ('A' for Active; 'I' for Inactive)
ROOT
ATOM      1  C2' OXE d   1       2.151   4.813  -5.934  0.00  0.00     0.078 C 
ATOM      2  C1' OXE d   1       1.512   2.080  -5.998  0.00  0.00     0.078 C 
ATOM      3  C1  OXE d   1       2.971   2.461  -5.973  0.00  0.00    -0.078 A 
ATOM      4  C2  OXE d   1       3.275   3.801  -5.989  0.00  0.00    -0.078 A 
ATOM      5  C3  OXE d   1       4.604   4.208  -5.913  0.00  0.00     0.003 A 
ATOM      6  C4  OXE d   1       5.638   3.266  -5.974  0.00  0.00    -0.002 A 
ATOM      7  C5  OXE d   1       5.351   1.897  -5.999  0.00  0.00    -0.002 A 
ATOM      8  C6  OXE d   1       4.026   1.478  -5.956  0.00  0.00     0.003 A 
ENDROOT
TORSDOF 0
ENDMDL
