MODEL 1
REMARK minimizedAffinity 0.605364859
REMARK minimizedRMSD -1
REMARK  0 active torsions:
REMARK  status: ('A' for Active; 'I' for Inactive)
ROOT
ATOM      1  C2' OXE d   1       5.594   5.673  -5.641  0.00  0.00     0.078 C 
ATOM      2  C1' OXE d   1       2.823   5.965  -5.981  0.00  0.00     0.078 C 
ATOM      3  C1  OXE d   1       3.380   4.565  -5.917  0.00  0.00    -0.078 A 
ATOM      4  C2  OXE d   1       4.743   4.432  -5.798  0.00  0.00    -0.078 A 
ATOM      5  C3  OXE d   1       5.304   3.163  -5.680  0.00  0.00     0.003 A 
ATOM      6  C4  OXE d   1       4.511   2.020  -5.836  0.00  0.00    -0.002 A 
ATOM      7  C5  OXE d   1       3.126   2.133  -5.999  0.00  0.00    -0.002 A 
ATOM      8  C6  OXE d   1       2.541   3.395  -5.999  0.00  0.00     0.003 A 
ENDROOT
TORSDOF 0
ENDMDL
