MODEL 1
REMARK minimizedAffinity 4.44965839
REMARK minimizedRMSD -1
REMARK  0 active torsions:
REMARK  status: ('A' for Active; 'I' for Inactive)
ROOT
ATOM      1  C2' OXE d   1       0.075  -0.638   3.162  0.00  0.00     0.078 C 
ATOM      2  C1' OXE d   1       1.190   1.135   1.292  0.00  0.00     0.078 C 
ATOM      3  C1  OXE d   1       1.601  -0.315   1.220  0.00  0.00    -0.078 A 
ATOM      4  C2  OXE d   1       1.087  -1.166   2.168  0.00  0.00    -0.078 A 
ATOM      5  C3  OXE d   1       1.391  -2.523   2.113  0.00  0.00     0.003 A 
ATOM      6  C4  OXE d   1       2.336  -3.002   1.196  0.00  0.00    -0.002 A 
ATOM      7  C5  OXE d   1       2.902  -2.144   0.247  0.00  0.00    -0.002 A 
ATOM      8  C6  OXE d   1       2.514  -0.809   0.218  0.00  0.00     0.003 A 
ENDROOT
TORSDOF 0
ENDMDL
