MODEL 1
REMARK minimizedAffinity 1.08720279
REMARK minimizedRMSD -1
REMARK  0 active torsions:
REMARK  status: ('A' for Active; 'I' for Inactive)
ROOT
ATOM      1  C2' OXE d   1       4.783   4.112  -5.996  0.00  0.00     0.078 C 
ATOM      2  C1' OXE d   1       4.360   1.337  -5.978  0.00  0.00     0.078 C 
ATOM      3  C1  OXE d   1       3.147   2.233  -5.977  0.00  0.00    -0.078 A 
ATOM      4  C2  OXE d   1       3.363   3.590  -5.939  0.00  0.00    -0.078 A 
ATOM      5  C3  OXE d   1       2.280   4.462  -5.992  0.00  0.00     0.003 A 
ATOM      6  C4  OXE d   1       0.970   3.971  -5.929  0.00  0.00    -0.002 A 
ATOM      7  C5  OXE d   1       0.728   2.593  -5.928  0.00  0.00    -0.002 A 
ATOM      8  C6  OXE d   1       1.803   1.712  -5.994  0.00  0.00     0.003 A 
ENDROOT
TORSDOF 0
ENDMDL
