MODEL 1
REMARK minimizedAffinity 4.21053982
REMARK minimizedRMSD -1
REMARK  0 active torsions:
REMARK  status: ('A' for Active; 'I' for Inactive)
ROOT
ATOM      1  C2' OXE d   1       3.234  -3.045  -0.847  0.00  0.00     0.078 C 
ATOM      2  C1' OXE d   1       1.523  -2.174   1.200  0.00  0.00     0.078 C 
ATOM      3  C1  OXE d   1       2.742  -2.970   1.594  0.00  0.00    -0.078 A 
ATOM      4  C2  OXE d   1       3.549  -3.432   0.582  0.00  0.00    -0.078 A 
ATOM      5  C3  OXE d   1       4.716  -4.124   0.893  0.00  0.00     0.003 A 
ATOM      6  C4  OXE d   1       4.995  -4.486   2.216  0.00  0.00    -0.002 A 
ATOM      7  C5  OXE d   1       4.165  -4.059   3.258  0.00  0.00    -0.002 A 
ATOM      8  C6  OXE d   1       3.060  -3.266   2.969  0.00  0.00     0.003 A 
ENDROOT
TORSDOF 0
ENDMDL
