MODEL 1
REMARK minimizedAffinity 5.23975468
REMARK minimizedRMSD -1
REMARK  0 active torsions:
REMARK  status: ('A' for Active; 'I' for Inactive)
ROOT
ATOM      1  C4' PXY d   1      -3.805   1.361   1.720  0.00  0.00     0.077 C 
ATOM      2  C1' PXY d   1      -1.684  -0.590  -3.291  0.00  0.00     0.077 C 
ATOM      3  C1  PXY d   1      -2.252  -0.080  -1.981  0.00  0.00    -0.082 A 
ATOM      4  C2  PXY d   1      -1.497   0.659  -1.184  0.00  0.00     0.003 A 
ATOM      5  C3  PXY d   1      -1.985   1.102   0.018  0.00  0.00     0.003 A 
ATOM      6  C4  PXY d   1      -3.276   0.832   0.384  0.00  0.00    -0.082 A 
ATOM      7  C5  PXY d   1      -4.056   0.088  -0.428  0.00  0.00     0.003 A 
ATOM      8  C6  PXY d   1      -3.529  -0.387  -1.626  0.00  0.00     0.003 A 
ENDROOT
TORSDOF 0
ENDMDL
