MODEL 1
REMARK minimizedAffinity 0.554418206
REMARK minimizedRMSD -1
REMARK  0 active torsions:
REMARK  status: ('A' for Active; 'I' for Inactive)
ROOT
ATOM      1  C4' PXY d   1      -0.049   5.244   5.996  0.00  0.00     0.077 C 
ATOM      2  C1' PXY d   1       5.474   3.541   5.971  0.00  0.00     0.077 C 
ATOM      3  C1  PXY d   1       4.029   3.999   5.983  0.00  0.00    -0.082 A 
ATOM      4  C2  PXY d   1       3.058   3.100   6.000  0.00  0.00     0.003 A 
ATOM      5  C3  PXY d   1       1.746   3.496   5.978  0.00  0.00     0.003 A 
ATOM      6  C4  PXY d   1       1.424   4.827   5.993  0.00  0.00    -0.082 A 
ATOM      7  C5  PXY d   1       2.409   5.750   5.986  0.00  0.00     0.003 A 
ATOM      8  C6  PXY d   1       3.735   5.327   5.967  0.00  0.00     0.003 A 
ENDROOT
TORSDOF 0
ENDMDL
