MODEL 1
REMARK minimizedAffinity 5.49810839
REMARK minimizedRMSD -1
REMARK  0 active torsions:
REMARK  status: ('A' for Active; 'I' for Inactive)
ROOT
ATOM      1  C4' PXY d   1      -3.872   2.807   2.107  0.00  0.00     0.077 C 
ATOM      2  C1' PXY d   1      -3.222  -1.184  -2.023  0.00  0.00     0.077 C 
ATOM      3  C1  PXY d   1      -3.405  -0.135  -0.944  0.00  0.00    -0.082 A 
ATOM      4  C2  PXY d   1      -2.346   0.484  -0.448  0.00  0.00     0.003 A 
ATOM      5  C3  PXY d   1      -2.490   1.412   0.551  0.00  0.00     0.003 A 
ATOM      6  C4  PXY d   1      -3.736   1.748   1.010  0.00  0.00    -0.082 A 
ATOM      7  C5  PXY d   1      -4.822   1.129   0.501  0.00  0.00     0.003 A 
ATOM      8  C6  PXY d   1      -4.651   0.160  -0.484  0.00  0.00     0.003 A 
ENDROOT
TORSDOF 0
ENDMDL
