MODEL 1
REMARK minimizedAffinity 8.55267429
REMARK minimizedRMSD -1
REMARK  0 active torsions:
REMARK  status: ('A' for Active; 'I' for Inactive)
ROOT
ATOM      1  C4' PXY d   1       0.405   1.112   0.960  0.00  0.00     0.077 C 
ATOM      2  C1' PXY d   1       6.000   1.787  -0.326  0.00  0.00     0.077 C 
ATOM      3  C1  PXY d   1       4.535   1.615   0.023  0.00  0.00    -0.082 A 
ATOM      4  C2  PXY d   1       3.801   0.740  -0.645  0.00  0.00     0.003 A 
ATOM      5  C3  PXY d   1       2.467   0.594  -0.364  0.00  0.00     0.003 A 
ATOM      6  C4  PXY d   1       1.890   1.313   0.648  0.00  0.00    -0.082 A 
ATOM      7  C5  PXY d   1       2.634   2.200   1.342  0.00  0.00     0.003 A 
ATOM      8  C6  PXY d   1       3.977   2.363   1.014  0.00  0.00     0.003 A 
ENDROOT
TORSDOF 0
ENDMDL
