MODEL 1
REMARK minimizedAffinity -0.280135781
REMARK minimizedRMSD -1
REMARK  0 active torsions:
REMARK  status: ('A' for Active; 'I' for Inactive)
ROOT
ATOM      1  C4' PXY d   1       3.000  -0.773  -0.761  0.00  0.00     0.077 C 
ATOM      2  C1' PXY d   1       5.995   3.916   0.805  0.00  0.00     0.077 C 
ATOM      3  C1  PXY d   1       5.198   2.693   0.398  0.00  0.00    -0.082 A 
ATOM      4  C2  PXY d   1       5.776   1.503   0.408  0.00  0.00     0.003 A 
ATOM      5  C3  PXY d   1       5.080   0.390   0.012  0.00  0.00     0.003 A 
ATOM      6  C4  PXY d   1       3.763   0.488  -0.348  0.00  0.00    -0.082 A 
ATOM      7  C5  PXY d   1       3.163   1.698  -0.352  0.00  0.00     0.003 A 
ATOM      8  C6  PXY d   1       3.899   2.821   0.015  0.00  0.00     0.003 A 
ENDROOT
TORSDOF 0
ENDMDL
