MODEL 1
REMARK minimizedAffinity -1.9670608
REMARK minimizedRMSD -1
REMARK  0 active torsions:
REMARK  status: ('A' for Active; 'I' for Inactive)
ROOT
ATOM      1  C4' PXY d   1       2.997  -0.761  -0.375  0.00  0.00     0.077 C 
ATOM      2  C1' PXY d   1       6.000   4.144  -0.954  0.00  0.00     0.077 C 
ATOM      3  C1  PXY d   1       5.213   2.859  -0.789  0.00  0.00    -0.082 A 
ATOM      4  C2  PXY d   1       5.239   1.949  -1.749  0.00  0.00     0.003 A 
ATOM      5  C3  PXY d   1       4.507   0.795  -1.630  0.00  0.00     0.003 A 
ATOM      6  C4  PXY d   1       3.784   0.547  -0.494  0.00  0.00    -0.082 A 
ATOM      7  C5  PXY d   1       3.761   1.466   0.494  0.00  0.00     0.003 A 
ATOM      8  C6  PXY d   1       4.477   2.649   0.337  0.00  0.00     0.003 A 
ENDROOT
TORSDOF 0
ENDMDL
