MODEL 1
REMARK minimizedAffinity 5.70875597
REMARK minimizedRMSD -1
REMARK  0 active torsions:
REMARK  status: ('A' for Active; 'I' for Inactive)
ROOT
ATOM      1  C4' PXY d   1       6.000   4.399  -0.319  0.00  0.00     0.077 C 
ATOM      2  C1' PXY d   1       3.239  -0.674  -0.089  0.00  0.00     0.077 C 
ATOM      3  C1  PXY d   1       3.971   0.652  -0.140  0.00  0.00    -0.082 A 
ATOM      4  C2  PXY d   1       3.356   1.721  -0.620  0.00  0.00     0.003 A 
ATOM      5  C3  PXY d   1       4.014   2.921  -0.703  0.00  0.00     0.003 A 
ATOM      6  C4  PXY d   1       5.297   3.042  -0.240  0.00  0.00    -0.082 A 
ATOM      7  C5  PXY d   1       5.927   1.959   0.262  0.00  0.00     0.003 A 
ATOM      8  C6  PXY d   1       5.256   0.740   0.299  0.00  0.00     0.003 A 
ENDROOT
TORSDOF 0
ENDMDL
