MODEL 1
REMARK minimizedAffinity -1.89669359
REMARK minimizedRMSD -1
REMARK  0 active torsions:
REMARK  status: ('A' for Active; 'I' for Inactive)
ROOT
ATOM      1  C4' PXY d   1       2.997  -1.152  -0.373  0.00  0.00     0.077 C 
ATOM      2  C1' PXY d   1       5.998   3.750   0.246  0.00  0.00     0.077 C 
ATOM      3  C1  PXY d   1       5.202   2.470   0.076  0.00  0.00    -0.082 A 
ATOM      4  C2  PXY d   1       5.279   1.525   0.998  0.00  0.00     0.003 A 
ATOM      5  C3  PXY d   1       4.591   0.349   0.845  0.00  0.00     0.003 A 
ATOM      6  C4  PXY d   1       3.775   0.159  -0.239  0.00  0.00    -0.082 A 
ATOM      7  C5  PXY d   1       3.684   1.123  -1.179  0.00  0.00     0.003 A 
ATOM      8  C6  PXY d   1       4.422   2.293  -1.025  0.00  0.00     0.003 A 
ENDROOT
TORSDOF 0
ENDMDL
