MODEL 1
REMARK minimizedAffinity 2.85736895
REMARK minimizedRMSD -1
REMARK  0 active torsions:
REMARK  status: ('A' for Active; 'I' for Inactive)
ROOT
ATOM      1  C4' PXY d   1       3.260  -2.855  -2.788  0.00  0.00     0.077 C 
ATOM      2  C1' PXY d   1       4.421   2.164  -0.166  0.00  0.00     0.077 C 
ATOM      3  C1  PXY d   1       4.116   0.842  -0.842  0.00  0.00    -0.082 A 
ATOM      4  C2  PXY d   1       4.452   0.663  -2.110  0.00  0.00     0.003 A 
ATOM      5  C3  PXY d   1       4.155  -0.515  -2.746  0.00  0.00     0.003 A 
ATOM      6  C4  PXY d   1       3.557  -1.540  -2.062  0.00  0.00    -0.082 A 
ATOM      7  C5  PXY d   1       3.221  -1.369  -0.766  0.00  0.00     0.003 A 
ATOM      8  C6  PXY d   1       3.494  -0.151  -0.150  0.00  0.00     0.003 A 
ENDROOT
TORSDOF 0
ENDMDL
