MODEL 1
REMARK minimizedAffinity 3.9450171
REMARK minimizedRMSD -1
REMARK  0 active torsions:
REMARK  status: ('A' for Active; 'I' for Inactive)
ROOT
ATOM      1  C   UNL d   1      -4.095  -5.999   1.032  0.00  0.00     0.023 A 
ATOM      2  C1  UNL d   1      -5.445  -5.740   1.274  0.00  0.00     0.003 A 
ATOM      3  C2  UNL d   1      -5.992  -4.502   0.933  0.00  0.00     0.048 A 
ATOM      4  C3  UNL d   1      -5.185  -3.527   0.349  0.00  0.00     0.023 A 
ATOM      5  C4  UNL d   1      -3.835  -3.781   0.103  0.00  0.00     0.048 A 
ATOM      6  C5  UNL d   1      -3.291  -5.020   0.447  0.00  0.00     0.003 A 
ATOM      7  I   UNL d   1      -5.997  -1.682  -0.160  0.00  0.00    -0.146 I 
ENDROOT
TORSDOF 0
ENDMDL
