MODEL 1
REMARK minimizedAffinity 7.08637667
REMARK minimizedRMSD -1
REMARK  0 active torsions:
REMARK  status: ('A' for Active; 'I' for Inactive)
ROOT
ATOM      1  C   UNL d   1      -5.646  -1.143   0.365  0.00  0.00     0.023 A 
ATOM      2  C1  UNL d   1      -4.846  -1.473   1.460  0.00  0.00     0.003 A 
ATOM      3  C2  UNL d   1      -4.399  -2.785   1.629  0.00  0.00     0.048 A 
ATOM      4  C3  UNL d   1      -4.754  -3.762   0.700  0.00  0.00     0.023 A 
ATOM      5  C4  UNL d   1      -5.553  -3.437  -0.397  0.00  0.00     0.048 A 
ATOM      6  C5  UNL d   1      -5.999  -2.124  -0.562  0.00  0.00     0.003 A 
ATOM      7  I   UNL d   1      -4.090  -5.716   0.950  0.00  0.00    -0.146 I 
ENDROOT
TORSDOF 0
ENDMDL
