MODEL 1
REMARK minimizedAffinity 7.12164211
REMARK minimizedRMSD -1
REMARK  0 active torsions:
REMARK  status: ('A' for Active; 'I' for Inactive)
ROOT
ATOM      1  C   UNL d   1      -4.276  -6.000   1.192  0.00  0.00     0.023 A 
ATOM      2  C1  UNL d   1      -5.505  -5.573   1.695  0.00  0.00     0.003 A 
ATOM      3  C2  UNL d   1      -6.000  -4.312   1.357  0.00  0.00     0.048 A 
ATOM      4  C3  UNL d   1      -5.261  -3.483   0.514  0.00  0.00     0.023 A 
ATOM      5  C4  UNL d   1      -4.031  -3.906   0.007  0.00  0.00     0.048 A 
ATOM      6  C5  UNL d   1      -3.540  -5.167   0.349  0.00  0.00     0.003 A 
ATOM      7  I   UNL d   1      -5.996  -1.606   0.009  0.00  0.00    -0.146 I 
ENDROOT
TORSDOF 0
ENDMDL
