MODEL 1
REMARK minimizedAffinity 2.02397227
REMARK minimizedRMSD -1
REMARK  0 active torsions:
REMARK  status: ('A' for Active; 'I' for Inactive)
ROOT
ATOM      1  C   UNL d   1      -2.033   1.567   1.291  0.00  0.00     0.023 A 
ATOM      2  C1  UNL d   1      -1.555   0.397   1.882  0.00  0.00     0.003 A 
ATOM      3  C2  UNL d   1      -2.195  -0.131   3.005  0.00  0.00     0.048 A 
ATOM      4  C3  UNL d   1      -3.313   0.514   3.531  0.00  0.00     0.023 A 
ATOM      5  C4  UNL d   1      -3.796   1.684   2.942  0.00  0.00     0.048 A 
ATOM      6  C5  UNL d   1      -3.152   2.209   1.820  0.00  0.00     0.003 A 
ATOM      7  I   UNL d   1      -4.268  -0.270   5.202  0.00  0.00    -0.146 I 
ENDROOT
TORSDOF 0
ENDMDL
