MODEL 1
REMARK minimizedAffinity -0.690332413
REMARK minimizedRMSD -1
REMARK  0 active torsions:
REMARK  status: ('A' for Active; 'I' for Inactive)
ROOT
ATOM      1  C   UNL d   1      -4.477  -5.968   2.140  0.00  0.00     0.023 A 
ATOM      2  C1  UNL d   1      -5.593  -5.353   2.707  0.00  0.00     0.003 A 
ATOM      3  C2  UNL d   1      -5.997  -4.092   2.264  0.00  0.00     0.048 A 
ATOM      4  C3  UNL d   1      -5.280  -3.451   1.254  0.00  0.00     0.023 A 
ATOM      5  C4  UNL d   1      -4.163  -4.063   0.684  0.00  0.00     0.048 A 
ATOM      6  C5  UNL d   1      -3.762  -5.324   1.130  0.00  0.00     0.003 A 
ATOM      7  I   UNL d   1      -5.880  -1.574   0.594  0.00  0.00    -0.146 I 
ENDROOT
TORSDOF 0
ENDMDL
