MODEL 1
REMARK minimizedAffinity 7.33457518
REMARK minimizedRMSD -1
REMARK  0 active torsions:
REMARK  status: ('A' for Active; 'I' for Inactive)
ROOT
ATOM      1  C   UNL d   1       1.339   0.460  -4.254  0.00  0.00     0.023 A 
ATOM      2  C1  UNL d   1       1.508  -0.822  -3.731  0.00  0.00     0.003 A 
ATOM      3  C2  UNL d   1       0.752  -1.886  -4.229  0.00  0.00     0.048 A 
ATOM      4  C3  UNL d   1      -0.170  -1.660  -5.250  0.00  0.00     0.023 A 
ATOM      5  C4  UNL d   1      -0.342  -0.379  -5.777  0.00  0.00     0.048 A 
ATOM      6  C5  UNL d   1       0.415   0.682  -5.275  0.00  0.00     0.003 A 
ATOM      7  I   UNL d   1      -1.296  -3.241  -5.992  0.00  0.00    -0.146 I 
ENDROOT
TORSDOF 0
ENDMDL
