MODEL 1
REMARK minimizedAffinity 7.08136797
REMARK minimizedRMSD -1
REMARK  0 active torsions:
REMARK  status: ('A' for Active; 'I' for Inactive)
ROOT
ATOM      1  C   UNL d   1      -4.604  -0.429  -4.125  0.00  0.00     0.023 A 
ATOM      2  C1  UNL d   1      -5.616  -1.339  -3.819  0.00  0.00     0.003 A 
ATOM      3  C2  UNL d   1      -5.583  -2.628  -4.356  0.00  0.00     0.048 A 
ATOM      4  C3  UNL d   1      -4.536  -2.999  -5.199  0.00  0.00     0.023 A 
ATOM      5  C4  UNL d   1      -3.522  -2.092  -5.508  0.00  0.00     0.048 A 
ATOM      6  C5  UNL d   1      -3.559  -0.805  -4.969  0.00  0.00     0.003 A 
ATOM      7  I   UNL d   1      -4.486  -4.917  -6.000  0.00  0.00    -0.146 I 
ENDROOT
TORSDOF 0
ENDMDL
