MODEL 1
REMARK minimizedAffinity 8.83269596
REMARK minimizedRMSD -1
REMARK  0 active torsions:
REMARK  status: ('A' for Active; 'I' for Inactive)
ROOT
ATOM      1  C   UNL d   1       4.539   5.143  -5.971  0.00  0.00     0.023 A 
ATOM      2  C1  UNL d   1       3.274   4.556  -5.982  0.00  0.00     0.003 A 
ATOM      3  C2  UNL d   1       3.147   3.166  -5.990  0.00  0.00     0.048 A 
ATOM      4  C3  UNL d   1       4.291   2.367  -5.987  0.00  0.00     0.023 A 
ATOM      5  C4  UNL d   1       5.559   2.950  -5.976  0.00  0.00     0.048 A 
ATOM      6  C5  UNL d   1       5.681   4.341  -5.968  0.00  0.00     0.003 A 
ATOM      7  I   UNL d   1       4.105   0.297  -6.000  0.00  0.00    -0.146 I 
ENDROOT
TORSDOF 0
ENDMDL
