MODEL 1
REMARK minimizedAffinity 8.82505989
REMARK minimizedRMSD -1
REMARK  0 active torsions:
REMARK  status: ('A' for Active; 'I' for Inactive)
ROOT
ATOM      1  C   UNL d   1       0.840   1.656   2.987  0.00  0.00     0.023 A 
ATOM      2  C1  UNL d   1       1.441   2.541   2.092  0.00  0.00     0.003 A 
ATOM      3  C2  UNL d   1       2.730   2.290   1.618  0.00  0.00     0.048 A 
ATOM      4  C3  UNL d   1       3.413   1.150   2.043  0.00  0.00     0.023 A 
ATOM      5  C4  UNL d   1       2.815   0.261   2.938  0.00  0.00     0.048 A 
ATOM      6  C5  UNL d   1       1.527   0.517   3.410  0.00  0.00     0.003 A 
ATOM      7  I   UNL d   1       5.331   0.774   1.338  0.00  0.00    -0.146 I 
ENDROOT
TORSDOF 0
ENDMDL
