MODEL 1
REMARK minimizedAffinity 10.1011553
REMARK minimizedRMSD -1
REMARK  0 active torsions:
REMARK  status: ('A' for Active; 'I' for Inactive)
ROOT
ATOM      1  C   UNL d   1       1.743   5.806  -4.910  0.00  0.00     0.023 A 
ATOM      2  C1  UNL d   1       2.586   5.920  -3.804  0.00  0.00     0.003 A 
ATOM      3  C2  UNL d   1       3.807   5.244  -3.783  0.00  0.00     0.048 A 
ATOM      4  C3  UNL d   1       4.180   4.455  -4.870  0.00  0.00     0.023 A 
ATOM      5  C4  UNL d   1       3.340   4.338  -5.979  0.00  0.00     0.048 A 
ATOM      6  C5  UNL d   1       2.119   5.016  -5.996  0.00  0.00     0.003 A 
ATOM      7  I   UNL d   1       5.997   3.447  -4.841  0.00  0.00    -0.146 I 
ENDROOT
TORSDOF 0
ENDMDL
