MODEL 1
REMARK minimizedAffinity 12.4102087
REMARK minimizedRMSD -1
REMARK  0 active torsions:
REMARK  status: ('A' for Active; 'I' for Inactive)
ROOT
ATOM      1  C   UNL d   1       1.013  -0.771  -4.266  0.00  0.00     0.023 A 
ATOM      2  C1  UNL d   1       0.400  -0.019  -5.268  0.00  0.00     0.003 A 
ATOM      3  C2  UNL d   1       1.026   1.125  -5.767  0.00  0.00     0.048 A 
ATOM      4  C3  UNL d   1       2.266   1.511  -5.259  0.00  0.00     0.023 A 
ATOM      5  C4  UNL d   1       2.884   0.762  -4.256  0.00  0.00     0.048 A 
ATOM      6  C5  UNL d   1       2.254  -0.381  -3.760  0.00  0.00     0.003 A 
ATOM      7  I   UNL d   1       3.201   3.214  -6.000  0.00  0.00    -0.146 I 
ENDROOT
TORSDOF 0
ENDMDL
