MODEL 1
REMARK minimizedAffinity 8.70437527
REMARK minimizedRMSD -1
REMARK  0 active torsions:
REMARK  status: ('A' for Active; 'I' for Inactive)
ROOT
ATOM      1  C   UNL d   1       3.280   5.091  -5.547  0.00  0.00     0.023 A 
ATOM      2  C1  UNL d   1       1.981   5.100  -5.040  0.00  0.00     0.003 A 
ATOM      3  C2  UNL d   1       1.732   4.642  -3.744  0.00  0.00     0.048 A 
ATOM      4  C3  UNL d   1       2.788   4.176  -2.961  0.00  0.00     0.023 A 
ATOM      5  C4  UNL d   1       4.090   4.166  -3.464  0.00  0.00     0.048 A 
ATOM      6  C5  UNL d   1       4.334   4.625  -4.760  0.00  0.00     0.003 A 
ATOM      7  I   UNL d   1       2.421   3.494  -1.033  0.00  0.00    -0.146 I 
ENDROOT
TORSDOF 0
ENDMDL
