MODEL 1
REMARK minimizedAffinity 3.00608516
REMARK minimizedRMSD -1
REMARK  0 active torsions:
REMARK  status: ('A' for Active; 'I' for Inactive)
ROOT
ATOM      1  C   UNL d   1      -5.978  -2.604  -5.126  0.00  0.00     0.023 A 
ATOM      2  C1  UNL d   1      -5.195  -3.577  -5.748  0.00  0.00     0.003 A 
ATOM      3  C2  UNL d   1      -3.844  -3.332  -5.998  0.00  0.00     0.048 A 
ATOM      4  C3  UNL d   1      -3.281  -2.112  -5.624  0.00  0.00     0.023 A 
ATOM      5  C4  UNL d   1      -4.061  -1.136  -5.001  0.00  0.00     0.048 A 
ATOM      6  C5  UNL d   1      -5.412  -1.385  -4.753  0.00  0.00     0.003 A 
ATOM      7  I   UNL d   1      -1.270  -1.744  -5.996  0.00  0.00    -0.146 I 
ENDROOT
TORSDOF 0
ENDMDL
