MODEL 1
REMARK minimizedAffinity 9.40691185
REMARK minimizedRMSD -1
REMARK  0 active torsions:
REMARK  status: ('A' for Active; 'I' for Inactive)
ROOT
ATOM      1  C   UNL d   1      -2.999  -4.633  -5.998  0.00  0.00     0.023 A 
ATOM      2  C1  UNL d   1      -1.634  -4.347  -5.999  0.00  0.00     0.003 A 
ATOM      3  C2  UNL d   1      -1.198  -3.020  -5.999  0.00  0.00     0.048 A 
ATOM      4  C3  UNL d   1      -2.132  -1.985  -5.998  0.00  0.00     0.023 A 
ATOM      5  C4  UNL d   1      -3.499  -2.267  -5.996  0.00  0.00     0.048 A 
ATOM      6  C5  UNL d   1      -3.930  -3.595  -5.996  0.00  0.00     0.003 A 
ATOM      7  I   UNL d   1      -1.485  -0.010  -5.998  0.00  0.00    -0.146 I 
ENDROOT
TORSDOF 0
ENDMDL
