MODEL 1
REMARK minimizedAffinity -3.92529011
REMARK minimizedRMSD -1
REMARK  1 active torsions:
REMARK  status: ('A' for Active; 'I' for Inactive)
REMARK    1  A    between atoms: C1_2  and  C2_3 
ROOT
ATOM      1  C2  UNL d   1      -1.843   0.215   1.535  0.00  0.00    -0.076 A 
ATOM      2  C3  UNL d   1      -1.754  -0.411   0.280  0.00  0.00     0.004 A 
ATOM      3  C4  UNL d   1      -0.534  -0.883  -0.202  0.00  0.00    -0.003 A 
ATOM      4  C5  UNL d   1       0.617  -0.736   0.564  0.00  0.00     0.000 A 
ATOM      5  C6  UNL d   1       0.544  -0.133   1.820  0.00  0.00     0.000 A 
ATOM      6  C7  UNL d   1      -0.681   0.333   2.327  0.00  0.00    -0.073 A 
ATOM      7  C8  UNL d   1      -0.700   0.981   3.684  0.00  0.00     0.078 C 
ENDROOT
BRANCH   1   8
ATOM      8  C1  UNL d   1      -3.189   0.731   1.994  0.00  0.00     0.053 C 
ATOM      9  C   UNL d   1      -4.086  -0.375   2.527  0.00  0.00     0.018 C 
ENDBRANCH   1   8
TORSDOF 1
ENDMDL
