MODEL 1
REMARK minimizedAffinity -5.07114601
REMARK minimizedRMSD -1
REMARK  1 active torsions:
REMARK  status: ('A' for Active; 'I' for Inactive)
REMARK    1  A    between atoms: C1_2  and  C2_3 
ROOT
ATOM      1  C2  UNL d   1      -1.173  -0.013   1.093  0.00  0.00    -0.076 A 
ATOM      2  C3  UNL d   1      -2.246  -0.606   1.780  0.00  0.00     0.004 A 
ATOM      3  C4  UNL d   1      -2.743  -0.047   2.956  0.00  0.00    -0.003 A 
ATOM      4  C5  UNL d   1      -2.175   1.116   3.464  0.00  0.00     0.000 A 
ATOM      5  C6  UNL d   1      -1.121   1.728   2.787  0.00  0.00     0.000 A 
ATOM      6  C7  UNL d   1      -0.619   1.186   1.591  0.00  0.00    -0.073 A 
ATOM      7  C8  UNL d   1       0.524   1.884   0.906  0.00  0.00     0.078 C 
ENDROOT
BRANCH   1   8
ATOM      8  C1  UNL d   1      -0.659  -0.679  -0.162  0.00  0.00     0.053 C 
ATOM      9  C   UNL d   1       0.671  -1.385   0.055  0.00  0.00     0.018 C 
ENDBRANCH   1   8
TORSDOF 1
ENDMDL
