MODEL 1
REMARK minimizedAffinity -2.70939708
REMARK minimizedRMSD -1
REMARK  1 active torsions:
REMARK  status: ('A' for Active; 'I' for Inactive)
REMARK    1  A    between atoms: C1_2  and  C2_3 
ROOT
ATOM      1  C2  UNL d   1      -0.101   0.040  -0.415  0.00  0.00    -0.076 A 
ATOM      2  C3  UNL d   1       0.217  -1.243   0.064  0.00  0.00     0.004 A 
ATOM      3  C4  UNL d   1       1.229  -1.998  -0.525  0.00  0.00    -0.003 A 
ATOM      4  C5  UNL d   1       1.941  -1.483  -1.603  0.00  0.00     0.000 A 
ATOM      5  C6  UNL d   1       1.651  -0.205  -2.080  0.00  0.00     0.000 A 
ATOM      6  C7  UNL d   1       0.645   0.576  -1.487  0.00  0.00    -0.073 A 
ATOM      7  C8  UNL d   1       0.370   1.945  -2.046  0.00  0.00     0.078 C 
ENDROOT
BRANCH   1   8
ATOM      8  C1  UNL d   1      -1.227   0.802   0.246  0.00  0.00     0.053 C 
ATOM      9  C   UNL d   1      -1.505   0.320   1.662  0.00  0.00     0.018 C 
ENDBRANCH   1   8
TORSDOF 1
ENDMDL
