MODEL 1
REMARK minimizedAffinity -3.05925655
REMARK minimizedRMSD -1
REMARK  1 active torsions:
REMARK  status: ('A' for Active; 'I' for Inactive)
REMARK    1  A    between atoms: C1_2  and  C2_3 
ROOT
ATOM      1  C2  UNL d   1      -0.734  -0.171   0.599  0.00  0.00    -0.076 A 
ATOM      2  C3  UNL d   1       0.045  -1.273   0.994  0.00  0.00     0.004 A 
ATOM      3  C4  UNL d   1       1.217  -1.604   0.316  0.00  0.00    -0.003 A 
ATOM      4  C5  UNL d   1       1.630  -0.837  -0.768  0.00  0.00     0.000 A 
ATOM      5  C6  UNL d   1       0.879   0.269  -1.163  0.00  0.00     0.000 A 
ATOM      6  C7  UNL d   1      -0.296   0.626  -0.480  0.00  0.00    -0.073 A 
ATOM      7  C8  UNL d   1      -1.070   1.826  -0.953  0.00  0.00     0.078 C 
ENDROOT
BRANCH   1   8
ATOM      8  C1  UNL d   1      -2.009   0.123   1.355  0.00  0.00     0.053 C 
ATOM      9  C   UNL d   1      -1.750   0.542   2.794  0.00  0.00     0.018 C 
ENDBRANCH   1   8
TORSDOF 1
ENDMDL
