MODEL 1
REMARK minimizedAffinity -5.64853621
REMARK minimizedRMSD -1
REMARK  1 active torsions:
REMARK  status: ('A' for Active; 'I' for Inactive)
REMARK    1  A    between atoms: C1_2  and  C2_3 
ROOT
ATOM      1  C2  UNL d   1       0.852   0.507  -1.603  0.00  0.00    -0.076 A 
ATOM      2  C3  UNL d   1       1.901   0.252  -2.504  0.00  0.00     0.004 A 
ATOM      3  C4  UNL d   1       2.690  -0.891  -2.382  0.00  0.00    -0.003 A 
ATOM      4  C5  UNL d   1       2.444  -1.797  -1.356  0.00  0.00     0.000 A 
ATOM      5  C6  UNL d   1       1.397  -1.569  -0.464  0.00  0.00     0.000 A 
ATOM      6  C7  UNL d   1       0.581  -0.430  -0.583  0.00  0.00    -0.073 A 
ATOM      7  C8  UNL d   1      -0.530  -0.231   0.411  0.00  0.00     0.078 C 
ENDROOT
BRANCH   1   8
ATOM      8  C1  UNL d   1       0.047   1.776  -1.769  0.00  0.00     0.053 C 
ATOM      9  C   UNL d   1       0.691   2.751  -2.743  0.00  0.00     0.018 C 
ENDBRANCH   1   8
TORSDOF 1
ENDMDL
