MODEL 1
REMARK minimizedAffinity -0.14183186
REMARK minimizedRMSD -1
REMARK  1 active torsions:
REMARK  status: ('A' for Active; 'I' for Inactive)
REMARK    1  A    between atoms: C1_2  and  C2_3 
ROOT
ATOM      1  C2  UNL d   1      -0.828   0.454   1.184  0.00  0.00    -0.076 A 
ATOM      2  C3  UNL d   1      -0.010  -0.453   1.879  0.00  0.00     0.004 A 
ATOM      3  C4  UNL d   1       0.583  -1.531   1.223  0.00  0.00    -0.003 A 
ATOM      4  C5  UNL d   1       0.368  -1.718  -0.138  0.00  0.00     0.000 A 
ATOM      5  C6  UNL d   1      -0.427  -0.817  -0.846  0.00  0.00     0.000 A 
ATOM      6  C7  UNL d   1      -1.019   0.284  -0.204  0.00  0.00    -0.073 A 
ATOM      7  C8  UNL d   1      -1.871   1.220  -1.015  0.00  0.00     0.078 C 
ENDROOT
BRANCH   1   8
ATOM      8  C1  UNL d   1      -1.467   1.589   1.954  0.00  0.00     0.053 C 
ATOM      9  C   UNL d   1      -1.515   1.323   3.450  0.00  0.00     0.018 C 
ENDBRANCH   1   8
TORSDOF 1
ENDMDL
