MODEL 1
REMARK minimizedAffinity 0.879837811
REMARK minimizedRMSD -1
REMARK  1 active torsions:
REMARK  status: ('A' for Active; 'I' for Inactive)
REMARK    1  A    between atoms: C1_2  and  C2_3 
ROOT
ATOM      1  C2  UNL d   1       1.357   0.092  -2.187  0.00  0.00    -0.076 A 
ATOM      2  C3  UNL d   1       2.082  -1.091  -2.414  0.00  0.00     0.004 A 
ATOM      3  C4  UNL d   1       2.090  -2.120  -1.473  0.00  0.00    -0.003 A 
ATOM      4  C5  UNL d   1       1.373  -1.982  -0.290  0.00  0.00     0.000 A 
ATOM      5  C6  UNL d   1       0.634  -0.822  -0.055  0.00  0.00     0.000 A 
ATOM      6  C7  UNL d   1       0.603   0.217  -1.001  0.00  0.00    -0.073 A 
ATOM      7  C8  UNL d   1      -0.205   1.448  -0.693  0.00  0.00     0.078 C 
ENDROOT
BRANCH   1   8
ATOM      8  C1  UNL d   1       1.408   1.184  -3.231  0.00  0.00     0.053 C 
ATOM      9  C   UNL d   1       1.560   0.636  -4.641  0.00  0.00     0.018 C 
ENDBRANCH   1   8
TORSDOF 1
ENDMDL
