MODEL 1
REMARK minimizedAffinity -1.35531104
REMARK minimizedRMSD -1
REMARK  1 active torsions:
REMARK  status: ('A' for Active; 'I' for Inactive)
REMARK    1  A    between atoms: C1_2  and  C2_3 
ROOT
ATOM      1  C2  UNL d   1      -2.074   0.218   1.788  0.00  0.00    -0.076 A 
ATOM      2  C3  UNL d   1      -2.900  -0.852   2.174  0.00  0.00     0.004 A 
ATOM      3  C4  UNL d   1      -3.251  -1.042   3.510  0.00  0.00    -0.003 A 
ATOM      4  C5  UNL d   1      -2.782  -0.164   4.481  0.00  0.00     0.000 A 
ATOM      5  C6  UNL d   1      -1.977   0.914   4.114  0.00  0.00     0.000 A 
ATOM      6  C7  UNL d   1      -1.627   1.129   2.770  0.00  0.00    -0.073 A 
ATOM      7  C8  UNL d   1      -0.751   2.303   2.431  0.00  0.00     0.078 C 
ENDROOT
BRANCH   1   8
ATOM      8  C1  UNL d   1      -1.705   0.358   0.329  0.00  0.00     0.053 C 
ATOM      9  C   UNL d   1      -0.685  -0.678  -0.116  0.00  0.00     0.018 C 
ENDBRANCH   1   8
TORSDOF 1
ENDMDL
