MODEL 1
REMARK minimizedAffinity -1.94138122
REMARK minimizedRMSD -1
REMARK  1 active torsions:
REMARK  status: ('A' for Active; 'I' for Inactive)
REMARK    1  A    between atoms: C1_2  and  C2_3 
ROOT
ATOM      1  C2  UNL d   1      -1.158   0.638   1.320  0.00  0.00    -0.076 A 
ATOM      2  C3  UNL d   1      -0.099   1.471   1.719  0.00  0.00     0.004 A 
ATOM      3  C4  UNL d   1      -0.063   2.022   2.999  0.00  0.00    -0.003 A 
ATOM      4  C5  UNL d   1      -1.086   1.748   3.900  0.00  0.00     0.000 A 
ATOM      5  C6  UNL d   1      -2.135   0.910   3.527  0.00  0.00     0.000 A 
ATOM      6  C7  UNL d   1      -2.178   0.333   2.246  0.00  0.00    -0.073 A 
ATOM      7  C8  UNL d   1      -3.337  -0.559   1.894  0.00  0.00     0.078 C 
ENDROOT
BRANCH   1   8
ATOM      8  C1  UNL d   1      -1.157   0.091  -0.090  0.00  0.00     0.053 C 
ATOM      9  C   UNL d   1      -0.152  -1.035  -0.277  0.00  0.00     0.018 C 
ENDBRANCH   1   8
TORSDOF 1
ENDMDL
