MODEL 1
REMARK minimizedAffinity -4.42537785
REMARK minimizedRMSD -1
REMARK  1 active torsions:
REMARK  status: ('A' for Active; 'I' for Inactive)
REMARK    1  A    between atoms: C1_2  and  C2_3 
ROOT
ATOM      1  C2  UNL d   1       0.913   0.068  -1.214  0.00  0.00    -0.076 A 
ATOM      2  C3  UNL d   1       1.755  -1.043  -1.029  0.00  0.00     0.004 A 
ATOM      3  C4  UNL d   1       1.422  -2.053  -0.128  0.00  0.00    -0.003 A 
ATOM      4  C5  UNL d   1       0.242  -1.970   0.601  0.00  0.00     0.000 A 
ATOM      5  C6  UNL d   1      -0.614  -0.885   0.418  0.00  0.00     0.000 A 
ATOM      6  C7  UNL d   1      -0.301   0.135  -0.498  0.00  0.00    -0.073 A 
ATOM      7  C8  UNL d   1      -1.257   1.286  -0.652  0.00  0.00     0.078 C 
ENDROOT
BRANCH   1   8
ATOM      8  C1  UNL d   1       1.339   1.146  -2.184  0.00  0.00     0.053 C 
ATOM      9  C   UNL d   1       2.185   0.602  -3.326  0.00  0.00     0.018 C 
ENDBRANCH   1   8
TORSDOF 1
ENDMDL
