MODEL 1
REMARK minimizedAffinity 1.60282934
REMARK minimizedRMSD -1
REMARK  1 active torsions:
REMARK  status: ('A' for Active; 'I' for Inactive)
REMARK    1  A    between atoms: C1_2  and  C2_3 
ROOT
ATOM      1  C2  UNL d   1      -1.009  -0.050   1.546  0.00  0.00    -0.076 A 
ATOM      2  C3  UNL d   1      -0.879  -0.417   2.897  0.00  0.00     0.004 A 
ATOM      3  C4  UNL d   1      -1.469   0.342   3.906  0.00  0.00    -0.003 A 
ATOM      4  C5  UNL d   1      -2.200   1.479   3.581  0.00  0.00     0.000 A 
ATOM      5  C6  UNL d   1      -2.354   1.848   2.245  0.00  0.00     0.000 A 
ATOM      6  C7  UNL d   1      -1.779   1.086   1.214  0.00  0.00    -0.073 A 
ATOM      7  C8  UNL d   1      -1.972   1.533  -0.209  0.00  0.00     0.078 C 
ENDROOT
BRANCH   1   8
ATOM      8  C1  UNL d   1      -0.323  -0.896   0.497  0.00  0.00     0.053 C 
ATOM      9  C   UNL d   1       0.859  -0.185  -0.144  0.00  0.00     0.018 C 
ENDBRANCH   1   8
TORSDOF 1
ENDMDL
