MODEL 1
REMARK minimizedAffinity -0.99271512
REMARK minimizedRMSD -1
REMARK  1 active torsions:
REMARK  status: ('A' for Active; 'I' for Inactive)
REMARK    1  A    between atoms: C1_2  and  C2_3 
ROOT
ATOM      1  C2  UNL d   1       0.554   0.173  -0.990  0.00  0.00    -0.076 A 
ATOM      2  C3  UNL d   1       1.314  -0.797  -1.666  0.00  0.00     0.004 A 
ATOM      3  C4  UNL d   1       1.579  -2.035  -1.083  0.00  0.00    -0.003 A 
ATOM      4  C5  UNL d   1       1.088  -2.323   0.186  0.00  0.00     0.000 A 
ATOM      5  C6  UNL d   1       0.317  -1.379   0.863  0.00  0.00     0.000 A 
ATOM      6  C7  UNL d   1       0.027  -0.132   0.283  0.00  0.00    -0.073 A 
ATOM      7  C8  UNL d   1      -0.803   0.851   1.061  0.00  0.00     0.078 C 
ENDROOT
BRANCH   1   8
ATOM      8  C1  UNL d   1       0.322   1.508  -1.661  0.00  0.00     0.053 C 
ATOM      9  C   UNL d   1       1.218   1.714  -2.873  0.00  0.00     0.018 C 
ENDBRANCH   1   8
TORSDOF 1
ENDMDL
