MODEL 1
REMARK minimizedAffinity -3.31974554
REMARK minimizedRMSD -1
REMARK  0 active torsions:
REMARK  status: ('A' for Active; 'I' for Inactive)
ROOT
ATOM      1  C2' OXE d   1       1.172  -3.081   0.385  0.00  0.00     0.078 C 
ATOM      2  C1' OXE d   1       2.197  -0.483   0.666  0.00  0.00     0.078 C 
ATOM      3  C1  OXE d   1       0.708  -0.671   0.813  0.00  0.00    -0.078 A 
ATOM      4  C2  OXE d   1       0.209  -1.938   0.627  0.00  0.00    -0.078 A 
ATOM      5  C3  OXE d   1      -1.150  -2.177   0.806  0.00  0.00     0.003 A 
ATOM      6  C4  OXE d   1      -2.035  -1.113   1.020  0.00  0.00    -0.002 A 
ATOM      7  C5  OXE d   1      -1.553   0.191   1.173  0.00  0.00    -0.002 A 
ATOM      8  C6  OXE d   1      -0.183   0.422   1.115  0.00  0.00     0.003 A 
ENDROOT
TORSDOF 0
ENDMDL
