MODEL 1
REMARK minimizedAffinity -1.4381336
REMARK minimizedRMSD -1
REMARK  0 active torsions:
REMARK  status: ('A' for Active; 'I' for Inactive)
ROOT
ATOM      1  C2' OXE d   1       2.837  -4.130  -0.281  0.00  0.00     0.078 C 
ATOM      2  C1' OXE d   1       0.067  -4.257  -0.723  0.00  0.00     0.078 C 
ATOM      3  C1  OXE d   1       0.627  -2.991  -0.123  0.00  0.00    -0.078 A 
ATOM      4  C2  OXE d   1       1.976  -2.956   0.133  0.00  0.00    -0.078 A 
ATOM      5  C3  OXE d   1       2.552  -1.792   0.636  0.00  0.00     0.003 A 
ATOM      6  C4  OXE d   1       1.748  -0.715   1.025  0.00  0.00    -0.002 A 
ATOM      7  C5  OXE d   1       0.367  -0.745   0.810  0.00  0.00    -0.002 A 
ATOM      8  C6  OXE d   1      -0.203  -1.857   0.199  0.00  0.00     0.003 A 
ENDROOT
TORSDOF 0
ENDMDL
