MODEL 1
REMARK minimizedAffinity 13.6118364
REMARK minimizedRMSD -1
REMARK  0 active torsions:
REMARK  status: ('A' for Active; 'I' for Inactive)
ROOT
ATOM      1  C2' OXE d   1       4.237  -1.824  -0.083  0.00  0.00     0.078 C 
ATOM      2  C1' OXE d   1       3.871  -4.535  -0.714  0.00  0.00     0.078 C 
ATOM      3  C1  OXE d   1       2.646  -3.716  -0.391  0.00  0.00    -0.078 A 
ATOM      4  C2  OXE d   1       2.839  -2.402  -0.038  0.00  0.00    -0.078 A 
ATOM      5  C3  OXE d   1       1.738  -1.588   0.216  0.00  0.00     0.003 A 
ATOM      6  C4  OXE d   1       0.450  -2.134   0.266  0.00  0.00    -0.002 A 
ATOM      7  C5  OXE d   1       0.235  -3.479  -0.052  0.00  0.00    -0.002 A 
ATOM      8  C6  OXE d   1       1.316  -4.272  -0.423  0.00  0.00     0.003 A 
ENDROOT
TORSDOF 0
ENDMDL
