MODEL 1
REMARK minimizedAffinity 1.41361761
REMARK minimizedRMSD -1
REMARK  0 active torsions:
REMARK  status: ('A' for Active; 'I' for Inactive)
ROOT
ATOM      1  C2' OXE d   1       1.731  -3.596  -0.761  0.00  0.00     0.078 C 
ATOM      2  C1' OXE d   1       3.026  -1.148  -0.308  0.00  0.00     0.078 C 
ATOM      3  C1  OXE d   1       1.593  -1.279   0.143  0.00  0.00    -0.078 A 
ATOM      4  C2  OXE d   1       0.952  -2.465  -0.125  0.00  0.00    -0.078 A 
ATOM      5  C3  OXE d   1      -0.353  -2.658   0.318  0.00  0.00     0.003 A 
ATOM      6  C4  OXE d   1      -1.069  -1.603   0.897  0.00  0.00    -0.002 A 
ATOM      7  C5  OXE d   1      -0.447  -0.374   1.143  0.00  0.00    -0.002 A 
ATOM      8  C6  OXE d   1       0.893  -0.210   0.811  0.00  0.00     0.003 A 
ENDROOT
TORSDOF 0
ENDMDL
