MODEL 1
REMARK minimizedAffinity 1.50499928
REMARK minimizedRMSD -1
REMARK  0 active torsions:
REMARK  status: ('A' for Active; 'I' for Inactive)
ROOT
ATOM      1  C2' OXE d   1       1.020  -2.671  -0.810  0.00  0.00     0.078 C 
ATOM      2  C1' OXE d   1       2.548  -0.497   0.094  0.00  0.00     0.078 C 
ATOM      3  C1  OXE d   1       1.142  -0.636   0.622  0.00  0.00    -0.078 A 
ATOM      4  C2  OXE d   1       0.386  -1.677   0.139  0.00  0.00    -0.078 A 
ATOM      5  C3  OXE d   1      -0.899  -1.883   0.634  0.00  0.00     0.003 A 
ATOM      6  C4  OXE d   1      -1.481  -0.953   1.503  0.00  0.00    -0.002 A 
ATOM      7  C5  OXE d   1      -0.741   0.136   1.977  0.00  0.00    -0.002 A 
ATOM      8  C6  OXE d   1       0.583   0.285   1.580  0.00  0.00     0.003 A 
ENDROOT
TORSDOF 0
ENDMDL
