MODEL 1
REMARK minimizedAffinity -0.636022091
REMARK minimizedRMSD -1
REMARK  0 active torsions:
REMARK  status: ('A' for Active; 'I' for Inactive)
ROOT
ATOM      1  C2' OXE d   1       2.608   0.213  -4.121  0.00  0.00     0.078 C 
ATOM      2  C1' OXE d   1       1.971   2.947  -4.151  0.00  0.00     0.078 C 
ATOM      3  C1  OXE d   1       3.326   2.546  -3.624  0.00  0.00    -0.078 A 
ATOM      4  C2  OXE d   1       3.611   1.203  -3.569  0.00  0.00    -0.078 A 
ATOM      5  C3  OXE d   1       4.867   0.781  -3.142  0.00  0.00     0.003 A 
ATOM      6  C4  OXE d   1       5.786   1.703  -2.625  0.00  0.00    -0.002 A 
ATOM      7  C5  OXE d   1       5.500   3.072  -2.634  0.00  0.00    -0.002 A 
ATOM      8  C6  OXE d   1       4.294   3.513  -3.169  0.00  0.00     0.003 A 
ENDROOT
TORSDOF 0
ENDMDL
