MODEL 1
REMARK minimizedAffinity 0.0797390118
REMARK minimizedRMSD -1
REMARK  0 active torsions:
REMARK  status: ('A' for Active; 'I' for Inactive)
ROOT
ATOM      1  C2' OXE d   1      -0.579  -0.661   0.715  0.00  0.00     0.078 C 
ATOM      2  C1' OXE d   1       2.097   0.186   0.763  0.00  0.00     0.078 C 
ATOM      3  C1  OXE d   1       1.815  -1.232   0.331  0.00  0.00    -0.078 A 
ATOM      4  C2  OXE d   1       0.507  -1.652   0.355  0.00  0.00    -0.078 A 
ATOM      5  C3  OXE d   1       0.186  -2.932  -0.086  0.00  0.00     0.003 A 
ATOM      6  C4  OXE d   1       1.198  -3.846  -0.408  0.00  0.00    -0.002 A 
ATOM      7  C5  OXE d   1       2.539  -3.450  -0.401  0.00  0.00    -0.002 A 
ATOM      8  C6  OXE d   1       2.861  -2.137  -0.076  0.00  0.00     0.003 A 
ENDROOT
TORSDOF 0
ENDMDL
