MODEL 1
REMARK minimizedAffinity 2.68748784
REMARK minimizedRMSD -1
REMARK  0 active torsions:
REMARK  status: ('A' for Active; 'I' for Inactive)
ROOT
ATOM      1  C2' OXE d   1      -1.211  -0.882   0.617  0.00  0.00     0.078 C 
ATOM      2  C1' OXE d   1       0.224  -3.082  -0.373  0.00  0.00     0.078 C 
ATOM      3  C1  OXE d   1       0.993  -2.014   0.363  0.00  0.00    -0.078 A 
ATOM      4  C2  OXE d   1       0.290  -0.919   0.804  0.00  0.00    -0.078 A 
ATOM      5  C3  OXE d   1       0.941   0.070   1.536  0.00  0.00     0.003 A 
ATOM      6  C4  OXE d   1       2.332   0.033   1.696  0.00  0.00    -0.002 A 
ATOM      7  C5  OXE d   1       3.073  -1.054   1.220  0.00  0.00    -0.002 A 
ATOM      8  C6  OXE d   1       2.414  -2.104   0.591  0.00  0.00     0.003 A 
ENDROOT
TORSDOF 0
ENDMDL
