MODEL 1
REMARK minimizedAffinity -0.372761101
REMARK minimizedRMSD -1
REMARK  0 active torsions:
REMARK  status: ('A' for Active; 'I' for Inactive)
ROOT
ATOM      1  C2' OXE d   1       0.677  -2.681  -0.286  0.00  0.00     0.078 C 
ATOM      2  C1' OXE d   1       2.177  -0.661   0.958  0.00  0.00     0.078 C 
ATOM      3  C1  OXE d   1       0.675  -0.531   0.971  0.00  0.00    -0.078 A 
ATOM      4  C2  OXE d   1      -0.050  -1.500   0.320  0.00  0.00    -0.078 A 
ATOM      5  C3  OXE d   1      -1.441  -1.457   0.349  0.00  0.00     0.003 A 
ATOM      6  C4  OXE d   1      -2.105  -0.356   0.903  0.00  0.00    -0.002 A 
ATOM      7  C5  OXE d   1      -1.384   0.662   1.537  0.00  0.00    -0.002 A 
ATOM      8  C6  OXE d   1       0.001   0.569   1.617  0.00  0.00     0.003 A 
ENDROOT
TORSDOF 0
ENDMDL
