MODEL 1
REMARK minimizedAffinity -2.45191932
REMARK minimizedRMSD -1
REMARK  0 active torsions:
REMARK  status: ('A' for Active; 'I' for Inactive)
ROOT
ATOM      1  C2' OXE d   1       1.978  -3.412  -0.516  0.00  0.00     0.078 C 
ATOM      2  C1' OXE d   1       2.788  -0.806   0.138  0.00  0.00     0.078 C 
ATOM      3  C1  OXE d   1       1.345  -1.174   0.375  0.00  0.00    -0.078 A 
ATOM      4  C2  OXE d   1       0.946  -2.437   0.009  0.00  0.00    -0.078 A 
ATOM      5  C3  OXE d   1      -0.361  -2.847   0.256  0.00  0.00     0.003 A 
ATOM      6  C4  OXE d   1      -1.311  -1.935   0.733  0.00  0.00    -0.002 A 
ATOM      7  C5  OXE d   1      -0.935  -0.632   1.075  0.00  0.00    -0.002 A 
ATOM      8  C6  OXE d   1       0.395  -0.249   0.943  0.00  0.00     0.003 A 
ENDROOT
TORSDOF 0
ENDMDL
