MODEL 1
REMARK minimizedAffinity 4.44695663
REMARK minimizedRMSD -1
REMARK  0 active torsions:
REMARK  status: ('A' for Active; 'I' for Inactive)
ROOT
ATOM      1  C2' OXE d   1       0.963  -3.461  -0.886  0.00  0.00     0.078 C 
ATOM      2  C1' OXE d   1       2.602  -1.329  -0.083  0.00  0.00     0.078 C 
ATOM      3  C1  OXE d   1       1.160  -1.312   0.358  0.00  0.00    -0.078 A 
ATOM      4  C2  OXE d   1       0.354  -2.336  -0.079  0.00  0.00    -0.078 A 
ATOM      5  C3  OXE d   1      -0.971  -2.398   0.343  0.00  0.00     0.003 A 
ATOM      6  C4  OXE d   1      -1.530  -1.347   1.082  0.00  0.00    -0.002 A 
ATOM      7  C5  OXE d   1      -0.736  -0.275   1.503  0.00  0.00    -0.002 A 
ATOM      8  C6  OXE d   1       0.618  -0.264   1.187  0.00  0.00     0.003 A 
ENDROOT
TORSDOF 0
ENDMDL
