MODEL 1
REMARK minimizedAffinity -2.75222754
REMARK minimizedRMSD -1
REMARK  0 active torsions:
REMARK  status: ('A' for Active; 'I' for Inactive)
ROOT
ATOM      1  C2' OXE d   1       1.927  -3.369  -0.809  0.00  0.00     0.078 C 
ATOM      2  C1' OXE d   1       3.062  -0.940   0.022  0.00  0.00     0.078 C 
ATOM      3  C1  OXE d   1       1.632  -1.218   0.413  0.00  0.00    -0.078 A 
ATOM      4  C2  OXE d   1       1.070  -2.388  -0.037  0.00  0.00    -0.078 A 
ATOM      5  C3  OXE d   1      -0.228  -2.720   0.341  0.00  0.00     0.003 A 
ATOM      6  C4  OXE d   1      -1.017  -1.803   1.046  0.00  0.00    -0.002 A 
ATOM      7  C5  OXE d   1      -0.476  -0.588   1.481  0.00  0.00    -0.002 A 
ATOM      8  C6  OXE d   1       0.857  -0.300   1.210  0.00  0.00     0.003 A 
ENDROOT
TORSDOF 0
ENDMDL
