MODEL 1
REMARK minimizedAffinity 0.551609457
REMARK minimizedRMSD -1
REMARK  0 active torsions:
REMARK  status: ('A' for Active; 'I' for Inactive)
ROOT
ATOM      1  C2' OXE d   1       0.971  -3.082  -0.452  0.00  0.00     0.078 C 
ATOM      2  C1' OXE d   1       2.791  -1.020   0.115  0.00  0.00     0.078 C 
ATOM      3  C1  OXE d   1       1.417  -0.936   0.732  0.00  0.00    -0.078 A 
ATOM      4  C2  OXE d   1       0.518  -1.924   0.412  0.00  0.00    -0.078 A 
ATOM      5  C3  OXE d   1      -0.745  -1.924   0.997  0.00  0.00     0.003 A 
ATOM      6  C4  OXE d   1      -1.160  -0.845   1.787  0.00  0.00    -0.002 A 
ATOM      7  C5  OXE d   1      -0.273   0.193   2.093  0.00  0.00    -0.002 A 
ATOM      8  C6  OXE d   1       1.030   0.141   1.610  0.00  0.00     0.003 A 
ENDROOT
TORSDOF 0
ENDMDL
