MODEL 1
REMARK minimizedAffinity -0.180487588
REMARK minimizedRMSD -1
REMARK  0 active torsions:
REMARK  status: ('A' for Active; 'I' for Inactive)
ROOT
ATOM      1  C2' OXE d   1       3.381  -1.534   0.025  0.00  0.00     0.078 C 
ATOM      2  C1' OXE d   1       1.553  -3.627  -0.374  0.00  0.00     0.078 C 
ATOM      3  C1  OXE d   1       1.011  -2.300   0.095  0.00  0.00    -0.078 A 
ATOM      4  C2  OXE d   1       1.918  -1.295   0.333  0.00  0.00    -0.078 A 
ATOM      5  C3  OXE d   1       1.466  -0.035   0.714  0.00  0.00     0.003 A 
ATOM      6  C4  OXE d   1       0.113   0.174   1.006  0.00  0.00    -0.002 A 
ATOM      7  C5  OXE d   1      -0.822  -0.847   0.810  0.00  0.00    -0.002 A 
ATOM      8  C6  OXE d   1      -0.396  -2.075   0.315  0.00  0.00     0.003 A 
ENDROOT
TORSDOF 0
ENDMDL
