MODEL 1
REMARK minimizedAffinity -0.199605301
REMARK minimizedRMSD -1
REMARK  0 active torsions:
REMARK  status: ('A' for Active; 'I' for Inactive)
ROOT
ATOM      1  C2' OXE d   1      -5.601  -5.782   5.987  0.00  0.00     0.078 C 
ATOM      2  C1' OXE d   1      -5.998  -3.019   5.692  0.00  0.00     0.078 C 
ATOM      3  C1  OXE d   1      -5.818  -3.841   4.440  0.00  0.00    -0.078 A 
ATOM      4  C2  OXE d   1      -5.578  -5.185   4.596  0.00  0.00    -0.078 A 
ATOM      5  C3  OXE d   1      -5.460  -5.999   3.473  0.00  0.00     0.003 A 
ATOM      6  C4  OXE d   1      -5.430  -5.438   2.191  0.00  0.00    -0.002 A 
ATOM      7  C5  OXE d   1      -5.633  -4.065   2.012  0.00  0.00    -0.002 A 
ATOM      8  C6  OXE d   1      -5.870  -3.261   3.121  0.00  0.00     0.003 A 
ENDROOT
TORSDOF 0
ENDMDL
