MODEL 1
REMARK minimizedAffinity 3.68715119
REMARK minimizedRMSD -1
REMARK  0 active torsions:
REMARK  status: ('A' for Active; 'I' for Inactive)
ROOT
ATOM      1  C2' OXE d   1       1.375  -3.508  -0.538  0.00  0.00     0.078 C 
ATOM      2  C1' OXE d   1       3.322  -1.674   0.315  0.00  0.00     0.078 C 
ATOM      3  C1  OXE d   1       1.877  -1.349   0.599  0.00  0.00    -0.078 A 
ATOM      4  C2  OXE d   1       0.928  -2.229   0.137  0.00  0.00    -0.078 A 
ATOM      5  C3  OXE d   1      -0.416  -2.005   0.419  0.00  0.00     0.003 A 
ATOM      6  C4  OXE d   1      -0.822  -0.814   1.035  0.00  0.00    -0.002 A 
ATOM      7  C5  OXE d   1       0.126   0.114   1.478  0.00  0.00    -0.002 A 
ATOM      8  C6  OXE d   1       1.478  -0.157   1.306  0.00  0.00     0.003 A 
ENDROOT
TORSDOF 0
ENDMDL
