MODEL 1
REMARK minimizedAffinity 3.03810143
REMARK minimizedRMSD -1
REMARK  0 active torsions:
REMARK  status: ('A' for Active; 'I' for Inactive)
ROOT
ATOM      1  C2' OXE d   1       4.070  -1.089   0.720  0.00  0.00     0.078 C 
ATOM      2  C1' OXE d   1       1.356  -0.837   1.393  0.00  0.00     0.078 C 
ATOM      3  C1  OXE d   1       1.790  -2.092   0.678  0.00  0.00    -0.078 A 
ATOM      4  C2  OXE d   1       3.111  -2.186   0.311  0.00  0.00    -0.078 A 
ATOM      5  C3  OXE d   1       3.575  -3.347  -0.302  0.00  0.00     0.003 A 
ATOM      6  C4  OXE d   1       2.680  -4.353  -0.686  0.00  0.00    -0.002 A 
ATOM      7  C5  OXE d   1       1.324  -4.259  -0.357  0.00  0.00    -0.002 A 
ATOM      8  C6  OXE d   1       0.871  -3.157   0.361  0.00  0.00     0.003 A 
ENDROOT
TORSDOF 0
ENDMDL
