MODEL 1
REMARK minimizedAffinity -0.656924486
REMARK minimizedRMSD -1
REMARK  0 active torsions:
REMARK  status: ('A' for Active; 'I' for Inactive)
ROOT
ATOM      1  C   UNL d   1       0.213  -2.766  -1.287  0.00  0.00     0.077 C 
ATOM      2  C1  UNL d   1       0.187  -1.270  -1.192  0.00  0.00    -0.074 A 
ATOM      3  C2  UNL d   1       0.470  -0.474  -2.307  0.00  0.00    -0.005 A 
ATOM      4  C3  UNL d   1       0.433   0.917  -2.206  0.00  0.00     0.006 A 
ATOM      5  C4  UNL d   1       0.112   1.525  -0.992  0.00  0.00    -0.005 A 
ATOM      6  C5  UNL d   1      -0.175   0.745   0.133  0.00  0.00    -0.074 A 
ATOM      7  C6  UNL d   1      -0.530   1.383   1.444  0.00  0.00     0.077 C 
ATOM      8  C7  UNL d   1      -0.142  -0.651   0.022  0.00  0.00    -0.001 A 
ENDROOT
TORSDOF 0
ENDMDL
