MODEL 1
REMARK minimizedAffinity -2.1745429
REMARK minimizedRMSD -1
REMARK  0 active torsions:
REMARK  status: ('A' for Active; 'I' for Inactive)
ROOT
ATOM      1  C   UNL d   1       1.910  -5.629   0.548  0.00  0.00     0.077 C 
ATOM      2  C1  UNL d   1       1.062  -4.632  -0.185  0.00  0.00    -0.074 A 
ATOM      3  C2  UNL d   1      -0.126  -5.021  -0.812  0.00  0.00    -0.005 A 
ATOM      4  C3  UNL d   1      -0.909  -4.080  -1.481  0.00  0.00     0.006 A 
ATOM      5  C4  UNL d   1      -0.513  -2.743  -1.530  0.00  0.00    -0.005 A 
ATOM      6  C5  UNL d   1       0.672  -2.335  -0.909  0.00  0.00    -0.074 A 
ATOM      7  C6  UNL d   1       1.107  -0.901  -0.944  0.00  0.00     0.077 C 
ATOM      8  C7  UNL d   1       1.450  -3.285  -0.232  0.00  0.00    -0.001 A 
ENDROOT
TORSDOF 0
ENDMDL
