MODEL 1
REMARK minimizedAffinity -3.72157717
REMARK minimizedRMSD -1
REMARK  0 active torsions:
REMARK  status: ('A' for Active; 'I' for Inactive)
ROOT
ATOM      1  C   UNL d   1      -0.399   1.164   1.452  0.00  0.00     0.077 C 
ATOM      2  C1  UNL d   1       0.172   0.182   0.472  0.00  0.00    -0.074 A 
ATOM      3  C2  UNL d   1       1.504   0.275   0.054  0.00  0.00    -0.005 A 
ATOM      4  C3  UNL d   1       2.023  -0.651  -0.850  0.00  0.00     0.006 A 
ATOM      5  C4  UNL d   1       1.218  -1.678  -1.346  0.00  0.00    -0.005 A 
ATOM      6  C5  UNL d   1      -0.116  -1.787  -0.939  0.00  0.00    -0.074 A 
ATOM      7  C6  UNL d   1      -0.992  -2.890  -1.454  0.00  0.00     0.077 C 
ATOM      8  C7  UNL d   1      -0.628  -0.857  -0.024  0.00  0.00    -0.001 A 
ENDROOT
TORSDOF 0
ENDMDL
