MODEL 1
REMARK minimizedAffinity -3.81308699
REMARK minimizedRMSD -1
REMARK  0 active torsions:
REMARK  status: ('A' for Active; 'I' for Inactive)
ROOT
ATOM      1  C   UNL d   1       0.430  -1.010  -0.376  0.00  0.00     0.077 C 
ATOM      2  C1  UNL d   1       0.015   0.382  -0.005  0.00  0.00    -0.074 A 
ATOM      3  C2  UNL d   1      -0.009   0.793   1.332  0.00  0.00    -0.005 A 
ATOM      4  C3  UNL d   1      -0.388   2.094   1.661  0.00  0.00     0.006 A 
ATOM      5  C4  UNL d   1      -0.746   2.996   0.659  0.00  0.00    -0.005 A 
ATOM      6  C5  UNL d   1      -0.728   2.604  -0.683  0.00  0.00    -0.074 A 
ATOM      7  C6  UNL d   1      -1.101   3.564  -1.773  0.00  0.00     0.077 C 
ATOM      8  C7  UNL d   1      -0.339   1.297  -1.006  0.00  0.00    -0.001 A 
ENDROOT
TORSDOF 0
ENDMDL
