MODEL 1
REMARK minimizedAffinity -3.27254367
REMARK minimizedRMSD -1
REMARK  0 active torsions:
REMARK  status: ('A' for Active; 'I' for Inactive)
ROOT
ATOM      1  C   UNL d   1      -0.008   1.850  -3.009  0.00  0.00     0.077 C 
ATOM      2  C1  UNL d   1      -0.085   1.380  -1.587  0.00  0.00    -0.074 A 
ATOM      3  C2  UNL d   1       0.478   0.159  -1.201  0.00  0.00    -0.005 A 
ATOM      4  C3  UNL d   1       0.407  -0.260   0.127  0.00  0.00     0.006 A 
ATOM      5  C4  UNL d   1      -0.227   0.536   1.082  0.00  0.00    -0.005 A 
ATOM      6  C5  UNL d   1      -0.795   1.760   0.715  0.00  0.00    -0.074 A 
ATOM      7  C6  UNL d   1      -1.471   2.633   1.731  0.00  0.00     0.077 C 
ATOM      8  C7  UNL d   1      -0.713   2.178  -0.620  0.00  0.00    -0.001 A 
ENDROOT
TORSDOF 0
ENDMDL
