MODEL 1
REMARK minimizedAffinity -4.36740065
REMARK minimizedRMSD -1
REMARK  0 active torsions:
REMARK  status: ('A' for Active; 'I' for Inactive)
ROOT
ATOM      1  C   UNL d   1      -1.585   3.494   1.540  0.00  0.00     0.077 C 
ATOM      2  C1  UNL d   1      -1.052   2.295   0.812  0.00  0.00    -0.074 A 
ATOM      3  C2  UNL d   1      -1.036   2.251  -0.585  0.00  0.00    -0.005 A 
ATOM      4  C3  UNL d   1      -0.529   1.133  -1.248  0.00  0.00     0.006 A 
ATOM      5  C4  UNL d   1      -0.034   0.050  -0.521  0.00  0.00    -0.005 A 
ATOM      6  C5  UNL d   1      -0.042   0.077   0.878  0.00  0.00    -0.074 A 
ATOM      7  C6  UNL d   1       0.495  -1.075   1.674  0.00  0.00     0.077 C 
ATOM      8  C7  UNL d   1      -0.546   1.206   1.536  0.00  0.00    -0.001 A 
ENDROOT
TORSDOF 0
ENDMDL
