MODEL 1
REMARK minimizedAffinity -2.70378876
REMARK minimizedRMSD -1
REMARK  0 active torsions:
REMARK  status: ('A' for Active; 'I' for Inactive)
ROOT
ATOM      1  C   UNL d   1       0.820   1.863   3.067  0.00  0.00     0.077 C 
ATOM      2  C1  UNL d   1       0.092   1.575   1.788  0.00  0.00    -0.074 A 
ATOM      3  C2  UNL d   1      -0.876   2.457   1.298  0.00  0.00    -0.005 A 
ATOM      4  C3  UNL d   1      -1.538   2.181   0.101  0.00  0.00     0.006 A 
ATOM      5  C4  UNL d   1      -1.239   1.022  -0.616  0.00  0.00    -0.005 A 
ATOM      6  C5  UNL d   1      -0.273   0.128  -0.142  0.00  0.00    -0.074 A 
ATOM      7  C6  UNL d   1       0.067  -1.117  -0.905  0.00  0.00     0.077 C 
ATOM      8  C7  UNL d   1       0.392   0.416   1.057  0.00  0.00    -0.001 A 
ENDROOT
TORSDOF 0
ENDMDL
