MODEL 1
REMARK minimizedAffinity -0.470485777
REMARK minimizedRMSD -1
REMARK  2 active torsions:
REMARK  status: ('A' for Active; 'I' for Inactive)
REMARK    1  A    between atoms: C2'_3  and  C1'_4 
REMARK    2  A    between atoms: C1'_4  and  C1_5 
ROOT
ATOM      1  C1  I4B d   1       0.571   0.041  -0.351  0.00  0.00    -0.075 A 
ATOM      2  C2  I4B d   1       0.422  -1.321  -0.278  0.00  0.00     0.003 A 
ATOM      3  C3  I4B d   1       1.558  -2.158  -0.168  0.00  0.00     0.002 A 
ATOM      4  C4  I4B d   1       2.819  -1.598  -0.184  0.00  0.00    -0.004 A 
ATOM      5  C5  I4B d   1       2.968  -0.215  -0.235  0.00  0.00     0.002 A 
ATOM      6  C6  I4B d   1       1.837   0.611  -0.306  0.00  0.00     0.003 A 
ENDROOT
BRANCH   1   7
ATOM      7  C1' I4B d   1      -0.649   0.894  -0.500  0.00  0.00     0.060 C 
BRANCH   7   8
ATOM      8  C2' I4B d   1      -1.507   0.700   0.734  0.00  0.00    -0.013 C 
ATOM      9  C4' I4B d   1      -0.693   0.844   1.993  0.00  0.00     0.013 C 
ATOM     10  C3' I4B d   1      -2.617   1.707   0.689  0.00  0.00     0.013 C 
ENDBRANCH   7   8
ENDBRANCH   1   7
TORSDOF 2
ENDMDL
