MODEL 1
REMARK minimizedAffinity -2.22540808
REMARK minimizedRMSD -1
REMARK  2 active torsions:
REMARK  status: ('A' for Active; 'I' for Inactive)
REMARK    1  A    between atoms: C2'_3  and  C1'_4 
REMARK    2  A    between atoms: C1'_4  and  C1_5 
ROOT
ATOM      1  C1  I4B d   1      -0.999   0.607  -0.118  0.00  0.00    -0.075 A 
ATOM      2  C2  I4B d   1      -0.528  -0.668   0.073  0.00  0.00     0.003 A 
ATOM      3  C3  I4B d   1       0.858  -0.897   0.248  0.00  0.00     0.002 A 
ATOM      4  C4  I4B d   1       1.737   0.164   0.176  0.00  0.00    -0.004 A 
ATOM      5  C5  I4B d   1       1.256   1.459   0.005  0.00  0.00     0.002 A 
ATOM      6  C6  I4B d   1      -0.122   1.684  -0.130  0.00  0.00     0.003 A 
ENDROOT
BRANCH   1   7
ATOM      7  C1' I4B d   1      -2.465   0.809  -0.333  0.00  0.00     0.060 C 
BRANCH   7   8
ATOM      8  C2' I4B d   1      -3.201   0.142   0.811  0.00  0.00    -0.013 C 
ATOM      9  C4' I4B d   1      -3.878   1.159   1.692  0.00  0.00     0.013 C 
ATOM     10  C3' I4B d   1      -4.196  -0.815   0.226  0.00  0.00     0.013 C 
ENDBRANCH   7   8
ENDBRANCH   1   7
TORSDOF 2
ENDMDL
