MODEL 1
REMARK minimizedAffinity -3.33114982
REMARK minimizedRMSD -1
REMARK  0 active torsions:
REMARK  status: ('A' for Active; 'I' for Inactive)
ROOT
ATOM      1  C4' PXY d   1      -1.400   1.224  -1.963  0.00  0.00     0.077 C 
ATOM      2  C1' PXY d   1       0.351  -1.252   2.958  0.00  0.00     0.077 C 
ATOM      3  C1  PXY d   1      -0.096  -0.601   1.664  0.00  0.00    -0.082 A 
ATOM      4  C2  PXY d   1      -1.284  -0.024   1.599  0.00  0.00     0.003 A 
ATOM      5  C3  PXY d   1      -1.717   0.542   0.427  0.00  0.00     0.003 A 
ATOM      6  C4  PXY d   1      -0.904   0.563  -0.674  0.00  0.00    -0.082 A 
ATOM      7  C5  PXY d   1       0.315  -0.015  -0.612  0.00  0.00     0.003 A 
ATOM      8  C6  PXY d   1       0.719  -0.620   0.574  0.00  0.00     0.003 A 
ENDROOT
TORSDOF 0
ENDMDL
