MODEL 1
REMARK minimizedAffinity -4.47701883
REMARK minimizedRMSD -1
REMARK  0 active torsions:
REMARK  status: ('A' for Active; 'I' for Inactive)
ROOT
ATOM      1  C4' PXY d   1       2.759  -2.101  -0.335  0.00  0.00     0.077 C 
ATOM      2  C1' PXY d   1      -1.951   0.127   2.168  0.00  0.00     0.077 C 
ATOM      3  C1  PXY d   1      -0.722  -0.458   1.500  0.00  0.00    -0.082 A 
ATOM      4  C2  PXY d   1       0.160  -1.128   2.224  0.00  0.00     0.003 A 
ATOM      5  C3  PXY d   1       1.293  -1.635   1.642  0.00  0.00     0.003 A 
ATOM      6  C4  PXY d   1       1.499  -1.501   0.296  0.00  0.00    -0.082 A 
ATOM      7  C5  PXY d   1       0.599  -0.828  -0.452  0.00  0.00     0.003 A 
ATOM      8  C6  PXY d   1      -0.524  -0.285   0.165  0.00  0.00     0.003 A 
ENDROOT
TORSDOF 0
ENDMDL
