MODEL 1
REMARK minimizedAffinity -4.28505325
REMARK minimizedRMSD -1
REMARK  0 active torsions:
REMARK  status: ('A' for Active; 'I' for Inactive)
ROOT
ATOM      1  C4' PXY d   1      -1.337   0.615  -1.692  0.00  0.00     0.077 C 
ATOM      2  C1' PXY d   1       1.521  -0.850   3.114  0.00  0.00     0.077 C 
ATOM      3  C1  PXY d   1       0.761  -0.473   1.857  0.00  0.00    -0.082 A 
ATOM      4  C2  PXY d   1       1.429  -0.122   0.770  0.00  0.00     0.003 A 
ATOM      5  C3  PXY d   1       0.757   0.253  -0.365  0.00  0.00     0.003 A 
ATOM      6  C4  PXY d   1      -0.611   0.217  -0.404  0.00  0.00    -0.082 A 
ATOM      7  C5  PXY d   1      -1.299  -0.150   0.698  0.00  0.00     0.003 A 
ATOM      8  C6  PXY d   1      -0.599  -0.488   1.853  0.00  0.00     0.003 A 
ENDROOT
TORSDOF 0
ENDMDL
