MODEL 1
REMARK minimizedAffinity -4.16144562
REMARK minimizedRMSD -1
REMARK  0 active torsions:
REMARK  status: ('A' for Active; 'I' for Inactive)
ROOT
ATOM      1  C4' PXY d   1      -0.766   0.817  -1.317  0.00  0.00     0.077 C 
ATOM      2  C1' PXY d   1       1.883  -1.660   3.184  0.00  0.00     0.077 C 
ATOM      3  C1  PXY d   1       1.177  -1.016   2.007  0.00  0.00    -0.082 A 
ATOM      4  C2  PXY d   1       1.870  -0.686   0.929  0.00  0.00     0.003 A 
ATOM      5  C3  PXY d   1       1.253  -0.073  -0.131  0.00  0.00     0.003 A 
ATOM      6  C4  PXY d   1      -0.097   0.156  -0.110  0.00  0.00    -0.082 A 
ATOM      7  C5  PXY d   1      -0.813  -0.187   0.982  0.00  0.00     0.003 A 
ATOM      8  C6  PXY d   1      -0.160  -0.771   2.065  0.00  0.00     0.003 A 
ENDROOT
TORSDOF 0
ENDMDL
