MODEL 1
REMARK minimizedAffinity -4.28059626
REMARK minimizedRMSD -1
REMARK  0 active torsions:
REMARK  status: ('A' for Active; 'I' for Inactive)
ROOT
ATOM      1  C4' PXY d   1       1.097  -0.727   3.190  0.00  0.00     0.077 C 
ATOM      2  C1' PXY d   1      -1.029   0.740  -1.981  0.00  0.00     0.077 C 
ATOM      3  C1  PXY d   1      -0.482   0.361  -0.619  0.00  0.00    -0.082 A 
ATOM      4  C2  PXY d   1       0.809   0.103  -0.482  0.00  0.00     0.003 A 
ATOM      5  C3  PXY d   1       1.315  -0.272   0.736  0.00  0.00     0.003 A 
ATOM      6  C4  PXY d   1       0.502  -0.332   1.836  0.00  0.00    -0.082 A 
ATOM      7  C5  PXY d   1      -0.814  -0.059   1.706  0.00  0.00     0.003 A 
ATOM      8  C6  PXY d   1      -1.316   0.280   0.453  0.00  0.00     0.003 A 
ENDROOT
TORSDOF 0
ENDMDL
