MODEL 1
REMARK minimizedAffinity -3.50187898
REMARK minimizedRMSD -1
REMARK  0 active torsions:
REMARK  status: ('A' for Active; 'I' for Inactive)
ROOT
ATOM      1  C4' PXY d   1      -1.228   0.853  -1.328  0.00  0.00     0.077 C 
ATOM      2  C1' PXY d   1       2.089  -1.020   3.020  0.00  0.00     0.077 C 
ATOM      3  C1  PXY d   1       1.209  -0.537   1.883  0.00  0.00    -0.082 A 
ATOM      4  C2  PXY d   1       1.764   0.010   0.814  0.00  0.00     0.003 A 
ATOM      5  C3  PXY d   1       0.982   0.481  -0.209  0.00  0.00     0.003 A 
ATOM      6  C4  PXY d   1      -0.379   0.343  -0.160  0.00  0.00    -0.082 A 
ATOM      7  C5  PXY d   1      -0.952  -0.224   0.922  0.00  0.00     0.003 A 
ATOM      8  C6  PXY d   1      -0.143  -0.658   1.968  0.00  0.00     0.003 A 
ENDROOT
TORSDOF 0
ENDMDL
