MODEL 1
REMARK minimizedAffinity -3.01015973
REMARK minimizedRMSD -1
REMARK  0 active torsions:
REMARK  status: ('A' for Active; 'I' for Inactive)
ROOT
ATOM      1  C4' PXY d   1       2.293  -2.733   1.117  0.00  0.00     0.077 C 
ATOM      2  C1' PXY d   1      -1.169   1.017  -1.597  0.00  0.00     0.077 C 
ATOM      3  C1  PXY d   1      -0.264   0.039  -0.873  0.00  0.00    -0.082 A 
ATOM      4  C2  PXY d   1       0.736  -0.531  -1.525  0.00  0.00     0.003 A 
ATOM      5  C3  PXY d   1       1.544  -1.442  -0.896  0.00  0.00     0.003 A 
ATOM      6  C4  PXY d   1       1.360  -1.732   0.430  0.00  0.00    -0.082 A 
ATOM      7  C5  PXY d   1       0.348  -1.146   1.105  0.00  0.00     0.003 A 
ATOM      8  C6  PXY d   1      -0.487  -0.255   0.436  0.00  0.00     0.003 A 
ENDROOT
TORSDOF 0
ENDMDL
