MODEL 1
REMARK minimizedAffinity -0.67305696
REMARK minimizedRMSD -1
REMARK  0 active torsions:
REMARK  status: ('A' for Active; 'I' for Inactive)
ROOT
ATOM      1  C4' PXY d   1      -1.161   2.134  -1.432  0.00  0.00     0.077 C 
ATOM      2  C1' PXY d   1      -0.322  -1.719   2.795  0.00  0.00     0.077 C 
ATOM      3  C1  PXY d   1      -0.537  -0.717   1.678  0.00  0.00    -0.082 A 
ATOM      4  C2  PXY d   1      -0.650   0.570   1.967  0.00  0.00     0.003 A 
ATOM      5  C3  PXY d   1      -0.876   1.486   0.972  0.00  0.00     0.003 A 
ATOM      6  C4  PXY d   1      -0.934   1.088  -0.337  0.00  0.00    -0.082 A 
ATOM      7  C5  PXY d   1      -0.809  -0.222  -0.640  0.00  0.00     0.003 A 
ATOM      8  C6  PXY d   1      -0.621  -1.141   0.388  0.00  0.00     0.003 A 
ENDROOT
TORSDOF 0
ENDMDL
