MODEL 1
REMARK minimizedAffinity -5.30570221
REMARK minimizedRMSD -1
REMARK  1 active torsions:
REMARK  status: ('A' for Active; 'I' for Inactive)
REMARK    1  A    between atoms: C1_2  and  C2_3 
ROOT
ATOM      1  C2  UNL d   1      -0.326  -0.091   0.824  0.00  0.00    -0.076 A 
ATOM      2  C3  UNL d   1       1.064  -0.233   0.972  0.00  0.00     0.004 A 
ATOM      3  C4  UNL d   1       1.621  -0.613   2.192  0.00  0.00    -0.003 A 
ATOM      4  C5  UNL d   1       0.796  -0.859   3.284  0.00  0.00     0.000 A 
ATOM      5  C6  UNL d   1      -0.587  -0.740   3.151  0.00  0.00     0.000 A 
ATOM      6  C7  UNL d   1      -1.165  -0.373   1.923  0.00  0.00    -0.073 A 
ATOM      7  C8  UNL d   1      -2.662  -0.254   1.838  0.00  0.00     0.078 C 
ENDROOT
BRANCH   1   8
ATOM      8  C1  UNL d   1      -0.871   0.350  -0.515  0.00  0.00     0.053 C 
ATOM      9  C   UNL d   1       0.024  -0.064  -1.673  0.00  0.00     0.018 C 
ENDBRANCH   1   8
TORSDOF 1
ENDMDL
