MODEL 1
REMARK minimizedAffinity -2.46040559
REMARK minimizedRMSD -1
REMARK  1 active torsions:
REMARK  status: ('A' for Active; 'I' for Inactive)
REMARK    1  A    between atoms: C1_2  and  C2_3 
ROOT
ATOM      1  C2  UNL d   1      -0.006  -0.549   0.410  0.00  0.00    -0.076 A 
ATOM      2  C3  UNL d   1      -1.295  -0.561   0.969  0.00  0.00     0.004 A 
ATOM      3  C4  UNL d   1      -1.528  -1.122   2.224  0.00  0.00    -0.003 A 
ATOM      4  C5  UNL d   1      -0.475  -1.680   2.940  0.00  0.00     0.000 A 
ATOM      5  C6  UNL d   1       0.814  -1.662   2.408  0.00  0.00     0.000 A 
ATOM      6  C7  UNL d   1       1.069  -1.085   1.152  0.00  0.00    -0.073 A 
ATOM      7  C8  UNL d   1       2.477  -1.098   0.624  0.00  0.00     0.078 C 
ENDROOT
BRANCH   1   8
ATOM      8  C1  UNL d   1       0.182   0.049  -0.966  0.00  0.00     0.053 C 
ATOM      9  C   UNL d   1      -0.964   0.968  -1.363  0.00  0.00     0.018 C 
ENDBRANCH   1   8
TORSDOF 1
ENDMDL
