MODEL 1
REMARK minimizedAffinity -5.32813263
REMARK minimizedRMSD -1
REMARK  1 active torsions:
REMARK  status: ('A' for Active; 'I' for Inactive)
REMARK    1  A    between atoms: C1_2  and  C2_3 
ROOT
ATOM      1  C2  UNL d   1      -0.118  -0.531   0.081  0.00  0.00    -0.076 A 
ATOM      2  C3  UNL d   1       1.190  -1.008  -0.108  0.00  0.00     0.004 A 
ATOM      3  C4  UNL d   1       1.925  -1.529   0.955  0.00  0.00    -0.003 A 
ATOM      4  C5  UNL d   1       1.363  -1.582   2.226  0.00  0.00     0.000 A 
ATOM      5  C6  UNL d   1       0.059  -1.129   2.429  0.00  0.00     0.000 A 
ATOM      6  C7  UNL d   1      -0.701  -0.616   1.364  0.00  0.00    -0.073 A 
ATOM      7  C8  UNL d   1      -2.099  -0.136   1.640  0.00  0.00     0.078 C 
ENDROOT
BRANCH   1   8
ATOM      8  C1  UNL d   1      -0.857   0.048  -1.105  0.00  0.00     0.053 C 
ATOM      9  C   UNL d   1      -0.474   1.494  -1.380  0.00  0.00     0.018 C 
ENDBRANCH   1   8
TORSDOF 1
ENDMDL
