MODEL 1
REMARK minimizedAffinity 8.15273666
REMARK minimizedRMSD -1
REMARK  0 active torsions:
REMARK  status: ('A' for Active; 'I' for Inactive)
ROOT
ATOM      1  C   UNL d   1       0.314   0.172   1.422  0.00  0.00     0.124 A 
ATOM      2  C1  UNL d   1       0.800   1.285   2.093  0.00  0.00     0.062 A 
ATOM      3  C2  UNL d   1       0.836   2.524   1.460  0.00  0.00     0.162 A 
ATOM      4  C3  UNL d   1       0.384   2.656   0.146  0.00  0.00    -0.034 A 
ATOM      5  C4  UNL d   1      -0.102   1.531  -0.523  0.00  0.00     0.162 A 
ATOM      6  C5  UNL d   1      -0.136   0.296   0.115  0.00  0.00     0.062 A 
ATOM      7  F   UNL d   1      -0.606  -0.779  -0.535  0.00  0.00    -0.097 F 
ATOM      8  F1  UNL d   1      -0.544   1.623  -1.785  0.00  0.00    -0.096 F 
ATOM      9  I   UNL d   1       0.437   4.507  -0.805  0.00  0.00    -0.060 I 
ATOM     10  F2  UNL d   1       1.311   3.583   2.132  0.00  0.00    -0.096 F 
ATOM     11  F3  UNL d   1       1.236   1.167   3.356  0.00  0.00    -0.097 F 
ATOM     12  F4  UNL d   1       0.281  -1.019   2.034  0.00  0.00    -0.092 F 
ENDROOT
TORSDOF 0
ENDMDL
