MODEL 1
REMARK minimizedAffinity 6.99460983
REMARK minimizedRMSD -1
REMARK  0 active torsions:
REMARK  status: ('A' for Active; 'I' for Inactive)
ROOT
ATOM      1  C   UNL d   1      -1.961   3.699  -2.493  0.00  0.00     0.124 A 
ATOM      2  C1  UNL d   1      -0.761   4.150  -1.960  0.00  0.00     0.062 A 
ATOM      3  C2  UNL d   1      -0.041   3.349  -1.079  0.00  0.00     0.162 A 
ATOM      4  C3  UNL d   1      -0.518   2.086  -0.726  0.00  0.00    -0.034 A 
ATOM      5  C4  UNL d   1      -1.726   1.640  -1.264  0.00  0.00     0.162 A 
ATOM      6  C5  UNL d   1      -2.442   2.445  -2.144  0.00  0.00     0.062 A 
ATOM      7  F   UNL d   1      -3.601   2.007  -2.658  0.00  0.00    -0.097 F 
ATOM      8  F1  UNL d   1      -2.213   0.432  -0.946  0.00  0.00    -0.096 F 
ATOM      9  I   UNL d   1       0.556   0.885   0.591  0.00  0.00    -0.060 I 
ATOM     10  F2  UNL d   1       1.116   3.810  -0.580  0.00  0.00    -0.096 F 
ATOM     11  F3  UNL d   1      -0.295   5.362  -2.294  0.00  0.00    -0.097 F 
ATOM     12  F4  UNL d   1      -2.652   4.472  -3.339  0.00  0.00    -0.092 F 
ENDROOT
TORSDOF 0
ENDMDL
