MODEL 1
REMARK minimizedAffinity 1.05031538
REMARK minimizedRMSD -1
REMARK  0 active torsions:
REMARK  status: ('A' for Active; 'I' for Inactive)
ROOT
ATOM      1  C   UNL d   1       0.803   0.255   1.671  0.00  0.00     0.124 A 
ATOM      2  C1  UNL d   1       0.953   0.012   0.313  0.00  0.00     0.062 A 
ATOM      3  C2  UNL d   1       0.754   1.037  -0.608  0.00  0.00     0.162 A 
ATOM      4  C3  UNL d   1       0.405   2.316  -0.173  0.00  0.00    -0.034 A 
ATOM      5  C4  UNL d   1       0.255   2.552   1.195  0.00  0.00     0.162 A 
ATOM      6  C5  UNL d   1       0.455   1.524   2.111  0.00  0.00     0.062 A 
ATOM      7  F   UNL d   1       0.309   1.761   3.423  0.00  0.00    -0.097 F 
ATOM      8  F1  UNL d   1      -0.081   3.769   1.648  0.00  0.00    -0.096 F 
ATOM      9  I   UNL d   1       0.107   3.851  -1.545  0.00  0.00    -0.060 I 
ATOM     10  F2  UNL d   1       0.906   0.774  -1.914  0.00  0.00    -0.096 F 
ATOM     11  F3  UNL d   1       1.289  -1.213  -0.115  0.00  0.00    -0.097 F 
ATOM     12  F4  UNL d   1       0.994  -0.733   2.554  0.00  0.00    -0.092 F 
ENDROOT
TORSDOF 0
ENDMDL
