MODEL 1
REMARK minimizedAffinity 3.46050406
REMARK minimizedRMSD -1
REMARK  0 active torsions:
REMARK  status: ('A' for Active; 'I' for Inactive)
ROOT
ATOM      1  C   UNL d   1       0.688   0.517   1.506  0.00  0.00     0.124 A 
ATOM      2  C1  UNL d   1       0.535   0.166   0.172  0.00  0.00     0.062 A 
ATOM      3  C2  UNL d   1       0.334   1.150  -0.791  0.00  0.00     0.162 A 
ATOM      4  C3  UNL d   1       0.287   2.495  -0.425  0.00  0.00    -0.034 A 
ATOM      5  C4  UNL d   1       0.441   2.840   0.919  0.00  0.00     0.162 A 
ATOM      6  C5  UNL d   1       0.641   1.853   1.879  0.00  0.00     0.062 A 
ATOM      7  F   UNL d   1       0.789   2.193   3.167  0.00  0.00    -0.097 F 
ATOM      8  F1  UNL d   1       0.401   4.123   1.306  0.00  0.00    -0.096 F 
ATOM      9  I   UNL d   1      -0.013   3.969  -1.863  0.00  0.00    -0.060 I 
ATOM     10  F2  UNL d   1       0.189   0.782  -2.073  0.00  0.00    -0.096 F 
ATOM     11  F3  UNL d   1       0.579  -1.124  -0.190  0.00  0.00    -0.097 F 
ATOM     12  F4  UNL d   1       0.880  -0.432   2.432  0.00  0.00    -0.092 F 
ENDROOT
TORSDOF 0
ENDMDL
