MODEL 1
REMARK minimizedAffinity 9.18604946
REMARK minimizedRMSD -1
REMARK  0 active torsions:
REMARK  status: ('A' for Active; 'I' for Inactive)
ROOT
ATOM      1  C   UNL d   1       1.241   4.285   0.479  0.00  0.00     0.124 A 
ATOM      2  C1  UNL d   1       1.661   3.897   1.744  0.00  0.00     0.062 A 
ATOM      3  C2  UNL d   1       1.474   2.586   2.172  0.00  0.00     0.162 A 
ATOM      4  C3  UNL d   1       0.864   1.652   1.335  0.00  0.00    -0.034 A 
ATOM      5  C4  UNL d   1       0.443   2.050   0.065  0.00  0.00     0.162 A 
ATOM      6  C5  UNL d   1       0.632   3.361  -0.359  0.00  0.00     0.062 A 
ATOM      7  F   UNL d   1       0.225   3.734  -1.581  0.00  0.00    -0.097 F 
ATOM      8  F1  UNL d   1      -0.147   1.178  -0.766  0.00  0.00    -0.096 F 
ATOM      9  I   UNL d   1       0.583  -0.309   1.971  0.00  0.00    -0.060 I 
ATOM     10  F2  UNL d   1       1.890   2.239   3.399  0.00  0.00    -0.096 F 
ATOM     11  F3  UNL d   1       2.248   4.788   2.556  0.00  0.00    -0.097 F 
ATOM     12  F4  UNL d   1       1.421   5.547   0.070  0.00  0.00    -0.092 F 
ENDROOT
TORSDOF 0
ENDMDL
