MODEL 1
REMARK minimizedAffinity 5.77354288
REMARK minimizedRMSD -1
REMARK  0 active torsions:
REMARK  status: ('A' for Active; 'I' for Inactive)
ROOT
ATOM      1  C   UNL d   1       0.430   4.809  -1.025  0.00  0.00     0.124 A 
ATOM      2  C1  UNL d   1       0.811   4.746   0.309  0.00  0.00     0.062 A 
ATOM      3  C2  UNL d   1       0.932   3.513   0.944  0.00  0.00     0.162 A 
ATOM      4  C3  UNL d   1       0.672   2.334   0.247  0.00  0.00    -0.034 A 
ATOM      5  C4  UNL d   1       0.289   2.405  -1.093  0.00  0.00     0.162 A 
ATOM      6  C5  UNL d   1       0.170   3.640  -1.724  0.00  0.00     0.062 A 
ATOM      7  F   UNL d   1      -0.199   3.699  -3.012  0.00  0.00    -0.097 F 
ATOM      8  F1  UNL d   1       0.032   1.291  -1.793  0.00  0.00    -0.096 F 
ATOM      9  I   UNL d   1       0.852   0.489   1.194  0.00  0.00    -0.060 I 
ATOM     10  F2  UNL d   1       1.302   3.482   2.233  0.00  0.00    -0.096 F 
ATOM     11  F3  UNL d   1       1.063   5.875   0.987  0.00  0.00    -0.097 F 
ATOM     12  F4  UNL d   1       0.314   5.996  -1.633  0.00  0.00    -0.092 F 
ENDROOT
TORSDOF 0
ENDMDL
