MODEL 1
REMARK minimizedAffinity 6.76778364
REMARK minimizedRMSD -1
REMARK  0 active torsions:
REMARK  status: ('A' for Active; 'I' for Inactive)
ROOT
ATOM      1  C4' PXY d   1       1.982   0.296  -3.039  0.00  0.00     0.077 C 
ATOM      2  C1' PXY d   1       0.214  -1.820   2.042  0.00  0.00     0.077 C 
ATOM      3  C1  PXY d   1       0.671  -1.274   0.703  0.00  0.00    -0.082 A 
ATOM      4  C2  PXY d   1       1.774  -0.545   0.635  0.00  0.00     0.003 A 
ATOM      5  C3  PXY d   1       2.184  -0.018  -0.562  0.00  0.00     0.003 A 
ATOM      6  C4  PXY d   1       1.488  -0.283  -1.711  0.00  0.00    -0.082 A 
ATOM      7  C5  PXY d   1       0.368  -1.035  -1.652  0.00  0.00     0.003 A 
ATOM      8  C6  PXY d   1      -0.054  -1.527  -0.420  0.00  0.00     0.003 A 
ENDROOT
TORSDOF 0
ENDMDL
