MODEL 1
REMARK minimizedAffinity 11.9006319
REMARK minimizedRMSD -1
REMARK  0 active torsions:
REMARK  status: ('A' for Active; 'I' for Inactive)
ROOT
ATOM      1  C4' PXY d   1       5.318   0.242  -4.059  0.00  0.00     0.077 C 
ATOM      2  C1' PXY d   1       1.760   1.270   0.379  0.00  0.00     0.077 C 
ATOM      3  C1  PXY d   1       2.683   0.998  -0.792  0.00  0.00    -0.082 A 
ATOM      4  C2  PXY d   1       3.944   0.666  -0.568  0.00  0.00     0.003 A 
ATOM      5  C3  PXY d   1       4.801   0.447  -1.616  0.00  0.00     0.003 A 
ATOM      6  C4  PXY d   1       4.348   0.517  -2.906  0.00  0.00    -0.082 A 
ATOM      7  C5  PXY d   1       3.060   0.844  -3.143  0.00  0.00     0.003 A 
ATOM      8  C6  PXY d   1       2.217   1.102  -2.066  0.00  0.00     0.003 A 
ENDROOT
TORSDOF 0
ENDMDL
