MODEL 1
REMARK minimizedAffinity 15.5315008
REMARK minimizedRMSD -1
REMARK  0 active torsions:
REMARK  status: ('A' for Active; 'I' for Inactive)
ROOT
ATOM      1  C4' PXY d   1       0.438  -2.044   1.960  0.00  0.00     0.077 C 
ATOM      2  C1' PXY d   1       1.296   1.207  -2.742  0.00  0.00     0.077 C 
ATOM      3  C1  PXY d   1       1.059   0.353  -1.512  0.00  0.00    -0.082 A 
ATOM      4  C2  PXY d   1       1.850   0.486  -0.460  0.00  0.00     0.003 A 
ATOM      5  C3  PXY d   1       1.669  -0.301   0.648  0.00  0.00     0.003 A 
ATOM      6  C4  PXY d   1       0.634  -1.196   0.700  0.00  0.00    -0.082 A 
ATOM      7  C5  PXY d   1      -0.183  -1.331  -0.365  0.00  0.00     0.003 A 
ATOM      8  C6  PXY d   1       0.042  -0.552  -1.496  0.00  0.00     0.003 A 
ENDROOT
TORSDOF 0
ENDMDL
