MODEL 1
REMARK minimizedAffinity 11.119072
REMARK minimizedRMSD -1
REMARK  0 active torsions:
REMARK  status: ('A' for Active; 'I' for Inactive)
ROOT
ATOM      1  C4' PXY d   1       1.226  -2.263   1.624  0.00  0.00     0.077 C 
ATOM      2  C1' PXY d   1       0.781   2.195  -2.030  0.00  0.00     0.077 C 
ATOM      3  C1  PXY d   1       0.910   1.030  -1.069  0.00  0.00    -0.082 A 
ATOM      4  C2  PXY d   1       0.145  -0.038  -1.229  0.00  0.00     0.003 A 
ATOM      5  C3  PXY d   1       0.226  -1.088  -0.351  0.00  0.00     0.003 A 
ATOM      6  C4  PXY d   1       1.137  -1.067   0.672  0.00  0.00    -0.082 A 
ATOM      7  C5  PXY d   1       1.928   0.015   0.836  0.00  0.00     0.003 A 
ATOM      8  C6  PXY d   1       1.801   1.087  -0.042  0.00  0.00     0.003 A 
ENDROOT
TORSDOF 0
ENDMDL
