MODEL 1
REMARK minimizedAffinity 14.4602308
REMARK minimizedRMSD -1
REMARK  0 active torsions:
REMARK  status: ('A' for Active; 'I' for Inactive)
ROOT
ATOM      1  C4' PXY d   1      -3.810   0.659  -0.864  0.00  0.00     0.077 C 
ATOM      2  C1' PXY d   1      -5.348  -3.772  -4.242  0.00  0.00     0.077 C 
ATOM      3  C1  PXY d   1      -4.945  -2.602  -3.366  0.00  0.00    -0.082 A 
ATOM      4  C2  PXY d   1      -4.266  -2.822  -2.252  0.00  0.00     0.003 A 
ATOM      5  C3  PXY d   1      -3.922  -1.778  -1.432  0.00  0.00     0.003 A 
ATOM      6  C4  PXY d   1      -4.229  -0.491  -1.783  0.00  0.00    -0.082 A 
ATOM      7  C5  PXY d   1      -4.912  -0.257  -2.924  0.00  0.00     0.003 A 
ATOM      8  C6  PXY d   1      -5.289  -1.334  -3.721  0.00  0.00     0.003 A 
ENDROOT
TORSDOF 0
ENDMDL
