MODEL 1
REMARK minimizedAffinity 5.02821064
REMARK minimizedRMSD -1
REMARK  0 active torsions:
REMARK  status: ('A' for Active; 'I' for Inactive)
ROOT
ATOM      1  C4' PXY d   1       6.000  -5.795  -0.423  0.00  0.00     0.077 C 
ATOM      2  C1' PXY d   1       2.244  -2.417   2.388  0.00  0.00     0.077 C 
ATOM      3  C1  PXY d   1       3.237  -3.292   1.648  0.00  0.00    -0.082 A 
ATOM      4  C2  PXY d   1       2.836  -4.444   1.134  0.00  0.00     0.003 A 
ATOM      5  C3  PXY d   1       3.728  -5.263   0.489  0.00  0.00     0.003 A 
ATOM      6  C4  PXY d   1       5.030  -4.875   0.324  0.00  0.00    -0.082 A 
ATOM      7  C5  PXY d   1       5.444  -3.696   0.837  0.00  0.00     0.003 A 
ATOM      8  C6  PXY d   1       4.533  -2.899   1.523  0.00  0.00     0.003 A 
ENDROOT
TORSDOF 0
ENDMDL
