MODEL 1
REMARK minimizedAffinity 13.2303076
REMARK minimizedRMSD -1
REMARK  0 active torsions:
REMARK  status: ('A' for Active; 'I' for Inactive)
ROOT
ATOM      1  C4' PXY d   1       1.337  -2.284   1.693  0.00  0.00     0.077 C 
ATOM      2  C1' PXY d   1       1.142   1.787  -2.405  0.00  0.00     0.077 C 
ATOM      3  C1  PXY d   1       1.205   0.723  -1.327  0.00  0.00    -0.082 A 
ATOM      4  C2  PXY d   1       0.432  -0.347  -1.418  0.00  0.00     0.003 A 
ATOM      5  C3  PXY d   1       0.454  -1.303  -0.436  0.00  0.00     0.003 A 
ATOM      6  C4  PXY d   1       1.314  -1.189   0.623  0.00  0.00    -0.082 A 
ATOM      7  C5  PXY d   1       2.113  -0.106   0.718  0.00  0.00     0.003 A 
ATOM      8  C6  PXY d   1       2.047   0.874  -0.269  0.00  0.00     0.003 A 
ENDROOT
TORSDOF 0
ENDMDL
