MODEL 1
REMARK minimizedAffinity -1.15615475
REMARK minimizedRMSD -1
REMARK  0 active torsions:
REMARK  status: ('A' for Active; 'I' for Inactive)
ROOT
ATOM      1  C   UNL d   1       0.497   1.748   1.152  0.00  0.00    -0.002 A 
ATOM      2  C1  UNL d   1       0.641   1.910  -0.219  0.00  0.00     0.010 A 
ATOM      3  C2  UNL d   1       0.306   0.877  -1.096  0.00  0.00     0.041 A 
ATOM      4  C3  UNL d   1      -0.185  -0.334  -0.567  0.00  0.00    -0.075 A 
ATOM      5  S   UNL d   1      -0.660  -1.736  -1.450  0.00  0.00     0.015 SA
ATOM      6  C4  UNL d   1      -1.068  -2.584  -0.028  0.00  0.00     0.022 A 
ATOM      7  C5  UNL d   1      -0.852  -1.830   1.101  0.00  0.00     0.026 A 
ATOM      8  C6  UNL d   1      -0.340  -0.521   0.809  0.00  0.00    -0.082 A 
ATOM      9  C7  UNL d   1       0.010   0.545   1.672  0.00  0.00     0.045 A 
ENDROOT
TORSDOF 0
ENDMDL
