MODEL 1
REMARK minimizedAffinity -0.706062913
REMARK minimizedRMSD -1
REMARK  0 active torsions:
REMARK  status: ('A' for Active; 'I' for Inactive)
ROOT
ATOM      1  C   UNL d   1      -0.587   0.486  -0.416  0.00  0.00    -0.002 A 
ATOM      2  C1  UNL d   1       0.001  -0.110   0.691  0.00  0.00     0.010 A 
ATOM      3  C2  UNL d   1       0.856   0.619   1.520  0.00  0.00     0.041 A 
ATOM      4  C3  UNL d   1       1.110   1.971   1.217  0.00  0.00    -0.075 A 
ATOM      5  S   UNL d   1       2.122   3.060   2.091  0.00  0.00     0.015 SA
ATOM      6  C4  UNL d   1       1.797   4.342   1.016  0.00  0.00     0.022 A 
ATOM      7  C5  UNL d   1       0.939   3.966   0.009  0.00  0.00     0.026 A 
ATOM      8  C6  UNL d   1       0.529   2.593   0.109  0.00  0.00    -0.082 A 
ATOM      9  C7  UNL d   1      -0.332   1.827  -0.713  0.00  0.00     0.045 A 
ENDROOT
TORSDOF 0
ENDMDL
