MODEL 1
REMARK minimizedAffinity -1.92620218
REMARK minimizedRMSD -1
REMARK  0 active torsions:
REMARK  status: ('A' for Active; 'I' for Inactive)
ROOT
ATOM      1  C   UNL d   1      -1.569  -1.959   2.752  0.00  0.00    -0.002 A 
ATOM      2  C1  UNL d   1      -1.687  -0.642   3.172  0.00  0.00     0.010 A 
ATOM      3  C2  UNL d   1      -1.261   0.406   2.354  0.00  0.00     0.041 A 
ATOM      4  C3  UNL d   1      -0.710   0.104   1.092  0.00  0.00    -0.075 A 
ATOM      5  S   UNL d   1      -0.123   1.224  -0.080  0.00  0.00     0.015 SA
ATOM      6  C4  UNL d   1       0.299  -0.020  -1.166  0.00  0.00     0.022 A 
ATOM      7  C5  UNL d   1       0.005  -1.265  -0.663  0.00  0.00     0.026 A 
ATOM      8  C6  UNL d   1      -0.582  -1.214   0.647  0.00  0.00    -0.082 A 
ATOM      9  C7  UNL d   1      -1.022  -2.254   1.500  0.00  0.00     0.045 A 
ENDROOT
TORSDOF 0
ENDMDL
