MODEL 1
REMARK minimizedAffinity -1.33272314
REMARK minimizedRMSD -1
REMARK  0 active torsions:
REMARK  status: ('A' for Active; 'I' for Inactive)
ROOT
ATOM      1  C   UNL d   1       0.924   2.481   0.066  0.00  0.00    -0.002 A 
ATOM      2  C1  UNL d   1       2.046   3.010   0.688  0.00  0.00     0.010 A 
ATOM      3  C2  UNL d   1       1.920   4.036   1.626  0.00  0.00     0.041 A 
ATOM      4  C3  UNL d   1       0.635   4.526   1.933  0.00  0.00    -0.075 A 
ATOM      5  S   UNL d   1       0.239   5.778   3.050  0.00  0.00     0.015 SA
ATOM      6  C4  UNL d   1      -1.429   5.639   2.728  0.00  0.00     0.022 A 
ATOM      7  C5  UNL d   1      -1.695   4.667   1.794  0.00  0.00     0.026 A 
ATOM      8  C6  UNL d   1      -0.510   4.009   1.320  0.00  0.00    -0.082 A 
ATOM      9  C7  UNL d   1      -0.349   2.969   0.372  0.00  0.00     0.045 A 
ENDROOT
TORSDOF 0
ENDMDL
