MODEL 1
REMARK minimizedAffinity 0.289593101
REMARK minimizedRMSD -1
REMARK  0 active torsions:
REMARK  status: ('A' for Active; 'I' for Inactive)
ROOT
ATOM      1  C   UNL d   1      -0.606   1.859   1.064  0.00  0.00    -0.002 A 
ATOM      2  C1  UNL d   1       0.122   2.231  -0.057  0.00  0.00     0.010 A 
ATOM      3  C2  UNL d   1       0.678   1.263  -0.896  0.00  0.00     0.041 A 
ATOM      4  C3  UNL d   1       0.487  -0.098  -0.588  0.00  0.00    -0.075 A 
ATOM      5  S   UNL d   1       1.075  -1.457  -1.471  0.00  0.00     0.015 SA
ATOM      6  C4  UNL d   1       0.373  -2.563  -0.382  0.00  0.00     0.022 A 
ATOM      7  C5  UNL d   1      -0.297  -1.929   0.637  0.00  0.00     0.026 A 
ATOM      8  C6  UNL d   1      -0.242  -0.498   0.535  0.00  0.00    -0.082 A 
ATOM      9  C7  UNL d   1      -0.793   0.507   1.367  0.00  0.00     0.045 A 
ENDROOT
TORSDOF 0
ENDMDL
