MODEL 1
REMARK minimizedAffinity -3.48298383
REMARK minimizedRMSD -1
REMARK  0 active torsions:
REMARK  status: ('A' for Active; 'I' for Inactive)
ROOT
ATOM      1  C   UNL d   1       0.846  -2.879  -0.353  0.00  0.00    -0.002 A 
ATOM      2  C1  UNL d   1      -0.279  -3.299   0.341  0.00  0.00     0.010 A 
ATOM      3  C2  UNL d   1      -1.174  -2.369   0.874  0.00  0.00     0.041 A 
ATOM      4  C3  UNL d   1      -0.917  -0.996   0.693  0.00  0.00    -0.075 A 
ATOM      5  S   UNL d   1      -1.875   0.323   1.255  0.00  0.00     0.015 SA
ATOM      6  C4  UNL d   1      -0.813   1.476   0.585  0.00  0.00     0.022 A 
ATOM      7  C5  UNL d   1       0.251   0.887  -0.055  0.00  0.00     0.026 A 
ATOM      8  C6  UNL d   1       0.208  -0.548  -0.004  0.00  0.00    -0.082 A 
ATOM      9  C7  UNL d   1       1.097  -1.516  -0.531  0.00  0.00     0.045 A 
ENDROOT
TORSDOF 0
ENDMDL
