MODEL 1
REMARK minimizedAffinity -3.46684098
REMARK minimizedRMSD -1
REMARK  0 active torsions:
REMARK  status: ('A' for Active; 'I' for Inactive)
ROOT
ATOM      1  C   UNL d   1      -0.393  -3.866   0.175  0.00  0.00    -0.002 A 
ATOM      2  C1  UNL d   1      -0.069  -3.598  -1.147  0.00  0.00     0.010 A 
ATOM      3  C2  UNL d   1       0.085  -2.282  -1.588  0.00  0.00     0.041 A 
ATOM      4  C3  UNL d   1      -0.092  -1.230  -0.668  0.00  0.00    -0.075 A 
ATOM      5  S   UNL d   1       0.047   0.459  -0.982  0.00  0.00     0.015 SA
ATOM      6  C4  UNL d   1      -0.320   0.865   0.632  0.00  0.00     0.022 A 
ATOM      7  C5  UNL d   1      -0.546  -0.249   1.405  0.00  0.00     0.026 A 
ATOM      8  C6  UNL d   1      -0.418  -1.475   0.669  0.00  0.00    -0.082 A 
ATOM      9  C7  UNL d   1      -0.568  -2.820   1.085  0.00  0.00     0.045 A 
ENDROOT
TORSDOF 0
ENDMDL
