MODEL 1
REMARK minimizedAffinity -5.05890417
REMARK minimizedRMSD -1
REMARK  0 active torsions:
REMARK  status: ('A' for Active; 'I' for Inactive)
ROOT
ATOM      1  C   UNL d   1       0.031  -3.688  -1.758  0.00  0.00    -0.002 A 
ATOM      2  C1  UNL d   1       0.417  -2.692  -2.643  0.00  0.00     0.010 A 
ATOM      3  C2  UNL d   1       0.419  -1.352  -2.249  0.00  0.00     0.041 A 
ATOM      4  C3  UNL d   1       0.025  -1.028  -0.936  0.00  0.00    -0.075 A 
ATOM      5  S   UNL d   1      -0.049   0.543  -0.231  0.00  0.00     0.015 SA
ATOM      6  C4  UNL d   1      -0.594  -0.071   1.263  0.00  0.00     0.022 A 
ATOM      7  C5  UNL d   1      -0.722  -1.439   1.242  0.00  0.00     0.026 A 
ATOM      8  C6  UNL d   1      -0.367  -2.014  -0.025  0.00  0.00    -0.082 A 
ATOM      9  C7  UNL d   1      -0.359  -3.362  -0.456  0.00  0.00     0.045 A 
ENDROOT
TORSDOF 0
ENDMDL
