MODEL 1
REMARK minimizedAffinity -3.69249701
REMARK minimizedRMSD -1
REMARK  0 active torsions:
REMARK  status: ('A' for Active; 'I' for Inactive)
ROOT
ATOM      1  C   UNL d   1       0.091  -3.643  -2.188  0.00  0.00    -0.002 A 
ATOM      2  C1  UNL d   1       0.482  -2.536  -2.927  0.00  0.00     0.010 A 
ATOM      3  C2  UNL d   1       0.487  -1.263  -2.352  0.00  0.00     0.041 A 
ATOM      4  C3  UNL d   1       0.090  -1.121  -1.007  0.00  0.00    -0.075 A 
ATOM      5  S   UNL d   1       0.017   0.339  -0.094  0.00  0.00     0.015 SA
ATOM      6  C4  UNL d   1      -0.534  -0.473   1.300  0.00  0.00     0.022 A 
ATOM      7  C5  UNL d   1      -0.666  -1.826   1.091  0.00  0.00     0.026 A 
ATOM      8  C6  UNL d   1      -0.308  -2.222  -0.242  0.00  0.00    -0.082 A 
ATOM      9  C7  UNL d   1      -0.303  -3.498  -0.854  0.00  0.00     0.045 A 
ENDROOT
TORSDOF 0
ENDMDL
