MODEL 1
REMARK minimizedAffinity -4.42474318
REMARK minimizedRMSD -1
REMARK  0 active torsions:
REMARK  status: ('A' for Active; 'I' for Inactive)
ROOT
ATOM      1  C   UNL d   1      -0.692  -3.650  -0.309  0.00  0.00    -0.002 A 
ATOM      2  C1  UNL d   1      -0.070  -3.219  -1.472  0.00  0.00     0.010 A 
ATOM      3  C2  UNL d   1       0.291  -1.879  -1.629  0.00  0.00     0.041 A 
ATOM      4  C3  UNL d   1       0.014  -0.972  -0.588  0.00  0.00    -0.075 A 
ATOM      5  S   UNL d   1       0.366   0.716  -0.559  0.00  0.00     0.015 SA
ATOM      6  C4  UNL d   1      -0.301   0.904   0.999  0.00  0.00     0.022 A 
ATOM      7  C5  UNL d   1      -0.785  -0.281   1.499  0.00  0.00     0.026 A 
ATOM      8  C6  UNL d   1      -0.611  -1.382   0.593  0.00  0.00    -0.082 A 
ATOM      9  C7  UNL d   1      -0.965  -2.747   0.722  0.00  0.00     0.045 A 
ENDROOT
TORSDOF 0
ENDMDL
