MODEL 1
REMARK minimizedAffinity -1.2646364
REMARK minimizedRMSD -1
REMARK  0 active torsions:
REMARK  status: ('A' for Active; 'I' for Inactive)
ROOT
ATOM      1  C   UNL d   1       2.197   3.981   1.120  0.00  0.00    -0.002 A 
ATOM      2  C1  UNL d   1       0.982   4.573   0.806  0.00  0.00     0.010 A 
ATOM      3  C2  UNL d   1      -0.088   3.801   0.349  0.00  0.00     0.041 A 
ATOM      4  C3  UNL d   1       0.085   2.409   0.214  0.00  0.00    -0.075 A 
ATOM      5  S   UNL d   1      -1.085   1.264  -0.326  0.00  0.00     0.015 SA
ATOM      6  C4  UNL d   1       0.000  -0.039  -0.151  0.00  0.00     0.022 A 
ATOM      7  C5  UNL d   1       1.230   0.372   0.306  0.00  0.00     0.026 A 
ATOM      8  C6  UNL d   1       1.299   1.790   0.525  0.00  0.00    -0.082 A 
ATOM      9  C7  UNL d   1       2.365   2.600   0.984  0.00  0.00     0.045 A 
ENDROOT
TORSDOF 0
ENDMDL
