MODEL 1
REMARK minimizedAffinity -2.07179618
REMARK minimizedRMSD -1
REMARK  2 active torsions:
REMARK  status: ('A' for Active; 'I' for Inactive)
REMARK    1  A    between atoms: C1_2  and  C2_3 
REMARK    2  A    between atoms: C2_3  and  C3_4 
ROOT
ATOM      1  C3  UNL d   1       0.229   0.805   1.751  0.00  0.00    -0.075 A 
ATOM      2  C4  UNL d   1       0.810   2.081   1.785  0.00  0.00     0.002 A 
ATOM      3  C5  UNL d   1       0.509   2.969   2.818  0.00  0.00     0.002 A 
ATOM      4  C6  UNL d   1      -0.382   2.597   3.823  0.00  0.00    -0.004 A 
ATOM      5  C7  UNL d   1      -0.977   1.338   3.790  0.00  0.00     0.002 A 
ATOM      6  C8  UNL d   1      -0.675   0.446   2.760  0.00  0.00     0.002 A 
ENDROOT
BRANCH   1   7
ATOM      7  C2  UNL d   1       0.572  -0.172   0.652  0.00  0.00     0.056 C 
BRANCH   7   8
ATOM      8  C1  UNL d   1       2.074  -0.292   0.372  0.00  0.00     0.007 C 
ATOM      9  C   UNL d   1       2.866  -0.816   1.562  0.00  0.00     0.009 C 
ENDBRANCH   7   8
ENDBRANCH   1   7
TORSDOF 2
ENDMDL
