MODEL 1
REMARK minimizedAffinity -4.21119928
REMARK minimizedRMSD -1
REMARK  2 active torsions:
REMARK  status: ('A' for Active; 'I' for Inactive)
REMARK    1  A    between atoms: C1_2  and  C2_3 
REMARK    2  A    between atoms: C2_3  and  C3_4 
ROOT
ATOM      1  C3  UNL d   1       1.236   0.528  -1.252  0.00  0.00    -0.075 A 
ATOM      2  C4  UNL d   1       2.367   1.355  -1.317  0.00  0.00     0.002 A 
ATOM      3  C5  UNL d   1       2.755   1.931  -2.528  0.00  0.00     0.002 A 
ATOM      4  C6  UNL d   1       2.025   1.679  -3.688  0.00  0.00    -0.004 A 
ATOM      5  C7  UNL d   1       0.910   0.846  -3.638  0.00  0.00     0.002 A 
ATOM      6  C8  UNL d   1       0.517   0.272  -2.428  0.00  0.00     0.002 A 
ENDROOT
BRANCH   1   7
ATOM      7  C2  UNL d   1       0.794  -0.074   0.060  0.00  0.00     0.056 C 
BRANCH   7   8
ATOM      8  C1  UNL d   1      -0.650  -0.587   0.055  0.00  0.00     0.007 C 
ATOM      9  C   UNL d   1      -1.646   0.418   0.618  0.00  0.00     0.009 C 
ENDBRANCH   7   8
ENDBRANCH   1   7
TORSDOF 2
ENDMDL
