MODEL 1
REMARK minimizedAffinity -3.45210814
REMARK minimizedRMSD -1
REMARK  2 active torsions:
REMARK  status: ('A' for Active; 'I' for Inactive)
REMARK    1  A    between atoms: C1_2  and  C2_3 
REMARK    2  A    between atoms: C2_3  and  C3_4 
ROOT
ATOM      1  C3  UNL d   1       0.021  -0.417  -0.679  0.00  0.00    -0.075 A 
ATOM      2  C4  UNL d   1      -1.357  -0.205  -0.526  0.00  0.00     0.002 A 
ATOM      3  C5  UNL d   1      -1.864   0.332   0.657  0.00  0.00     0.002 A 
ATOM      4  C6  UNL d   1      -1.004   0.653   1.705  0.00  0.00    -0.004 A 
ATOM      5  C7  UNL d   1       0.364   0.431   1.571  0.00  0.00     0.002 A 
ATOM      6  C8  UNL d   1       0.876  -0.101   0.386  0.00  0.00     0.002 A 
ENDROOT
BRANCH   1   7
ATOM      7  C2  UNL d   1       0.580  -0.970  -1.968  0.00  0.00     0.056 C 
BRANCH   7   8
ATOM      8  C1  UNL d   1       0.442  -0.022  -3.164  0.00  0.00     0.007 C 
ATOM      9  C   UNL d   1       0.425  -0.746  -4.504  0.00  0.00     0.009 C 
ENDBRANCH   7   8
ENDBRANCH   1   7
TORSDOF 2
ENDMDL
