MODEL 1
REMARK minimizedAffinity 0.876338661
REMARK minimizedRMSD -1
REMARK  2 active torsions:
REMARK  status: ('A' for Active; 'I' for Inactive)
REMARK    1  A    between atoms: C1_2  and  C2_3 
REMARK    2  A    between atoms: C2_3  and  C3_4 
ROOT
ATOM      1  C3  UNL d   1      -2.646  -1.375   0.054  0.00  0.00    -0.075 A 
ATOM      2  C4  UNL d   1      -3.120  -0.152   0.550  0.00  0.00     0.002 A 
ATOM      3  C5  UNL d   1      -2.234   0.886   0.840  0.00  0.00     0.002 A 
ATOM      4  C6  UNL d   1      -0.866   0.712   0.648  0.00  0.00    -0.004 A 
ATOM      5  C7  UNL d   1      -0.382  -0.504   0.171  0.00  0.00     0.002 A 
ATOM      6  C8  UNL d   1      -1.266  -1.543  -0.125  0.00  0.00     0.002 A 
ENDROOT
BRANCH   1   7
ATOM      7  C2  UNL d   1      -3.602  -2.492  -0.290  0.00  0.00     0.056 C 
BRANCH   7   8
ATOM      8  C1  UNL d   1      -4.860  -2.030  -1.032  0.00  0.00     0.007 C 
ATOM      9  C   UNL d   1      -5.482  -3.119  -1.896  0.00  0.00     0.009 C 
ENDBRANCH   7   8
ENDBRANCH   1   7
TORSDOF 2
ENDMDL
