MODEL 1
REMARK minimizedAffinity -1.48347068
REMARK minimizedRMSD -1
REMARK  2 active torsions:
REMARK  status: ('A' for Active; 'I' for Inactive)
REMARK    1  A    between atoms: C1_2  and  C2_3 
REMARK    2  A    between atoms: C2_3  and  C3_4 
ROOT
ATOM      1  C3  UNL d   1       0.746   0.135  -1.651  0.00  0.00    -0.075 A 
ATOM      2  C4  UNL d   1       1.920   0.901  -1.658  0.00  0.00     0.002 A 
ATOM      3  C5  UNL d   1       2.395   1.459  -2.846  0.00  0.00     0.002 A 
ATOM      4  C6  UNL d   1       1.709   1.249  -4.040  0.00  0.00    -0.004 A 
ATOM      5  C7  UNL d   1       0.551   0.475  -4.048  0.00  0.00     0.002 A 
ATOM      6  C8  UNL d   1       0.071  -0.080  -2.860  0.00  0.00     0.002 A 
ENDROOT
BRANCH   1   7
ATOM      7  C2  UNL d   1       0.210  -0.447  -0.364  0.00  0.00     0.056 C 
BRANCH   7   8
ATOM      8  C1  UNL d   1       1.118  -1.509   0.265  0.00  0.00     0.007 C 
ATOM      9  C   UNL d   1       2.274  -0.916   1.060  0.00  0.00     0.009 C 
ENDBRANCH   7   8
ENDBRANCH   1   7
TORSDOF 2
ENDMDL
