MODEL 1
REMARK minimizedAffinity -0.0201703794
REMARK minimizedRMSD -1
REMARK  0 active torsions:
REMARK  status: ('A' for Active; 'I' for Inactive)
ROOT
ATOM      1  C   UNL d   1       1.375  -1.211  -2.660  0.00  0.00     0.124 A 
ATOM      2  C1  UNL d   1       0.918   0.074  -2.404  0.00  0.00     0.062 A 
ATOM      3  C2  UNL d   1       0.509   0.429  -1.122  0.00  0.00     0.162 A 
ATOM      4  C3  UNL d   1       0.556  -0.503  -0.085  0.00  0.00    -0.034 A 
ATOM      5  C4  UNL d   1       1.016  -1.794  -0.351  0.00  0.00     0.162 A 
ATOM      6  C5  UNL d   1       1.424  -2.143  -1.634  0.00  0.00     0.062 A 
ATOM      7  F   UNL d   1       1.866  -3.385  -1.879  0.00  0.00    -0.097 F 
ATOM      8  F1  UNL d   1       1.075  -2.714   0.623  0.00  0.00    -0.096 F 
ATOM      9  I   UNL d   1      -0.055   0.024   1.834  0.00  0.00    -0.060 I 
ATOM     10  F2  UNL d   1       0.071   1.678  -0.903  0.00  0.00    -0.096 F 
ATOM     11  F3  UNL d   1       0.869   0.977  -3.394  0.00  0.00    -0.097 F 
ATOM     12  F4  UNL d   1       1.767  -1.550  -3.895  0.00  0.00    -0.092 F 
ENDROOT
TORSDOF 0
ENDMDL
