MODEL 1
REMARK minimizedAffinity 2.02846408
REMARK minimizedRMSD -1
REMARK  0 active torsions:
REMARK  status: ('A' for Active; 'I' for Inactive)
ROOT
ATOM      1  C   UNL d   1      -0.938   0.837   1.843  0.00  0.00     0.124 A 
ATOM      2  C1  UNL d   1      -1.677   0.773   0.670  0.00  0.00     0.062 A 
ATOM      3  C2  UNL d   1      -1.047   0.492  -0.539  0.00  0.00     0.162 A 
ATOM      4  C3  UNL d   1       0.330   0.273  -0.582  0.00  0.00    -0.034 A 
ATOM      5  C4  UNL d   1       1.067   0.341   0.602  0.00  0.00     0.162 A 
ATOM      6  C5  UNL d   1       0.433   0.622   1.808  0.00  0.00     0.062 A 
ATOM      7  F   UNL d   1       1.148   0.684   2.941  0.00  0.00    -0.097 F 
ATOM      8  F1  UNL d   1       2.392   0.136   0.597  0.00  0.00    -0.096 F 
ATOM      9  I   UNL d   1       1.275  -0.146  -2.388  0.00  0.00    -0.060 I 
ATOM     10  F2  UNL d   1      -1.786   0.436  -1.657  0.00  0.00    -0.096 F 
ATOM     11  F3  UNL d   1      -3.001   0.982   0.701  0.00  0.00    -0.097 F 
ATOM     12  F4  UNL d   1      -1.546   1.108   3.005  0.00  0.00    -0.092 F 
ENDROOT
TORSDOF 0
ENDMDL
