MODEL 1
REMARK minimizedAffinity 4.74693632
REMARK minimizedRMSD -1
REMARK  0 active torsions:
REMARK  status: ('A' for Active; 'I' for Inactive)
ROOT
ATOM      1  C   UNL d   1      -0.813   0.619   1.753  0.00  0.00     0.124 A 
ATOM      2  C1  UNL d   1      -1.538   0.592   0.570  0.00  0.00     0.062 A 
ATOM      3  C2  UNL d   1      -0.900   0.316  -0.636  0.00  0.00     0.162 A 
ATOM      4  C3  UNL d   1       0.472   0.064  -0.664  0.00  0.00    -0.034 A 
ATOM      5  C4  UNL d   1       1.195   0.095   0.530  0.00  0.00     0.162 A 
ATOM      6  C5  UNL d   1       0.552   0.371   1.732  0.00  0.00     0.062 A 
ATOM      7  F   UNL d   1       1.254   0.397   2.874  0.00  0.00    -0.097 F 
ATOM      8  F1  UNL d   1       2.515  -0.143   0.538  0.00  0.00    -0.096 F 
ATOM      9  I   UNL d   1       1.430  -0.349  -2.465  0.00  0.00    -0.060 I 
ATOM     10  F2  UNL d   1      -1.625   0.296  -1.764  0.00  0.00    -0.096 F 
ATOM     11  F3  UNL d   1      -2.857   0.833   0.588  0.00  0.00    -0.097 F 
ATOM     12  F4  UNL d   1      -1.429   0.886   2.912  0.00  0.00    -0.092 F 
ENDROOT
TORSDOF 0
ENDMDL
