MODEL 1
REMARK minimizedAffinity -3.24167728
REMARK minimizedRMSD -1
REMARK  0 active torsions:
REMARK  status: ('A' for Active; 'I' for Inactive)
ROOT
ATOM      1  C   UNL d   1      -0.682   0.241   1.731  0.00  0.00     0.124 A 
ATOM      2  C1  UNL d   1       0.641  -0.170   1.641  0.00  0.00     0.062 A 
ATOM      3  C2  UNL d   1       1.194  -0.482   0.403  0.00  0.00     0.162 A 
ATOM      4  C3  UNL d   1       0.426  -0.382  -0.757  0.00  0.00    -0.034 A 
ATOM      5  C4  UNL d   1      -0.904   0.032  -0.658  0.00  0.00     0.162 A 
ATOM      6  C5  UNL d   1      -1.453   0.342   0.582  0.00  0.00     0.062 A 
ATOM      7  F   UNL d   1      -2.731   0.739   0.667  0.00  0.00    -0.097 F 
ATOM      8  F1  UNL d   1      -1.672   0.139  -1.753  0.00  0.00    -0.096 F 
ATOM      9  I   UNL d   1       1.249  -0.847  -2.611  0.00  0.00    -0.060 I 
ATOM     10  F2  UNL d   1       2.475  -0.877   0.346  0.00  0.00    -0.096 F 
ATOM     11  F3  UNL d   1       1.388  -0.269   2.751  0.00  0.00    -0.097 F 
ATOM     12  F4  UNL d   1      -1.212   0.540   2.924  0.00  0.00    -0.092 F 
ENDROOT
TORSDOF 0
ENDMDL
