MODEL 1
REMARK minimizedAffinity 2.80790663
REMARK minimizedRMSD -1
REMARK  0 active torsions:
REMARK  status: ('A' for Active; 'I' for Inactive)
ROOT
ATOM      1  C   UNL d   1      -0.743   0.367   1.661  0.00  0.00     0.124 A 
ATOM      2  C1  UNL d   1       0.610   0.065   1.608  0.00  0.00     0.062 A 
ATOM      3  C2  UNL d   1       1.263  -0.011   0.382  0.00  0.00     0.162 A 
ATOM      4  C3  UNL d   1       0.564   0.218  -0.803  0.00  0.00    -0.034 A 
ATOM      5  C4  UNL d   1      -0.797   0.521  -0.742  0.00  0.00     0.162 A 
ATOM      6  C5  UNL d   1      -1.446   0.595   0.486  0.00  0.00     0.062 A 
ATOM      7  F   UNL d   1      -2.753   0.888   0.535  0.00  0.00    -0.097 F 
ATOM      8  F1  UNL d   1      -1.500   0.747  -1.862  0.00  0.00    -0.096 F 
ATOM      9  I   UNL d   1       1.537   0.106  -2.640  0.00  0.00    -0.060 I 
ATOM     10  F2  UNL d   1       2.572  -0.305   0.361  0.00  0.00    -0.096 F 
ATOM     11  F3  UNL d   1       1.291  -0.157   2.742  0.00  0.00    -0.097 F 
ATOM     12  F4  UNL d   1      -1.370   0.438   2.843  0.00  0.00    -0.092 F 
ENDROOT
TORSDOF 0
ENDMDL
