MODEL 1
REMARK minimizedAffinity -0.00394125329
REMARK minimizedRMSD -1
REMARK  0 active torsions:
REMARK  status: ('A' for Active; 'I' for Inactive)
ROOT
ATOM      1  C   UNL d   1       0.314   0.482   1.678  0.00  0.00     0.124 A 
ATOM      2  C1  UNL d   1      -0.790  -0.286   1.336  0.00  0.00     0.062 A 
ATOM      3  C2  UNL d   1      -0.906  -0.815   0.054  0.00  0.00     0.162 A 
ATOM      4  C3  UNL d   1       0.088  -0.580  -0.897  0.00  0.00    -0.034 A 
ATOM      5  C4  UNL d   1       1.196   0.194  -0.546  0.00  0.00     0.162 A 
ATOM      6  C5  UNL d   1       1.306   0.721   0.737  0.00  0.00     0.062 A 
ATOM      7  F   UNL d   1       2.374   1.462   1.065  0.00  0.00    -0.097 F 
ATOM      8  F1  UNL d   1       2.169   0.440  -1.435  0.00  0.00    -0.096 F 
ATOM      9  I   UNL d   1      -0.081  -1.369  -2.815  0.00  0.00    -0.060 I 
ATOM     10  F2  UNL d   1      -1.984  -1.553  -0.249  0.00  0.00    -0.096 F 
ATOM     11  F3  UNL d   1      -1.750  -0.518   2.243  0.00  0.00    -0.097 F 
ATOM     12  F4  UNL d   1       0.422   0.990   2.912  0.00  0.00    -0.092 F 
ENDROOT
TORSDOF 0
ENDMDL
