MODEL 1
REMARK minimizedAffinity -1.17984772
REMARK minimizedRMSD -1
REMARK  0 active torsions:
REMARK  status: ('A' for Active; 'I' for Inactive)
ROOT
ATOM      1  C   UNL d   1      -1.028   0.242   1.882  0.00  0.00     0.124 A 
ATOM      2  C1  UNL d   1       0.359   0.266   1.851  0.00  0.00     0.062 A 
ATOM      3  C2  UNL d   1       1.032   0.264   0.633  0.00  0.00     0.162 A 
ATOM      4  C3  UNL d   1       0.318   0.239  -0.566  0.00  0.00    -0.034 A 
ATOM      5  C4  UNL d   1      -1.077   0.214  -0.526  0.00  0.00     0.162 A 
ATOM      6  C5  UNL d   1      -1.745   0.216   0.694  0.00  0.00     0.062 A 
ATOM      7  F   UNL d   1      -3.085   0.193   0.722  0.00  0.00    -0.097 F 
ATOM      8  F1  UNL d   1      -1.794   0.189  -1.659  0.00  0.00    -0.096 F 
ATOM      9  I   UNL d   1       1.321   0.235  -2.389  0.00  0.00    -0.060 I 
ATOM     10  F2  UNL d   1       2.373   0.287   0.633  0.00  0.00    -0.096 F 
ATOM     11  F3  UNL d   1       1.054   0.290   2.998  0.00  0.00    -0.097 F 
ATOM     12  F4  UNL d   1      -1.673   0.243   3.056  0.00  0.00    -0.092 F 
ENDROOT
TORSDOF 0
ENDMDL
