MODEL 1
REMARK minimizedAffinity -1.82651711
REMARK minimizedRMSD -1
REMARK  0 active torsions:
REMARK  status: ('A' for Active; 'I' for Inactive)
ROOT
ATOM      1  C   UNL d   1      -1.225   0.452   2.225  0.00  0.00     0.124 A 
ATOM      2  C1  UNL d   1      -1.947   0.656   1.057  0.00  0.00     0.062 A 
ATOM      3  C2  UNL d   1      -1.306   0.618  -0.178  0.00  0.00     0.162 A 
ATOM      4  C3  UNL d   1       0.066   0.375  -0.252  0.00  0.00    -0.034 A 
ATOM      5  C4  UNL d   1       0.785   0.172   0.927  0.00  0.00     0.162 A 
ATOM      6  C5  UNL d   1       0.140   0.211   2.159  0.00  0.00     0.062 A 
ATOM      7  F   UNL d   1       0.839   0.014   3.286  0.00  0.00    -0.097 F 
ATOM      8  F1  UNL d   1       2.105  -0.064   0.893  0.00  0.00    -0.096 F 
ATOM      9  I   UNL d   1       1.028   0.318  -2.096  0.00  0.00    -0.060 I 
ATOM     10  F2  UNL d   1      -2.028   0.818  -1.290  0.00  0.00    -0.096 F 
ATOM     11  F3  UNL d   1      -3.266   0.890   1.118  0.00  0.00    -0.097 F 
ATOM     12  F4  UNL d   1      -1.845   0.490   3.412  0.00  0.00    -0.092 F 
ENDROOT
TORSDOF 0
ENDMDL
