MODEL 1
REMARK minimizedAffinity -1.99478102
REMARK minimizedRMSD -1
REMARK  0 active torsions:
REMARK  status: ('A' for Active; 'I' for Inactive)
ROOT
ATOM      1  C   UNL d   1      -1.368   0.313   2.025  0.00  0.00     0.124 A 
ATOM      2  C1  UNL d   1      -0.054  -0.135   2.008  0.00  0.00     0.062 A 
ATOM      3  C2  UNL d   1       0.627  -0.262   0.801  0.00  0.00     0.162 A 
ATOM      4  C3  UNL d   1      -0.005   0.059  -0.400  0.00  0.00    -0.034 A 
ATOM      5  C4  UNL d   1      -1.327   0.508  -0.376  0.00  0.00     0.162 A 
ATOM      6  C5  UNL d   1      -2.002   0.634   0.834  0.00  0.00     0.062 A 
ATOM      7  F   UNL d   1      -3.272   1.067   0.848  0.00  0.00    -0.097 F 
ATOM      8  F1  UNL d   1      -1.964   0.826  -1.512  0.00  0.00    -0.096 F 
ATOM      9  I   UNL d   1       1.009  -0.130  -2.208  0.00  0.00    -0.060 I 
ATOM     10  F2  UNL d   1       1.895  -0.698   0.815  0.00  0.00    -0.096 F 
ATOM     11  F3  UNL d   1       0.561  -0.446   3.158  0.00  0.00    -0.097 F 
ATOM     12  F4  UNL d   1      -2.020   0.434   3.188  0.00  0.00    -0.092 F 
ENDROOT
TORSDOF 0
ENDMDL
