MODEL 1
REMARK minimizedAffinity -5.18066978
REMARK minimizedRMSD -1
REMARK  0 active torsions:
REMARK  status: ('A' for Active; 'I' for Inactive)
ROOT
ATOM      1  C   UNL d   1      -0.323   0.897  -1.605  0.00  0.00     0.124 A 
ATOM      2  C1  UNL d   1       0.804   0.612  -0.847  0.00  0.00     0.062 A 
ATOM      3  C2  UNL d   1       0.671   0.142   0.457  0.00  0.00     0.162 A 
ATOM      4  C3  UNL d   1      -0.595  -0.047   1.011  0.00  0.00    -0.034 A 
ATOM      5  C4  UNL d   1      -1.724   0.242   0.242  0.00  0.00     0.162 A 
ATOM      6  C5  UNL d   1      -1.586   0.711  -1.060  0.00  0.00     0.062 A 
ATOM      7  F   UNL d   1      -2.676   0.986  -1.791  0.00  0.00    -0.097 F 
ATOM      8  F1  UNL d   1      -2.956   0.071   0.744  0.00  0.00    -0.096 F 
ATOM      9  I   UNL d   1      -0.799  -0.749   2.959  0.00  0.00    -0.060 I 
ATOM     10  F2  UNL d   1       1.778  -0.124   1.166  0.00  0.00    -0.096 F 
ATOM     11  F3  UNL d   1       2.026   0.791  -1.370  0.00  0.00    -0.097 F 
ATOM     12  F4  UNL d   1      -0.192   1.349  -2.858  0.00  0.00    -0.092 F 
ENDROOT
TORSDOF 0
ENDMDL
