MODEL 1
REMARK minimizedAffinity -0.423862606
REMARK minimizedRMSD -1
REMARK  0 active torsions:
REMARK  status: ('A' for Active; 'I' for Inactive)
ROOT
ATOM      1  C   UNL d   1      -1.343   0.677   2.201  0.00  0.00     0.124 A 
ATOM      2  C1  UNL d   1       0.033   0.515   2.112  0.00  0.00     0.062 A 
ATOM      3  C2  UNL d   1       0.632   0.285   0.877  0.00  0.00     0.162 A 
ATOM      4  C3  UNL d   1      -0.144   0.216  -0.280  0.00  0.00    -0.034 A 
ATOM      5  C4  UNL d   1      -1.527   0.379  -0.183  0.00  0.00     0.162 A 
ATOM      6  C5  UNL d   1      -2.121   0.608   1.054  0.00  0.00     0.062 A 
ATOM      7  F   UNL d   1      -3.451   0.764   1.138  0.00  0.00    -0.097 F 
ATOM      8  F1  UNL d   1      -2.303   0.318  -1.275  0.00  0.00    -0.096 F 
ATOM      9  I   UNL d   1       0.749  -0.127  -2.129  0.00  0.00    -0.060 I 
ATOM     10  F2  UNL d   1       1.964   0.133   0.821  0.00  0.00    -0.096 F 
ATOM     11  F3  UNL d   1       0.787   0.580   3.219  0.00  0.00    -0.097 F 
ATOM     12  F4  UNL d   1      -1.917   0.897   3.390  0.00  0.00    -0.092 F 
ENDROOT
TORSDOF 0
ENDMDL
