MODEL 1
REMARK minimizedAffinity -3.61949587
REMARK minimizedRMSD -1
REMARK  0 active torsions:
REMARK  status: ('A' for Active; 'I' for Inactive)
ROOT
ATOM      1  C   UNL d   1      -0.904   0.600   1.884  0.00  0.00     0.124 A 
ATOM      2  C1  UNL d   1       0.443   0.278   1.794  0.00  0.00     0.062 A 
ATOM      3  C2  UNL d   1       1.035   0.084   0.549  0.00  0.00     0.162 A 
ATOM      4  C3  UNL d   1       0.279   0.211  -0.616  0.00  0.00    -0.034 A 
ATOM      5  C4  UNL d   1      -1.075   0.533  -0.518  0.00  0.00     0.162 A 
ATOM      6  C5  UNL d   1      -1.662   0.726   0.729  0.00  0.00     0.062 A 
ATOM      7  F   UNL d   1      -2.964   1.036   0.814  0.00  0.00    -0.097 F 
ATOM      8  F1  UNL d   1      -1.831   0.662  -1.618  0.00  0.00    -0.096 F 
ATOM      9  I   UNL d   1       1.160  -0.080  -2.479  0.00  0.00    -0.060 I 
ATOM     10  F2  UNL d   1       2.339  -0.226   0.492  0.00  0.00    -0.096 F 
ATOM     11  F3  UNL d   1       1.178   0.154   2.909  0.00  0.00    -0.097 F 
ATOM     12  F4  UNL d   1      -1.471   0.785   3.083  0.00  0.00    -0.092 F 
ENDROOT
TORSDOF 0
ENDMDL
