MODEL 1
REMARK minimizedAffinity -1.3828181
REMARK minimizedRMSD -1
REMARK  0 active torsions:
REMARK  status: ('A' for Active; 'I' for Inactive)
ROOT
ATOM      1  C   UNL d   1      -0.921   0.634   1.899  0.00  0.00     0.124 A 
ATOM      2  C1  UNL d   1       0.388   0.176   1.832  0.00  0.00     0.062 A 
ATOM      3  C2  UNL d   1       0.966  -0.113   0.599  0.00  0.00     0.162 A 
ATOM      4  C3  UNL d   1       0.236   0.056  -0.578  0.00  0.00    -0.034 A 
ATOM      5  C4  UNL d   1      -1.080   0.516  -0.502  0.00  0.00     0.162 A 
ATOM      6  C5  UNL d   1      -1.653   0.803   0.732  0.00  0.00     0.062 A 
ATOM      7  F   UNL d   1      -2.918   1.246   0.795  0.00  0.00    -0.097 F 
ATOM      8  F1  UNL d   1      -1.810   0.690  -1.614  0.00  0.00    -0.096 F 
ATOM      9  I   UNL d   1       1.096  -0.376  -2.423  0.00  0.00    -0.060 I 
ATOM     10  F2  UNL d   1       2.232  -0.554   0.564  0.00  0.00    -0.096 F 
ATOM     11  F3  UNL d   1       1.097   0.010   2.957  0.00  0.00    -0.097 F 
ATOM     12  F4  UNL d   1      -1.475   0.910   3.086  0.00  0.00    -0.092 F 
ENDROOT
TORSDOF 0
ENDMDL
