MODEL 1
REMARK minimizedAffinity -2.69913244
REMARK minimizedRMSD -1
REMARK  0 active torsions:
REMARK  status: ('A' for Active; 'I' for Inactive)
ROOT
ATOM      1  C   UNL d   1      -1.277   0.055   1.927  0.00  0.00     0.124 A 
ATOM      2  C1  UNL d   1      -1.978   0.418   0.786  0.00  0.00     0.062 A 
ATOM      3  C2  UNL d   1      -1.376   0.322  -0.466  0.00  0.00     0.162 A 
ATOM      4  C3  UNL d   1      -0.065  -0.140  -0.583  0.00  0.00    -0.034 A 
ATOM      5  C4  UNL d   1       0.634  -0.502   0.570  0.00  0.00     0.162 A 
ATOM      6  C5  UNL d   1       0.028  -0.405   1.818  0.00  0.00     0.062 A 
ATOM      7  F   UNL d   1       0.708  -0.756   2.920  0.00  0.00    -0.097 F 
ATOM      8  F1  UNL d   1       1.896  -0.951   0.494  0.00  0.00    -0.096 F 
ATOM      9  I   UNL d   1       0.838  -0.285  -2.452  0.00  0.00    -0.060 I 
ATOM     10  F2  UNL d   1      -2.078   0.680  -1.551  0.00  0.00    -0.096 F 
ATOM     11  F3  UNL d   1      -3.238   0.863   0.889  0.00  0.00    -0.097 F 
ATOM     12  F4  UNL d   1      -1.858   0.149   3.130  0.00  0.00    -0.092 F 
ENDROOT
TORSDOF 0
ENDMDL
