MODEL 1
REMARK minimizedAffinity 5.35489845
REMARK minimizedRMSD -1
REMARK  0 active torsions:
REMARK  status: ('A' for Active; 'I' for Inactive)
ROOT
ATOM      1  C   UNL d   1      -0.362   0.137   2.143  0.00  0.00     0.124 A 
ATOM      2  C1  UNL d   1      -1.462   0.528   1.392  0.00  0.00     0.062 A 
ATOM      3  C2  UNL d   1      -1.394   0.533   0.002  0.00  0.00     0.162 A 
ATOM      4  C3  UNL d   1      -0.222   0.144  -0.647  0.00  0.00    -0.034 A 
ATOM      5  C4  UNL d   1       0.880  -0.247   0.115  0.00  0.00     0.162 A 
ATOM      6  C5  UNL d   1       0.808  -0.250   1.504  0.00  0.00     0.062 A 
ATOM      7  F   UNL d   1       1.871  -0.628   2.228  0.00  0.00    -0.097 F 
ATOM      8  F1  UNL d   1       2.023  -0.626  -0.477  0.00  0.00    -0.096 F 
ATOM      9  I   UNL d   1      -0.117   0.150  -2.725  0.00  0.00    -0.060 I 
ATOM     10  F2  UNL d   1      -2.472   0.915  -0.698  0.00  0.00    -0.096 F 
ATOM     11  F3  UNL d   1      -2.593   0.903   2.007  0.00  0.00    -0.097 F 
ATOM     12  F4  UNL d   1      -0.429   0.134   3.481  0.00  0.00    -0.092 F 
ENDROOT
TORSDOF 0
ENDMDL
