MODEL 1
REMARK minimizedAffinity 6.60678959
REMARK minimizedRMSD -1
REMARK  0 active torsions:
REMARK  status: ('A' for Active; 'I' for Inactive)
ROOT
ATOM      1  C   UNL d   1       1.037   1.412  -4.134  0.00  0.00     0.124 A 
ATOM      2  C1  UNL d   1       1.749   1.724  -2.984  0.00  0.00     0.062 A 
ATOM      3  C2  UNL d   1       1.491   1.048  -1.795  0.00  0.00     0.162 A 
ATOM      4  C3  UNL d   1       0.517   0.050  -1.750  0.00  0.00    -0.034 A 
ATOM      5  C4  UNL d   1      -0.196  -0.258  -2.910  0.00  0.00     0.162 A 
ATOM      6  C5  UNL d   1       0.065   0.421  -4.096  0.00  0.00     0.062 A 
ATOM      7  F   UNL d   1      -0.624   0.118  -5.205  0.00  0.00    -0.097 F 
ATOM      8  F1  UNL d   1      -1.139  -1.211  -2.902  0.00  0.00    -0.096 F 
ATOM      9  I   UNL d   1       0.129  -0.964   0.026  0.00  0.00    -0.060 I 
ATOM     10  F2  UNL d   1       2.195   1.371  -0.700  0.00  0.00    -0.096 F 
ATOM     11  F3  UNL d   1       2.687   2.681  -3.018  0.00  0.00    -0.097 F 
ATOM     12  F4  UNL d   1       1.286   2.065  -5.276  0.00  0.00    -0.092 F 
ENDROOT
TORSDOF 0
ENDMDL
