MODEL 1
REMARK minimizedAffinity 3.55898809
REMARK minimizedRMSD -1
REMARK  0 active torsions:
REMARK  status: ('A' for Active; 'I' for Inactive)
ROOT
ATOM      1  C   UNL d   1      -1.818   0.813   2.204  0.00  0.00     0.124 A 
ATOM      2  C1  UNL d   1      -0.785   0.767   3.129  0.00  0.00     0.062 A 
ATOM      3  C2  UNL d   1       0.468   0.288   2.757  0.00  0.00     0.162 A 
ATOM      4  C3  UNL d   1       0.695  -0.149   1.451  0.00  0.00    -0.034 A 
ATOM      5  C4  UNL d   1      -0.350  -0.101   0.527  0.00  0.00     0.162 A 
ATOM      6  C5  UNL d   1      -1.600   0.379   0.904  0.00  0.00     0.062 A 
ATOM      7  F   UNL d   1      -2.597   0.422   0.008  0.00  0.00    -0.097 F 
ATOM      8  F1  UNL d   1      -0.166  -0.513  -0.737  0.00  0.00    -0.096 F 
ATOM      9  I   UNL d   1       2.566  -0.867   0.891  0.00  0.00    -0.060 I 
ATOM     10  F2  UNL d   1       1.448   0.255   3.672  0.00  0.00    -0.096 F 
ATOM     11  F3  UNL d   1      -0.993   1.185   4.386  0.00  0.00    -0.097 F 
ATOM     12  F4  UNL d   1      -3.022   1.273   2.565  0.00  0.00    -0.092 F 
ENDROOT
TORSDOF 0
ENDMDL
