MODEL 1
REMARK minimizedAffinity 2.4200542
REMARK minimizedRMSD -1
REMARK  0 active torsions:
REMARK  status: ('A' for Active; 'I' for Inactive)
ROOT
ATOM      1  C   UNL d   1      -0.110  -0.170   2.994  0.00  0.00     0.124 A 
ATOM      2  C1  UNL d   1      -1.190   0.120   2.172  0.00  0.00     0.062 A 
ATOM      3  C2  UNL d   1      -1.047   0.078   0.788  0.00  0.00     0.162 A 
ATOM      4  C3  UNL d   1       0.182  -0.256   0.217  0.00  0.00    -0.034 A 
ATOM      5  C4  UNL d   1       1.263  -0.545   1.051  0.00  0.00     0.162 A 
ATOM      6  C5  UNL d   1       1.115  -0.502   2.433  0.00  0.00     0.062 A 
ATOM      7  F   UNL d   1       2.160  -0.782   3.226  0.00  0.00    -0.097 F 
ATOM      8  F1  UNL d   1       2.458  -0.870   0.535  0.00  0.00    -0.096 F 
ATOM      9  I   UNL d   1       0.400  -0.319  -1.852  0.00  0.00    -0.060 I 
ATOM     10  F2  UNL d   1      -2.107   0.363   0.017  0.00  0.00    -0.096 F 
ATOM     11  F3  UNL d   1      -2.374   0.442   2.711  0.00  0.00    -0.097 F 
ATOM     12  F4  UNL d   1      -0.250  -0.128   4.325  0.00  0.00    -0.092 F 
ENDROOT
TORSDOF 0
ENDMDL
