MODEL 1
REMARK minimizedAffinity -4.45388508
REMARK minimizedRMSD -1
REMARK  0 active torsions:
REMARK  status: ('A' for Active; 'I' for Inactive)
ROOT
ATOM      1  C2' OXE d   1      -4.080   0.468   1.649  0.00  0.00     0.078 C 
ATOM      2  C1' OXE d   1      -1.320   0.503   2.161  0.00  0.00     0.078 C 
ATOM      3  C1  OXE d   1      -2.194   1.444   2.951  0.00  0.00    -0.078 A 
ATOM      4  C2  OXE d   1      -3.537   1.453   2.661  0.00  0.00    -0.078 A 
ATOM      5  C3  OXE d   1      -4.396   2.263   3.398  0.00  0.00     0.003 A 
ATOM      6  C4  OXE d   1      -3.885   3.179   4.326  0.00  0.00    -0.002 A 
ATOM      7  C5  OXE d   1      -2.516   3.214   4.608  0.00  0.00    -0.002 A 
ATOM      8  C6  OXE d   1      -1.664   2.326   3.961  0.00  0.00     0.003 A 
ENDROOT
TORSDOF 0
ENDMDL
