MODEL 1
REMARK minimizedAffinity -2.23200536
REMARK minimizedRMSD -1
REMARK  0 active torsions:
REMARK  status: ('A' for Active; 'I' for Inactive)
ROOT
ATOM      1  C2' OXE d   1       0.044  -2.522  -1.490  0.00  0.00     0.078 C 
ATOM      2  C1' OXE d   1       1.239  -0.227  -2.579  0.00  0.00     0.078 C 
ATOM      3  C1  OXE d   1       0.574  -0.102  -1.231  0.00  0.00    -0.078 A 
ATOM      4  C2  OXE d   1      -0.049  -1.218  -0.727  0.00  0.00    -0.078 A 
ATOM      5  C3  OXE d   1      -0.630  -1.172   0.537  0.00  0.00     0.003 A 
ATOM      6  C4  OXE d   1      -0.720   0.040   1.231  0.00  0.00    -0.002 A 
ATOM      7  C5  OXE d   1      -0.128   1.198   0.718  0.00  0.00    -0.002 A 
ATOM      8  C6  OXE d   1       0.558   1.135  -0.490  0.00  0.00     0.003 A 
ENDROOT
TORSDOF 0
ENDMDL
