MODEL 1
REMARK minimizedAffinity -2.60882306
REMARK minimizedRMSD -1
REMARK  0 active torsions:
REMARK  status: ('A' for Active; 'I' for Inactive)
ROOT
ATOM      1  C2' OXE d   1      -0.520  -1.449   0.200  0.00  0.00     0.078 C 
ATOM      2  C1' OXE d   1       0.449   1.055   1.021  0.00  0.00     0.078 C 
ATOM      3  C1  OXE d   1      -0.916   0.635   1.507  0.00  0.00    -0.078 A 
ATOM      4  C2  OXE d   1      -1.402  -0.571   1.063  0.00  0.00    -0.078 A 
ATOM      5  C3  OXE d   1      -2.632  -1.031   1.524  0.00  0.00     0.003 A 
ATOM      6  C4  OXE d   1      -3.445  -0.210   2.314  0.00  0.00    -0.002 A 
ATOM      7  C5  OXE d   1      -2.986   1.039   2.746  0.00  0.00    -0.002 A 
ATOM      8  C6  OXE d   1      -1.709   1.457   2.387  0.00  0.00     0.003 A 
ENDROOT
TORSDOF 0
ENDMDL
