MODEL 1
REMARK minimizedAffinity 0.098894842
REMARK minimizedRMSD -1
REMARK  0 active torsions:
REMARK  status: ('A' for Active; 'I' for Inactive)
ROOT
ATOM      1  C2' OXE d   1      -0.684   0.208   0.975  0.00  0.00     0.078 C 
ATOM      2  C1' OXE d   1       0.247   2.633  -0.090  0.00  0.00     0.078 C 
ATOM      3  C1  OXE d   1       0.865   1.356  -0.602  0.00  0.00    -0.078 A 
ATOM      4  C2  OXE d   1       0.437   0.177  -0.042  0.00  0.00    -0.078 A 
ATOM      5  C3  OXE d   1       0.935  -1.033  -0.516  0.00  0.00     0.003 A 
ATOM      6  C4  OXE d   1       1.978  -1.053  -1.450  0.00  0.00    -0.002 A 
ATOM      7  C5  OXE d   1       2.457   0.139  -2.004  0.00  0.00    -0.002 A 
ATOM      8  C6  OXE d   1       1.883   1.347  -1.623  0.00  0.00     0.003 A 
ENDROOT
TORSDOF 0
ENDMDL
