MODEL 1
REMARK minimizedAffinity 3.54896092
REMARK minimizedRMSD -1
REMARK  0 active torsions:
REMARK  status: ('A' for Active; 'I' for Inactive)
ROOT
ATOM      1  C2' OXE d   1      -1.287   0.316   1.439  0.00  0.00     0.078 C 
ATOM      2  C1' OXE d   1      -0.101  -1.947   0.278  0.00  0.00     0.078 C 
ATOM      3  C1  OXE d   1       0.489  -0.598  -0.049  0.00  0.00    -0.078 A 
ATOM      4  C2  OXE d   1      -0.127   0.508   0.487  0.00  0.00    -0.078 A 
ATOM      5  C3  OXE d   1       0.409   1.772   0.262  0.00  0.00     0.003 A 
ATOM      6  C4  OXE d   1       1.477   1.941  -0.629  0.00  0.00    -0.002 A 
ATOM      7  C5  OXE d   1       2.093   0.832  -1.217  0.00  0.00    -0.002 A 
ATOM      8  C6  OXE d   1       1.639  -0.445  -0.905  0.00  0.00     0.003 A 
ENDROOT
TORSDOF 0
ENDMDL
