MODEL 1
REMARK minimizedAffinity -4.17430162
REMARK minimizedRMSD -1
REMARK  0 active torsions:
REMARK  status: ('A' for Active; 'I' for Inactive)
ROOT
ATOM      1  C2' OXE d   1      -5.001   0.913  -5.628  0.00  0.00     0.078 C 
ATOM      2  C1' OXE d   1      -2.466   2.068  -5.273  0.00  0.00     0.078 C 
ATOM      3  C1  OXE d   1      -3.643   2.995  -5.451  0.00  0.00    -0.078 A 
ATOM      4  C2  OXE d   1      -4.872   2.421  -5.671  0.00  0.00    -0.078 A 
ATOM      5  C3  OXE d   1      -6.000   3.229  -5.786  0.00  0.00     0.003 A 
ATOM      6  C4  OXE d   1      -5.871   4.622  -5.835  0.00  0.00    -0.002 A 
ATOM      7  C5  OXE d   1      -4.622   5.227  -5.653  0.00  0.00    -0.002 A 
ATOM      8  C6  OXE d   1      -3.507   4.430  -5.418  0.00  0.00     0.003 A 
ENDROOT
TORSDOF 0
ENDMDL
