MODEL 1
REMARK minimizedAffinity -3.2941339
REMARK minimizedRMSD -1
REMARK  0 active torsions:
REMARK  status: ('A' for Active; 'I' for Inactive)
ROOT
ATOM      1  C2' OXE d   1       0.854   1.877   0.330  0.00  0.00     0.078 C 
ATOM      2  C1' OXE d   1      -0.757  -0.380   0.770  0.00  0.00     0.078 C 
ATOM      3  C1  OXE d   1       0.167  -0.396  -0.422  0.00  0.00    -0.078 A 
ATOM      4  C2  OXE d   1       0.917   0.731  -0.657  0.00  0.00    -0.078 A 
ATOM      5  C3  OXE d   1       1.826   0.747  -1.711  0.00  0.00     0.003 A 
ATOM      6  C4  OXE d   1       1.870  -0.313  -2.625  0.00  0.00    -0.002 A 
ATOM      7  C5  OXE d   1       1.086  -1.454  -2.427  0.00  0.00    -0.002 A 
ATOM      8  C6  OXE d   1       0.261  -1.529  -1.310  0.00  0.00     0.003 A 
ENDROOT
TORSDOF 0
ENDMDL
