MODEL 1
REMARK minimizedAffinity -1.61557639
REMARK minimizedRMSD -1
REMARK  0 active torsions:
REMARK  status: ('A' for Active; 'I' for Inactive)
ROOT
ATOM      1  C2' OXE d   1      -5.754   4.998  -5.993  0.00  0.00     0.078 C 
ATOM      2  C1' OXE d   1      -5.553   2.198  -5.994  0.00  0.00     0.078 C 
ATOM      3  C1  OXE d   1      -4.277   2.995  -5.885  0.00  0.00    -0.078 A 
ATOM      4  C2  OXE d   1      -4.381   4.364  -5.933  0.00  0.00    -0.078 A 
ATOM      5  C3  OXE d   1      -3.241   5.147  -5.782  0.00  0.00     0.003 A 
ATOM      6  C4  OXE d   1      -1.973   4.554  -5.737  0.00  0.00    -0.002 A 
ATOM      7  C5  OXE d   1      -1.842   3.161  -5.727  0.00  0.00    -0.002 A 
ATOM      8  C6  OXE d   1      -2.984   2.368  -5.758  0.00  0.00     0.003 A 
ENDROOT
TORSDOF 0
ENDMDL
