MODEL 1
REMARK minimizedAffinity -5.2551713
REMARK minimizedRMSD -1
REMARK  0 active torsions:
REMARK  status: ('A' for Active; 'I' for Inactive)
ROOT
ATOM      1  C2' OXE d   1       1.536   0.014  -2.539  0.00  0.00     0.078 C 
ATOM      2  C1' OXE d   1       0.383  -2.297  -1.438  0.00  0.00     0.078 C 
ATOM      3  C1  OXE d   1       0.285  -1.016  -0.647  0.00  0.00    -0.078 A 
ATOM      4  C2  OXE d   1       0.892   0.099  -1.172  0.00  0.00    -0.078 A 
ATOM      5  C3  OXE d   1       0.784   1.319  -0.510  0.00  0.00     0.003 A 
ATOM      6  C4  OXE d   1       0.195   1.387   0.758  0.00  0.00    -0.002 A 
ATOM      7  C5  OXE d   1      -0.395   0.254   1.329  0.00  0.00    -0.002 A 
ATOM      8  C6  OXE d   1      -0.396  -0.943   0.622  0.00  0.00     0.003 A 
ENDROOT
TORSDOF 0
ENDMDL
