MODEL 1
REMARK minimizedAffinity -4.24128723
REMARK minimizedRMSD -1
REMARK  0 active torsions:
REMARK  status: ('A' for Active; 'I' for Inactive)
ROOT
ATOM      1  C2' OXE d   1       0.733  -2.515  -0.721  0.00  0.00     0.078 C 
ATOM      2  C1' OXE d   1       1.513  -0.163  -2.040  0.00  0.00     0.078 C 
ATOM      3  C1  OXE d   1       0.816  -0.025  -0.710  0.00  0.00    -0.078 A 
ATOM      4  C2  OXE d   1       0.396  -1.179  -0.094  0.00  0.00    -0.078 A 
ATOM      5  C3  OXE d   1      -0.203  -1.112   1.161  0.00  0.00     0.003 A 
ATOM      6  C4  OXE d   1      -0.520   0.128   1.729  0.00  0.00    -0.002 A 
ATOM      7  C5  OXE d   1      -0.137   1.316   1.100  0.00  0.00    -0.002 A 
ATOM      8  C6  OXE d   1       0.568   1.257  -0.097  0.00  0.00     0.003 A 
ENDROOT
TORSDOF 0
ENDMDL
