MODEL 1
REMARK minimizedAffinity -4.94838381
REMARK minimizedRMSD -1
REMARK  0 active torsions:
REMARK  status: ('A' for Active; 'I' for Inactive)
ROOT
ATOM      1  C2' OXE d   1      -0.889   0.238   0.923  0.00  0.00     0.078 C 
ATOM      2  C1' OXE d   1       1.231   2.070   0.757  0.00  0.00     0.078 C 
ATOM      3  C1  OXE d   1       1.019   1.131  -0.405  0.00  0.00    -0.078 A 
ATOM      4  C2  OXE d   1       0.009   0.207  -0.295  0.00  0.00    -0.078 A 
ATOM      5  C3  OXE d   1      -0.265  -0.646  -1.360  0.00  0.00     0.003 A 
ATOM      6  C4  OXE d   1       0.577  -0.675  -2.479  0.00  0.00    -0.002 A 
ATOM      7  C5  OXE d   1       1.636   0.232  -2.594  0.00  0.00    -0.002 A 
ATOM      8  C6  OXE d   1       1.845   1.167  -1.587  0.00  0.00     0.003 A 
ENDROOT
TORSDOF 0
ENDMDL
