MODEL 1
REMARK minimizedAffinity -1.99619269
REMARK minimizedRMSD -1
REMARK  0 active torsions:
REMARK  status: ('A' for Active; 'I' for Inactive)
ROOT
ATOM      1  C2' OXE d   1      -5.011   1.065  -5.991  0.00  0.00     0.078 C 
ATOM      2  C1' OXE d   1      -2.305   1.547  -5.421  0.00  0.00     0.078 C 
ATOM      3  C1  OXE d   1      -3.215   2.740  -5.575  0.00  0.00    -0.078 A 
ATOM      4  C2  OXE d   1      -4.528   2.496  -5.900  0.00  0.00    -0.078 A 
ATOM      5  C3  OXE d   1      -5.422   3.558  -6.000  0.00  0.00     0.003 A 
ATOM      6  C4  OXE d   1      -4.964   4.879  -5.924  0.00  0.00    -0.002 A 
ATOM      7  C5  OXE d   1      -3.623   5.151  -5.633  0.00  0.00    -0.002 A 
ATOM      8  C6  OXE d   1      -2.746   4.094  -5.414  0.00  0.00     0.003 A 
ENDROOT
TORSDOF 0
ENDMDL
