MODEL 1
REMARK minimizedAffinity -0.931114554
REMARK minimizedRMSD -1
REMARK  0 active torsions:
REMARK  status: ('A' for Active; 'I' for Inactive)
ROOT
ATOM      1  C2' OXE d   1       2.140   0.671  -1.521  0.00  0.00     0.078 C 
ATOM      2  C1' OXE d   1       0.596  -1.673  -1.551  0.00  0.00     0.078 C 
ATOM      3  C1  OXE d   1       0.273  -0.631  -0.509  0.00  0.00    -0.078 A 
ATOM      4  C2  OXE d   1       1.064   0.492  -0.472  0.00  0.00    -0.078 A 
ATOM      5  C3  OXE d   1       0.775   1.509   0.434  0.00  0.00     0.003 A 
ATOM      6  C4  OXE d   1      -0.216   1.331   1.407  0.00  0.00    -0.002 A 
ATOM      7  C5  OXE d   1      -1.007   0.177   1.413  0.00  0.00    -0.002 A 
ATOM      8  C6  OXE d   1      -0.804  -0.793   0.437  0.00  0.00     0.003 A 
ENDROOT
TORSDOF 0
ENDMDL
