MODEL 1
REMARK minimizedAffinity -4.33742857
REMARK minimizedRMSD -1
REMARK  0 active torsions:
REMARK  status: ('A' for Active; 'I' for Inactive)
ROOT
ATOM      1  C2' OXE d   1       1.637  -0.046  -2.733  0.00  0.00     0.078 C 
ATOM      2  C1' OXE d   1       0.395  -2.273  -1.560  0.00  0.00     0.078 C 
ATOM      3  C1  OXE d   1       0.374  -0.973  -0.796  0.00  0.00    -0.078 A 
ATOM      4  C2  OXE d   1       1.025   0.100  -1.356  0.00  0.00    -0.078 A 
ATOM      5  C3  OXE d   1       0.989   1.337  -0.719  0.00  0.00     0.003 A 
ATOM      6  C4  OXE d   1       0.429   1.461   0.558  0.00  0.00    -0.002 A 
ATOM      7  C5  OXE d   1      -0.205   0.370   1.164  0.00  0.00    -0.002 A 
ATOM      8  C6  OXE d   1      -0.278  -0.840   0.483  0.00  0.00     0.003 A 
ENDROOT
TORSDOF 0
ENDMDL
