MODEL 1
REMARK minimizedAffinity -5.90717268
REMARK minimizedRMSD -1
REMARK  0 active torsions:
REMARK  status: ('A' for Active; 'I' for Inactive)
ROOT
ATOM      1  C2' OXE d   1      -0.326  -0.954   0.849  0.00  0.00     0.078 C 
ATOM      2  C1' OXE d   1       0.787   1.532   0.171  0.00  0.00     0.078 C 
ATOM      3  C1  OXE d   1       1.104   0.354  -0.716  0.00  0.00    -0.078 A 
ATOM      4  C2  OXE d   1       0.593  -0.868  -0.350  0.00  0.00    -0.078 A 
ATOM      5  C3  OXE d   1       0.810  -1.977  -1.163  0.00  0.00     0.003 A 
ATOM      6  C4  OXE d   1       1.670  -1.891  -2.265  0.00  0.00    -0.002 A 
ATOM      7  C5  OXE d   1       2.233  -0.664  -2.632  0.00  0.00    -0.002 A 
ATOM      8  C6  OXE d   1       1.927   0.474  -1.895  0.00  0.00     0.003 A 
ENDROOT
TORSDOF 0
ENDMDL
