MODEL 1
REMARK minimizedAffinity -4.81514359
REMARK minimizedRMSD -1
REMARK  0 active torsions:
REMARK  status: ('A' for Active; 'I' for Inactive)
ROOT
ATOM      1  C2' OXE d   1      -0.876  -0.038   0.659  0.00  0.00     0.078 C 
ATOM      2  C1' OXE d   1       1.061   1.991   0.778  0.00  0.00     0.078 C 
ATOM      3  C1  OXE d   1       1.178   0.971  -0.327  0.00  0.00    -0.078 A 
ATOM      4  C2  OXE d   1       0.253  -0.045  -0.350  0.00  0.00    -0.078 A 
ATOM      5  C3  OXE d   1       0.283  -0.981  -1.379  0.00  0.00     0.003 A 
ATOM      6  C4  OXE d   1       1.336  -0.987  -2.302  0.00  0.00    -0.002 A 
ATOM      7  C5  OXE d   1       2.311   0.016  -2.273  0.00  0.00    -0.002 A 
ATOM      8  C6  OXE d   1       2.222   1.025  -1.320  0.00  0.00     0.003 A 
ENDROOT
TORSDOF 0
ENDMDL
