MODEL 1
REMARK minimizedAffinity 4.56683588
REMARK minimizedRMSD -1
REMARK  0 active torsions:
REMARK  status: ('A' for Active; 'I' for Inactive)
ROOT
ATOM      1  C   UNL d   1      -4.529   0.488   1.325  0.00  0.00     0.078 C 
ATOM      2  C1  UNL d   1      -4.845  -0.168   2.636  0.00  0.00    -0.077 A 
ATOM      3  C2  UNL d   1      -4.318  -1.424   2.960  0.00  0.00    -0.001 A 
ATOM      4  C3  UNL d   1      -4.627  -2.027   4.180  0.00  0.00     0.003 A 
ATOM      5  C4  UNL d   1      -5.466  -1.381   5.086  0.00  0.00    -0.005 A 
ATOM      6  C5  UNL d   1      -5.997  -0.132   4.772  0.00  0.00     0.003 A 
ATOM      7  C6  UNL d   1      -5.689   0.472   3.552  0.00  0.00    -0.001 A 
ENDROOT
TORSDOF 0
ENDMDL
