MODEL 1
REMARK minimizedAffinity 5.43124056
REMARK minimizedRMSD -1
REMARK  0 active torsions:
REMARK  status: ('A' for Active; 'I' for Inactive)
ROOT
ATOM      1  C   UNL d   1      -3.746   1.759  -2.003  0.00  0.00     0.078 C 
ATOM      2  C1  UNL d   1      -2.820   2.893  -2.328  0.00  0.00    -0.077 A 
ATOM      3  C2  UNL d   1      -1.446   2.795  -2.080  0.00  0.00    -0.001 A 
ATOM      4  C3  UNL d   1      -0.597   3.862  -2.379  0.00  0.00     0.003 A 
ATOM      5  C4  UNL d   1      -1.113   5.035  -2.927  0.00  0.00    -0.005 A 
ATOM      6  C5  UNL d   1      -2.480   5.142  -3.176  0.00  0.00     0.003 A 
ATOM      7  C6  UNL d   1      -3.330   4.076  -2.877  0.00  0.00    -0.001 A 
ENDROOT
TORSDOF 0
ENDMDL
