MODEL 1
REMARK minimizedAffinity -2.26261258
REMARK minimizedRMSD -1
REMARK  0 active torsions:
REMARK  status: ('A' for Active; 'I' for Inactive)
ROOT
ATOM      1  C   UNL d   1      -5.226  -0.934   2.666  0.00  0.00     0.078 C 
ATOM      2  C1  UNL d   1      -5.246  -1.937   3.781  0.00  0.00    -0.077 A 
ATOM      3  C2  UNL d   1      -5.998  -1.712   4.940  0.00  0.00    -0.001 A 
ATOM      4  C3  UNL d   1      -6.000  -2.650   5.974  0.00  0.00     0.003 A 
ATOM      5  C4  UNL d   1      -5.250  -3.818   5.859  0.00  0.00    -0.005 A 
ATOM      6  C5  UNL d   1      -4.496  -4.050   4.710  0.00  0.00     0.003 A 
ATOM      7  C6  UNL d   1      -4.493  -3.113   3.676  0.00  0.00    -0.001 A 
ENDROOT
TORSDOF 0
ENDMDL
