MODEL 1
REMARK minimizedAffinity 2.41569424
REMARK minimizedRMSD -1
REMARK  0 active torsions:
REMARK  status: ('A' for Active; 'I' for Inactive)
ROOT
ATOM      1  C   UNL d   1       0.444   0.389   3.319  0.00  0.00     0.078 C 
ATOM      2  C1  UNL d   1       0.976  -0.841   3.990  0.00  0.00    -0.077 A 
ATOM      3  C2  UNL d   1       1.184  -2.023   3.269  0.00  0.00    -0.001 A 
ATOM      4  C3  UNL d   1       1.670  -3.165   3.909  0.00  0.00     0.003 A 
ATOM      5  C4  UNL d   1       1.951  -3.135   5.273  0.00  0.00    -0.005 A 
ATOM      6  C5  UNL d   1       1.744  -1.965   6.000  0.00  0.00     0.003 A 
ATOM      7  C6  UNL d   1       1.259  -0.822   5.362  0.00  0.00    -0.001 A 
ENDROOT
TORSDOF 0
ENDMDL
