MODEL 1
REMARK minimizedAffinity 4.01639748
REMARK minimizedRMSD -1
REMARK  0 active torsions:
REMARK  status: ('A' for Active; 'I' for Inactive)
ROOT
ATOM      1  C   UNL d   1      -2.311   1.125   2.999  0.00  0.00     0.078 C 
ATOM      2  C1  UNL d   1      -3.602   0.418   3.283  0.00  0.00    -0.077 A 
ATOM      3  C2  UNL d   1      -4.807   1.125   3.375  0.00  0.00    -0.001 A 
ATOM      4  C3  UNL d   1      -6.000   0.455   3.650  0.00  0.00     0.003 A 
ATOM      5  C4  UNL d   1      -5.999  -0.926   3.836  0.00  0.00    -0.005 A 
ATOM      6  C5  UNL d   1      -4.805  -1.638   3.749  0.00  0.00     0.003 A 
ATOM      7  C6  UNL d   1      -3.611  -0.969   3.474  0.00  0.00    -0.001 A 
ENDROOT
TORSDOF 0
ENDMDL
