MODEL 1
REMARK minimizedAffinity 2.61969352
REMARK minimizedRMSD -1
REMARK  0 active torsions:
REMARK  status: ('A' for Active; 'I' for Inactive)
ROOT
ATOM      1  C   UNL d   1       1.204  -3.919  -5.993  0.00  0.00     0.078 C 
ATOM      2  C1  UNL d   1      -0.288  -3.773  -5.988  0.00  0.00    -0.077 A 
ATOM      3  C2  UNL d   1      -1.123  -4.897  -5.995  0.00  0.00    -0.001 A 
ATOM      4  C3  UNL d   1      -2.510  -4.746  -6.000  0.00  0.00     0.003 A 
ATOM      5  C4  UNL d   1      -3.076  -3.473  -5.997  0.00  0.00    -0.005 A 
ATOM      6  C5  UNL d   1      -2.253  -2.348  -5.992  0.00  0.00     0.003 A 
ATOM      7  C6  UNL d   1      -0.865  -2.497  -5.988  0.00  0.00    -0.001 A 
ENDROOT
TORSDOF 0
ENDMDL
