MODEL 1
REMARK minimizedAffinity -0.448073745
REMARK minimizedRMSD -1
REMARK  0 active torsions:
REMARK  status: ('A' for Active; 'I' for Inactive)
ROOT
ATOM      1  C   UNL d   1      -4.881  -5.983  -5.956  0.00  0.00     0.078 C 
ATOM      2  C1  UNL d   1      -3.663  -5.108  -5.963  0.00  0.00    -0.077 A 
ATOM      3  C2  UNL d   1      -2.377  -5.660  -5.920  0.00  0.00    -0.001 A 
ATOM      4  C3  UNL d   1      -1.253  -4.833  -5.918  0.00  0.00     0.003 A 
ATOM      5  C4  UNL d   1      -1.403  -3.449  -5.957  0.00  0.00    -0.005 A 
ATOM      6  C5  UNL d   1      -2.678  -2.889  -5.997  0.00  0.00     0.003 A 
ATOM      7  C6  UNL d   1      -3.804  -3.715  -6.000  0.00  0.00    -0.001 A 
ENDROOT
TORSDOF 0
ENDMDL
