MODEL 1
REMARK minimizedAffinity 7.20289469
REMARK minimizedRMSD -1
REMARK  0 active torsions:
REMARK  status: ('A' for Active; 'I' for Inactive)
ROOT
ATOM      1  C   UNL d   1       0.168   3.312  -0.727  0.00  0.00     0.078 C 
ATOM      2  C1  UNL d   1       0.097   2.523   0.546  0.00  0.00    -0.077 A 
ATOM      3  C2  UNL d   1      -1.135   2.120   1.078  0.00  0.00    -0.001 A 
ATOM      4  C3  UNL d   1      -1.186   1.395   2.269  0.00  0.00     0.003 A 
ATOM      5  C4  UNL d   1      -0.010   1.067   2.940  0.00  0.00    -0.005 A 
ATOM      6  C5  UNL d   1       1.220   1.465   2.420  0.00  0.00     0.003 A 
ATOM      7  C6  UNL d   1       1.274   2.191   1.229  0.00  0.00    -0.001 A 
ENDROOT
TORSDOF 0
ENDMDL
