MODEL 1
REMARK minimizedAffinity 8.97774696
REMARK minimizedRMSD -1
REMARK  0 active torsions:
REMARK  status: ('A' for Active; 'I' for Inactive)
ROOT
ATOM      1  C   UNL d   1      -2.660  -2.146  -5.848  0.00  0.00     0.078 C 
ATOM      2  C1  UNL d   1      -3.330  -3.478  -5.687  0.00  0.00    -0.077 A 
ATOM      3  C2  UNL d   1      -2.610  -4.601  -5.262  0.00  0.00    -0.001 A 
ATOM      4  C3  UNL d   1      -3.245  -5.836  -5.126  0.00  0.00     0.003 A 
ATOM      5  C4  UNL d   1      -4.602  -5.961  -5.414  0.00  0.00    -0.005 A 
ATOM      6  C5  UNL d   1      -5.327  -4.850  -5.840  0.00  0.00     0.003 A 
ATOM      7  C6  UNL d   1      -4.694  -3.613  -5.976  0.00  0.00    -0.001 A 
ENDROOT
TORSDOF 0
ENDMDL
