MODEL 1
REMARK minimizedAffinity 2.04999328
REMARK minimizedRMSD -1
REMARK  0 active torsions:
REMARK  status: ('A' for Active; 'I' for Inactive)
ROOT
ATOM      1  C   UNL d   1       5.590  -4.830  -0.915  0.00  0.00     0.078 C 
ATOM      2  C1  UNL d   1       4.105  -4.640  -0.826  0.00  0.00    -0.077 A 
ATOM      3  C2  UNL d   1       3.236  -5.343  -1.669  0.00  0.00    -0.001 A 
ATOM      4  C3  UNL d   1       1.857  -5.149  -1.582  0.00  0.00     0.003 A 
ATOM      5  C4  UNL d   1       1.334  -4.252  -0.652  0.00  0.00    -0.005 A 
ATOM      6  C5  UNL d   1       2.191  -3.546   0.190  0.00  0.00     0.003 A 
ATOM      7  C6  UNL d   1       3.571  -3.739   0.103  0.00  0.00    -0.001 A 
ENDROOT
TORSDOF 0
ENDMDL
