MODEL 1
REMARK minimizedAffinity 5.81174564
REMARK minimizedRMSD -1
REMARK  0 active torsions:
REMARK  status: ('A' for Active; 'I' for Inactive)
ROOT
ATOM      1  C   UNL d   1       5.622   5.573  -0.777  0.00  0.00     0.078 C 
ATOM      2  C1  UNL d   1       5.100   5.697  -2.177  0.00  0.00    -0.077 A 
ATOM      3  C2  UNL d   1       3.728   5.612  -2.445  0.00  0.00    -0.001 A 
ATOM      4  C3  UNL d   1       3.257   5.720  -3.755  0.00  0.00     0.003 A 
ATOM      5  C4  UNL d   1       4.151   5.912  -4.806  0.00  0.00    -0.005 A 
ATOM      6  C5  UNL d   1       5.518   5.996  -4.549  0.00  0.00     0.003 A 
ATOM      7  C6  UNL d   1       5.991   5.888  -3.240  0.00  0.00    -0.001 A 
ENDROOT
TORSDOF 0
ENDMDL
