MODEL 1
REMARK minimizedAffinity 6.41630459
REMARK minimizedRMSD -1
REMARK  0 active torsions:
REMARK  status: ('A' for Active; 'I' for Inactive)
ROOT
ATOM      1  C   UNL d   1       1.902   5.641  -2.647  0.00  0.00     0.078 C 
ATOM      2  C1  UNL d   1       3.332   5.274  -2.908  0.00  0.00    -0.077 A 
ATOM      3  C2  UNL d   1       4.380   5.999  -2.328  0.00  0.00    -0.001 A 
ATOM      4  C3  UNL d   1       5.707   5.652  -2.588  0.00  0.00     0.003 A 
ATOM      5  C4  UNL d   1       5.998   4.580  -3.428  0.00  0.00    -0.005 A 
ATOM      6  C5  UNL d   1       4.962   3.853  -4.011  0.00  0.00     0.003 A 
ATOM      7  C6  UNL d   1       3.634   4.199  -3.753  0.00  0.00    -0.001 A 
ENDROOT
TORSDOF 0
ENDMDL
