MODEL 1
REMARK minimizedAffinity -1.98923731
REMARK minimizedRMSD -1
REMARK  0 active torsions:
REMARK  status: ('A' for Active; 'I' for Inactive)
ROOT
ATOM      1  C   UNL d   1       5.641   5.998  -1.427  0.00  0.00     0.078 C 
ATOM      2  C1  UNL d   1       5.242   5.320  -2.703  0.00  0.00    -0.077 A 
ATOM      3  C2  UNL d   1       6.000   5.475  -3.870  0.00  0.00    -0.001 A 
ATOM      4  C3  UNL d   1       5.611   4.846  -5.054  0.00  0.00     0.003 A 
ATOM      5  C4  UNL d   1       4.462   4.058  -5.082  0.00  0.00    -0.005 A 
ATOM      6  C5  UNL d   1       3.700   3.899  -3.926  0.00  0.00     0.003 A 
ATOM      7  C6  UNL d   1       4.088   4.528  -2.742  0.00  0.00    -0.001 A 
ENDROOT
TORSDOF 0
ENDMDL
