MODEL 1
REMARK minimizedAffinity 4.04633808
REMARK minimizedRMSD -1
REMARK  0 active torsions:
REMARK  status: ('A' for Active; 'I' for Inactive)
ROOT
ATOM      1  C   UNL d   1       0.641  -1.968  -2.882  0.00  0.00     0.078 C 
ATOM      2  C1  UNL d   1      -0.184  -2.150  -1.643  0.00  0.00    -0.077 A 
ATOM      3  C2  UNL d   1       0.258  -1.670  -0.404  0.00  0.00    -0.001 A 
ATOM      4  C3  UNL d   1      -0.516  -1.854   0.742  0.00  0.00     0.003 A 
ATOM      5  C4  UNL d   1      -1.738  -2.519   0.661  0.00  0.00    -0.005 A 
ATOM      6  C5  UNL d   1      -2.186  -3.002  -0.567  0.00  0.00     0.003 A 
ATOM      7  C6  UNL d   1      -1.413  -2.819  -1.714  0.00  0.00    -0.001 A 
ENDROOT
TORSDOF 0
ENDMDL
