MODEL 1
REMARK minimizedAffinity 2.1973834
REMARK minimizedRMSD -1
REMARK  0 active torsions:
REMARK  status: ('A' for Active; 'I' for Inactive)
ROOT
ATOM      1  C   UNL d   1       5.875   5.676  -1.483  0.00  0.00     0.078 C 
ATOM      2  C1  UNL d   1       5.218   5.786  -2.827  0.00  0.00    -0.077 A 
ATOM      3  C2  UNL d   1       3.827   5.894  -2.943  0.00  0.00    -0.001 A 
ATOM      4  C3  UNL d   1       3.229   5.986  -4.201  0.00  0.00     0.003 A 
ATOM      5  C4  UNL d   1       4.014   5.969  -5.352  0.00  0.00    -0.005 A 
ATOM      6  C5  UNL d   1       5.399   5.859  -5.246  0.00  0.00     0.003 A 
ATOM      7  C6  UNL d   1       5.999   5.767  -3.989  0.00  0.00    -0.001 A 
ENDROOT
TORSDOF 0
ENDMDL
