MODEL 1
REMARK minimizedAffinity 0.165247917
REMARK minimizedRMSD -1
REMARK  0 active torsions:
REMARK  status: ('A' for Active; 'I' for Inactive)
ROOT
ATOM      1  C   UNL d   1       2.371   5.999  -3.043  0.00  0.00     0.078 C 
ATOM      2  C1  UNL d   1       3.637   5.739  -3.803  0.00  0.00    -0.077 A 
ATOM      3  C2  UNL d   1       4.779   5.250  -3.157  0.00  0.00    -0.001 A 
ATOM      4  C3  UNL d   1       5.954   5.022  -3.875  0.00  0.00     0.003 A 
ATOM      5  C4  UNL d   1       5.999   5.281  -5.244  0.00  0.00    -0.005 A 
ATOM      6  C5  UNL d   1       4.868   5.771  -5.895  0.00  0.00     0.003 A 
ATOM      7  C6  UNL d   1       3.693   6.000  -5.178  0.00  0.00    -0.001 A 
ENDROOT
TORSDOF 0
ENDMDL
