MODEL 1
REMARK minimizedAffinity 5.44463348
REMARK minimizedRMSD -1
REMARK  0 active torsions:
REMARK  status: ('A' for Active; 'I' for Inactive)
ROOT
ATOM      1  C   UNL d   1      -0.768  -2.836   0.084  0.00  0.00     0.078 C 
ATOM      2  C1  UNL d   1      -0.414  -2.629  -1.358  0.00  0.00    -0.077 A 
ATOM      3  C2  UNL d   1      -1.353  -2.857  -2.371  0.00  0.00    -0.001 A 
ATOM      4  C3  UNL d   1      -1.007  -2.669  -3.710  0.00  0.00     0.003 A 
ATOM      5  C4  UNL d   1       0.279  -2.253  -4.049  0.00  0.00    -0.005 A 
ATOM      6  C5  UNL d   1       1.221  -2.026  -3.048  0.00  0.00     0.003 A 
ATOM      7  C6  UNL d   1       0.877  -2.213  -1.708  0.00  0.00    -0.001 A 
ENDROOT
TORSDOF 0
ENDMDL
