MODEL 1
REMARK minimizedAffinity -1.21848762
REMARK minimizedRMSD -1
REMARK  0 active torsions:
REMARK  status: ('A' for Active; 'I' for Inactive)
ROOT
ATOM      1  C   UNL d   1       6.000   4.599  -0.389  0.00  0.00     0.078 C 
ATOM      2  C1  UNL d   1       5.725   4.702  -1.860  0.00  0.00    -0.077 A 
ATOM      3  C2  UNL d   1       5.993   3.630  -2.720  0.00  0.00    -0.001 A 
ATOM      4  C3  UNL d   1       5.742   3.743  -4.088  0.00  0.00     0.003 A 
ATOM      5  C4  UNL d   1       5.222   4.927  -4.609  0.00  0.00    -0.005 A 
ATOM      6  C5  UNL d   1       4.954   5.999  -3.761  0.00  0.00     0.003 A 
ATOM      7  C6  UNL d   1       5.205   5.888  -2.392  0.00  0.00    -0.001 A 
ENDROOT
TORSDOF 0
ENDMDL
