MODEL 1
REMARK minimizedAffinity -1.78398514
REMARK minimizedRMSD -1
REMARK  0 active torsions:
REMARK  status: ('A' for Active; 'I' for Inactive)
ROOT
ATOM      1  C   UNL d   1       4.977   6.000  -0.928  0.00  0.00     0.078 C 
ATOM      2  C1  UNL d   1       4.962   5.463  -2.328  0.00  0.00    -0.077 A 
ATOM      3  C2  UNL d   1       3.914   5.767  -3.206  0.00  0.00    -0.001 A 
ATOM      4  C3  UNL d   1       3.909   5.252  -4.503  0.00  0.00     0.003 A 
ATOM      5  C4  UNL d   1       4.947   4.428  -4.933  0.00  0.00    -0.005 A 
ATOM      6  C5  UNL d   1       5.992   4.118  -4.066  0.00  0.00     0.003 A 
ATOM      7  C6  UNL d   1       6.000   4.632  -2.768  0.00  0.00    -0.001 A 
ENDROOT
TORSDOF 0
ENDMDL
