MODEL 1
REMARK minimizedAffinity 1.8947618
REMARK minimizedRMSD -1
REMARK  0 active torsions:
REMARK  status: ('A' for Active; 'I' for Inactive)
ROOT
ATOM      1  C   UNL d   1       1.664  -2.452  -3.140  0.00  0.00     0.078 C 
ATOM      2  C1  UNL d   1       0.373  -2.283  -2.397  0.00  0.00    -0.077 A 
ATOM      3  C2  UNL d   1      -0.840  -2.142  -3.081  0.00  0.00    -0.001 A 
ATOM      4  C3  UNL d   1      -2.033  -1.976  -2.377  0.00  0.00     0.003 A 
ATOM      5  C4  UNL d   1      -2.025  -1.947  -0.983  0.00  0.00    -0.005 A 
ATOM      6  C5  UNL d   1      -0.822  -2.084  -0.293  0.00  0.00     0.003 A 
ATOM      7  C6  UNL d   1       0.372  -2.250  -0.996  0.00  0.00    -0.001 A 
ENDROOT
TORSDOF 0
ENDMDL
