MODEL 1
REMARK minimizedAffinity -0.771119595
REMARK minimizedRMSD -1
REMARK  0 active torsions:
REMARK  status: ('A' for Active; 'I' for Inactive)
ROOT
ATOM      1  C   UNL d   1      -1.648  -2.758   1.299  0.00  0.00     0.078 C 
ATOM      2  C1  UNL d   1      -0.990  -2.482  -0.020  0.00  0.00    -0.077 A 
ATOM      3  C2  UNL d   1      -0.253  -1.310  -0.227  0.00  0.00    -0.001 A 
ATOM      4  C3  UNL d   1       0.345  -1.061  -1.463  0.00  0.00     0.003 A 
ATOM      5  C4  UNL d   1       0.211  -1.980  -2.503  0.00  0.00    -0.005 A 
ATOM      6  C5  UNL d   1      -0.523  -3.148  -2.307  0.00  0.00     0.003 A 
ATOM      7  C6  UNL d   1      -1.121  -3.398  -1.071  0.00  0.00    -0.001 A 
ENDROOT
TORSDOF 0
ENDMDL
