MODEL 1
REMARK minimizedAffinity -1.90270245
REMARK minimizedRMSD -1
REMARK  0 active torsions:
REMARK  status: ('A' for Active; 'I' for Inactive)
ROOT
ATOM      1  C   UNL d   1       2.462   5.999  -3.377  0.00  0.00     0.078 C 
ATOM      2  C1  UNL d   1       3.697   5.239  -3.759  0.00  0.00    -0.077 A 
ATOM      3  C2  UNL d   1       4.840   5.267  -2.951  0.00  0.00    -0.001 A 
ATOM      4  C3  UNL d   1       5.985   4.562  -3.323  0.00  0.00     0.003 A 
ATOM      5  C4  UNL d   1       6.000   3.825  -4.506  0.00  0.00    -0.005 A 
ATOM      6  C5  UNL d   1       4.868   3.792  -5.317  0.00  0.00     0.003 A 
ATOM      7  C6  UNL d   1       3.721   4.497  -4.946  0.00  0.00    -0.001 A 
ENDROOT
TORSDOF 0
ENDMDL
