MODEL 1
REMARK minimizedAffinity -3.61783314
REMARK minimizedRMSD -1
REMARK  0 active torsions:
REMARK  status: ('A' for Active; 'I' for Inactive)
ROOT
ATOM      1  C   UNL d   1       5.750   3.467  -5.930  0.00  0.00     0.078 C 
ATOM      2  C1  UNL d   1       5.160   4.087  -4.699  0.00  0.00    -0.077 A 
ATOM      3  C2  UNL d   1       3.775   4.115  -4.498  0.00  0.00    -0.001 A 
ATOM      4  C3  UNL d   1       3.239   4.704  -3.352  0.00  0.00     0.003 A 
ATOM      5  C4  UNL d   1       4.082   5.271  -2.397  0.00  0.00    -0.005 A 
ATOM      6  C5  UNL d   1       5.462   5.249  -2.589  0.00  0.00     0.003 A 
ATOM      7  C6  UNL d   1       5.999   4.661  -3.735  0.00  0.00    -0.001 A 
ENDROOT
TORSDOF 0
ENDMDL
