MODEL 1
REMARK minimizedAffinity -0.862747669
REMARK minimizedRMSD -1
REMARK  0 active torsions:
REMARK  status: ('A' for Active; 'I' for Inactive)
ROOT
ATOM      1  C   UNL d   1       5.279   4.877  -1.735  0.00  0.00     0.078 C 
ATOM      2  C1  UNL d   1       5.173   4.686  -3.219  0.00  0.00    -0.077 A 
ATOM      3  C2  UNL d   1       6.000   3.777  -3.890  0.00  0.00    -0.001 A 
ATOM      4  C3  UNL d   1       5.897   3.617  -5.273  0.00  0.00     0.003 A 
ATOM      5  C4  UNL d   1       4.969   4.363  -5.996  0.00  0.00    -0.005 A 
ATOM      6  C5  UNL d   1       4.143   5.272  -5.337  0.00  0.00     0.003 A 
ATOM      7  C6  UNL d   1       4.244   5.433  -3.955  0.00  0.00    -0.001 A 
ENDROOT
TORSDOF 0
ENDMDL
