MODEL 1
REMARK minimizedAffinity -0.533950627
REMARK minimizedRMSD -1
REMARK  1 active torsions:
REMARK  status: ('A' for Active; 'I' for Inactive)
REMARK    1  A    between atoms: C3_4  and  O_7 
ROOT
ATOM      1  C   UNL d   1       1.918  -1.417   2.080  0.00  0.00    -0.033 A 
ATOM      2  C1  UNL d   1       1.145  -0.483   2.772  0.00  0.00     0.039 A 
ATOM      3  C2  UNL d   1       0.768  -0.729   4.094  0.00  0.00    -0.080 A 
ATOM      4  C3  UNL d   1       1.170  -1.910   4.711  0.00  0.00     0.150 A 
ATOM      5  C4  UNL d   1       1.943  -2.843   4.028  0.00  0.00    -0.007 A 
ATOM      6  C5  UNL d   1       2.318  -2.596   2.708  0.00  0.00     0.039 A 
ENDROOT
BRANCH   4   7
ATOM      7  O   UNL d   1       0.823  -2.196   5.997  0.00  0.00    -0.526 OA
ATOM      8  H5  UNL d   1       0.265  -1.475   6.333  0.00  0.00     0.418 HD
ENDBRANCH   4   7
TORSDOF 1
ENDMDL
