MODEL 1
REMARK minimizedAffinity 2.1730988
REMARK minimizedRMSD -1
REMARK  1 active torsions:
REMARK  status: ('A' for Active; 'I' for Inactive)
REMARK    1  A    between atoms: C3_4  and  O_7 
ROOT
ATOM      1  C   UNL d   1      -2.611  -3.731  -0.764  0.00  0.00    -0.033 A 
ATOM      2  C1  UNL d   1      -3.678  -2.831  -0.710  0.00  0.00     0.039 A 
ATOM      3  C2  UNL d   1      -3.486  -1.549  -0.190  0.00  0.00    -0.080 A 
ATOM      4  C3  UNL d   1      -2.226  -1.180   0.270  0.00  0.00     0.150 A 
ATOM      5  C4  UNL d   1      -1.158  -2.070   0.216  0.00  0.00    -0.007 A 
ATOM      6  C5  UNL d   1      -1.351  -3.350  -0.302  0.00  0.00     0.039 A 
ENDROOT
BRANCH   4   7
ATOM      7  O   UNL d   1      -1.992   0.058   0.790  0.00  0.00    -0.526 OA
ATOM      8  H5  UNL d   1      -2.827   0.555   0.791  0.00  0.00     0.418 HD
ENDBRANCH   4   7
TORSDOF 1
ENDMDL
