MODEL 1
REMARK minimizedAffinity 1.82738388
REMARK minimizedRMSD -1
REMARK  1 active torsions:
REMARK  status: ('A' for Active; 'I' for Inactive)
REMARK    1  A    between atoms: C3_4  and  O_7 
ROOT
ATOM      1  C   UNL d   1       0.959  -0.705   2.649  0.00  0.00    -0.033 A 
ATOM      2  C1  UNL d   1       0.950  -1.292   3.915  0.00  0.00     0.039 A 
ATOM      3  C2  UNL d   1       1.464  -2.578   4.095  0.00  0.00    -0.080 A 
ATOM      4  C3  UNL d   1       1.986  -3.264   3.001  0.00  0.00     0.150 A 
ATOM      5  C4  UNL d   1       2.002  -2.683   1.737  0.00  0.00    -0.007 A 
ATOM      6  C5  UNL d   1       1.487  -1.400   1.560  0.00  0.00     0.039 A 
ENDROOT
BRANCH   4   7
ATOM      7  O   UNL d   1       2.495  -4.522   3.127  0.00  0.00    -0.526 OA
ATOM      8  H5  UNL d   1       2.391  -4.806   4.050  0.00  0.00     0.418 HD
ENDBRANCH   4   7
TORSDOF 1
ENDMDL
