MODEL 1
REMARK minimizedAffinity 13.0758858
REMARK minimizedRMSD -1
REMARK  1 active torsions:
REMARK  status: ('A' for Active; 'I' for Inactive)
REMARK    1  A    between atoms: C3_4  and  O_7 
ROOT
ATOM      1  C   UNL d   1       1.826  -1.137   1.336  0.00  0.00    -0.033 A 
ATOM      2  C1  UNL d   1       1.189  -0.002   1.840  0.00  0.00     0.039 A 
ATOM      3  C2  UNL d   1       0.771   0.033   3.172  0.00  0.00    -0.080 A 
ATOM      4  C3  UNL d   1       0.997  -1.072   3.988  0.00  0.00     0.150 A 
ATOM      5  C4  UNL d   1       1.634  -2.205   3.493  0.00  0.00    -0.007 A 
ATOM      6  C5  UNL d   1       2.050  -2.239   2.163  0.00  0.00     0.039 A 
ENDROOT
BRANCH   4   7
ATOM      7  O   UNL d   1       0.602  -1.087   5.293  0.00  0.00    -0.526 OA
ATOM      8  H5  UNL d   1       0.150  -0.249   5.487  0.00  0.00     0.418 HD
ENDBRANCH   4   7
TORSDOF 1
ENDMDL
