MODEL 1
REMARK minimizedAffinity 4.21920729
REMARK minimizedRMSD -1
REMARK  1 active torsions:
REMARK  status: ('A' for Active; 'I' for Inactive)
REMARK    1  A    between atoms: C3_4  and  O_7 
ROOT
ATOM      1  C   UNL d   1      -3.070  -3.094   0.154  0.00  0.00    -0.033 A 
ATOM      2  C1  UNL d   1      -2.854  -4.466   0.015  0.00  0.00     0.039 A 
ATOM      3  C2  UNL d   1      -1.805  -4.932  -0.781  0.00  0.00    -0.080 A 
ATOM      4  C3  UNL d   1      -0.981  -4.017  -1.430  0.00  0.00     0.150 A 
ATOM      5  C4  UNL d   1      -1.188  -2.648  -1.293  0.00  0.00    -0.007 A 
ATOM      6  C5  UNL d   1      -2.236  -2.185  -0.498  0.00  0.00     0.039 A 
ENDROOT
BRANCH   4   7
ATOM      7  O   UNL d   1       0.052  -4.424  -2.221  0.00  0.00    -0.526 OA
ATOM      8  H5  UNL d   1       0.056  -5.396  -2.246  0.00  0.00     0.418 HD
ENDBRANCH   4   7
TORSDOF 1
ENDMDL
