MODEL 1
REMARK minimizedAffinity 6.62611866
REMARK minimizedRMSD -1
REMARK  1 active torsions:
REMARK  status: ('A' for Active; 'I' for Inactive)
REMARK    1  A    between atoms: C3_4  and  O_7 
ROOT
ATOM      1  C   UNL d   1      -2.363  -3.834  -0.582  0.00  0.00    -0.033 A 
ATOM      2  C1  UNL d   1      -3.429  -2.932  -0.591  0.00  0.00     0.039 A 
ATOM      3  C2  UNL d   1      -3.231  -1.611  -0.184  0.00  0.00    -0.080 A 
ATOM      4  C3  UNL d   1      -1.964  -1.205   0.226  0.00  0.00     0.150 A 
ATOM      5  C4  UNL d   1      -0.897  -2.097   0.233  0.00  0.00    -0.007 A 
ATOM      6  C5  UNL d   1      -1.097  -3.416  -0.172  0.00  0.00     0.039 A 
ENDROOT
BRANCH   4   7
ATOM      7  O   UNL d   1      -1.723   0.073   0.636  0.00  0.00    -0.526 OA
ATOM      8  H5  UNL d   1      -2.558   0.569   0.606  0.00  0.00     0.418 HD
ENDBRANCH   4   7
TORSDOF 1
ENDMDL
