MODEL 1
REMARK minimizedAffinity 2.06994867
REMARK minimizedRMSD -1
REMARK  1 active torsions:
REMARK  status: ('A' for Active; 'I' for Inactive)
REMARK    1  A    between atoms: C3_4  and  O_7 
ROOT
ATOM      1  C   UNL d   1       1.603  -0.841   2.416  0.00  0.00    -0.033 A 
ATOM      2  C1  UNL d   1       1.215  -0.224   3.607  0.00  0.00     0.039 A 
ATOM      3  C2  UNL d   1       1.369  -0.891   4.824  0.00  0.00    -0.080 A 
ATOM      4  C3  UNL d   1       1.912  -2.173   4.836  0.00  0.00     0.150 A 
ATOM      5  C4  UNL d   1       2.303  -2.793   3.654  0.00  0.00    -0.007 A 
ATOM      6  C5  UNL d   1       2.148  -2.125   2.440  0.00  0.00     0.039 A 
ENDROOT
BRANCH   4   7
ATOM      7  O   UNL d   1       2.077  -2.866   5.998  0.00  0.00    -0.526 OA
ATOM      8  H5  UNL d   1       1.736  -2.325   6.730  0.00  0.00     0.418 HD
ENDBRANCH   4   7
TORSDOF 1
ENDMDL
