MODEL 1
REMARK minimizedAffinity 7.71505928
REMARK minimizedRMSD -1
REMARK  1 active torsions:
REMARK  status: ('A' for Active; 'I' for Inactive)
REMARK    1  A    between atoms: C3_4  and  O_7 
ROOT
ATOM      1  C   UNL d   1      -2.593   0.258   0.500  0.00  0.00    -0.033 A 
ATOM      2  C1  UNL d   1      -1.213   0.067   0.602  0.00  0.00     0.039 A 
ATOM      3  C2  UNL d   1      -0.338   1.113   0.303  0.00  0.00    -0.080 A 
ATOM      4  C3  UNL d   1      -0.854   2.343  -0.095  0.00  0.00     0.150 A 
ATOM      5  C4  UNL d   1      -2.227   2.541  -0.196  0.00  0.00    -0.007 A 
ATOM      6  C5  UNL d   1      -3.100   1.495   0.102  0.00  0.00     0.039 A 
ENDROOT
BRANCH   4   7
ATOM      7  O   UNL d   1      -0.040   3.392  -0.402  0.00  0.00    -0.526 OA
ATOM      8  H5  UNL d   1       0.883   3.101  -0.316  0.00  0.00     0.418 HD
ENDBRANCH   4   7
TORSDOF 1
ENDMDL
