MODEL 1
REMARK minimizedAffinity 3.43984079
REMARK minimizedRMSD -1
REMARK  1 active torsions:
REMARK  status: ('A' for Active; 'I' for Inactive)
REMARK    1  A    between atoms: C3_4  and  O_7 
ROOT
ATOM      1  C   UNL d   1       3.972   5.930  -1.879  0.00  0.00    -0.033 A 
ATOM      2  C1  UNL d   1       3.207   5.991  -0.713  0.00  0.00     0.039 A 
ATOM      3  C2  UNL d   1       3.832   5.997   0.535  0.00  0.00    -0.080 A 
ATOM      4  C3  UNL d   1       5.222   5.943   0.603  0.00  0.00     0.150 A 
ATOM      5  C4  UNL d   1       5.991   5.886  -0.554  0.00  0.00    -0.007 A 
ATOM      6  C5  UNL d   1       5.364   5.879  -1.800  0.00  0.00     0.039 A 
ENDROOT
BRANCH   4   7
ATOM      7  O   UNL d   1       5.877   5.942   1.799  0.00  0.00    -0.526 OA
ATOM      8  H5  UNL d   1       5.216   5.956   2.512  0.00  0.00     0.418 HD
ENDBRANCH   4   7
TORSDOF 1
ENDMDL
