MODEL 1
REMARK minimizedAffinity 8.44059086
REMARK minimizedRMSD -1
REMARK  1 active torsions:
REMARK  status: ('A' for Active; 'I' for Inactive)
REMARK    1  A    between atoms: C3_4  and  O_7 
ROOT
ATOM      1  C   UNL d   1      -2.312   0.261  -0.012  0.00  0.00    -0.033 A 
ATOM      2  C1  UNL d   1      -1.382   1.302  -0.007  0.00  0.00     0.039 A 
ATOM      3  C2  UNL d   1      -0.232   1.209   0.780  0.00  0.00    -0.080 A 
ATOM      4  C3  UNL d   1      -0.025   0.072   1.556  0.00  0.00     0.150 A 
ATOM      5  C4  UNL d   1      -0.946  -0.970   1.553  0.00  0.00    -0.007 A 
ATOM      6  C5  UNL d   1      -2.094  -0.876   0.767  0.00  0.00     0.039 A 
ENDROOT
BRANCH   4   7
ATOM      7  O   UNL d   1       1.079  -0.061   2.344  0.00  0.00    -0.526 OA
ATOM      8  H5  UNL d   1       1.612   0.748   2.267  0.00  0.00     0.418 HD
ENDBRANCH   4   7
TORSDOF 1
ENDMDL
