MODEL 1
REMARK minimizedAffinity -2.67557192
REMARK minimizedRMSD -1
REMARK  1 active torsions:
REMARK  status: ('A' for Active; 'I' for Inactive)
REMARK    1  A    between atoms: C1_2  and  C2_3 
ROOT
ATOM      1  C2  UNL d   1       0.189  -0.904   0.363  0.00  0.00    -0.073 A 
ATOM      2  C3  UNL d   1       0.969   0.258   0.367  0.00  0.00    -0.002 A 
ATOM      3  C4  UNL d   1       0.842   1.188   1.399  0.00  0.00     0.004 A 
ATOM      4  C5  UNL d   1      -0.060   0.964   2.440  0.00  0.00    -0.004 A 
ATOM      5  C6  UNL d   1      -0.840  -0.197   2.460  0.00  0.00    -0.075 A 
ATOM      6  C7  UNL d   1      -1.816  -0.452   3.570  0.00  0.00     0.076 C 
ATOM      7  C8  UNL d   1      -0.708  -1.125   1.418  0.00  0.00     0.001 A 
ENDROOT
BRANCH   1   8
ATOM      8  C1  UNL d   1       0.327  -1.915  -0.745  0.00  0.00     0.053 C 
ATOM      9  C   UNL d   1       0.840  -1.285  -2.030  0.00  0.00     0.018 C 
ENDBRANCH   1   8
TORSDOF 1
ENDMDL
