MODEL 1
REMARK minimizedAffinity 0.57282871
REMARK minimizedRMSD -1
REMARK  1 active torsions:
REMARK  status: ('A' for Active; 'I' for Inactive)
REMARK    1  A    between atoms: C1_2  and  C2_3 
ROOT
ATOM      1  C2  UNL d   1      -3.583  -5.217   3.390  0.00  0.00    -0.073 A 
ATOM      2  C3  UNL d   1      -4.899  -5.550   3.730  0.00  0.00    -0.002 A 
ATOM      3  C4  UNL d   1      -5.809  -5.926   2.740  0.00  0.00     0.004 A 
ATOM      4  C5  UNL d   1      -5.410  -5.981   1.405  0.00  0.00    -0.004 A 
ATOM      5  C6  UNL d   1      -4.096  -5.665   1.047  0.00  0.00    -0.075 A 
ATOM      6  C7  UNL d   1      -3.652  -5.717  -0.385  0.00  0.00     0.076 C 
ATOM      7  C8  UNL d   1      -3.189  -5.285   2.046  0.00  0.00     0.001 A 
ENDROOT
BRANCH   1   8
ATOM      8  C1  UNL d   1      -2.596  -4.816   4.456  0.00  0.00     0.053 C 
ATOM      9  C   UNL d   1      -3.124  -5.091   5.855  0.00  0.00     0.018 C 
ENDBRANCH   1   8
TORSDOF 1
ENDMDL
