MODEL 1
REMARK minimizedAffinity 5.24034739
REMARK minimizedRMSD -1
REMARK  1 active torsions:
REMARK  status: ('A' for Active; 'I' for Inactive)
REMARK    1  A    between atoms: C1_2  and  C2_3 
ROOT
ATOM      1  C2  UNL d   1      -0.870   1.867   2.593  0.00  0.00    -0.073 A 
ATOM      2  C3  UNL d   1       0.453   1.765   2.147  0.00  0.00    -0.002 A 
ATOM      3  C4  UNL d   1       0.793   0.843   1.156  0.00  0.00     0.004 A 
ATOM      4  C5  UNL d   1      -0.184   0.020   0.597  0.00  0.00    -0.004 A 
ATOM      5  C6  UNL d   1      -1.513   0.115   1.022  0.00  0.00    -0.075 A 
ATOM      6  C7  UNL d   1      -2.576  -0.766   0.432  0.00  0.00     0.076 C 
ATOM      7  C8  UNL d   1      -1.847   1.041   2.019  0.00  0.00     0.001 A 
ENDROOT
BRANCH   1   8
ATOM      8  C1  UNL d   1      -1.244   2.865   3.658  0.00  0.00     0.053 C 
ATOM      9  C   UNL d   1      -0.180   3.937   3.834  0.00  0.00     0.018 C 
ENDBRANCH   1   8
TORSDOF 1
ENDMDL
