MODEL 1
REMARK minimizedAffinity 5.8205986
REMARK minimizedRMSD -1
REMARK  1 active torsions:
REMARK  status: ('A' for Active; 'I' for Inactive)
REMARK    1  A    between atoms: C1_2  and  C2_3 
ROOT
ATOM      1  C2  UNL d   1      -3.434  -4.551   0.253  0.00  0.00    -0.073 A 
ATOM      2  C3  UNL d   1      -4.632  -4.256   0.914  0.00  0.00    -0.002 A 
ATOM      3  C4  UNL d   1      -4.868  -2.971   1.406  0.00  0.00     0.004 A 
ATOM      4  C5  UNL d   1      -3.914  -1.968   1.236  0.00  0.00    -0.004 A 
ATOM      5  C6  UNL d   1      -2.716  -2.240   0.568  0.00  0.00    -0.075 A 
ATOM      6  C7  UNL d   1      -1.679  -1.173   0.379  0.00  0.00     0.076 C 
ATOM      7  C8  UNL d   1      -2.485  -3.533   0.079  0.00  0.00     0.001 A 
ENDROOT
BRANCH   1   8
ATOM      8  C1  UNL d   1      -3.178  -5.934  -0.285  0.00  0.00     0.053 C 
ATOM      9  C   UNL d   1      -1.900  -5.998  -1.107  0.00  0.00     0.018 C 
ENDBRANCH   1   8
TORSDOF 1
ENDMDL
