MODEL 1
REMARK minimizedAffinity -4.50094032
REMARK minimizedRMSD -1
REMARK  1 active torsions:
REMARK  status: ('A' for Active; 'I' for Inactive)
REMARK    1  A    between atoms: C1_2  and  C2_3 
ROOT
ATOM      1  C2  UNL d   1       0.378  -0.571   0.224  0.00  0.00    -0.073 A 
ATOM      2  C3  UNL d   1       1.600  -0.940   0.799  0.00  0.00    -0.002 A 
ATOM      3  C4  UNL d   1       2.637  -1.423   0.001  0.00  0.00     0.004 A 
ATOM      4  C5  UNL d   1       2.467  -1.535  -1.379  0.00  0.00    -0.004 A 
ATOM      5  C6  UNL d   1       1.259  -1.160  -1.974  0.00  0.00    -0.075 A 
ATOM      6  C7  UNL d   1       1.059  -1.277  -3.457  0.00  0.00     0.076 C 
ATOM      7  C8  UNL d   1       0.220  -0.679  -1.165  0.00  0.00     0.001 A 
ENDROOT
BRANCH   1   8
ATOM      8  C1  UNL d   1      -0.743  -0.043   1.081  0.00  0.00     0.053 C 
ATOM      9  C   UNL d   1      -0.382  -0.048   2.558  0.00  0.00     0.018 C 
ENDBRANCH   1   8
TORSDOF 1
ENDMDL
