MODEL 1
REMARK minimizedAffinity -5.44347
REMARK minimizedRMSD -1
REMARK  1 active torsions:
REMARK  status: ('A' for Active; 'I' for Inactive)
REMARK    1  A    between atoms: C1_2  and  C2_3 
ROOT
ATOM      1  C2  UNL d   1       0.347   0.277  -0.115  0.00  0.00    -0.073 A 
ATOM      2  C3  UNL d   1      -0.711  -0.618   0.085  0.00  0.00    -0.002 A 
ATOM      3  C4  UNL d   1      -1.104  -0.965   1.378  0.00  0.00     0.004 A 
ATOM      4  C5  UNL d   1      -0.450  -0.419   2.482  0.00  0.00    -0.004 A 
ATOM      5  C6  UNL d   1       0.602   0.486   2.302  0.00  0.00    -0.075 A 
ATOM      6  C7  UNL d   1       1.317   1.081   3.479  0.00  0.00     0.076 C 
ATOM      7  C8  UNL d   1       0.993   0.828   1.001  0.00  0.00     0.001 A 
ENDROOT
BRANCH   1   8
ATOM      8  C1  UNL d   1       0.771   0.660  -1.510  0.00  0.00     0.053 C 
ATOM      9  C   UNL d   1       1.435  -0.495  -2.242  0.00  0.00     0.018 C 
ENDBRANCH   1   8
TORSDOF 1
ENDMDL
