MODEL 1
REMARK minimizedAffinity -4.36208296
REMARK minimizedRMSD -1
REMARK  1 active torsions:
REMARK  status: ('A' for Active; 'I' for Inactive)
REMARK    1  A    between atoms: C1_2  and  C2_3 
ROOT
ATOM      1  C2  UNL d   1       0.015   0.086  -0.032  0.00  0.00    -0.073 A 
ATOM      2  C3  UNL d   1      -1.147  -0.595   0.349  0.00  0.00    -0.002 A 
ATOM      3  C4  UNL d   1      -1.371  -0.910   1.690  0.00  0.00     0.004 A 
ATOM      4  C5  UNL d   1      -0.441  -0.542   2.662  0.00  0.00    -0.004 A 
ATOM      5  C6  UNL d   1       0.720   0.150   2.303  0.00  0.00    -0.075 A 
ATOM      6  C7  UNL d   1       1.730   0.552   3.336  0.00  0.00     0.076 C 
ATOM      7  C8  UNL d   1       0.939   0.461   0.954  0.00  0.00     0.001 A 
ENDROOT
BRANCH   1   8
ATOM      8  C1  UNL d   1       0.258   0.434  -1.478  0.00  0.00     0.053 C 
ATOM      9  C   UNL d   1       0.101  -0.772  -2.389  0.00  0.00     0.018 C 
ENDBRANCH   1   8
TORSDOF 1
ENDMDL
