MODEL 1
REMARK minimizedAffinity -2.80234838
REMARK minimizedRMSD -1
REMARK  1 active torsions:
REMARK  status: ('A' for Active; 'I' for Inactive)
REMARK    1  A    between atoms: C1_2  and  C2_3 
ROOT
ATOM      1  C2  UNL d   1       1.169  -0.252  -0.818  0.00  0.00    -0.073 A 
ATOM      2  C3  UNL d   1       0.234   0.786  -0.909  0.00  0.00    -0.002 A 
ATOM      3  C4  UNL d   1      -0.276   1.379   0.247  0.00  0.00     0.004 A 
ATOM      4  C5  UNL d   1       0.148   0.946   1.503  0.00  0.00    -0.004 A 
ATOM      5  C6  UNL d   1       1.090  -0.082   1.614  0.00  0.00    -0.075 A 
ATOM      6  C7  UNL d   1       1.554  -0.561   2.959  0.00  0.00     0.076 C 
ATOM      7  C8  UNL d   1       1.595  -0.675   0.449  0.00  0.00     0.001 A 
ENDROOT
BRANCH   1   8
ATOM      8  C1  UNL d   1       1.727  -0.891  -2.064  0.00  0.00     0.053 C 
ATOM      9  C   UNL d   1       0.643  -1.184  -3.089  0.00  0.00     0.018 C 
ENDBRANCH   1   8
TORSDOF 1
ENDMDL
