MODEL 1
REMARK minimizedAffinity -0.332484901
REMARK minimizedRMSD -1
REMARK  1 active torsions:
REMARK  status: ('A' for Active; 'I' for Inactive)
REMARK    1  A    between atoms: C1_2  and  C2_3 
ROOT
ATOM      1  C2  UNL d   1       3.976  -1.302   4.425  0.00  0.00    -0.073 A 
ATOM      2  C3  UNL d   1       4.364  -0.691   3.227  0.00  0.00    -0.002 A 
ATOM      3  C4  UNL d   1       3.744  -1.039   2.026  0.00  0.00     0.004 A 
ATOM      4  C5  UNL d   1       2.727  -1.993   2.011  0.00  0.00    -0.004 A 
ATOM      5  C6  UNL d   1       2.317  -2.605   3.200  0.00  0.00    -0.075 A 
ATOM      6  C7  UNL d   1       1.226  -3.635   3.201  0.00  0.00     0.076 C 
ATOM      7  C8  UNL d   1       2.947  -2.253   4.402  0.00  0.00     0.001 A 
ENDROOT
BRANCH   1   8
ATOM      8  C1  UNL d   1       4.639  -0.925   5.725  0.00  0.00     0.053 C 
ATOM      9  C   UNL d   1       5.875  -1.766   6.000  0.00  0.00     0.018 C 
ENDBRANCH   1   8
TORSDOF 1
ENDMDL
