MODEL 1
REMARK minimizedAffinity 18.3939381
REMARK minimizedRMSD -1
REMARK  1 active torsions:
REMARK  status: ('A' for Active; 'I' for Inactive)
REMARK    1  A    between atoms: C1_2  and  C2_3 
ROOT
ATOM      1  C2  UNL d   1       2.714   1.636  -1.874  0.00  0.00    -0.073 A 
ATOM      2  C3  UNL d   1       3.789   1.316  -2.711  0.00  0.00    -0.002 A 
ATOM      3  C4  UNL d   1       3.961   0.008  -3.167  0.00  0.00     0.004 A 
ATOM      4  C5  UNL d   1       3.058  -0.989  -2.799  0.00  0.00    -0.004 A 
ATOM      5  C6  UNL d   1       1.971  -0.685  -1.973  0.00  0.00    -0.075 A 
ATOM      6  C7  UNL d   1       0.991  -1.747  -1.566  0.00  0.00     0.076 C 
ATOM      7  C8  UNL d   1       1.806   0.629  -1.516  0.00  0.00     0.001 A 
ENDROOT
BRANCH   1   8
ATOM      8  C1  UNL d   1       2.520   3.048  -1.384  0.00  0.00     0.053 C 
ATOM      9  C   UNL d   1       3.106   3.255   0.004  0.00  0.00     0.018 C 
ENDBRANCH   1   8
TORSDOF 1
ENDMDL
