MODEL 1
REMARK minimizedAffinity -3.99590325
REMARK minimizedRMSD -1
REMARK  0 active torsions:
REMARK  status: ('A' for Active; 'I' for Inactive)
ROOT
ATOM      1  C   UNL d   1       3.278  -0.812  -1.516  0.00  0.00     0.078 C 
ATOM      2  C1  UNL d   1       1.951  -0.536  -0.875  0.00  0.00    -0.077 A 
ATOM      3  C2  UNL d   1       1.356   0.729  -0.962  0.00  0.00    -0.001 A 
ATOM      4  C3  UNL d   1       0.125   0.974  -0.352  0.00  0.00     0.003 A 
ATOM      5  C4  UNL d   1      -0.522  -0.041   0.350  0.00  0.00    -0.005 A 
ATOM      6  C5  UNL d   1       0.063  -1.302   0.444  0.00  0.00     0.003 A 
ATOM      7  C6  UNL d   1       1.294  -1.549  -0.165  0.00  0.00    -0.001 A 
ENDROOT
TORSDOF 0
ENDMDL
