MODEL 1
REMARK minimizedAffinity 1.0879395
REMARK minimizedRMSD -1
REMARK  0 active torsions:
REMARK  status: ('A' for Active; 'I' for Inactive)
ROOT
ATOM      1  C   UNL d   1       0.017   1.601  -0.887  0.00  0.00     0.078 C 
ATOM      2  C1  UNL d   1       0.312   0.175  -0.528  0.00  0.00    -0.077 A 
ATOM      3  C2  UNL d   1      -0.559  -0.558   0.287  0.00  0.00    -0.001 A 
ATOM      4  C3  UNL d   1      -0.267  -1.881   0.621  0.00  0.00     0.003 A 
ATOM      5  C4  UNL d   1       0.897  -2.482   0.146  0.00  0.00    -0.005 A 
ATOM      6  C5  UNL d   1       1.770  -1.760  -0.664  0.00  0.00     0.003 A 
ATOM      7  C6  UNL d   1       1.480  -0.436  -0.999  0.00  0.00    -0.001 A 
ENDROOT
TORSDOF 0
ENDMDL
