MODEL 1
REMARK minimizedAffinity -5.31771708
REMARK minimizedRMSD -1
REMARK  0 active torsions:
REMARK  status: ('A' for Active; 'I' for Inactive)
ROOT
ATOM      1  C   UNL d   1       0.377  -3.029   0.017  0.00  0.00     0.078 C 
ATOM      2  C1  UNL d   1       0.690  -1.589  -0.259  0.00  0.00    -0.077 A 
ATOM      3  C2  UNL d   1      -0.289  -0.598  -0.115  0.00  0.00    -0.001 A 
ATOM      4  C3  UNL d   1       0.013   0.738  -0.385  0.00  0.00     0.003 A 
ATOM      5  C4  UNL d   1       1.294   1.095  -0.802  0.00  0.00    -0.005 A 
ATOM      6  C5  UNL d   1       2.274   0.115  -0.951  0.00  0.00     0.003 A 
ATOM      7  C6  UNL d   1       1.973  -1.221  -0.681  0.00  0.00    -0.001 A 
ENDROOT
TORSDOF 0
ENDMDL
