MODEL 1
REMARK minimizedAffinity -2.49348903
REMARK minimizedRMSD -1
REMARK  0 active torsions:
REMARK  status: ('A' for Active; 'I' for Inactive)
ROOT
ATOM      1  C   UNL d   1       0.628   2.014  -0.978  0.00  0.00     0.078 C 
ATOM      2  C1  UNL d   1       1.012   0.568  -0.879  0.00  0.00    -0.077 A 
ATOM      3  C2  UNL d   1       2.243   0.113  -1.368  0.00  0.00    -0.001 A 
ATOM      4  C3  UNL d   1       2.583  -1.238  -1.277  0.00  0.00     0.003 A 
ATOM      5  C4  UNL d   1       1.697  -2.145  -0.700  0.00  0.00    -0.005 A 
ATOM      6  C5  UNL d   1       0.469  -1.703  -0.212  0.00  0.00     0.003 A 
ATOM      7  C6  UNL d   1       0.127  -0.352  -0.302  0.00  0.00    -0.001 A 
ENDROOT
TORSDOF 0
ENDMDL
