MODEL 1
REMARK minimizedAffinity -4.0845809
REMARK minimizedRMSD -1
REMARK  0 active torsions:
REMARK  status: ('A' for Active; 'I' for Inactive)
ROOT
ATOM      1  C   UNL d   1       3.087  -0.690  -0.616  0.00  0.00     0.078 C 
ATOM      2  C1  UNL d   1       1.610  -0.501  -0.447  0.00  0.00    -0.077 A 
ATOM      3  C2  UNL d   1       0.753  -1.599  -0.301  0.00  0.00    -0.001 A 
ATOM      4  C3  UNL d   1      -0.621  -1.408  -0.154  0.00  0.00     0.003 A 
ATOM      5  C4  UNL d   1      -1.153  -0.120  -0.153  0.00  0.00    -0.005 A 
ATOM      6  C5  UNL d   1      -0.309   0.979  -0.301  0.00  0.00     0.003 A 
ATOM      7  C6  UNL d   1       1.066   0.790  -0.447  0.00  0.00    -0.001 A 
ENDROOT
TORSDOF 0
ENDMDL
