MODEL 1
REMARK minimizedAffinity -5.54141617
REMARK minimizedRMSD -1
REMARK  0 active torsions:
REMARK  status: ('A' for Active; 'I' for Inactive)
ROOT
ATOM      1  C   UNL d   1      -0.687   0.466   1.421  0.00  0.00     0.078 C 
ATOM      2  C1  UNL d   1       0.392   0.026   0.477  0.00  0.00    -0.077 A 
ATOM      3  C2  UNL d   1       0.733  -1.326   0.351  0.00  0.00    -0.001 A 
ATOM      4  C3  UNL d   1       1.746  -1.720  -0.525  0.00  0.00     0.003 A 
ATOM      5  C4  UNL d   1       2.427  -0.768  -1.280  0.00  0.00    -0.005 A 
ATOM      6  C5  UNL d   1       2.097   0.581  -1.160  0.00  0.00     0.003 A 
ATOM      7  C6  UNL d   1       1.084   0.976  -0.285  0.00  0.00    -0.001 A 
ENDROOT
TORSDOF 0
ENDMDL
