MODEL 1
REMARK minimizedAffinity -5.33498716
REMARK minimizedRMSD -1
REMARK  0 active torsions:
REMARK  status: ('A' for Active; 'I' for Inactive)
ROOT
ATOM      1  C   UNL d   1       3.268  -0.125  -0.944  0.00  0.00     0.078 C 
ATOM      2  C1  UNL d   1       1.799  -0.201  -0.658  0.00  0.00    -0.077 A 
ATOM      3  C2  UNL d   1       1.026   0.961  -0.542  0.00  0.00    -0.001 A 
ATOM      4  C3  UNL d   1      -0.340   0.875  -0.265  0.00  0.00     0.003 A 
ATOM      5  C4  UNL d   1      -0.944  -0.370  -0.101  0.00  0.00    -0.005 A 
ATOM      6  C5  UNL d   1      -0.183  -1.531  -0.213  0.00  0.00     0.003 A 
ATOM      7  C6  UNL d   1       1.183  -1.448  -0.489  0.00  0.00    -0.001 A 
ENDROOT
TORSDOF 0
ENDMDL
