MODEL 1
REMARK minimizedAffinity -4.57649755
REMARK minimizedRMSD -1
REMARK  0 active torsions:
REMARK  status: ('A' for Active; 'I' for Inactive)
ROOT
ATOM      1  C   UNL d   1      -0.746   0.758   0.478  0.00  0.00     0.078 C 
ATOM      2  C1  UNL d   1       0.505   0.113  -0.040  0.00  0.00    -0.077 A 
ATOM      3  C2  UNL d   1       0.458  -1.115  -0.711  0.00  0.00    -0.001 A 
ATOM      4  C3  UNL d   1       1.632  -1.709  -1.179  0.00  0.00     0.003 A 
ATOM      5  C4  UNL d   1       2.861  -1.083  -0.979  0.00  0.00    -0.005 A 
ATOM      6  C5  UNL d   1       2.917   0.138  -0.309  0.00  0.00     0.003 A 
ATOM      7  C6  UNL d   1       1.745   0.733   0.159  0.00  0.00    -0.001 A 
ENDROOT
TORSDOF 0
ENDMDL
