MODEL 1
REMARK minimizedAffinity -5.70031023
REMARK minimizedRMSD -1
REMARK  0 active torsions:
REMARK  status: ('A' for Active; 'I' for Inactive)
ROOT
ATOM      1  C   UNL d   1       0.230   0.032  -0.107  0.00  0.00     0.078 C 
ATOM      2  C1  UNL d   1       1.294   0.366  -1.109  0.00  0.00    -0.077 A 
ATOM      3  C2  UNL d   1       1.059   1.298  -2.128  0.00  0.00    -0.001 A 
ATOM      4  C3  UNL d   1       2.056   1.591  -3.060  0.00  0.00     0.003 A 
ATOM      5  C4  UNL d   1       3.294   0.957  -2.984  0.00  0.00    -0.005 A 
ATOM      6  C5  UNL d   1       3.536   0.027  -1.975  0.00  0.00     0.003 A 
ATOM      7  C6  UNL d   1       2.541  -0.268  -1.042  0.00  0.00    -0.001 A 
ENDROOT
TORSDOF 0
ENDMDL
