MODEL 1
REMARK minimizedAffinity -5.4860096
REMARK minimizedRMSD -1
REMARK  0 active torsions:
REMARK  status: ('A' for Active; 'I' for Inactive)
ROOT
ATOM      1  C   UNL d   1      -0.396  -2.497  -0.216  0.00  0.00     0.078 C 
ATOM      2  C1  UNL d   1       0.266  -1.198  -0.565  0.00  0.00    -0.077 A 
ATOM      3  C2  UNL d   1       1.614  -1.153  -0.940  0.00  0.00    -0.001 A 
ATOM      4  C3  UNL d   1       2.220   0.065  -1.254  0.00  0.00     0.003 A 
ATOM      5  C4  UNL d   1       1.485   1.247  -1.193  0.00  0.00    -0.005 A 
ATOM      6  C5  UNL d   1       0.144   1.213  -0.819  0.00  0.00     0.003 A 
ATOM      7  C6  UNL d   1      -0.463  -0.004  -0.505  0.00  0.00    -0.001 A 
ENDROOT
TORSDOF 0
ENDMDL
