MODEL 1
REMARK minimizedAffinity -5.56689739
REMARK minimizedRMSD -1
REMARK  0 active torsions:
REMARK  status: ('A' for Active; 'I' for Inactive)
ROOT
ATOM      1  C   UNL d   1       0.257  -1.492   0.415  0.00  0.00     0.078 C 
ATOM      2  C1  UNL d   1       0.870  -0.549  -0.577  0.00  0.00    -0.077 A 
ATOM      3  C2  UNL d   1       0.298   0.703  -0.830  0.00  0.00    -0.001 A 
ATOM      4  C3  UNL d   1       0.874   1.567  -1.764  0.00  0.00     0.003 A 
ATOM      5  C4  UNL d   1       2.025   1.186  -2.452  0.00  0.00    -0.005 A 
ATOM      6  C5  UNL d   1       2.600  -0.059  -2.207  0.00  0.00     0.003 A 
ATOM      7  C6  UNL d   1       2.025  -0.924  -1.275  0.00  0.00    -0.001 A 
ENDROOT
TORSDOF 0
ENDMDL
