MODEL 1
REMARK minimizedAffinity -2.93689179
REMARK minimizedRMSD -1
REMARK  0 active torsions:
REMARK  status: ('A' for Active; 'I' for Inactive)
ROOT
ATOM      1  C   UNL d   1       0.020   0.145   0.468  0.00  0.00     0.078 C 
ATOM      2  C1  UNL d   1      -0.674   0.555   1.733  0.00  0.00    -0.077 A 
ATOM      3  C2  UNL d   1      -2.023   0.250   1.947  0.00  0.00    -0.001 A 
ATOM      4  C3  UNL d   1      -2.658   0.646   3.125  0.00  0.00     0.003 A 
ATOM      5  C4  UNL d   1      -1.952   1.351   4.098  0.00  0.00    -0.005 A 
ATOM      6  C5  UNL d   1      -0.609   1.661   3.893  0.00  0.00     0.003 A 
ATOM      7  C6  UNL d   1       0.028   1.265   2.716  0.00  0.00    -0.001 A 
ENDROOT
TORSDOF 0
ENDMDL
