MODEL 1
REMARK minimizedAffinity -5.03568268
REMARK minimizedRMSD -1
REMARK  0 active torsions:
REMARK  status: ('A' for Active; 'I' for Inactive)
ROOT
ATOM      1  C   UNL d   1      -0.838   0.609   0.551  0.00  0.00     0.078 C 
ATOM      2  C1  UNL d   1       0.350   0.036  -0.163  0.00  0.00    -0.077 A 
ATOM      3  C2  UNL d   1       0.275  -1.205  -0.806  0.00  0.00    -0.001 A 
ATOM      4  C3  UNL d   1       1.391  -1.731  -1.458  0.00  0.00     0.003 A 
ATOM      5  C4  UNL d   1       2.591  -1.022  -1.473  0.00  0.00    -0.005 A 
ATOM      6  C5  UNL d   1       2.676   0.213  -0.834  0.00  0.00     0.003 A 
ATOM      7  C6  UNL d   1       1.560   0.740  -0.181  0.00  0.00    -0.001 A 
ENDROOT
TORSDOF 0
ENDMDL
