MODEL 1
REMARK minimizedAffinity -3.4531486
REMARK minimizedRMSD -1
REMARK  0 active torsions:
REMARK  status: ('A' for Active; 'I' for Inactive)
ROOT
ATOM      1  C   UNL d   1       2.369  -1.130  -0.749  0.00  0.00     0.078 C 
ATOM      2  C1  UNL d   1       1.130  -0.294  -0.623  0.00  0.00    -0.077 A 
ATOM      3  C2  UNL d   1      -0.006  -0.782   0.033  0.00  0.00    -0.001 A 
ATOM      4  C3  UNL d   1      -1.155   0.004   0.134  0.00  0.00     0.003 A 
ATOM      5  C4  UNL d   1      -1.180   1.282  -0.420  0.00  0.00    -0.005 A 
ATOM      6  C5  UNL d   1      -0.055   1.775  -1.078  0.00  0.00     0.003 A 
ATOM      7  C6  UNL d   1       1.095   0.991  -1.180  0.00  0.00    -0.001 A 
ENDROOT
TORSDOF 0
ENDMDL
