MODEL 1
REMARK minimizedAffinity -3.51895809
REMARK minimizedRMSD -1
REMARK  0 active torsions:
REMARK  status: ('A' for Active; 'I' for Inactive)
ROOT
ATOM      1  C   UNL d   1       2.135  -0.544  -1.048  0.00  0.00     0.078 C 
ATOM      2  C1  UNL d   1       0.800  -0.496  -0.366  0.00  0.00    -0.077 A 
ATOM      3  C2  UNL d   1       0.128  -1.673  -0.014  0.00  0.00    -0.001 A 
ATOM      4  C3  UNL d   1      -1.118  -1.614   0.612  0.00  0.00     0.003 A 
ATOM      5  C4  UNL d   1      -1.703  -0.381   0.891  0.00  0.00    -0.005 A 
ATOM      6  C5  UNL d   1      -1.043   0.796   0.543  0.00  0.00     0.003 A 
ATOM      7  C6  UNL d   1       0.203   0.739  -0.083  0.00  0.00    -0.001 A 
ENDROOT
TORSDOF 0
ENDMDL
