MODEL 1
REMARK minimizedAffinity -5.49734306
REMARK minimizedRMSD -1
REMARK  0 active torsions:
REMARK  status: ('A' for Active; 'I' for Inactive)
ROOT
ATOM      1  C   UNL d   1      -0.979   0.218   0.360  0.00  0.00     0.078 C 
ATOM      2  C1  UNL d   1       0.363  -0.113  -0.220  0.00  0.00    -0.077 A 
ATOM      3  C2  UNL d   1       1.309   0.889  -0.467  0.00  0.00    -0.001 A 
ATOM      4  C3  UNL d   1       2.551   0.568  -1.016  0.00  0.00     0.003 A 
ATOM      5  C4  UNL d   1       2.858  -0.756  -1.325  0.00  0.00    -0.005 A 
ATOM      6  C5  UNL d   1       1.923  -1.760  -1.085  0.00  0.00     0.003 A 
ATOM      7  C6  UNL d   1       0.680  -1.440  -0.535  0.00  0.00    -0.001 A 
ENDROOT
TORSDOF 0
ENDMDL
