MODEL 1
REMARK minimizedAffinity -2.74330521
REMARK minimizedRMSD -1
REMARK  0 active torsions:
REMARK  status: ('A' for Active; 'I' for Inactive)
ROOT
ATOM      1  C   UNL d   1       2.670  -1.145  -1.357  0.00  0.00     0.078 C 
ATOM      2  C1  UNL d   1       1.406  -0.574  -0.785  0.00  0.00    -0.077 A 
ATOM      3  C2  UNL d   1       0.577  -1.343   0.041  0.00  0.00    -0.001 A 
ATOM      4  C3  UNL d   1      -0.601  -0.802   0.558  0.00  0.00     0.003 A 
ATOM      5  C4  UNL d   1      -0.961   0.510   0.255  0.00  0.00    -0.005 A 
ATOM      6  C5  UNL d   1      -0.144   1.281  -0.568  0.00  0.00     0.003 A 
ATOM      7  C6  UNL d   1       1.035   0.742  -1.087  0.00  0.00    -0.001 A 
ENDROOT
TORSDOF 0
ENDMDL
