MODEL 1
REMARK minimizedAffinity -2.7622149
REMARK minimizedRMSD -1
REMARK  1 active torsions:
REMARK  status: ('A' for Active; 'I' for Inactive)
REMARK    1  A    between atoms: C3_4  and  O_7 
ROOT
ATOM      1  C   UNL d   1       0.068  -0.035   0.244  0.00  0.00    -0.033 A 
ATOM      2  C1  UNL d   1       1.236  -0.757  -0.008  0.00  0.00     0.039 A 
ATOM      3  C2  UNL d   1       1.223  -2.152   0.048  0.00  0.00    -0.080 A 
ATOM      4  C3  UNL d   1       0.037  -2.812   0.356  0.00  0.00     0.150 A 
ATOM      5  C4  UNL d   1      -1.131  -2.100   0.605  0.00  0.00    -0.007 A 
ATOM      6  C5  UNL d   1      -1.116  -0.707   0.550  0.00  0.00     0.039 A 
ENDROOT
BRANCH   4   7
ATOM      7  O   UNL d   1      -0.023  -4.172   0.428  0.00  0.00    -0.526 OA
ATOM      8  H5  UNL d   1       0.865  -4.529   0.261  0.00  0.00     0.418 HD
ENDBRANCH   4   7
TORSDOF 1
ENDMDL
