MODEL 1
REMARK minimizedAffinity -4.15214777
REMARK minimizedRMSD -1
REMARK  1 active torsions:
REMARK  status: ('A' for Active; 'I' for Inactive)
REMARK    1  A    between atoms: C3_4  and  O_7 
ROOT
ATOM      1  C   UNL d   1       0.870  -2.730  -0.810  0.00  0.00    -0.033 A 
ATOM      2  C1  UNL d   1       1.081  -1.362  -0.993  0.00  0.00     0.039 A 
ATOM      3  C2  UNL d   1       0.486  -0.441  -0.130  0.00  0.00    -0.080 A 
ATOM      4  C3  UNL d   1      -0.315  -0.899   0.913  0.00  0.00     0.150 A 
ATOM      5  C4  UNL d   1      -0.526  -2.260   1.104  0.00  0.00    -0.007 A 
ATOM      6  C5  UNL d   1       0.068  -3.179   0.239  0.00  0.00     0.039 A 
ENDROOT
BRANCH   4   7
ATOM      7  O   UNL d   1      -0.920  -0.037   1.778  0.00  0.00    -0.526 OA
ATOM      8  H5  UNL d   1      -0.708   0.871   1.507  0.00  0.00     0.418 HD
ENDBRANCH   4   7
TORSDOF 1
ENDMDL
