MODEL 1
REMARK minimizedAffinity -3.71294022
REMARK minimizedRMSD -1
REMARK  1 active torsions:
REMARK  status: ('A' for Active; 'I' for Inactive)
REMARK    1  A    between atoms: C3_4  and  O_7 
ROOT
ATOM      1  C   UNL d   1      -0.015   0.597   0.351  0.00  0.00    -0.033 A 
ATOM      2  C1  UNL d   1      -1.176  -0.137   0.599  0.00  0.00     0.039 A 
ATOM      3  C2  UNL d   1      -1.163  -1.529   0.483  0.00  0.00    -0.080 A 
ATOM      4  C3  UNL d   1       0.017  -2.173   0.120  0.00  0.00     0.150 A 
ATOM      5  C4  UNL d   1       1.179  -1.448  -0.124  0.00  0.00    -0.007 A 
ATOM      6  C5  UNL d   1       1.163  -0.059  -0.009  0.00  0.00     0.039 A 
ENDROOT
BRANCH   4   7
ATOM      7  O   UNL d   1       0.078  -3.528  -0.010  0.00  0.00    -0.526 OA
ATOM      8  H5  UNL d   1      -0.806  -3.894   0.162  0.00  0.00     0.418 HD
ENDBRANCH   4   7
TORSDOF 1
ENDMDL
