MODEL 1
REMARK minimizedAffinity -3.05849957
REMARK minimizedRMSD -1
REMARK  1 active torsions:
REMARK  status: ('A' for Active; 'I' for Inactive)
REMARK    1  A    between atoms: C3_4  and  O_7 
ROOT
ATOM      1  C   UNL d   1      -0.495   0.302   0.313  0.00  0.00    -0.033 A 
ATOM      2  C1  UNL d   1       0.741  -0.291   0.048  0.00  0.00     0.039 A 
ATOM      3  C2  UNL d   1       0.930  -1.653   0.290  0.00  0.00    -0.080 A 
ATOM      4  C3  UNL d   1      -0.124  -2.410   0.795  0.00  0.00     0.150 A 
ATOM      5  C4  UNL d   1      -1.360  -1.826   1.057  0.00  0.00    -0.007 A 
ATOM      6  C5  UNL d   1      -1.546  -0.465   0.816  0.00  0.00     0.039 A 
ENDROOT
BRANCH   4   7
ATOM      7  O   UNL d   1       0.013  -3.741   1.052  0.00  0.00    -0.526 OA
ATOM      8  H5  UNL d   1       0.928  -4.001   0.850  0.00  0.00     0.418 HD
ENDBRANCH   4   7
TORSDOF 1
ENDMDL
