MODEL 1
REMARK minimizedAffinity -5.15498066
REMARK minimizedRMSD -1
REMARK  1 active torsions:
REMARK  status: ('A' for Active; 'I' for Inactive)
REMARK    1  A    between atoms: C3_4  and  O_7 
ROOT
ATOM      1  C   UNL d   1      -0.189   0.459   0.517  0.00  0.00    -0.033 A 
ATOM      2  C1  UNL d   1      -1.244  -0.327   0.986  0.00  0.00     0.039 A 
ATOM      3  C2  UNL d   1      -1.151  -1.719   0.945  0.00  0.00    -0.080 A 
ATOM      4  C3  UNL d   1      -0.000  -2.313   0.434  0.00  0.00     0.150 A 
ATOM      5  C4  UNL d   1       1.056  -1.536  -0.032  0.00  0.00    -0.007 A 
ATOM      6  C5  UNL d   1       0.961  -0.146   0.009  0.00  0.00     0.039 A 
ENDROOT
BRANCH   4   7
ATOM      7  O   UNL d   1       0.134  -3.668   0.369  0.00  0.00    -0.526 OA
ATOM      8  H5  UNL d   1      -0.684  -4.074   0.699  0.00  0.00     0.418 HD
ENDBRANCH   4   7
TORSDOF 1
ENDMDL
