MODEL 1
REMARK minimizedAffinity -2.40509915
REMARK minimizedRMSD -1
REMARK  1 active torsions:
REMARK  status: ('A' for Active; 'I' for Inactive)
REMARK    1  A    between atoms: C3_4  and  O_7 
ROOT
ATOM      1  C   UNL d   1       0.302   0.846  -0.492  0.00  0.00    -0.033 A 
ATOM      2  C1  UNL d   1       0.850  -0.141  -1.313  0.00  0.00     0.039 A 
ATOM      3  C2  UNL d   1       0.790  -1.483  -0.930  0.00  0.00    -0.080 A 
ATOM      4  C3  UNL d   1       0.180  -1.823   0.274  0.00  0.00     0.150 A 
ATOM      5  C4  UNL d   1      -0.371  -0.844   1.095  0.00  0.00    -0.007 A 
ATOM      6  C5  UNL d   1      -0.310   0.494   0.711  0.00  0.00     0.039 A 
ENDROOT
BRANCH   4   7
ATOM      7  O   UNL d   1       0.102  -3.118   0.692  0.00  0.00    -0.526 OA
ATOM      8  H5  UNL d   1       0.550  -3.680   0.039  0.00  0.00     0.418 HD
ENDBRANCH   4   7
TORSDOF 1
ENDMDL
