MODEL 1
REMARK minimizedAffinity -3.96634841
REMARK minimizedRMSD -1
REMARK  1 active torsions:
REMARK  status: ('A' for Active; 'I' for Inactive)
REMARK    1  A    between atoms: C3_4  and  O_7 
ROOT
ATOM      1  C   UNL d   1       0.355  -0.692   0.612  0.00  0.00    -0.033 A 
ATOM      2  C1  UNL d   1       1.166  -1.534  -0.153  0.00  0.00     0.039 A 
ATOM      3  C2  UNL d   1       1.198  -1.402  -1.542  0.00  0.00    -0.080 A 
ATOM      4  C3  UNL d   1       0.416  -0.426  -2.154  0.00  0.00     0.150 A 
ATOM      5  C4  UNL d   1      -0.391   0.418  -1.398  0.00  0.00    -0.007 A 
ATOM      6  C5  UNL d   1      -0.422   0.285  -0.011  0.00  0.00     0.039 A 
ENDROOT
BRANCH   4   7
ATOM      7  O   UNL d   1       0.410  -0.262  -3.508  0.00  0.00    -0.526 OA
ATOM      8  H5  UNL d   1       0.992  -0.934  -3.901  0.00  0.00     0.418 HD
ENDBRANCH   4   7
TORSDOF 1
ENDMDL
