MODEL 1
REMARK minimizedAffinity -4.40191889
REMARK minimizedRMSD -1
REMARK  1 active torsions:
REMARK  status: ('A' for Active; 'I' for Inactive)
REMARK    1  A    between atoms: C3_4  and  O_7 
ROOT
ATOM      1  C   UNL d   1       0.674  -0.671  -2.209  0.00  0.00    -0.033 A 
ATOM      2  C1  UNL d   1       0.367  -0.448  -0.866  0.00  0.00     0.039 A 
ATOM      3  C2  UNL d   1       0.048  -1.522  -0.033  0.00  0.00    -0.080 A 
ATOM      4  C3  UNL d   1       0.041  -2.813  -0.554  0.00  0.00     0.150 A 
ATOM      5  C4  UNL d   1       0.351  -3.043  -1.891  0.00  0.00    -0.007 A 
ATOM      6  C5  UNL d   1       0.668  -1.969  -2.722  0.00  0.00     0.039 A 
ENDROOT
BRANCH   4   7
ATOM      7  O   UNL d   1      -0.268  -3.892   0.219  0.00  0.00    -0.526 OA
ATOM      8  H5  UNL d   1      -0.488  -3.578   1.112  0.00  0.00     0.418 HD
ENDBRANCH   4   7
TORSDOF 1
ENDMDL
