MODEL 1
REMARK minimizedAffinity -4.76258802
REMARK minimizedRMSD -1
REMARK  1 active torsions:
REMARK  status: ('A' for Active; 'I' for Inactive)
REMARK    1  A    between atoms: C3_4  and  O_7 
ROOT
ATOM      1  C   UNL d   1      -0.241  -0.019   0.659  0.00  0.00    -0.033 A 
ATOM      2  C1  UNL d   1      -0.575   1.000  -0.234  0.00  0.00     0.039 A 
ATOM      3  C2  UNL d   1      -0.463   0.790  -1.610  0.00  0.00    -0.080 A 
ATOM      4  C3  UNL d   1      -0.017  -0.442  -2.079  0.00  0.00     0.150 A 
ATOM      5  C4  UNL d   1       0.314  -1.464  -1.195  0.00  0.00    -0.007 A 
ATOM      6  C5  UNL d   1       0.202  -1.252   0.179  0.00  0.00     0.039 A 
ENDROOT
BRANCH   4   7
ATOM      7  O   UNL d   1       0.114  -0.693  -3.413  0.00  0.00    -0.526 OA
ATOM      8  H5  UNL d   1      -0.123   0.113  -3.902  0.00  0.00     0.418 HD
ENDBRANCH   4   7
TORSDOF 1
ENDMDL
