MODEL 1
REMARK minimizedAffinity -4.52867889
REMARK minimizedRMSD -1
REMARK  1 active torsions:
REMARK  status: ('A' for Active; 'I' for Inactive)
REMARK    1  A    between atoms: C3_4  and  O_7 
ROOT
ATOM      1  C   UNL d   1      -0.800   0.305   0.249  0.00  0.00    -0.033 A 
ATOM      2  C1  UNL d   1      -1.540  -0.503   1.114  0.00  0.00     0.039 A 
ATOM      3  C2  UNL d   1      -1.144  -1.821   1.352  0.00  0.00    -0.080 A 
ATOM      4  C3  UNL d   1      -0.007  -2.317   0.720  0.00  0.00     0.150 A 
ATOM      5  C4  UNL d   1       0.737  -1.517  -0.140  0.00  0.00    -0.007 A 
ATOM      6  C5  UNL d   1       0.340  -0.202  -0.377  0.00  0.00     0.039 A 
ENDROOT
BRANCH   4   7
ATOM      7  O   UNL d   1       0.415  -3.598   0.917  0.00  0.00    -0.526 OA
ATOM      8  H5  UNL d   1      -0.212  -4.041   1.512  0.00  0.00     0.418 HD
ENDBRANCH   4   7
TORSDOF 1
ENDMDL
