MODEL 1
REMARK minimizedAffinity 0.140304014
REMARK minimizedRMSD -1
REMARK  1 active torsions:
REMARK  status: ('A' for Active; 'I' for Inactive)
REMARK    1  A    between atoms: C3_4  and  O_7 
ROOT
ATOM      1  C   UNL d   1       2.367   3.201  -0.538  0.00  0.00    -0.033 A 
ATOM      2  C1  UNL d   1       3.291   3.778   0.335  0.00  0.00     0.039 A 
ATOM      3  C2  UNL d   1       2.897   4.157   1.620  0.00  0.00    -0.080 A 
ATOM      4  C3  UNL d   1       1.579   3.953   2.018  0.00  0.00     0.150 A 
ATOM      5  C4  UNL d   1       0.654   3.376   1.154  0.00  0.00    -0.007 A 
ATOM      6  C5  UNL d   1       1.049   2.999  -0.128  0.00  0.00     0.039 A 
ENDROOT
BRANCH   4   7
ATOM      7  O   UNL d   1       1.146   4.312   3.261  0.00  0.00    -0.526 OA
ATOM      8  H5  UNL d   1       1.886   4.724   3.737  0.00  0.00     0.418 HD
ENDBRANCH   4   7
TORSDOF 1
ENDMDL
