MODEL 1
REMARK minimizedAffinity -5.27203035
REMARK minimizedRMSD -1
REMARK  1 active torsions:
REMARK  status: ('A' for Active; 'I' for Inactive)
REMARK    1  A    between atoms: C3_4  and  O_7 
ROOT
ATOM      1  C   UNL d   1       0.449  -3.877  -0.964  0.00  0.00    -0.033 A 
ATOM      2  C1  UNL d   1       0.262  -3.258  -2.201  0.00  0.00     0.039 A 
ATOM      3  C2  UNL d   1      -0.007  -1.889  -2.266  0.00  0.00    -0.080 A 
ATOM      4  C3  UNL d   1      -0.084  -1.152  -1.088  0.00  0.00     0.150 A 
ATOM      5  C4  UNL d   1       0.106  -1.761   0.148  0.00  0.00    -0.007 A 
ATOM      6  C5  UNL d   1       0.373  -3.128   0.211  0.00  0.00     0.039 A 
ENDROOT
BRANCH   4   7
ATOM      7  O   UNL d   1      -0.348   0.186  -1.101  0.00  0.00    -0.526 OA
ATOM      8  H5  UNL d   1      -0.485   0.464  -2.022  0.00  0.00     0.418 HD
ENDBRANCH   4   7
TORSDOF 1
ENDMDL
