MODEL 1
REMARK minimizedAffinity -4.93806648
REMARK minimizedRMSD -1
REMARK  1 active torsions:
REMARK  status: ('A' for Active; 'I' for Inactive)
REMARK    1  A    between atoms: C3_4  and  O_7 
ROOT
ATOM      1  C   UNL d   1      -0.317   0.269  -0.404  0.00  0.00    -0.033 A 
ATOM      2  C1  UNL d   1       0.374  -0.525  -1.321  0.00  0.00     0.039 A 
ATOM      3  C2  UNL d   1       0.576  -1.882  -1.059  0.00  0.00    -0.080 A 
ATOM      4  C3  UNL d   1       0.082  -2.431   0.121  0.00  0.00     0.150 A 
ATOM      5  C4  UNL d   1      -0.611  -1.646   1.037  0.00  0.00    -0.007 A 
ATOM      6  C5  UNL d   1      -0.810  -0.291   0.774  0.00  0.00     0.039 A 
ENDROOT
BRANCH   4   7
ATOM      7  O   UNL d   1       0.258  -3.749   0.422  0.00  0.00    -0.526 OA
ATOM      8  H5  UNL d   1       0.778  -4.160  -0.288  0.00  0.00     0.418 HD
ENDBRANCH   4   7
TORSDOF 1
ENDMDL
