MODEL 1
REMARK minimizedAffinity -5.3077445
REMARK minimizedRMSD -1
REMARK  1 active torsions:
REMARK  status: ('A' for Active; 'I' for Inactive)
REMARK    1  A    between atoms: C3_4  and  O_7 
ROOT
ATOM      1  C   UNL d   1      -0.271  -1.763   0.817  0.00  0.00    -0.033 A 
ATOM      2  C1  UNL d   1      -0.154  -0.534   0.165  0.00  0.00     0.039 A 
ATOM      3  C2  UNL d   1       0.061  -0.491  -1.214  0.00  0.00    -0.080 A 
ATOM      4  C3  UNL d   1       0.157  -1.682  -1.928  0.00  0.00     0.150 A 
ATOM      5  C4  UNL d   1       0.038  -2.910  -1.285  0.00  0.00    -0.007 A 
ATOM      6  C5  UNL d   1      -0.176  -2.951   0.092  0.00  0.00     0.039 A 
ENDROOT
BRANCH   4   7
ATOM      7  O   UNL d   1       0.372  -1.691  -3.274  0.00  0.00    -0.526 OA
ATOM      8  H5  UNL d   1       0.462  -0.772  -3.577  0.00  0.00     0.418 HD
ENDBRANCH   4   7
TORSDOF 1
ENDMDL
