MODEL 1
REMARK minimizedAffinity -5.24767065
REMARK minimizedRMSD -1
REMARK  1 active torsions:
REMARK  status: ('A' for Active; 'I' for Inactive)
REMARK    1  A    between atoms: C3_4  and  O_7 
ROOT
ATOM      1  C   UNL d   1      -0.732   0.709   0.360  0.00  0.00    -0.033 A 
ATOM      2  C1  UNL d   1       0.158   0.098  -0.524  0.00  0.00     0.039 A 
ATOM      3  C2  UNL d   1       0.499  -1.246  -0.357  0.00  0.00    -0.080 A 
ATOM      4  C3  UNL d   1      -0.058  -1.967   0.695  0.00  0.00     0.150 A 
ATOM      5  C4  UNL d   1      -0.949  -1.365   1.578  0.00  0.00    -0.007 A 
ATOM      6  C5  UNL d   1      -1.287  -0.023   1.411  0.00  0.00     0.039 A 
ENDROOT
BRANCH   4   7
ATOM      7  O   UNL d   1       0.247  -3.279   0.901  0.00  0.00    -0.526 OA
ATOM      8  H5  UNL d   1       0.897  -3.553   0.232  0.00  0.00     0.418 HD
ENDBRANCH   4   7
TORSDOF 1
ENDMDL
