MODEL 1
REMARK minimizedAffinity -4.86384821
REMARK minimizedRMSD -1
REMARK  1 active torsions:
REMARK  status: ('A' for Active; 'I' for Inactive)
REMARK    1  A    between atoms: C1_2  and  C2_3 
ROOT
ATOM      1  C2  UNL d   1       0.234  -0.735  -0.483  0.00  0.00    -0.081 A 
ATOM      2  C3  UNL d   1      -0.037  -0.948   0.874  0.00  0.00     0.006 A 
ATOM      3  C4  UNL d   1      -0.791  -0.023   1.600  0.00  0.00     0.002 A 
ATOM      4  C5  UNL d   1      -1.293   1.126   0.979  0.00  0.00    -0.080 A 
ATOM      5  C6  UNL d   1      -2.130   2.111   1.739  0.00  0.00     0.076 C 
ATOM      6  C7  UNL d   1      -1.008   1.348  -0.372  0.00  0.00     0.002 A 
ATOM      7  C8  UNL d   1      -0.253   0.424  -1.098  0.00  0.00     0.006 A 
ENDROOT
BRANCH   1   8
ATOM      8  C1  UNL d   1       0.993  -1.762  -1.284  0.00  0.00     0.054 C 
ATOM      9  C   UNL d   1       0.072  -2.512  -2.236  0.00  0.00     0.018 C 
ENDBRANCH   1   8
TORSDOF 1
ENDMDL
