MODEL 1
REMARK minimizedAffinity -6.27522421
REMARK minimizedRMSD -1
REMARK  1 active torsions:
REMARK  status: ('A' for Active; 'I' for Inactive)
REMARK    1  A    between atoms: C1_2  and  C2_3 
ROOT
ATOM      1  C2  UNL d   1       0.016  -1.457  -0.314  0.00  0.00    -0.081 A 
ATOM      2  C3  UNL d   1      -0.888  -1.681   0.732  0.00  0.00     0.006 A 
ATOM      3  C4  UNL d   1      -1.485  -0.605   1.394  0.00  0.00     0.002 A 
ATOM      4  C5  UNL d   1      -1.194   0.710   1.016  0.00  0.00    -0.080 A 
ATOM      5  C6  UNL d   1      -1.852   1.873   1.698  0.00  0.00     0.076 C 
ATOM      6  C7  UNL d   1      -0.278   0.934  -0.017  0.00  0.00     0.002 A 
ATOM      7  C8  UNL d   1       0.320  -0.141  -0.679  0.00  0.00     0.006 A 
ENDROOT
BRANCH   1   8
ATOM      8  C1  UNL d   1       0.612  -2.616  -1.072  0.00  0.00     0.054 C 
ATOM      9  C   UNL d   1       0.288  -2.531  -2.557  0.00  0.00     0.018 C 
ENDBRANCH   1   8
TORSDOF 1
ENDMDL
