MODEL 1
REMARK minimizedAffinity -4.98350477
REMARK minimizedRMSD -1
REMARK  1 active torsions:
REMARK  status: ('A' for Active; 'I' for Inactive)
REMARK    1  A    between atoms: C1_2  and  C2_3 
ROOT
ATOM      1  C2  UNL d   1      -0.616   0.311   0.903  0.00  0.00    -0.081 A 
ATOM      2  C3  UNL d   1      -0.016   0.581  -0.333  0.00  0.00     0.006 A 
ATOM      3  C4  UNL d   1       0.503  -0.457  -1.110  0.00  0.00     0.002 A 
ATOM      4  C5  UNL d   1       0.424  -1.783  -0.669  0.00  0.00    -0.080 A 
ATOM      5  C6  UNL d   1       0.950  -2.909  -1.507  0.00  0.00     0.076 C 
ATOM      6  C7  UNL d   1      -0.160  -2.051   0.574  0.00  0.00     0.002 A 
ATOM      7  C8  UNL d   1      -0.678  -1.013   1.352  0.00  0.00     0.006 A 
ENDROOT
BRANCH   1   8
ATOM      8  C1  UNL d   1      -1.234   1.421   1.714  0.00  0.00     0.054 C 
ATOM      9  C   UNL d   1      -2.570   1.856   1.128  0.00  0.00     0.018 C 
ENDBRANCH   1   8
TORSDOF 1
ENDMDL
