MODEL 1
REMARK minimizedAffinity -2.12732577
REMARK minimizedRMSD -1
REMARK  1 active torsions:
REMARK  status: ('A' for Active; 'I' for Inactive)
REMARK    1  A    between atoms: C1_2  and  C2_3 
ROOT
ATOM      1  C2  UNL d   1      -0.244   0.028   0.255  0.00  0.00    -0.081 A 
ATOM      2  C3  UNL d   1      -1.268   0.501  -0.575  0.00  0.00     0.006 A 
ATOM      3  C4  UNL d   1      -2.224   1.392  -0.083  0.00  0.00     0.002 A 
ATOM      4  C5  UNL d   1      -2.168   1.833   1.243  0.00  0.00    -0.080 A 
ATOM      5  C6  UNL d   1      -3.170   2.813   1.775  0.00  0.00     0.076 C 
ATOM      6  C7  UNL d   1      -1.155   1.347   2.078  0.00  0.00     0.002 A 
ATOM      7  C8  UNL d   1      -0.200   0.455   1.587  0.00  0.00     0.006 A 
ENDROOT
BRANCH   1   8
ATOM      8  C1  UNL d   1       0.826  -0.883  -0.290  0.00  0.00     0.054 C 
ATOM      9  C   UNL d   1       0.341  -1.630  -1.524  0.00  0.00     0.018 C 
ENDBRANCH   1   8
TORSDOF 1
ENDMDL
