MODEL 1
REMARK minimizedAffinity -5.31701088
REMARK minimizedRMSD -1
REMARK  1 active torsions:
REMARK  status: ('A' for Active; 'I' for Inactive)
REMARK    1  A    between atoms: C1_2  and  C2_3 
ROOT
ATOM      1  C2  UNL d   1       0.757  -1.175  -0.475  0.00  0.00    -0.081 A 
ATOM      2  C3  UNL d   1       0.839  -1.403   0.904  0.00  0.00     0.006 A 
ATOM      3  C4  UNL d   1       0.146  -0.586   1.800  0.00  0.00     0.002 A 
ATOM      4  C5  UNL d   1      -0.647   0.467   1.332  0.00  0.00    -0.080 A 
ATOM      5  C6  UNL d   1      -1.421   1.334   2.281  0.00  0.00     0.076 C 
ATOM      6  C7  UNL d   1      -0.716   0.706  -0.045  0.00  0.00     0.002 A 
ATOM      7  C8  UNL d   1      -0.022  -0.111  -0.941  0.00  0.00     0.006 A 
ENDROOT
BRANCH   1   8
ATOM      8  C1  UNL d   1       1.451  -2.095  -1.447  0.00  0.00     0.054 C 
ATOM      9  C   UNL d   1       0.477  -2.653  -2.474  0.00  0.00     0.018 C 
ENDBRANCH   1   8
TORSDOF 1
ENDMDL
