MODEL 1
REMARK minimizedAffinity -4.69688225
REMARK minimizedRMSD -1
REMARK  1 active torsions:
REMARK  status: ('A' for Active; 'I' for Inactive)
REMARK    1  A    between atoms: C1_2  and  C2_3 
ROOT
ATOM      1  C2  UNL d   1       0.289  -0.316  -0.139  0.00  0.00    -0.081 A 
ATOM      2  C3  UNL d   1       0.092  -0.359   1.246  0.00  0.00     0.006 A 
ATOM      3  C4  UNL d   1      -0.782   0.538   1.865  0.00  0.00     0.002 A 
ATOM      4  C5  UNL d   1      -1.479   1.486   1.109  0.00  0.00    -0.080 A 
ATOM      5  C6  UNL d   1      -2.444   2.434   1.757  0.00  0.00     0.076 C 
ATOM      6  C7  UNL d   1      -1.270   1.540  -0.273  0.00  0.00     0.002 A 
ATOM      7  C8  UNL d   1      -0.395   0.644  -0.893  0.00  0.00     0.006 A 
ENDROOT
BRANCH   1   8
ATOM      8  C1  UNL d   1       1.182  -1.324  -0.818  0.00  0.00     0.054 C 
ATOM      9  C   UNL d   1       0.384  -2.240  -1.736  0.00  0.00     0.018 C 
ENDBRANCH   1   8
TORSDOF 1
ENDMDL
