MODEL 1
REMARK minimizedAffinity -4.39176226
REMARK minimizedRMSD -1
REMARK  1 active torsions:
REMARK  status: ('A' for Active; 'I' for Inactive)
REMARK    1  A    between atoms: C1_2  and  C2_3 
ROOT
ATOM      1  C2  UNL d   1       0.520  -0.654  -0.792  0.00  0.00    -0.081 A 
ATOM      2  C3  UNL d   1       0.764   0.723  -0.847  0.00  0.00     0.006 A 
ATOM      3  C4  UNL d   1       0.152   1.588   0.063  0.00  0.00     0.002 A 
ATOM      4  C5  UNL d   1      -0.708   1.089   1.048  0.00  0.00    -0.080 A 
ATOM      5  C6  UNL d   1      -1.348   2.003   2.050  0.00  0.00     0.076 C 
ATOM      6  C7  UNL d   1      -0.966  -0.285   1.092  0.00  0.00     0.002 A 
ATOM      7  C8  UNL d   1      -0.355  -1.150   0.182  0.00  0.00     0.006 A 
ENDROOT
BRANCH   1   8
ATOM      8  C1  UNL d   1       1.228  -1.597  -1.731  0.00  0.00     0.054 C 
ATOM      9  C   UNL d   1       0.238  -2.372  -2.589  0.00  0.00     0.018 C 
ENDBRANCH   1   8
TORSDOF 1
ENDMDL
