MODEL 1
REMARK minimizedAffinity -3.99521446
REMARK minimizedRMSD -1
REMARK  1 active torsions:
REMARK  status: ('A' for Active; 'I' for Inactive)
REMARK    1  A    between atoms: C1_2  and  C2_3 
ROOT
ATOM      1  C2  UNL d   1       0.688  -0.670  -0.470  0.00  0.00    -0.081 A 
ATOM      2  C3  UNL d   1       0.283  -0.910   0.848  0.00  0.00     0.006 A 
ATOM      3  C4  UNL d   1      -0.593  -0.032   1.491  0.00  0.00     0.002 A 
ATOM      4  C5  UNL d   1      -1.083   1.096   0.825  0.00  0.00    -0.080 A 
ATOM      5  C6  UNL d   1      -2.047   2.030   1.494  0.00  0.00     0.076 C 
ATOM      6  C7  UNL d   1      -0.665   1.345  -0.486  0.00  0.00     0.002 A 
ATOM      7  C8  UNL d   1       0.211   0.468  -1.130  0.00  0.00     0.006 A 
ENDROOT
BRANCH   1   8
ATOM      8  C1  UNL d   1       1.580  -1.650  -1.189  0.00  0.00     0.054 C 
ATOM      9  C   UNL d   1       0.848  -2.950  -1.487  0.00  0.00     0.018 C 
ENDBRANCH   1   8
TORSDOF 1
ENDMDL
