MODEL 1
REMARK minimizedAffinity -4.39579201
REMARK minimizedRMSD -1
REMARK  0 active torsions:
REMARK  status: ('A' for Active; 'I' for Inactive)
ROOT
ATOM      1  C2' OXE d   1      -0.752   0.704  -0.229  0.00  0.00     0.078 C 
ATOM      2  C1' OXE d   1       1.935   0.314  -0.945  0.00  0.00     0.078 C 
ATOM      3  C1  OXE d   1       1.323  -0.649   0.042  0.00  0.00    -0.078 A 
ATOM      4  C2  OXE d   1       0.022  -0.423   0.422  0.00  0.00    -0.078 A 
ATOM      5  C3  OXE d   1      -0.608  -1.313   1.287  0.00  0.00     0.003 A 
ATOM      6  C4  OXE d   1       0.117  -2.346   1.893  0.00  0.00    -0.002 A 
ATOM      7  C5  OXE d   1       1.455  -2.570   1.550  0.00  0.00    -0.002 A 
ATOM      8  C6  OXE d   1       2.059  -1.759   0.596  0.00  0.00     0.003 A 
ENDROOT
TORSDOF 0
ENDMDL
