MODEL 1
REMARK minimizedAffinity -4.31244898
REMARK minimizedRMSD -1
REMARK  0 active torsions:
REMARK  status: ('A' for Active; 'I' for Inactive)
ROOT
ATOM      1  C2' OXE d   1       1.941   0.641  -1.277  0.00  0.00     0.078 C 
ATOM      2  C1' OXE d   1      -0.446   1.362   0.012  0.00  0.00     0.078 C 
ATOM      3  C1  OXE d   1       0.214   0.070   0.424  0.00  0.00    -0.078 A 
ATOM      4  C2  OXE d   1       1.357  -0.299  -0.244  0.00  0.00    -0.078 A 
ATOM      5  C3  OXE d   1       2.035  -1.453   0.134  0.00  0.00     0.003 A 
ATOM      6  C4  OXE d   1       1.482  -2.321   1.083  0.00  0.00    -0.002 A 
ATOM      7  C5  OXE d   1       0.298  -1.985   1.748  0.00  0.00    -0.002 A 
ATOM      8  C6  OXE d   1      -0.325  -0.775   1.461  0.00  0.00     0.003 A 
ENDROOT
TORSDOF 0
ENDMDL
