MODEL 1
REMARK minimizedAffinity -5.34435844
REMARK minimizedRMSD -1
REMARK  0 active torsions:
REMARK  status: ('A' for Active; 'I' for Inactive)
ROOT
ATOM      1  C2' OXE d   1      -0.907   0.808   1.064  0.00  0.00     0.078 C 
ATOM      2  C1' OXE d   1      -1.204  -1.367   2.813  0.00  0.00     0.078 C 
ATOM      3  C1  OXE d   1      -0.102  -1.437   1.785  0.00  0.00    -0.078 A 
ATOM      4  C2  OXE d   1       0.006  -0.388   0.903  0.00  0.00    -0.078 A 
ATOM      5  C3  OXE d   1       1.039  -0.376  -0.030  0.00  0.00     0.003 A 
ATOM      6  C4  OXE d   1       1.873  -1.491  -0.178  0.00  0.00    -0.002 A 
ATOM      7  C5  OXE d   1       1.754  -2.587   0.684  0.00  0.00    -0.002 A 
ATOM      8  C6  OXE d   1       0.802  -2.557   1.696  0.00  0.00     0.003 A 
ENDROOT
TORSDOF 0
ENDMDL
