MODEL 1
REMARK minimizedAffinity -5.32106829
REMARK minimizedRMSD -1
REMARK  0 active torsions:
REMARK  status: ('A' for Active; 'I' for Inactive)
ROOT
ATOM      1  C2' OXE d   1       1.362  -2.789   1.493  0.00  0.00     0.078 C 
ATOM      2  C1' OXE d   1      -0.842  -2.051   3.068  0.00  0.00     0.078 C 
ATOM      3  C1  OXE d   1      -0.482  -1.164   1.903  0.00  0.00    -0.078 A 
ATOM      4  C2  OXE d   1       0.626  -1.507   1.166  0.00  0.00    -0.078 A 
ATOM      5  C3  OXE d   1       0.970  -0.754   0.047  0.00  0.00     0.003 A 
ATOM      6  C4  OXE d   1       0.290   0.435  -0.244  0.00  0.00    -0.002 A 
ATOM      7  C5  OXE d   1      -0.817   0.824   0.518  0.00  0.00    -0.002 A 
ATOM      8  C6  OXE d   1      -1.241   0.015   1.567  0.00  0.00     0.003 A 
ENDROOT
TORSDOF 0
ENDMDL
