MODEL 1
REMARK minimizedAffinity -4.61658764
REMARK minimizedRMSD -1
REMARK  0 active torsions:
REMARK  status: ('A' for Active; 'I' for Inactive)
ROOT
ATOM      1  C2' OXE d   1       0.381   4.680  -3.449  0.00  0.00     0.078 C 
ATOM      2  C1' OXE d   1      -0.558   3.487  -5.811  0.00  0.00     0.078 C 
ATOM      3  C1  OXE d   1      -0.997   2.888  -4.498  0.00  0.00    -0.078 A 
ATOM      4  C2  OXE d   1      -0.495   3.450  -3.348  0.00  0.00    -0.078 A 
ATOM      5  C3  OXE d   1      -0.911   2.971  -2.109  0.00  0.00     0.003 A 
ATOM      6  C4  OXE d   1      -1.713   1.827  -2.024  0.00  0.00    -0.002 A 
ATOM      7  C5  OXE d   1      -2.203   1.215  -3.183  0.00  0.00    -0.002 A 
ATOM      8  C6  OXE d   1      -1.889   1.758  -4.424  0.00  0.00     0.003 A 
ENDROOT
TORSDOF 0
ENDMDL
