MODEL 1
REMARK minimizedAffinity -4.52710629
REMARK minimizedRMSD -1
REMARK  0 active torsions:
REMARK  status: ('A' for Active; 'I' for Inactive)
ROOT
ATOM      1  C2' OXE d   1      -1.089   2.057  -1.507  0.00  0.00     0.078 C 
ATOM      2  C1' OXE d   1      -1.902   1.211  -4.057  0.00  0.00     0.078 C 
ATOM      3  C1  OXE d   1      -1.104   2.487  -3.960  0.00  0.00    -0.078 A 
ATOM      4  C2  OXE d   1      -0.751   2.918  -2.705  0.00  0.00    -0.078 A 
ATOM      5  C3  OXE d   1       0.033   4.060  -2.563  0.00  0.00     0.003 A 
ATOM      6  C4  OXE d   1       0.333   4.856  -3.675  0.00  0.00    -0.002 A 
ATOM      7  C5  OXE d   1      -0.051   4.456  -4.959  0.00  0.00    -0.002 A 
ATOM      8  C6  OXE d   1      -0.732   3.254  -5.123  0.00  0.00     0.003 A 
ENDROOT
TORSDOF 0
ENDMDL
