MODEL 1
REMARK minimizedAffinity -5.10616922
REMARK minimizedRMSD -1
REMARK  0 active torsions:
REMARK  status: ('A' for Active; 'I' for Inactive)
ROOT
ATOM      1  C2' OXE d   1       1.569  -2.584   1.145  0.00  0.00     0.078 C 
ATOM      2  C1' OXE d   1      -0.914  -1.885   2.253  0.00  0.00     0.078 C 
ATOM      3  C1  OXE d   1      -0.340  -0.984   1.188  0.00  0.00    -0.078 A 
ATOM      4  C2  OXE d   1       0.897  -1.308   0.685  0.00  0.00    -0.078 A 
ATOM      5  C3  OXE d   1       1.448  -0.542  -0.338  0.00  0.00     0.003 A 
ATOM      6  C4  OXE d   1       0.824   0.642  -0.751  0.00  0.00    -0.002 A 
ATOM      7  C5  OXE d   1      -0.417   1.012  -0.223  0.00  0.00    -0.002 A 
ATOM      8  C6  OXE d   1      -1.032   0.189   0.714  0.00  0.00     0.003 A 
ENDROOT
TORSDOF 0
ENDMDL
