MODEL 1
REMARK minimizedAffinity -1.50997365
REMARK minimizedRMSD -1
REMARK  0 active torsions:
REMARK  status: ('A' for Active; 'I' for Inactive)
ROOT
ATOM      1  C2' OXE d   1      -0.777   1.493  -0.861  0.00  0.00     0.078 C 
ATOM      2  C1' OXE d   1      -3.173   1.185  -2.291  0.00  0.00     0.078 C 
ATOM      3  C1  OXE d   1      -2.145   2.143  -2.839  0.00  0.00    -0.078 A 
ATOM      4  C2  OXE d   1      -0.996   2.323  -2.108  0.00  0.00    -0.078 A 
ATOM      5  C3  OXE d   1       0.009   3.154  -2.596  0.00  0.00     0.003 A 
ATOM      6  C4  OXE d   1      -0.205   3.925  -3.745  0.00  0.00    -0.002 A 
ATOM      7  C5  OXE d   1      -1.386   3.787  -4.483  0.00  0.00    -0.002 A 
ATOM      8  C6  OXE d   1      -2.346   2.871  -4.068  0.00  0.00     0.003 A 
ENDROOT
TORSDOF 0
ENDMDL
