MODEL 1
REMARK minimizedAffinity -2.73651171
REMARK minimizedRMSD -1
REMARK  0 active torsions:
REMARK  status: ('A' for Active; 'I' for Inactive)
ROOT
ATOM      1  C2' OXE d   1      -2.452   0.416  -1.838  0.00  0.00     0.078 C 
ATOM      2  C1' OXE d   1      -0.472   1.859  -0.467  0.00  0.00     0.078 C 
ATOM      3  C1  OXE d   1      -0.780   2.263  -1.888  0.00  0.00    -0.078 A 
ATOM      4  C2  OXE d   1      -1.717   1.521  -2.566  0.00  0.00    -0.078 A 
ATOM      5  C3  OXE d   1      -2.079   1.885  -3.860  0.00  0.00     0.003 A 
ATOM      6  C4  OXE d   1      -1.387   2.902  -4.530  0.00  0.00    -0.002 A 
ATOM      7  C5  OXE d   1      -0.401   3.644  -3.870  0.00  0.00    -0.002 A 
ATOM      8  C6  OXE d   1      -0.116   3.365  -2.538  0.00  0.00     0.003 A 
ENDROOT
TORSDOF 0
ENDMDL
