MODEL 1
REMARK minimizedAffinity -4.41599321
REMARK minimizedRMSD -1
REMARK  0 active torsions:
REMARK  status: ('A' for Active; 'I' for Inactive)
ROOT
ATOM      1  C2' OXE d   1      -0.883   1.740  -0.794  0.00  0.00     0.078 C 
ATOM      2  C1' OXE d   1      -3.161   1.223  -2.350  0.00  0.00     0.078 C 
ATOM      3  C1  OXE d   1      -2.066   2.060  -2.963  0.00  0.00    -0.078 A 
ATOM      4  C2  OXE d   1      -0.975   2.347  -2.178  0.00  0.00    -0.078 A 
ATOM      5  C3  OXE d   1       0.089   3.068  -2.712  0.00  0.00     0.003 A 
ATOM      6  C4  OXE d   1      -0.009   3.634  -3.989  0.00  0.00    -0.002 A 
ATOM      7  C5  OXE d   1      -1.129   3.387  -4.791  0.00  0.00    -0.002 A 
ATOM      8  C6  OXE d   1      -2.145   2.568  -4.310  0.00  0.00     0.003 A 
ENDROOT
TORSDOF 0
ENDMDL
