MODEL 1
REMARK minimizedAffinity -4.25628519
REMARK minimizedRMSD -1
REMARK  0 active torsions:
REMARK  status: ('A' for Active; 'I' for Inactive)
ROOT
ATOM      1  C2' OXE d   1      -0.636   1.559  -0.631  0.00  0.00     0.078 C 
ATOM      2  C1' OXE d   1      -2.651   0.924  -2.479  0.00  0.00     0.078 C 
ATOM      3  C1  OXE d   1      -1.557   1.862  -2.926  0.00  0.00    -0.078 A 
ATOM      4  C2  OXE d   1      -0.600   2.203  -2.000  0.00  0.00    -0.078 A 
ATOM      5  C3  OXE d   1       0.461   3.021  -2.375  0.00  0.00     0.003 A 
ATOM      6  C4  OXE d   1       0.481   3.621  -3.640  0.00  0.00    -0.002 A 
ATOM      7  C5  OXE d   1      -0.505   3.318  -4.585  0.00  0.00    -0.002 A 
ATOM      8  C6  OXE d   1      -1.505   2.409  -4.259  0.00  0.00     0.003 A 
ENDROOT
TORSDOF 0
ENDMDL
