MODEL 1
REMARK minimizedAffinity -5.44159508
REMARK minimizedRMSD -1
REMARK  0 active torsions:
REMARK  status: ('A' for Active; 'I' for Inactive)
ROOT
ATOM      1  C2' OXE d   1      -0.258   3.364  -5.563  0.00  0.00     0.078 C 
ATOM      2  C1' OXE d   1       0.419   4.696  -3.186  0.00  0.00     0.078 C 
ATOM      3  C1  OXE d   1      -0.523   3.522  -3.091  0.00  0.00    -0.078 A 
ATOM      4  C2  OXE d   1      -0.886   2.906  -4.264  0.00  0.00    -0.078 A 
ATOM      5  C3  OXE d   1      -1.709   1.784  -4.227  0.00  0.00     0.003 A 
ATOM      6  C4  OXE d   1      -2.293   1.372  -3.023  0.00  0.00    -0.002 A 
ATOM      7  C5  OXE d   1      -1.968   2.011  -1.822  0.00  0.00    -0.002 A 
ATOM      8  C6  OXE d   1      -1.054   3.059  -1.833  0.00  0.00     0.003 A 
ENDROOT
TORSDOF 0
ENDMDL
