MODEL 1
REMARK minimizedAffinity -4.03914499
REMARK minimizedRMSD -1
REMARK  0 active torsions:
REMARK  status: ('A' for Active; 'I' for Inactive)
ROOT
ATOM      1  C2' OXE d   1      -1.371   2.017  -0.673  0.00  0.00     0.078 C 
ATOM      2  C1' OXE d   1      -3.287   1.481  -2.653  0.00  0.00     0.078 C 
ATOM      3  C1  OXE d   1      -2.008   2.159  -3.077  0.00  0.00    -0.078 A 
ATOM      4  C2  OXE d   1      -1.096   2.459  -2.094  0.00  0.00    -0.078 A 
ATOM      5  C3  OXE d   1       0.124   3.035  -2.439  0.00  0.00     0.003 A 
ATOM      6  C4  OXE d   1       0.366   3.449  -3.754  0.00  0.00    -0.002 A 
ATOM      7  C5  OXE d   1      -0.567   3.189  -4.763  0.00  0.00    -0.002 A 
ATOM      8  C6  OXE d   1      -1.738   2.508  -4.450  0.00  0.00     0.003 A 
ENDROOT
TORSDOF 0
ENDMDL
