MODEL 1
REMARK minimizedAffinity -5.76648617
REMARK minimizedRMSD -1
REMARK  0 active torsions:
REMARK  status: ('A' for Active; 'I' for Inactive)
ROOT
ATOM      1  C2' OXE d   1      -2.801   1.212  -2.243  0.00  0.00     0.078 C 
ATOM      2  C1' OXE d   1      -0.577   2.102  -0.779  0.00  0.00     0.078 C 
ATOM      3  C1  OXE d   1      -0.786   2.674  -2.159  0.00  0.00    -0.078 A 
ATOM      4  C2  OXE d   1      -1.850   2.198  -2.886  0.00  0.00    -0.078 A 
ATOM      5  C3  OXE d   1      -2.120   2.732  -4.143  0.00  0.00     0.003 A 
ATOM      6  C4  OXE d   1      -1.230   3.636  -4.735  0.00  0.00    -0.002 A 
ATOM      7  C5  OXE d   1      -0.117   4.104  -4.027  0.00  0.00    -0.002 A 
ATOM      8  C6  OXE d   1       0.095   3.666  -2.725  0.00  0.00     0.003 A 
ENDROOT
TORSDOF 0
ENDMDL
