MODEL 1
REMARK minimizedAffinity -2.39627957
REMARK minimizedRMSD -1
REMARK  0 active torsions:
REMARK  status: ('A' for Active; 'I' for Inactive)
ROOT
ATOM      1  C2' OXE d   1      -0.889   1.011  -0.618  0.00  0.00     0.078 C 
ATOM      2  C1' OXE d   1      -1.469  -0.203   1.845  0.00  0.00     0.078 C 
ATOM      3  C1  OXE d   1      -0.123  -0.481   1.224  0.00  0.00    -0.078 A 
ATOM      4  C2  OXE d   1       0.134   0.080  -0.004  0.00  0.00    -0.078 A 
ATOM      5  C3  OXE d   1       1.380  -0.099  -0.597  0.00  0.00     0.003 A 
ATOM      6  C4  OXE d   1       2.317  -0.970  -0.027  0.00  0.00    -0.002 A 
ATOM      7  C5  OXE d   1       2.060  -1.583   1.203  0.00  0.00    -0.002 A 
ATOM      8  C6  OXE d   1       0.865  -1.316   1.861  0.00  0.00     0.003 A 
ENDROOT
TORSDOF 0
ENDMDL
