MODEL 1
REMARK minimizedAffinity -2.88178849
REMARK minimizedRMSD -1
REMARK  0 active torsions:
REMARK  status: ('A' for Active; 'I' for Inactive)
ROOT
ATOM      1  C2' OXE d   1      -1.015   1.282   1.163  0.00  0.00     0.078 C 
ATOM      2  C1' OXE d   1      -0.962  -0.776   3.072  0.00  0.00     0.078 C 
ATOM      3  C1  OXE d   1       0.115  -0.767   2.017  0.00  0.00    -0.078 A 
ATOM      4  C2  OXE d   1       0.055   0.216   1.059  0.00  0.00    -0.078 A 
ATOM      5  C3  OXE d   1       1.055   0.303   0.095  0.00  0.00     0.003 A 
ATOM      6  C4  OXE d   1       2.035  -0.693  -0.000  0.00  0.00    -0.002 A 
ATOM      7  C5  OXE d   1       2.092  -1.726   0.941  0.00  0.00    -0.002 A 
ATOM      8  C6  OXE d   1       1.167  -1.753   1.979  0.00  0.00     0.003 A 
ENDROOT
TORSDOF 0
ENDMDL
