MODEL 1
REMARK minimizedAffinity -4.59882593
REMARK minimizedRMSD -1
REMARK  1 active torsions:
REMARK  status: ('A' for Active; 'I' for Inactive)
REMARK    1  A    between atoms: C1_2  and  C2_3 
ROOT
ATOM      1  C2  UNL d   1      -0.411   0.213   0.169  0.00  0.00    -0.073 A 
ATOM      2  C3  UNL d   1      -0.140  -0.822  -0.733  0.00  0.00    -0.002 A 
ATOM      3  C4  UNL d   1       0.002  -0.552  -2.095  0.00  0.00     0.004 A 
ATOM      4  C5  UNL d   1      -0.119   0.755  -2.567  0.00  0.00    -0.004 A 
ATOM      5  C6  UNL d   1      -0.379   1.805  -1.680  0.00  0.00    -0.075 A 
ATOM      6  C7  UNL d   1      -0.514   3.216  -2.173  0.00  0.00     0.076 C 
ATOM      7  C8  UNL d   1      -0.522   1.525  -0.315  0.00  0.00     0.001 A 
ENDROOT
BRANCH   1   8
ATOM      8  C1  UNL d   1      -0.559  -0.073   1.641  0.00  0.00     0.053 C 
ATOM      9  C   UNL d   1       0.458  -1.093   2.128  0.00  0.00     0.018 C 
ENDBRANCH   1   8
TORSDOF 1
ENDMDL
