MODEL 1
REMARK minimizedAffinity 0.450250298
REMARK minimizedRMSD -1
REMARK  1 active torsions:
REMARK  status: ('A' for Active; 'I' for Inactive)
REMARK    1  A    between atoms: C1_2  and  C2_3 
ROOT
ATOM      1  C2  UNL d   1       1.097  -1.761   1.404  0.00  0.00    -0.073 A 
ATOM      2  C3  UNL d   1       0.262  -1.576   2.512  0.00  0.00    -0.002 A 
ATOM      3  C4  UNL d   1      -0.790  -0.660   2.456  0.00  0.00     0.004 A 
ATOM      4  C5  UNL d   1      -1.021   0.073   1.292  0.00  0.00    -0.004 A 
ATOM      5  C6  UNL d   1      -0.204  -0.107   0.171  0.00  0.00    -0.075 A 
ATOM      6  C7  UNL d   1      -0.438   0.676  -1.088  0.00  0.00     0.076 C 
ATOM      7  C8  UNL d   1       0.852  -1.026   0.236  0.00  0.00     0.001 A 
ENDROOT
BRANCH   1   8
ATOM      8  C1  UNL d   1       2.230  -2.753   1.458  0.00  0.00     0.053 C 
ATOM      9  C   UNL d   1       2.982  -2.831   0.139  0.00  0.00     0.018 C 
ENDBRANCH   1   8
TORSDOF 1
ENDMDL
