MODEL 1
REMARK minimizedAffinity -0.966184378
REMARK minimizedRMSD -1
REMARK  1 active torsions:
REMARK  status: ('A' for Active; 'I' for Inactive)
REMARK    1  A    between atoms: C1_2  and  C2_3 
ROOT
ATOM      1  C2  UNL d   1       1.897   1.729   0.782  0.00  0.00    -0.077 A 
ATOM      2  C3  UNL d   1       1.631   1.815   2.156  0.00  0.00     0.002 A 
ATOM      3  C4  UNL d   1       0.694   2.732   2.637  0.00  0.00     0.002 A 
ATOM      4  C5  UNL d   1       0.013   3.565   1.752  0.00  0.00    -0.004 A 
ATOM      5  C6  UNL d   1       0.272   3.488   0.384  0.00  0.00     0.002 A 
ATOM      6  C7  UNL d   1       1.209   2.573  -0.099  0.00  0.00     0.002 A 
ENDROOT
BRANCH   1   7
ATOM      7  C1  UNL d   1       2.871   0.708   0.256  0.00  0.00     0.055 C 
ATOM      8  C   UNL d   1       2.178  -0.309  -0.640  0.00  0.00     0.019 C 
ENDBRANCH   1   7
TORSDOF 1
ENDMDL
