MODEL 1
REMARK minimizedAffinity 2.16250348
REMARK minimizedRMSD -1
REMARK  1 active torsions:
REMARK  status: ('A' for Active; 'I' for Inactive)
REMARK    1  A    between atoms: C1_2  and  C2_3 
ROOT
ATOM      1  C2  UNL d   1      -5.990   3.246  -1.151  0.00  0.00    -0.077 A 
ATOM      2  C3  UNL d   1      -5.990   3.389  -2.546  0.00  0.00     0.002 A 
ATOM      3  C4  UNL d   1      -5.996   4.659  -3.126  0.00  0.00     0.002 A 
ATOM      4  C5  UNL d   1      -5.998   5.795  -2.320  0.00  0.00    -0.004 A 
ATOM      5  C6  UNL d   1      -6.000   5.664  -0.932  0.00  0.00     0.002 A 
ATOM      6  C7  UNL d   1      -5.995   4.395  -0.350  0.00  0.00     0.002 A 
ENDROOT
BRANCH   1   7
ATOM      7  C1  UNL d   1      -5.933   1.878  -0.524  0.00  0.00     0.055 C 
ATOM      8  C   UNL d   1      -4.519   1.528  -0.085  0.00  0.00     0.019 C 
ENDBRANCH   1   7
TORSDOF 1
ENDMDL
