MODEL 1
REMARK minimizedAffinity 5.94743299
REMARK minimizedRMSD -1
REMARK  1 active torsions:
REMARK  status: ('A' for Active; 'I' for Inactive)
REMARK    1  A    between atoms: C1_2  and  C2_3 
ROOT
ATOM      1  C2  UNL d   1       0.633   2.319   0.885  0.00  0.00    -0.077 A 
ATOM      2  C3  UNL d   1      -0.359   2.872   1.707  0.00  0.00     0.002 A 
ATOM      3  C4  UNL d   1      -1.258   2.045   2.384  0.00  0.00     0.002 A 
ATOM      4  C5  UNL d   1      -1.170   0.661   2.250  0.00  0.00    -0.004 A 
ATOM      5  C6  UNL d   1      -0.187   0.102   1.434  0.00  0.00     0.002 A 
ATOM      6  C7  UNL d   1       0.710   0.927   0.755  0.00  0.00     0.002 A 
ENDROOT
BRANCH   1   7
ATOM      7  C1  UNL d   1       1.633   3.207   0.193  0.00  0.00     0.055 C 
ATOM      8  C   UNL d   1       3.057   2.718   0.417  0.00  0.00     0.019 C 
ENDBRANCH   1   7
TORSDOF 1
ENDMDL
