MODEL 1
REMARK minimizedAffinity 1.61194253
REMARK minimizedRMSD -1
REMARK  1 active torsions:
REMARK  status: ('A' for Active; 'I' for Inactive)
REMARK    1  A    between atoms: C1_2  and  C2_3 
ROOT
ATOM      1  C2  UNL d   1       1.656   2.435   0.698  0.00  0.00    -0.077 A 
ATOM      2  C3  UNL d   1       0.666   3.405   0.486  0.00  0.00     0.002 A 
ATOM      3  C4  UNL d   1      -0.678   3.036   0.405  0.00  0.00     0.002 A 
ATOM      4  C5  UNL d   1      -1.045   1.699   0.538  0.00  0.00    -0.004 A 
ATOM      5  C6  UNL d   1      -0.068   0.726   0.747  0.00  0.00     0.002 A 
ATOM      6  C7  UNL d   1       1.276   1.092   0.827  0.00  0.00     0.002 A 
ENDROOT
BRANCH   1   7
ATOM      7  C1  UNL d   1       3.101   2.836   0.835  0.00  0.00     0.055 C 
ATOM      8  C   UNL d   1       4.006   1.617   0.941  0.00  0.00     0.019 C 
ENDBRANCH   1   7
TORSDOF 1
ENDMDL
