MODEL 1
REMARK minimizedAffinity -0.775120735
REMARK minimizedRMSD -1
REMARK  1 active torsions:
REMARK  status: ('A' for Active; 'I' for Inactive)
REMARK    1  A    between atoms: C1_2  and  C2_3 
ROOT
ATOM      1  C2  UNL d   1       0.996   2.413   0.761  0.00  0.00    -0.077 A 
ATOM      2  C3  UNL d   1       0.339   1.229   1.123  0.00  0.00     0.002 A 
ATOM      3  C4  UNL d   1      -1.054   1.148   1.066  0.00  0.00     0.002 A 
ATOM      4  C5  UNL d   1      -1.800   2.246   0.643  0.00  0.00    -0.004 A 
ATOM      5  C6  UNL d   1      -1.156   3.429   0.282  0.00  0.00     0.002 A 
ATOM      6  C7  UNL d   1       0.236   3.512   0.341  0.00  0.00     0.002 A 
ENDROOT
BRANCH   1   7
ATOM      7  C1  UNL d   1       2.501   2.486   0.776  0.00  0.00     0.055 C 
ATOM      8  C   UNL d   1       3.124   1.110   0.591  0.00  0.00     0.019 C 
ENDBRANCH   1   7
TORSDOF 1
ENDMDL
