MODEL 1
REMARK minimizedAffinity 2.9076817
REMARK minimizedRMSD -1
REMARK  1 active torsions:
REMARK  status: ('A' for Active; 'I' for Inactive)
REMARK    1  A    between atoms: C1_2  and  C2_3 
ROOT
ATOM      1  C2  UNL d   1       0.811   1.604   0.927  0.00  0.00    -0.077 A 
ATOM      2  C3  UNL d   1       0.444   0.260   0.768  0.00  0.00     0.002 A 
ATOM      3  C4  UNL d   1       1.413  -0.711   0.509  0.00  0.00     0.002 A 
ATOM      4  C5  UNL d   1       2.755  -0.349   0.410  0.00  0.00    -0.004 A 
ATOM      5  C6  UNL d   1       3.130   0.985   0.564  0.00  0.00     0.002 A 
ATOM      6  C7  UNL d   1       2.162   1.957   0.822  0.00  0.00     0.002 A 
ENDROOT
BRANCH   1   7
ATOM      7  C1  UNL d   1      -0.227   2.645   1.255  0.00  0.00     0.055 C 
ATOM      8  C   UNL d   1      -1.444   2.519   0.351  0.00  0.00     0.019 C 
ENDBRANCH   1   7
TORSDOF 1
ENDMDL
