MODEL 1
REMARK minimizedAffinity 1.22970617
REMARK minimizedRMSD -1
REMARK  1 active torsions:
REMARK  status: ('A' for Active; 'I' for Inactive)
REMARK    1  A    between atoms: C1_2  and  C2_3 
ROOT
ATOM      1  C2  UNL d   1       1.891   3.142   0.188  0.00  0.00    -0.077 A 
ATOM      2  C3  UNL d   1       1.155   2.437   1.150  0.00  0.00     0.002 A 
ATOM      3  C4  UNL d   1      -0.235   2.562   1.207  0.00  0.00     0.002 A 
ATOM      4  C5  UNL d   1      -0.899   3.387   0.302  0.00  0.00    -0.004 A 
ATOM      5  C6  UNL d   1      -0.176   4.094  -0.657  0.00  0.00     0.002 A 
ATOM      6  C7  UNL d   1       1.213   3.972  -0.714  0.00  0.00     0.002 A 
ENDROOT
BRANCH   1   7
ATOM      7  C1  UNL d   1       3.385   2.971   0.094  0.00  0.00     0.055 C 
ATOM      8  C   UNL d   1       3.843   1.706   0.804  0.00  0.00     0.019 C 
ENDBRANCH   1   7
TORSDOF 1
ENDMDL
