MODEL 1
REMARK minimizedAffinity 7.7694006
REMARK minimizedRMSD -1
REMARK  1 active torsions:
REMARK  status: ('A' for Active; 'I' for Inactive)
REMARK    1  A    between atoms: C1_2  and  C2_3 
ROOT
ATOM      1  C2  UNL d   1       2.488   2.624   0.792  0.00  0.00    -0.077 A 
ATOM      2  C3  UNL d   1       2.596   3.629  -0.180  0.00  0.00     0.002 A 
ATOM      3  C4  UNL d   1       1.453   4.137  -0.801  0.00  0.00     0.002 A 
ATOM      4  C5  UNL d   1       0.195   3.650  -0.454  0.00  0.00    -0.004 A 
ATOM      5  C6  UNL d   1       0.077   2.649   0.510  0.00  0.00     0.002 A 
ATOM      6  C7  UNL d   1       1.218   2.139   1.130  0.00  0.00     0.002 A 
ENDROOT
BRANCH   1   7
ATOM      7  C1  UNL d   1       3.715   2.109   1.497  0.00  0.00     0.055 C 
ATOM      8  C   UNL d   1       3.942   2.836   2.815  0.00  0.00     0.019 C 
ENDBRANCH   1   7
TORSDOF 1
ENDMDL
