MODEL 1
REMARK minimizedAffinity -3.48201275
REMARK minimizedRMSD -1
REMARK  0 active torsions:
REMARK  status: ('A' for Active; 'I' for Inactive)
ROOT
ATOM      1  C1  BNZ d   1       1.015  -2.257  -1.450  0.00  0.00     0.000 A 
ATOM      2  C2  BNZ d   1       1.906  -1.224  -1.576  0.00  0.00     0.000 A 
ATOM      3  C3  BNZ d   1       1.819  -0.123  -0.771  0.00  0.00     0.000 A 
ATOM      4  C4  BNZ d   1       0.819  -0.038   0.130  0.00  0.00     0.000 A 
ATOM      5  C5  BNZ d   1      -0.092  -1.067   0.263  0.00  0.00     0.000 A 
ATOM      6  C6  BNZ d   1       0.022  -2.191  -0.522  0.00  0.00     0.000 A 
ENDROOT
TORSDOF 0
ENDMDL
