MODEL 1
REMARK minimizedAffinity -1.8713212
REMARK minimizedRMSD -1
REMARK  0 active torsions:
REMARK  status: ('A' for Active; 'I' for Inactive)
ROOT
ATOM      1  C1  BNZ d   1       1.891  -1.142  -0.416  0.00  0.00     0.000 A 
ATOM      2  C2  BNZ d   1       1.492   0.167  -0.471  0.00  0.00     0.000 A 
ATOM      3  C3  BNZ d   1       0.226   0.529  -0.103  0.00  0.00     0.000 A 
ATOM      4  C4  BNZ d   1      -0.650  -0.422   0.280  0.00  0.00     0.000 A 
ATOM      5  C5  BNZ d   1      -0.266  -1.747   0.332  0.00  0.00     0.000 A 
ATOM      6  C6  BNZ d   1       1.021  -2.103  -0.002  0.00  0.00     0.000 A 
ENDROOT
TORSDOF 0
ENDMDL
