MODEL 1
REMARK minimizedAffinity -3.85915327
REMARK minimizedRMSD -1
REMARK  0 active torsions:
REMARK  status: ('A' for Active; 'I' for Inactive)
ROOT
ATOM      1  C1  BNZ d   1       1.916   0.613  -0.896  0.00  0.00     0.000 A 
ATOM      2  C2  BNZ d   1       2.440  -0.632  -1.120  0.00  0.00     0.000 A 
ATOM      3  C3  BNZ d   1       1.719  -1.757  -0.832  0.00  0.00     0.000 A 
ATOM      4  C4  BNZ d   1       0.492  -1.636  -0.284  0.00  0.00     0.000 A 
ATOM      5  C5  BNZ d   1      -0.046  -0.388  -0.044  0.00  0.00     0.000 A 
ATOM      6  C6  BNZ d   1       0.667   0.743  -0.371  0.00  0.00     0.000 A 
ENDROOT
TORSDOF 0
ENDMDL
