MODEL 1
REMARK minimizedAffinity -3.88014579
REMARK minimizedRMSD -1
REMARK  0 active torsions:
REMARK  status: ('A' for Active; 'I' for Inactive)
ROOT
ATOM      1  C1  BNZ d   1       2.221  -0.409  -0.932  0.00  0.00     0.000 A 
ATOM      2  C2  BNZ d   1       1.436  -1.495  -0.646  0.00  0.00     0.000 A 
ATOM      3  C3  BNZ d   1       0.143  -1.334  -0.235  0.00  0.00     0.000 A 
ATOM      4  C4  BNZ d   1      -0.352  -0.090  -0.072  0.00  0.00     0.000 A 
ATOM      5  C5  BNZ d   1       0.429   1.014  -0.348  0.00  0.00     0.000 A 
ATOM      6  C6  BNZ d   1       1.718   0.849  -0.799  0.00  0.00     0.000 A 
ENDROOT
TORSDOF 0
ENDMDL
