MODEL 1
REMARK minimizedAffinity -3.52724314
REMARK minimizedRMSD -1
REMARK  0 active torsions:
REMARK  status: ('A' for Active; 'I' for Inactive)
ROOT
ATOM      1  C1  BNZ d   1       1.970   0.565  -0.797  0.00  0.00     0.000 A 
ATOM      2  C2  BNZ d   1       0.749   0.656  -0.183  0.00  0.00     0.000 A 
ATOM      3  C3  BNZ d   1       0.085  -0.467   0.223  0.00  0.00     0.000 A 
ATOM      4  C4  BNZ d   1       0.622  -1.679  -0.019  0.00  0.00     0.000 A 
ATOM      5  C5  BNZ d   1       1.848  -1.788  -0.645  0.00  0.00     0.000 A 
ATOM      6  C6  BNZ d   1       2.532  -0.654  -1.019  0.00  0.00     0.000 A 
ENDROOT
TORSDOF 0
ENDMDL
