MODEL 1
REMARK minimizedAffinity -2.58781147
REMARK minimizedRMSD -1
REMARK  0 active torsions:
REMARK  status: ('A' for Active; 'I' for Inactive)
ROOT
ATOM      1  C1  BNZ d   1       0.386  -1.693  -0.128  0.00  0.00     0.000 A 
ATOM      2  C2  BNZ d   1      -0.887  -1.330   0.221  0.00  0.00     0.000 A 
ATOM      3  C3  BNZ d   1      -1.251  -0.013   0.270  0.00  0.00     0.000 A 
ATOM      4  C4  BNZ d   1      -0.332   0.939   0.009  0.00  0.00     0.000 A 
ATOM      5  C5  BNZ d   1       0.959   0.589  -0.335  0.00  0.00     0.000 A 
ATOM      6  C6  BNZ d   1       1.311  -0.739  -0.421  0.00  0.00     0.000 A 
ENDROOT
TORSDOF 0
ENDMDL
