MODEL 1
REMARK minimizedAffinity -3.00870419
REMARK minimizedRMSD -1
REMARK  0 active torsions:
REMARK  status: ('A' for Active; 'I' for Inactive)
ROOT
ATOM      1  C1  BNZ d   1       1.849   1.065  -0.955  0.00  0.00     0.000 A 
ATOM      2  C2  BNZ d   1       0.767   1.080  -0.116  0.00  0.00     0.000 A 
ATOM      3  C3  BNZ d   1       0.146  -0.083   0.246  0.00  0.00     0.000 A 
ATOM      4  C4  BNZ d   1       0.581  -1.253  -0.263  0.00  0.00     0.000 A 
ATOM      5  C5  BNZ d   1       1.665  -1.284  -1.118  0.00  0.00     0.000 A 
ATOM      6  C6  BNZ d   1       2.312  -0.115  -1.449  0.00  0.00     0.000 A 
ENDROOT
TORSDOF 0
ENDMDL
