MODEL 1
REMARK minimizedAffinity -3.06949782
REMARK minimizedRMSD -1
REMARK  0 active torsions:
REMARK  status: ('A' for Active; 'I' for Inactive)
ROOT
ATOM      1  C1  BNZ d   1      -0.003  -0.334   0.119  0.00  0.00     0.000 A 
ATOM      2  C2  BNZ d   1       1.258  -0.055  -0.335  0.00  0.00     0.000 A 
ATOM      3  C3  BNZ d   1       1.509   1.080  -1.054  0.00  0.00     0.000 A 
ATOM      4  C4  BNZ d   1       0.491   1.914  -1.352  0.00  0.00     0.000 A 
ATOM      5  C5  BNZ d   1      -0.788   1.642  -0.909  0.00  0.00     0.000 A 
ATOM      6  C6  BNZ d   1      -1.029   0.518  -0.153  0.00  0.00     0.000 A 
ENDROOT
TORSDOF 0
ENDMDL
