MODEL 1
REMARK minimizedAffinity -4.74838734
REMARK minimizedRMSD -1
REMARK  0 active torsions:
REMARK  status: ('A' for Active; 'I' for Inactive)
ROOT
ATOM      1  C1  BNZ d   1       2.149   0.736  -0.806  0.00  0.00     0.000 A 
ATOM      2  C2  BNZ d   1       1.943  -0.450  -0.152  0.00  0.00     0.000 A 
ATOM      3  C3  BNZ d   1       0.678  -0.882   0.133  0.00  0.00     0.000 A 
ATOM      4  C4  BNZ d   1      -0.376  -0.110  -0.199  0.00  0.00     0.000 A 
ATOM      5  C5  BNZ d   1      -0.185   1.093  -0.849  0.00  0.00     0.000 A 
ATOM      6  C6  BNZ d   1       1.088   1.506  -1.170  0.00  0.00     0.000 A 
ENDROOT
TORSDOF 0
ENDMDL
