MODEL 1
REMARK minimizedAffinity -4.53771639
REMARK minimizedRMSD -1
REMARK  0 active torsions:
REMARK  status: ('A' for Active; 'I' for Inactive)
ROOT
ATOM      1  C1  BNZ d   1       2.246  -0.114  -0.068  0.00  0.00     0.000 A 
ATOM      2  C2  BNZ d   1       1.180  -0.465   0.716  0.00  0.00     0.000 A 
ATOM      3  C3  BNZ d   1      -0.094  -0.115   0.364  0.00  0.00     0.000 A 
ATOM      4  C4  BNZ d   1      -0.296   0.620  -0.749  0.00  0.00     0.000 A 
ATOM      5  C5  BNZ d   1       0.770   0.990  -1.545  0.00  0.00     0.000 A 
ATOM      6  C6  BNZ d   1       2.046   0.602  -1.209  0.00  0.00     0.000 A 
ENDROOT
TORSDOF 0
ENDMDL
