MODEL 1
REMARK minimizedAffinity -4.80042934
REMARK minimizedRMSD -1
REMARK  0 active torsions:
REMARK  status: ('A' for Active; 'I' for Inactive)
ROOT
ATOM      1  C1  BNZ d   1       0.649   0.743  -0.334  0.00  0.00     0.000 A 
ATOM      2  C2  BNZ d   1       1.912   0.712  -0.863  0.00  0.00     0.000 A 
ATOM      3  C3  BNZ d   1       2.554  -0.476  -1.074  0.00  0.00     0.000 A 
ATOM      4  C4  BNZ d   1       1.948  -1.628  -0.719  0.00  0.00     0.000 A 
ATOM      5  C5  BNZ d   1       0.679  -1.613  -0.177  0.00  0.00     0.000 A 
ATOM      6  C6  BNZ d   1       0.021  -0.417  -0.002  0.00  0.00     0.000 A 
ENDROOT
TORSDOF 0
ENDMDL
