MODEL 1
REMARK minimizedAffinity -5.00510168
REMARK minimizedRMSD -1
REMARK  0 active torsions:
REMARK  status: ('A' for Active; 'I' for Inactive)
ROOT
ATOM      1  C1  BNZ d   1       1.496   0.691  -1.206  0.00  0.00     0.000 A 
ATOM      2  C2  BNZ d   1       0.291   0.600  -0.561  0.00  0.00     0.000 A 
ATOM      3  C3  BNZ d   1      -0.128  -0.585  -0.026  0.00  0.00     0.000 A 
ATOM      4  C4  BNZ d   1       0.637  -1.686  -0.171  0.00  0.00     0.000 A 
ATOM      5  C5  BNZ d   1       1.850  -1.612  -0.827  0.00  0.00     0.000 A 
ATOM      6  C6  BNZ d   1       2.287  -0.409  -1.330  0.00  0.00     0.000 A 
ENDROOT
TORSDOF 0
ENDMDL
