MODEL 1
REMARK minimizedAffinity -4.38316727
REMARK minimizedRMSD -1
REMARK  0 active torsions:
REMARK  status: ('A' for Active; 'I' for Inactive)
ROOT
ATOM      1  C1  BNZ d   1      -0.702  -0.712   0.209  0.00  0.00     0.000 A 
ATOM      2  C2  BNZ d   1       0.235  -1.688  -0.005  0.00  0.00     0.000 A 
ATOM      3  C3  BNZ d   1       1.440  -1.387  -0.575  0.00  0.00     0.000 A 
ATOM      4  C4  BNZ d   1       1.691  -0.121  -0.967  0.00  0.00     0.000 A 
ATOM      5  C5  BNZ d   1       0.753   0.872  -0.767  0.00  0.00     0.000 A 
ATOM      6  C6  BNZ d   1      -0.444   0.573  -0.157  0.00  0.00     0.000 A 
ENDROOT
TORSDOF 0
ENDMDL
