MODEL 1
REMARK minimizedAffinity -3.32943606
REMARK minimizedRMSD -1
REMARK  0 active torsions:
REMARK  status: ('A' for Active; 'I' for Inactive)
ROOT
ATOM      1  C1  BNZ d   1       0.787  -0.386   0.048  0.00  0.00     0.000 A 
ATOM      2  C2  BNZ d   1       0.107   0.786   0.244  0.00  0.00     0.000 A 
ATOM      3  C3  BNZ d   1      -1.254   0.792   0.369  0.00  0.00     0.000 A 
ATOM      4  C4  BNZ d   1      -1.936  -0.366   0.258  0.00  0.00     0.000 A 
ATOM      5  C5  BNZ d   1      -1.265  -1.555   0.050  0.00  0.00     0.000 A 
ATOM      6  C6  BNZ d   1       0.108  -1.562  -0.036  0.00  0.00     0.000 A 
ENDROOT
TORSDOF 0
ENDMDL
