MODEL 1
REMARK minimizedAffinity -4.23773098
REMARK minimizedRMSD -1
REMARK  0 active torsions:
REMARK  status: ('A' for Active; 'I' for Inactive)
ROOT
ATOM      1  C1  BNZ d   1       2.092  -0.055  -0.569  0.00  0.00     0.000 A 
ATOM      2  C2  BNZ d   1       1.768   0.832  -1.561  0.00  0.00     0.000 A 
ATOM      3  C3  BNZ d   1       0.527   1.405  -1.609  0.00  0.00     0.000 A 
ATOM      4  C4  BNZ d   1      -0.398   1.060  -0.691  0.00  0.00     0.000 A 
ATOM      5  C5  BNZ d   1      -0.089   0.160   0.309  0.00  0.00     0.000 A 
ATOM      6  C6  BNZ d   1       1.173  -0.385   0.378  0.00  0.00     0.000 A 
ENDROOT
TORSDOF 0
ENDMDL
