MODEL 1
REMARK minimizedAffinity -3.44612598
REMARK minimizedRMSD -1
REMARK  0 active torsions:
REMARK  status: ('A' for Active; 'I' for Inactive)
ROOT
ATOM      1  C   UNL d   1       1.222  -0.576   2.551  0.00  0.00     0.023 A 
ATOM      2  C1  UNL d   1      -0.074  -0.105   2.343  0.00  0.00     0.003 A 
ATOM      3  C2  UNL d   1      -0.516   0.178   1.049  0.00  0.00     0.048 A 
ATOM      4  C3  UNL d   1       0.343  -0.013  -0.033  0.00  0.00     0.023 A 
ATOM      5  C4  UNL d   1       1.641  -0.485   0.171  0.00  0.00     0.048 A 
ATOM      6  C5  UNL d   1       2.079  -0.766   1.467  0.00  0.00     0.003 A 
ATOM      7  I   UNL d   1      -0.312   0.406  -1.960  0.00  0.00    -0.146 I 
ENDROOT
TORSDOF 0
ENDMDL
