MODEL 1
REMARK minimizedAffinity -3.95146203
REMARK minimizedRMSD -1
REMARK  0 active torsions:
REMARK  status: ('A' for Active; 'I' for Inactive)
ROOT
ATOM      1  C   UNL d   1      -0.323  -0.036  -1.652  0.00  0.00     0.023 A 
ATOM      2  C1  UNL d   1       0.949  -0.572  -1.447  0.00  0.00     0.003 A 
ATOM      3  C2  UNL d   1       1.439  -0.733  -0.150  0.00  0.00     0.048 A 
ATOM      4  C3  UNL d   1       0.652  -0.358   0.938  0.00  0.00     0.023 A 
ATOM      5  C4  UNL d   1      -0.621   0.178   0.738  0.00  0.00     0.048 A 
ATOM      6  C5  UNL d   1      -1.107   0.338  -0.561  0.00  0.00     0.003 A 
ATOM      7  I   UNL d   1       1.380  -0.597   2.870  0.00  0.00    -0.146 I 
ENDROOT
TORSDOF 0
ENDMDL
