MODEL 1
REMARK minimizedAffinity -0.87918371
REMARK minimizedRMSD -1
REMARK  0 active torsions:
REMARK  status: ('A' for Active; 'I' for Inactive)
ROOT
ATOM      1  C   UNL d   1       0.013  -0.922   2.128  0.00  0.00     0.023 A 
ATOM      2  C1  UNL d   1       1.142  -0.602   1.374  0.00  0.00     0.003 A 
ATOM      3  C2  UNL d   1       1.002   0.019   0.132  0.00  0.00     0.048 A 
ATOM      4  C3  UNL d   1      -0.271   0.319  -0.351  0.00  0.00     0.023 A 
ATOM      5  C4  UNL d   1      -1.405   0.002   0.400  0.00  0.00     0.048 A 
ATOM      6  C5  UNL d   1      -1.259  -0.620   1.641  0.00  0.00     0.003 A 
ATOM      7  I   UNL d   1      -0.483   1.244  -2.200  0.00  0.00    -0.146 I 
ENDROOT
TORSDOF 0
ENDMDL
