MODEL 1
REMARK minimizedAffinity 0.843173504
REMARK minimizedRMSD -1
REMARK  0 active torsions:
REMARK  status: ('A' for Active; 'I' for Inactive)
ROOT
ATOM      1  C   UNL d   1       0.274   0.235   0.100  0.00  0.00     0.023 A 
ATOM      2  C1  UNL d   1       0.617  -1.114   0.000  0.00  0.00     0.003 A 
ATOM      3  C2  UNL d   1       0.111  -1.888  -1.046  0.00  0.00     0.048 A 
ATOM      4  C3  UNL d   1      -0.735  -1.307  -1.989  0.00  0.00     0.023 A 
ATOM      5  C4  UNL d   1      -1.080   0.042  -1.894  0.00  0.00     0.048 A 
ATOM      6  C5  UNL d   1      -0.573   0.812  -0.846  0.00  0.00     0.003 A 
ATOM      7  I   UNL d   1      -1.489  -2.458  -3.548  0.00  0.00    -0.146 I 
ENDROOT
TORSDOF 0
ENDMDL
