MODEL 1
REMARK minimizedAffinity 3.85717368
REMARK minimizedRMSD -1
REMARK  0 active torsions:
REMARK  status: ('A' for Active; 'I' for Inactive)
ROOT
ATOM      1  C   UNL d   1       0.067  -1.494  -0.683  0.00  0.00     0.023 A 
ATOM      2  C1  UNL d   1       1.145  -2.263  -1.120  0.00  0.00     0.003 A 
ATOM      3  C2  UNL d   1       2.396  -1.672  -1.306  0.00  0.00     0.048 A 
ATOM      4  C3  UNL d   1       2.562  -0.310  -1.052  0.00  0.00     0.023 A 
ATOM      5  C4  UNL d   1       1.486   0.463  -0.614  0.00  0.00     0.048 A 
ATOM      6  C5  UNL d   1       0.237  -0.132  -0.431  0.00  0.00     0.003 A 
ATOM      7  I   UNL d   1       4.424   0.572  -1.329  0.00  0.00    -0.146 I 
ENDROOT
TORSDOF 0
ENDMDL
