MODEL 1
REMARK minimizedAffinity 5.23882484
REMARK minimizedRMSD -1
REMARK  2 active torsions:
REMARK  status: ('A' for Active; 'I' for Inactive)
REMARK    1  A    between atoms: C2'_3  and  C1'_4 
REMARK    2  A    between atoms: C1'_4  and  C1_5 
ROOT
ATOM      1  C1  I4B d   1      -1.378   1.618   2.902  0.00  0.00    -0.075 A 
ATOM      2  C2  I4B d   1      -0.767   2.300   3.925  0.00  0.00     0.003 A 
ATOM      3  C3  I4B d   1       0.636   2.490   3.918  0.00  0.00     0.002 A 
ATOM      4  C4  I4B d   1       1.391   1.941   2.901  0.00  0.00    -0.004 A 
ATOM      5  C5  I4B d   1       0.768   1.270   1.853  0.00  0.00     0.002 A 
ATOM      6  C6  I4B d   1      -0.626   1.117   1.847  0.00  0.00     0.003 A 
ENDROOT
BRANCH   1   7
ATOM      7  C1' I4B d   1      -2.858   1.408   2.958  0.00  0.00     0.060 C 
BRANCH   7   8
ATOM      8  C2' I4B d   1      -3.131   0.269   3.919  0.00  0.00    -0.013 C 
ATOM      9  C4' I4B d   1      -3.483   0.785   5.290  0.00  0.00     0.013 C 
ATOM     10  C3' I4B d   1      -4.244  -0.560   3.350  0.00  0.00     0.013 C 
ENDBRANCH   7   8
ENDBRANCH   1   7
TORSDOF 2
ENDMDL
