MODEL 1
REMARK minimizedAffinity 19.0194492
REMARK minimizedRMSD -1
REMARK  2 active torsions:
REMARK  status: ('A' for Active; 'I' for Inactive)
REMARK    1  A    between atoms: C2'_3  and  C1'_4 
REMARK    2  A    between atoms: C1'_4  and  C1_5 
ROOT
ATOM      1  C1  I4B d   1       0.578   1.346   3.397  0.00  0.00    -0.075 A 
ATOM      2  C2  I4B d   1       0.984   2.181   4.408  0.00  0.00     0.003 A 
ATOM      3  C3  I4B d   1       1.127   1.687   5.727  0.00  0.00     0.002 A 
ATOM      4  C4  I4B d   1       0.806   0.373   5.999  0.00  0.00    -0.004 A 
ATOM      5  C5  I4B d   1       0.416  -0.478   4.969  0.00  0.00     0.002 A 
ATOM      6  C6  I4B d   1       0.313   0.008   3.658  0.00  0.00     0.003 A 
ENDROOT
BRANCH   1   7
ATOM      7  C1' I4B d   1       0.406   1.909   2.022  0.00  0.00     0.060 C 
BRANCH   7   8
ATOM      8  C2' I4B d   1       1.546   2.874   1.767  0.00  0.00    -0.013 C 
ATOM      9  C4' I4B d   1       2.746   2.163   1.199  0.00  0.00     0.013 C 
ATOM     10  C3' I4B d   1       1.052   3.937   0.831  0.00  0.00     0.013 C 
ENDBRANCH   7   8
ENDBRANCH   1   7
TORSDOF 2
ENDMDL
