MODEL 1
REMARK minimizedAffinity 21.5952358
REMARK minimizedRMSD -1
REMARK  2 active torsions:
REMARK  status: ('A' for Active; 'I' for Inactive)
REMARK    1  A    between atoms: C2'_3  and  C1'_4 
REMARK    2  A    between atoms: C1'_4  and  C1_5 
ROOT
ATOM      1  C1  I4B d   1      -2.057   1.237   3.275  0.00  0.00    -0.075 A 
ATOM      2  C2  I4B d   1      -1.742   2.323   2.496  0.00  0.00     0.003 A 
ATOM      3  C3  I4B d   1      -0.388   2.635   2.224  0.00  0.00     0.002 A 
ATOM      4  C4  I4B d   1       0.613   1.871   2.788  0.00  0.00    -0.004 A 
ATOM      5  C5  I4B d   1       0.291   0.757   3.559  0.00  0.00     0.002 A 
ATOM      6  C6  I4B d   1      -1.052   0.431   3.794  0.00  0.00     0.003 A 
ENDROOT
BRANCH   1   7
ATOM      7  C1' I4B d   1      -3.496   0.956   3.569  0.00  0.00     0.060 C 
BRANCH   7   8
ATOM      8  C2' I4B d   1      -4.062   2.147   4.315  0.00  0.00    -0.013 C 
ATOM      9  C4' I4B d   1      -5.522   2.344   4.001  0.00  0.00     0.013 C 
ATOM     10  C3' I4B d   1      -3.850   1.918   5.782  0.00  0.00     0.013 C 
ENDBRANCH   7   8
ENDBRANCH   1   7
TORSDOF 2
ENDMDL
