MODEL 1
REMARK minimizedAffinity 12.1455717
REMARK minimizedRMSD -1
REMARK  2 active torsions:
REMARK  status: ('A' for Active; 'I' for Inactive)
REMARK    1  A    between atoms: C2'_3  and  C1'_4 
REMARK    2  A    between atoms: C1'_4  and  C1_5 
ROOT
ATOM      1  C1  I4B d   1       1.903   1.013   0.556  0.00  0.00    -0.075 A 
ATOM      2  C2  I4B d   1       1.166  -0.140   0.444  0.00  0.00     0.003 A 
ATOM      3  C3  I4B d   1       1.206  -0.898  -0.751  0.00  0.00     0.002 A 
ATOM      4  C4  I4B d   1       1.952  -0.443  -1.820  0.00  0.00    -0.004 A 
ATOM      5  C5  I4B d   1       2.716   0.714  -1.696  0.00  0.00     0.002 A 
ATOM      6  C6  I4B d   1       2.702   1.440  -0.496  0.00  0.00     0.003 A 
ENDROOT
BRANCH   1   7
ATOM      7  C1' I4B d   1       1.811   1.806   1.821  0.00  0.00     0.060 C 
BRANCH   7   8
ATOM      8  C2' I4B d   1       0.691   1.222   2.658  0.00  0.00    -0.013 C 
ATOM      9  C4' I4B d   1       1.118   1.044   4.092  0.00  0.00     0.013 C 
ATOM     10  C3' I4B d   1      -0.490   2.139   2.555  0.00  0.00     0.013 C 
ENDBRANCH   7   8
ENDBRANCH   1   7
TORSDOF 2
ENDMDL
