MODEL 1
REMARK minimizedAffinity 29.399189
REMARK minimizedRMSD -1
REMARK  2 active torsions:
REMARK  status: ('A' for Active; 'I' for Inactive)
REMARK    1  A    between atoms: C2'_3  and  C1'_4 
REMARK    2  A    between atoms: C1'_4  and  C1_5 
ROOT
ATOM      1  C1  I4B d   1      -1.081   5.081  -3.554  0.00  0.00    -0.075 A 
ATOM      2  C2  I4B d   1      -1.682   5.628  -4.660  0.00  0.00     0.003 A 
ATOM      3  C3  I4B d   1      -2.327   4.796  -5.606  0.00  0.00     0.002 A 
ATOM      4  C4  I4B d   1      -2.303   3.427  -5.435  0.00  0.00    -0.004 A 
ATOM      5  C5  I4B d   1      -1.712   2.875  -4.302  0.00  0.00     0.002 A 
ATOM      6  C6  I4B d   1      -1.108   3.708  -3.349  0.00  0.00     0.003 A 
ENDROOT
BRANCH   1   7
ATOM      7  C1' I4B d   1      -0.380   5.987  -2.592  0.00  0.00     0.060 C 
BRANCH   7   8
ATOM      8  C2' I4B d   1       0.867   5.278  -2.106  0.00  0.00    -0.013 C 
ATOM      9  C4' I4B d   1       2.112   5.999  -2.550  0.00  0.00     0.013 C 
ATOM     10  C3' I4B d   1       0.797   5.188  -0.611  0.00  0.00     0.013 C 
ENDBRANCH   7   8
ENDBRANCH   1   7
TORSDOF 2
ENDMDL
