MODEL 1
REMARK minimizedAffinity 12.2536945
REMARK minimizedRMSD -1
REMARK  2 active torsions:
REMARK  status: ('A' for Active; 'I' for Inactive)
REMARK    1  A    between atoms: C2'_3  and  C1'_4 
REMARK    2  A    between atoms: C1'_4  and  C1_5 
ROOT
ATOM      1  C1  I4B d   1       1.934   0.994   0.063  0.00  0.00    -0.075 A 
ATOM      2  C2  I4B d   1       1.240  -0.121  -0.336  0.00  0.00     0.003 A 
ATOM      3  C3  I4B d   1       1.290  -0.547  -1.686  0.00  0.00     0.002 A 
ATOM      4  C4  I4B d   1       1.999   0.196  -2.607  0.00  0.00    -0.004 A 
ATOM      5  C5  I4B d   1       2.721   1.314  -2.196  0.00  0.00     0.002 A 
ATOM      6  C6  I4B d   1       2.698   1.708  -0.850  0.00  0.00     0.003 A 
ENDROOT
BRANCH   1   7
ATOM      7  C1' I4B d   1       1.833   1.434   1.489  0.00  0.00     0.060 C 
BRANCH   7   8
ATOM      8  C2' I4B d   1       0.497   0.965   2.029  0.00  0.00    -0.013 C 
ATOM      9  C4' I4B d   1       0.611   0.530   3.466  0.00  0.00     0.013 C 
ATOM     10  C3' I4B d   1      -0.483   2.090   1.880  0.00  0.00     0.013 C 
ENDBRANCH   7   8
ENDBRANCH   1   7
TORSDOF 2
ENDMDL
