MODEL 1
REMARK minimizedAffinity 17.2633533
REMARK minimizedRMSD -1
REMARK  2 active torsions:
REMARK  status: ('A' for Active; 'I' for Inactive)
REMARK    1  A    between atoms: C2'_3  and  C1'_4 
REMARK    2  A    between atoms: C1'_4  and  C1_5 
ROOT
ATOM      1  C1  I4B d   1      -1.519   1.530  -4.902  0.00  0.00    -0.075 A 
ATOM      2  C2  I4B d   1      -2.187   0.760  -3.983  0.00  0.00     0.003 A 
ATOM      3  C3  I4B d   1      -1.471   0.069  -2.976  0.00  0.00     0.002 A 
ATOM      4  C4  I4B d   1      -0.092   0.135  -2.956  0.00  0.00    -0.004 A 
ATOM      5  C5  I4B d   1       0.582   0.935  -3.874  0.00  0.00     0.002 A 
ATOM      6  C6  I4B d   1      -0.136   1.647  -4.846  0.00  0.00     0.003 A 
ENDROOT
BRANCH   1   7
ATOM      7  C1' I4B d   1      -2.305   2.220  -5.972  0.00  0.00     0.060 C 
BRANCH   7   8
ATOM      8  C2' I4B d   1      -2.690   3.592  -5.457  0.00  0.00    -0.013 C 
ATOM      9  C4' I4B d   1      -4.027   4.022  -6.000  0.00  0.00     0.013 C 
ATOM     10  C3' I4B d   1      -2.706   3.536  -3.958  0.00  0.00     0.013 C 
ENDBRANCH   7   8
ENDBRANCH   1   7
TORSDOF 2
ENDMDL
