MODEL 1
REMARK minimizedAffinity 13.297884
REMARK minimizedRMSD -1
REMARK  2 active torsions:
REMARK  status: ('A' for Active; 'I' for Inactive)
REMARK    1  A    between atoms: C2'_3  and  C1'_4 
REMARK    2  A    between atoms: C1'_4  and  C1_5 
ROOT
ATOM      1  C1  I4B d   1      -3.603  -0.967   4.535  0.00  0.00    -0.075 A 
ATOM      2  C2  I4B d   1      -3.771  -0.177   3.425  0.00  0.00     0.003 A 
ATOM      3  C3  I4B d   1      -3.796   1.233   3.552  0.00  0.00     0.002 A 
ATOM      4  C4  I4B d   1      -3.700   1.805   4.804  0.00  0.00    -0.004 A 
ATOM      5  C5  I4B d   1      -3.506   1.003   5.925  0.00  0.00     0.002 A 
ATOM      6  C6  I4B d   1      -3.445  -0.391   5.789  0.00  0.00     0.003 A 
ENDROOT
BRANCH   1   7
ATOM      7  C1' I4B d   1      -3.615  -2.454   4.369  0.00  0.00     0.060 C 
BRANCH   7   8
ATOM      8  C2' I4B d   1      -4.148  -3.062   5.651  0.00  0.00    -0.013 C 
ATOM      9  C4' I4B d   1      -5.650  -2.972   5.713  0.00  0.00     0.013 C 
ATOM     10  C3' I4B d   1      -3.688  -4.488   5.713  0.00  0.00     0.013 C 
ENDBRANCH   7   8
ENDBRANCH   1   7
TORSDOF 2
ENDMDL
