MODEL 1
REMARK minimizedAffinity 14.9047852
REMARK minimizedRMSD -1
REMARK  2 active torsions:
REMARK  status: ('A' for Active; 'I' for Inactive)
REMARK    1  A    between atoms: C2'_3  and  C1'_4 
REMARK    2  A    between atoms: C1'_4  and  C1_5 
ROOT
ATOM      1  C1  I4B d   1      -0.234   4.816  -2.750  0.00  0.00    -0.075 A 
ATOM      2  C2  I4B d   1       0.888   4.038  -2.896  0.00  0.00     0.003 A 
ATOM      3  C3  I4B d   1       1.973   4.177  -1.997  0.00  0.00     0.002 A 
ATOM      4  C4  I4B d   1       1.916   5.136  -1.006  0.00  0.00    -0.004 A 
ATOM      5  C5  I4B d   1       0.769   5.908  -0.846  0.00  0.00     0.002 A 
ATOM      6  C6  I4B d   1      -0.318   5.739  -1.716  0.00  0.00     0.003 A 
ENDROOT
BRANCH   1   7
ATOM      7  C1' I4B d   1      -1.348   4.666  -3.737  0.00  0.00     0.060 C 
BRANCH   7   8
ATOM      8  C2' I4B d   1      -1.359   3.227  -4.212  0.00  0.00    -0.013 C 
ATOM      9  C4' I4B d   1      -2.545   2.480  -3.662  0.00  0.00     0.013 C 
ATOM     10  C3' I4B d   1      -1.373   3.235  -5.712  0.00  0.00     0.013 C 
ENDBRANCH   7   8
ENDBRANCH   1   7
TORSDOF 2
ENDMDL
