MODEL 1
REMARK minimizedAffinity 16.0558491
REMARK minimizedRMSD -1
REMARK  2 active torsions:
REMARK  status: ('A' for Active; 'I' for Inactive)
REMARK    1  A    between atoms: C2'_3  and  C1'_4 
REMARK    2  A    between atoms: C1'_4  and  C1_5 
ROOT
ATOM      1  C1  I4B d   1      -2.311   1.211   3.511  0.00  0.00    -0.075 A 
ATOM      2  C2  I4B d   1      -1.358   0.392   4.064  0.00  0.00     0.003 A 
ATOM      3  C3  I4B d   1      -0.001   0.516   3.678  0.00  0.00     0.002 A 
ATOM      4  C4  I4B d   1       0.349   1.431   2.706  0.00  0.00    -0.004 A 
ATOM      5  C5  I4B d   1      -0.615   2.276   2.164  0.00  0.00     0.002 A 
ATOM      6  C6  I4B d   1      -1.951   2.174   2.577  0.00  0.00     0.003 A 
ENDROOT
BRANCH   1   7
ATOM      7  C1' I4B d   1      -3.739   1.031   3.918  0.00  0.00     0.060 C 
BRANCH   7   8
ATOM      8  C2' I4B d   1      -4.221   2.335   4.519  0.00  0.00    -0.013 C 
ATOM      9  C4' I4B d   1      -5.678   2.569   4.218  0.00  0.00     0.013 C 
ATOM     10  C3' I4B d   1      -3.975   2.282   5.998  0.00  0.00     0.013 C 
ENDBRANCH   7   8
ENDBRANCH   1   7
TORSDOF 2
ENDMDL
