MODEL 1
REMARK minimizedAffinity 21.9216843
REMARK minimizedRMSD -1
REMARK  2 active torsions:
REMARK  status: ('A' for Active; 'I' for Inactive)
REMARK    1  A    between atoms: C2'_3  and  C1'_4 
REMARK    2  A    between atoms: C1'_4  and  C1_5 
ROOT
ATOM      1  C1  I4B d   1       2.044   1.187   1.091  0.00  0.00    -0.075 A 
ATOM      2  C2  I4B d   1       3.059   1.632   0.280  0.00  0.00     0.003 A 
ATOM      3  C3  I4B d   1       3.535   0.819  -0.777  0.00  0.00     0.002 A 
ATOM      4  C4  I4B d   1       3.006  -0.442  -0.956  0.00  0.00    -0.004 A 
ATOM      5  C5  I4B d   1       1.962  -0.883  -0.148  0.00  0.00     0.002 A 
ATOM      6  C6  I4B d   1       1.469  -0.058   0.874  0.00  0.00     0.003 A 
ENDROOT
BRANCH   1   7
ATOM      7  C1' I4B d   1       1.588   2.058   2.218  0.00  0.00     0.060 C 
BRANCH   7   8
ATOM      8  C2' I4B d   1       0.872   1.180   3.225  0.00  0.00    -0.013 C 
ATOM      9  C4' I4B d   1       1.119   1.654   4.633  0.00  0.00     0.013 C 
ATOM     10  C3' I4B d   1      -0.591   1.197   2.896  0.00  0.00     0.013 C 
ENDBRANCH   7   8
ENDBRANCH   1   7
TORSDOF 2
ENDMDL
