MODEL 1
REMARK minimizedAffinity 22.6318493
REMARK minimizedRMSD -1
REMARK  2 active torsions:
REMARK  status: ('A' for Active; 'I' for Inactive)
REMARK    1  A    between atoms: C2'_3  and  C1'_4 
REMARK    2  A    between atoms: C1'_4  and  C1_5 
ROOT
ATOM      1  C1  I4B d   1       2.451   0.547  -3.207  0.00  0.00    -0.075 A 
ATOM      2  C2  I4B d   1       2.205  -0.533  -2.397  0.00  0.00     0.003 A 
ATOM      3  C3  I4B d   1       2.514  -0.474  -1.016  0.00  0.00     0.002 A 
ATOM      4  C4  I4B d   1       3.109   0.659  -0.501  0.00  0.00    -0.004 A 
ATOM      5  C5  I4B d   1       3.336   1.762  -1.319  0.00  0.00     0.002 A 
ATOM      6  C6  I4B d   1       2.994   1.711  -2.678  0.00  0.00     0.003 A 
ENDROOT
BRANCH   1   7
ATOM      7  C1' I4B d   1       2.144   0.438  -4.667  0.00  0.00     0.060 C 
BRANCH   7   8
ATOM      8  C2' I4B d   1       2.629  -0.914  -5.147  0.00  0.00    -0.013 C 
ATOM      9  C4' I4B d   1       1.554  -1.638  -5.915  0.00  0.00     0.013 C 
ATOM     10  C3' I4B d   1       3.847  -0.696  -5.994  0.00  0.00     0.013 C 
ENDBRANCH   7   8
ENDBRANCH   1   7
TORSDOF 2
ENDMDL
