MODEL 1
REMARK minimizedAffinity 11.4456501
REMARK minimizedRMSD -1
REMARK  2 active torsions:
REMARK  status: ('A' for Active; 'I' for Inactive)
REMARK    1  A    between atoms: C2'_3  and  C1'_4 
REMARK    2  A    between atoms: C1'_4  and  C1_5 
ROOT
ATOM      1  C1  I4B d   1      -1.553   0.348   2.864  0.00  0.00    -0.075 A 
ATOM      2  C2  I4B d   1      -1.877  -0.975   2.690  0.00  0.00     0.003 A 
ATOM      3  C3  I4B d   1      -3.230  -1.389   2.736  0.00  0.00     0.002 A 
ATOM      4  C4  I4B d   1      -4.216  -0.462   3.007  0.00  0.00    -0.004 A 
ATOM      5  C5  I4B d   1      -3.887   0.882   3.160  0.00  0.00     0.002 A 
ATOM      6  C6  I4B d   1      -2.549   1.292   3.076  0.00  0.00     0.003 A 
ENDROOT
BRANCH   1   7
ATOM      7  C1' I4B d   1      -0.111   0.745   2.842  0.00  0.00     0.060 C 
BRANCH   7   8
ATOM      8  C2' I4B d   1       0.073   1.889   3.819  0.00  0.00    -0.013 C 
ATOM      9  C4' I4B d   1       1.174   1.593   4.803  0.00  0.00     0.013 C 
ATOM     10  C3' I4B d   1       0.371   3.128   3.029  0.00  0.00     0.013 C 
ENDBRANCH   7   8
ENDBRANCH   1   7
TORSDOF 2
ENDMDL
