MODEL 1
REMARK minimizedAffinity -1.40899909
REMARK minimizedRMSD -1
REMARK  0 active torsions:
REMARK  status: ('A' for Active; 'I' for Inactive)
ROOT
ATOM      1  C1  BNZ d   1      -2.871   1.458  -5.054  0.00  0.00     0.000 A 
ATOM      2  C2  BNZ d   1      -4.230   1.295  -5.057  0.00  0.00     0.000 A 
ATOM      3  C3  BNZ d   1      -4.834   0.434  -4.183  0.00  0.00     0.000 A 
ATOM      4  C4  BNZ d   1      -4.076  -0.292  -3.337  0.00  0.00     0.000 A 
ATOM      5  C5  BNZ d   1      -2.703  -0.146  -3.328  0.00  0.00     0.000 A 
ATOM      6  C6  BNZ d   1      -2.102   0.750  -4.182  0.00  0.00     0.000 A 
ENDROOT
TORSDOF 0
ENDMDL
