MODEL 1
REMARK minimizedAffinity 0.140505195
REMARK minimizedRMSD -1
REMARK  0 active torsions:
REMARK  status: ('A' for Active; 'I' for Inactive)
ROOT
ATOM      1  C1  BNZ d   1       4.316  -0.828  -1.756  0.00  0.00     0.000 A 
ATOM      2  C2  BNZ d   1       5.063   0.293  -1.999  0.00  0.00     0.000 A 
ATOM      3  C3  BNZ d   1       4.960   1.392  -1.192  0.00  0.00     0.000 A 
ATOM      4  C4  BNZ d   1       4.081   1.382  -0.169  0.00  0.00     0.000 A 
ATOM      5  C5  BNZ d   1       3.314   0.263   0.083  0.00  0.00     0.000 A 
ATOM      6  C6  BNZ d   1       3.449  -0.855  -0.707  0.00  0.00     0.000 A 
ENDROOT
TORSDOF 0
ENDMDL
