MODEL 1
REMARK minimizedAffinity 2.46755195
REMARK minimizedRMSD -1
REMARK  0 active torsions:
REMARK  status: ('A' for Active; 'I' for Inactive)
ROOT
ATOM      1  C1  BNZ d   1       5.999  -0.351   0.290  0.00  0.00     0.000 A 
ATOM      2  C2  BNZ d   1       4.875  -1.132   0.330  0.00  0.00     0.000 A 
ATOM      3  C3  BNZ d   1       3.746  -0.768  -0.350  0.00  0.00     0.000 A 
ATOM      4  C4  BNZ d   1       3.730   0.394  -1.034  0.00  0.00     0.000 A 
ATOM      5  C5  BNZ d   1       4.852   1.196  -1.076  0.00  0.00     0.000 A 
ATOM      6  C6  BNZ d   1       6.000   0.808  -0.423  0.00  0.00     0.000 A 
ENDROOT
TORSDOF 0
ENDMDL
