MODEL 1
REMARK minimizedAffinity 6.84191751
REMARK minimizedRMSD -1
REMARK  0 active torsions:
REMARK  status: ('A' for Active; 'I' for Inactive)
ROOT
ATOM      1  C1  BNZ d   1      -5.719   1.193  -3.549  0.00  0.00     0.000 A 
ATOM      2  C2  BNZ d   1      -5.134   0.379  -4.481  0.00  0.00     0.000 A 
ATOM      3  C3  BNZ d   1      -4.097   0.828  -5.250  0.00  0.00     0.000 A 
ATOM      4  C4  BNZ d   1      -3.673   2.101  -5.114  0.00  0.00     0.000 A 
ATOM      5  C5  BNZ d   1      -4.260   2.937  -4.185  0.00  0.00     0.000 A 
ATOM      6  C6  BNZ d   1      -5.277   2.469  -3.385  0.00  0.00     0.000 A 
ENDROOT
TORSDOF 0
ENDMDL
