MODEL 1
REMARK minimizedAffinity 0.210549608
REMARK minimizedRMSD -1
REMARK  0 active torsions:
REMARK  status: ('A' for Active; 'I' for Inactive)
ROOT
ATOM      1  C1  BNZ d   1       3.663   0.503  -1.123  0.00  0.00     0.000 A 
ATOM      2  C2  BNZ d   1       4.811   1.236  -1.271  0.00  0.00     0.000 A 
ATOM      3  C3  BNZ d   1       5.984   0.822  -0.705  0.00  0.00     0.000 A 
ATOM      4  C4  BNZ d   1       5.999  -0.302   0.040  0.00  0.00     0.000 A 
ATOM      5  C5  BNZ d   1       4.849  -1.047   0.207  0.00  0.00     0.000 A 
ATOM      6  C6  BNZ d   1       3.678  -0.647  -0.397  0.00  0.00     0.000 A 
ENDROOT
TORSDOF 0
ENDMDL
