MODEL 1
REMARK minimizedAffinity 11.7725353
REMARK minimizedRMSD -1
REMARK  0 active torsions:
REMARK  status: ('A' for Active; 'I' for Inactive)
ROOT
ATOM      1  C1  BNZ d   1       1.595  -6.000   5.998  0.00  0.00     0.000 A 
ATOM      2  C2  BNZ d   1       0.228  -5.999   5.907  0.00  0.00     0.000 A 
ATOM      3  C3  BNZ d   1      -0.448  -4.873   5.529  0.00  0.00     0.000 A 
ATOM      4  C4  BNZ d   1       0.239  -3.739   5.282  0.00  0.00     0.000 A 
ATOM      5  C5  BNZ d   1       1.616  -3.721   5.378  0.00  0.00     0.000 A 
ATOM      6  C6  BNZ d   1       2.296  -4.867   5.721  0.00  0.00     0.000 A 
ENDROOT
TORSDOF 0
ENDMDL
