MODEL 1
REMARK minimizedAffinity 7.63157177
REMARK minimizedRMSD -1
REMARK  0 active torsions:
REMARK  status: ('A' for Active; 'I' for Inactive)
ROOT
ATOM      1  C1  BNZ d   1       5.947   5.912  -1.878  0.00  0.00     0.000 A 
ATOM      2  C2  BNZ d   1       5.837   4.689  -2.483  0.00  0.00     0.000 A 
ATOM      3  C3  BNZ d   1       5.761   3.544  -1.740  0.00  0.00     0.000 A 
ATOM      4  C4  BNZ d   1       5.835   3.621  -0.396  0.00  0.00     0.000 A 
ATOM      5  C5  BNZ d   1       5.955   4.846   0.229  0.00  0.00     0.000 A 
ATOM      6  C6  BNZ d   1       5.993   5.999  -0.520  0.00  0.00     0.000 A 
ENDROOT
TORSDOF 0
ENDMDL
