MODEL 1
REMARK minimizedAffinity -5.17686319
REMARK minimizedRMSD -1
REMARK  0 active torsions:
REMARK  status: ('A' for Active; 'I' for Inactive)
ROOT
ATOM      1  C   UNL d   1      -2.231   0.937   2.196  0.00  0.00     0.020 A 
ATOM      2  C1  UNL d   1      -2.723   0.986   0.892  0.00  0.00     0.020 A 
ATOM      3  C2  UNL d   1      -1.867   0.749  -0.186  0.00  0.00     0.034 A 
ATOM      4  C3  UNL d   1      -0.516   0.462   0.037  0.00  0.00     0.017 A 
ATOM      5  C4  UNL d   1      -0.023   0.413   1.346  0.00  0.00     0.017 A 
ATOM      6  C5  UNL d   1      -0.884   0.651   2.422  0.00  0.00     0.034 A 
ATOM      7 Cl   UNL d   1       1.633   0.065   1.701  0.00  0.00    -0.070 Cl
ATOM      8 Cl1  UNL d   1       0.484   0.178  -1.343  0.00  0.00    -0.070 Cl
ENDROOT
TORSDOF 0
ENDMDL
