MODEL 1
REMARK minimizedAffinity -0.875747323
REMARK minimizedRMSD -1
REMARK  0 active torsions:
REMARK  status: ('A' for Active; 'I' for Inactive)
ROOT
ATOM      1  C   UNL d   1       0.589  -1.623  -3.285  0.00  0.00     0.020 A 
ATOM      2  C1  UNL d   1       0.266  -0.299  -2.987  0.00  0.00     0.020 A 
ATOM      3  C2  UNL d   1       1.253   0.687  -3.035  0.00  0.00     0.034 A 
ATOM      4  C3  UNL d   1       2.567   0.352  -3.382  0.00  0.00     0.017 A 
ATOM      5  C4  UNL d   1       2.890  -0.976  -3.681  0.00  0.00     0.017 A 
ATOM      6  C5  UNL d   1       1.897  -1.960  -3.631  0.00  0.00     0.034 A 
ATOM      7 Cl   UNL d   1       4.488  -1.466  -4.118  0.00  0.00    -0.070 Cl
ATOM      8 Cl1  UNL d   1       3.737   1.624  -3.423  0.00  0.00    -0.070 Cl
ENDROOT
TORSDOF 0
ENDMDL
