MODEL 1
REMARK minimizedAffinity -1.34261274
REMARK minimizedRMSD -1
REMARK  0 active torsions:
REMARK  status: ('A' for Active; 'I' for Inactive)
ROOT
ATOM      1  C   UNL d   1       1.121  -0.214   2.311  0.00  0.00     0.020 A 
ATOM      2  C1  UNL d   1       1.811  -0.059   1.109  0.00  0.00     0.020 A 
ATOM      3  C2  UNL d   1       1.120   0.295  -0.052  0.00  0.00     0.034 A 
ATOM      4  C3  UNL d   1      -0.264   0.495  -0.014  0.00  0.00     0.017 A 
ATOM      5  C4  UNL d   1      -0.956   0.340   1.193  0.00  0.00     0.017 A 
ATOM      6  C5  UNL d   1      -0.260  -0.015   2.352  0.00  0.00     0.034 A 
ATOM      7 Cl   UNL d   1      -2.665   0.570   1.318  0.00  0.00    -0.070 Cl
ATOM      8 Cl1  UNL d   1      -1.054   0.932  -1.488  0.00  0.00    -0.070 Cl
ENDROOT
TORSDOF 0
ENDMDL
