MODEL 1
REMARK minimizedAffinity -2.28692889
REMARK minimizedRMSD -1
REMARK  0 active torsions:
REMARK  status: ('A' for Active; 'I' for Inactive)
ROOT
ATOM      1  C   UNL d   1       0.710   0.518   2.433  0.00  0.00     0.020 A 
ATOM      2  C1  UNL d   1      -0.489   0.727   3.113  0.00  0.00     0.020 A 
ATOM      3  C2  UNL d   1      -1.699   0.714   2.415  0.00  0.00     0.034 A 
ATOM      4  C3  UNL d   1      -1.712   0.492   1.033  0.00  0.00     0.017 A 
ATOM      5  C4  UNL d   1      -0.507   0.282   0.351  0.00  0.00     0.017 A 
ATOM      6  C5  UNL d   1       0.701   0.296   1.055  0.00  0.00     0.034 A 
ATOM      7 Cl   UNL d   1      -0.443   0.002  -1.353  0.00  0.00    -0.070 Cl
ATOM      8 Cl1  UNL d   1      -3.244   0.489   0.234  0.00  0.00    -0.070 Cl
ENDROOT
TORSDOF 0
ENDMDL
