MODEL 1
REMARK minimizedAffinity -2.98972654
REMARK minimizedRMSD -1
REMARK  0 active torsions:
REMARK  status: ('A' for Active; 'I' for Inactive)
ROOT
ATOM      1  C   UNL d   1       0.653   0.369  -0.937  0.00  0.00     0.020 A 
ATOM      2  C1  UNL d   1      -0.615   0.535  -1.493  0.00  0.00     0.020 A 
ATOM      3  C2  UNL d   1      -1.721   0.728  -0.662  0.00  0.00     0.034 A 
ATOM      4  C3  UNL d   1      -1.561   0.755   0.728  0.00  0.00     0.017 A 
ATOM      5  C4  UNL d   1      -0.288   0.587   1.285  0.00  0.00     0.017 A 
ATOM      6  C5  UNL d   1       0.816   0.395   0.448  0.00  0.00     0.034 A 
ATOM      7 Cl   UNL d   1      -0.012   0.609   2.991  0.00  0.00    -0.070 Cl
ATOM      8 Cl1  UNL d   1      -2.973   0.998   1.695  0.00  0.00    -0.070 Cl
ENDROOT
TORSDOF 0
ENDMDL
