MODEL 1
REMARK minimizedAffinity -2.1635108
REMARK minimizedRMSD -1
REMARK  0 active torsions:
REMARK  status: ('A' for Active; 'I' for Inactive)
ROOT
ATOM      1  C   UNL d   1       0.982  -0.032   0.931  0.00  0.00     0.020 A 
ATOM      2  C1  UNL d   1       0.964   0.124   2.317  0.00  0.00     0.020 A 
ATOM      3  C2  UNL d   1      -0.224   0.465   2.966  0.00  0.00     0.034 A 
ATOM      4  C3  UNL d   1      -1.400   0.652   2.229  0.00  0.00     0.017 A 
ATOM      5  C4  UNL d   1      -1.381   0.495   0.839  0.00  0.00     0.017 A 
ATOM      6  C5  UNL d   1      -0.188   0.153   0.194  0.00  0.00     0.034 A 
ATOM      7 Cl   UNL d   1      -2.791   0.708  -0.138  0.00  0.00    -0.070 Cl
ATOM      8 Cl1  UNL d   1      -2.833   1.073   3.097  0.00  0.00    -0.070 Cl
ENDROOT
TORSDOF 0
ENDMDL
