MODEL 1
REMARK minimizedAffinity -1.07790887
REMARK minimizedRMSD -1
REMARK  0 active torsions:
REMARK  status: ('A' for Active; 'I' for Inactive)
ROOT
ATOM      1  C   UNL d   1       0.508   0.304   1.498  0.00  0.00     0.020 A 
ATOM      2  C1  UNL d   1       1.600  -0.297   0.873  0.00  0.00     0.020 A 
ATOM      3  C2  UNL d   1       1.606  -0.462  -0.514  0.00  0.00     0.034 A 
ATOM      4  C3  UNL d   1       0.518  -0.027  -1.280  0.00  0.00     0.017 A 
ATOM      5  C4  UNL d   1      -0.577   0.576  -0.651  0.00  0.00     0.017 A 
ATOM      6  C5  UNL d   1      -0.578   0.739   0.738  0.00  0.00     0.034 A 
ATOM      7 Cl   UNL d   1      -1.956   1.139  -1.529  0.00  0.00    -0.070 Cl
ATOM      8 Cl1  UNL d   1       0.594  -0.263  -2.990  0.00  0.00    -0.070 Cl
ENDROOT
TORSDOF 0
ENDMDL
