MODEL 1
REMARK minimizedAffinity 2.57527828
REMARK minimizedRMSD -1
REMARK  0 active torsions:
REMARK  status: ('A' for Active; 'I' for Inactive)
ROOT
ATOM      1  C   UNL d   1       3.004  -1.511  -4.065  0.00  0.00     0.020 A 
ATOM      2  C1  UNL d   1       3.209  -0.288  -3.428  0.00  0.00     0.020 A 
ATOM      3  C2  UNL d   1       2.159   0.330  -2.746  0.00  0.00     0.034 A 
ATOM      4  C3  UNL d   1       0.898  -0.276  -2.700  0.00  0.00     0.017 A 
ATOM      5  C4  UNL d   1       0.692  -1.504  -3.339  0.00  0.00     0.017 A 
ATOM      6  C5  UNL d   1       1.748  -2.117  -4.021  0.00  0.00     0.034 A 
ATOM      7 Cl   UNL d   1      -0.835  -2.312  -3.326  0.00  0.00    -0.070 Cl
ATOM      8 Cl1  UNL d   1      -0.356   0.543  -1.838  0.00  0.00    -0.070 Cl
ENDROOT
TORSDOF 0
ENDMDL
