MODEL 1
REMARK minimizedAffinity -3.74605298
REMARK minimizedRMSD -1
REMARK  0 active torsions:
REMARK  status: ('A' for Active; 'I' for Inactive)
ROOT
ATOM      1  C   UNL d   1      -0.551   0.745   2.662  0.00  0.00     0.020 A 
ATOM      2  C1  UNL d   1       0.730   0.407   2.225  0.00  0.00     0.020 A 
ATOM      3  C2  UNL d   1       0.953   0.114   0.878  0.00  0.00     0.034 A 
ATOM      4  C3  UNL d   1      -0.106   0.157  -0.037  0.00  0.00     0.017 A 
ATOM      5  C4  UNL d   1      -1.390   0.497   0.403  0.00  0.00     0.017 A 
ATOM      6  C5  UNL d   1      -1.608   0.790   1.753  0.00  0.00     0.034 A 
ATOM      7 Cl   UNL d   1      -2.746   0.572  -0.667  0.00  0.00    -0.070 Cl
ATOM      8 Cl1  UNL d   1       0.243  -0.217  -1.687  0.00  0.00    -0.070 Cl
ENDROOT
TORSDOF 0
ENDMDL
