MODEL 1
REMARK minimizedAffinity -0.644108713
REMARK minimizedRMSD -1
REMARK  0 active torsions:
REMARK  status: ('A' for Active; 'I' for Inactive)
ROOT
ATOM      1  C   UNL d   1       0.826   0.182   2.483  0.00  0.00     0.020 A 
ATOM      2  C1  UNL d   1       1.223   1.381   3.074  0.00  0.00     0.020 A 
ATOM      3  C2  UNL d   1       0.271   2.356   3.381  0.00  0.00     0.034 A 
ATOM      4  C3  UNL d   1      -1.081   2.134   3.096  0.00  0.00     0.017 A 
ATOM      5  C4  UNL d   1      -1.478   0.930   2.503  0.00  0.00     0.017 A 
ATOM      6  C5  UNL d   1      -0.521  -0.043   2.198  0.00  0.00     0.034 A 
ATOM      7 Cl   UNL d   1      -3.128   0.584   2.123  0.00  0.00    -0.070 Cl
ATOM      8 Cl1  UNL d   1      -2.203   3.383   3.503  0.00  0.00    -0.070 Cl
ENDROOT
TORSDOF 0
ENDMDL
