MODEL 1
REMARK minimizedAffinity -3.12758327
REMARK minimizedRMSD -1
REMARK  0 active torsions:
REMARK  status: ('A' for Active; 'I' for Inactive)
ROOT
ATOM      1  C   UNL d   1       1.223   0.151   0.299  0.00  0.00     0.020 A 
ATOM      2  C1  UNL d   1       1.077   0.112   1.685  0.00  0.00     0.020 A 
ATOM      3  C2  UNL d   1      -0.171   0.355   2.263  0.00  0.00     0.034 A 
ATOM      4  C3  UNL d   1      -1.277   0.639   1.455  0.00  0.00     0.017 A 
ATOM      5  C4  UNL d   1      -1.130   0.679   0.064  0.00  0.00     0.017 A 
ATOM      6  C5  UNL d   1       0.122   0.434  -0.510  0.00  0.00     0.034 A 
ATOM      7 Cl   UNL d   1      -2.449   1.022  -0.999  0.00  0.00    -0.070 Cl
ATOM      8 Cl1  UNL d   1      -2.790   0.930   2.238  0.00  0.00    -0.070 Cl
ENDROOT
TORSDOF 0
ENDMDL
