MODEL 1
REMARK minimizedAffinity -3.16283965
REMARK minimizedRMSD -1
REMARK  0 active torsions:
REMARK  status: ('A' for Active; 'I' for Inactive)
ROOT
ATOM      1  C   UNL d   1       1.407  -0.078   2.019  0.00  0.00     0.020 A 
ATOM      2  C1  UNL d   1       0.456  -0.058   3.039  0.00  0.00     0.020 A 
ATOM      3  C2  UNL d   1      -0.888   0.168   2.735  0.00  0.00     0.034 A 
ATOM      4  C3  UNL d   1      -1.285   0.374   1.409  0.00  0.00     0.017 A 
ATOM      5  C4  UNL d   1      -0.330   0.354   0.386  0.00  0.00     0.017 A 
ATOM      6  C5  UNL d   1       1.015   0.127   0.696  0.00  0.00     0.034 A 
ATOM      7 Cl   UNL d   1      -0.743   0.600  -1.274  0.00  0.00    -0.070 Cl
ATOM      8 Cl1  UNL d   1      -2.964   0.647   1.106  0.00  0.00    -0.070 Cl
ENDROOT
TORSDOF 0
ENDMDL
