MODEL 1
REMARK minimizedAffinity -0.671107233
REMARK minimizedRMSD -1
REMARK  0 active torsions:
REMARK  status: ('A' for Active; 'I' for Inactive)
ROOT
ATOM      1  C   UNL d   1       0.554   0.565  -0.352  0.00  0.00     0.020 A 
ATOM      2  C1  UNL d   1       0.321  -0.755   0.031  0.00  0.00     0.020 A 
ATOM      3  C2  UNL d   1       0.612  -1.800  -0.849  0.00  0.00     0.034 A 
ATOM      4  C3  UNL d   1       1.138  -1.526  -2.117  0.00  0.00     0.017 A 
ATOM      5  C4  UNL d   1       1.372  -0.200  -2.500  0.00  0.00     0.017 A 
ATOM      6  C5  UNL d   1       1.079   0.842  -1.615  0.00  0.00     0.034 A 
ATOM      7 Cl   UNL d   1       2.019   0.216  -4.048  0.00  0.00    -0.070 Cl
ATOM      8 Cl1  UNL d   1       1.475  -2.866  -3.153  0.00  0.00    -0.070 Cl
ENDROOT
TORSDOF 0
ENDMDL
