MODEL 1
REMARK minimizedAffinity -0.54204154
REMARK minimizedRMSD -1
REMARK  0 active torsions:
REMARK  status: ('A' for Active; 'I' for Inactive)
ROOT
ATOM      1  C   UNL d   1       1.722   0.230   1.683  0.00  0.00     0.020 A 
ATOM      2  C1  UNL d   1       0.713   0.313   2.641  0.00  0.00     0.020 A 
ATOM      3  C2  UNL d   1      -0.622   0.411   2.242  0.00  0.00     0.034 A 
ATOM      4  C3  UNL d   1      -0.951   0.426   0.882  0.00  0.00     0.017 A 
ATOM      5  C4  UNL d   1       0.063   0.343  -0.079  0.00  0.00     0.017 A 
ATOM      6  C5  UNL d   1       1.398   0.245   0.325  0.00  0.00     0.034 A 
ATOM      7 Cl   UNL d   1      -0.265   0.356  -1.776  0.00  0.00    -0.070 Cl
ATOM      8 Cl1  UNL d   1      -2.622   0.549   0.461  0.00  0.00    -0.070 Cl
ENDROOT
TORSDOF 0
ENDMDL
