MODEL 1
REMARK minimizedAffinity -2.9880054
REMARK minimizedRMSD -1
REMARK  0 active torsions:
REMARK  status: ('A' for Active; 'I' for Inactive)
ROOT
ATOM      1  C   UNL d   1       0.785   0.195   0.496  0.00  0.00     0.020 A 
ATOM      2  C1  UNL d   1       0.765   0.298   1.886  0.00  0.00     0.020 A 
ATOM      3  C2  UNL d   1      -0.433   0.570   2.549  0.00  0.00     0.034 A 
ATOM      4  C3  UNL d   1      -1.617   0.741   1.822  0.00  0.00     0.017 A 
ATOM      5  C4  UNL d   1      -1.596   0.638   0.427  0.00  0.00     0.017 A 
ATOM      6  C5  UNL d   1      -0.394   0.365  -0.232  0.00  0.00     0.034 A 
ATOM      7 Cl   UNL d   1      -3.016   0.836  -0.538  0.00  0.00    -0.070 Cl
ATOM      8 Cl1  UNL d   1      -3.062   1.075   2.708  0.00  0.00    -0.070 Cl
ENDROOT
TORSDOF 0
ENDMDL
