MODEL 1
REMARK minimizedAffinity -2.77631569
REMARK minimizedRMSD -1
REMARK  0 active torsions:
REMARK  status: ('A' for Active; 'I' for Inactive)
ROOT
ATOM      1  C   UNL d   1       0.344   0.609  -1.663  0.00  0.00     0.020 A 
ATOM      2  C1  UNL d   1       1.464   0.409  -0.857  0.00  0.00     0.020 A 
ATOM      3  C2  UNL d   1       1.310   0.218   0.518  0.00  0.00     0.034 A 
ATOM      4  C3  UNL d   1       0.033   0.227   1.091  0.00  0.00     0.017 A 
ATOM      5  C4  UNL d   1      -1.091   0.428   0.281  0.00  0.00     0.017 A 
ATOM      6  C5  UNL d   1      -0.931   0.618  -1.095  0.00  0.00     0.034 A 
ATOM      7 Cl   UNL d   1      -2.698   0.452   0.915  0.00  0.00    -0.070 Cl
ATOM      8 Cl1  UNL d   1      -0.084  -0.015   2.798  0.00  0.00    -0.070 Cl
ENDROOT
TORSDOF 0
ENDMDL
