MODEL 1
REMARK minimizedAffinity -3.47608995
REMARK minimizedRMSD -1
REMARK  0 active torsions:
REMARK  status: ('A' for Active; 'I' for Inactive)
ROOT
ATOM      1  C   UNL d   1       0.988   0.180   1.696  0.00  0.00     0.020 A 
ATOM      2  C1  UNL d   1       1.072   0.240   0.305  0.00  0.00     0.020 A 
ATOM      3  C2  UNL d   1      -0.073   0.486  -0.454  0.00  0.00     0.034 A 
ATOM      4  C3  UNL d   1      -1.309   0.674   0.177  0.00  0.00     0.017 A 
ATOM      5  C4  UNL d   1      -1.393   0.614   1.572  0.00  0.00     0.017 A 
ATOM      6  C5  UNL d   1      -0.242   0.366   2.328  0.00  0.00     0.034 A 
ATOM      7 Cl   UNL d   1      -2.881   0.835   2.422  0.00  0.00    -0.070 Cl
ATOM      8 Cl1  UNL d   1      -2.684   0.975  -0.825  0.00  0.00    -0.070 Cl
ENDROOT
TORSDOF 0
ENDMDL
