MODEL 1
REMARK minimizedAffinity -1.03803813
REMARK minimizedRMSD -1
REMARK  0 active torsions:
REMARK  status: ('A' for Active; 'I' for Inactive)
ROOT
ATOM      1  C   UNL d   1       0.970   0.648   0.545  0.00  0.00     0.020 A 
ATOM      2  C1  UNL d   1       0.132  -0.456   0.703  0.00  0.00     0.020 A 
ATOM      3  C2  UNL d   1      -0.205  -1.240  -0.402  0.00  0.00     0.034 A 
ATOM      4  C3  UNL d   1       0.296  -0.923  -1.670  0.00  0.00     0.017 A 
ATOM      5  C4  UNL d   1       1.137   0.184  -1.828  0.00  0.00     0.017 A 
ATOM      6  C5  UNL d   1       1.471   0.967  -0.718  0.00  0.00     0.034 A 
ATOM      7 Cl   UNL d   1       1.795   0.638  -3.360  0.00  0.00    -0.070 Cl
ATOM      8 Cl1  UNL d   1      -0.162  -1.938  -2.992  0.00  0.00    -0.070 Cl
ENDROOT
TORSDOF 0
ENDMDL
