MODEL 1
REMARK minimizedAffinity 11.5461597
REMARK minimizedRMSD -1
REMARK  1 active torsions:
REMARK  status: ('A' for Active; 'I' for Inactive)
REMARK    1  A    between atoms: C1_2  and  C2_3 
ROOT
ATOM      1  C2  UNL d   1       0.336   0.403   2.861  0.00  0.00    -0.073 A 
ATOM      2  C3  UNL d   1       1.686   0.124   3.103  0.00  0.00    -0.002 A 
ATOM      3  C4  UNL d   1       2.243  -1.084   2.680  0.00  0.00     0.004 A 
ATOM      4  C5  UNL d   1       1.459  -2.021   2.007  0.00  0.00    -0.004 A 
ATOM      5  C6  UNL d   1       0.111  -1.755   1.746  0.00  0.00    -0.075 A 
ATOM      6  C7  UNL d   1      -0.747  -2.753   1.024  0.00  0.00     0.076 C 
ATOM      7  C8  UNL d   1      -0.442  -0.541   2.176  0.00  0.00     0.001 A 
ENDROOT
BRANCH   1   8
ATOM      8  C1  UNL d   1      -0.268   1.708   3.310  0.00  0.00     0.053 C 
ATOM      9  C   UNL d   1      -1.766   1.761   3.054  0.00  0.00     0.018 C 
ENDBRANCH   1   8
TORSDOF 1
ENDMDL
