MODEL 1
REMARK minimizedAffinity 5.85241413
REMARK minimizedRMSD -1
REMARK  1 active torsions:
REMARK  status: ('A' for Active; 'I' for Inactive)
REMARK    1  A    between atoms: C1_2  and  C2_3 
ROOT
ATOM      1  C2  UNL d   1      -0.790  -1.682   0.759  0.00  0.00    -0.073 A 
ATOM      2  C3  UNL d   1      -0.352  -1.690  -0.570  0.00  0.00    -0.002 A 
ATOM      3  C4  UNL d   1      -1.245  -1.417  -1.608  0.00  0.00     0.004 A 
ATOM      4  C5  UNL d   1      -2.580  -1.128  -1.327  0.00  0.00    -0.004 A 
ATOM      5  C6  UNL d   1      -3.034  -1.104  -0.004  0.00  0.00    -0.075 A 
ATOM      6  C7  UNL d   1      -4.468  -0.796   0.314  0.00  0.00     0.076 C 
ATOM      7  C8  UNL d   1      -2.132  -1.381   1.032  0.00  0.00     0.001 A 
ENDROOT
BRANCH   1   8
ATOM      8  C1  UNL d   1       0.171  -1.970   1.883  0.00  0.00     0.053 C 
ATOM      9  C   UNL d   1       1.134  -0.817   2.119  0.00  0.00     0.018 C 
ENDBRANCH   1   8
TORSDOF 1
ENDMDL
