MODEL 1
REMARK minimizedAffinity 5.77270126
REMARK minimizedRMSD -1
REMARK  1 active torsions:
REMARK  status: ('A' for Active; 'I' for Inactive)
REMARK    1  A    between atoms: C1_2  and  C2_3 
ROOT
ATOM      1  C2  UNL d   1       1.506   0.165   1.580  0.00  0.00    -0.073 A 
ATOM      2  C3  UNL d   1       1.202  -1.169   1.288  0.00  0.00    -0.002 A 
ATOM      3  C4  UNL d   1      -0.024  -1.713   1.673  0.00  0.00     0.004 A 
ATOM      4  C5  UNL d   1      -0.960  -0.927   2.346  0.00  0.00    -0.004 A 
ATOM      5  C6  UNL d   1      -0.679   0.412   2.636  0.00  0.00    -0.075 A 
ATOM      6  C7  UNL d   1      -1.674   1.269   3.361  0.00  0.00     0.076 C 
ATOM      7  C8  UNL d   1       0.556   0.949   2.248  0.00  0.00     0.001 A 
ENDROOT
BRANCH   1   8
ATOM      8  C1  UNL d   1       2.827   0.758   1.161  0.00  0.00     0.053 C 
ATOM      9  C   UNL d   1       2.648   1.942   0.223  0.00  0.00     0.018 C 
ENDBRANCH   1   8
TORSDOF 1
ENDMDL
