MODEL 1
REMARK minimizedAffinity -2.03355002
REMARK minimizedRMSD -1
REMARK  1 active torsions:
REMARK  status: ('A' for Active; 'I' for Inactive)
REMARK    1  A    between atoms: C1_2  and  C2_3 
ROOT
ATOM      1  C2  UNL d   1       4.299   2.661   5.948  0.00  0.00    -0.073 A 
ATOM      2  C3  UNL d   1       5.632   3.084   6.000  0.00  0.00    -0.002 A 
ATOM      3  C4  UNL d   1       5.941   4.444   5.958  0.00  0.00     0.004 A 
ATOM      4  C5  UNL d   1       4.923   5.394   5.873  0.00  0.00    -0.004 A 
ATOM      5  C6  UNL d   1       3.585   4.991   5.832  0.00  0.00    -0.075 A 
ATOM      6  C7  UNL d   1       2.478   6.000   5.737  0.00  0.00     0.076 C 
ATOM      7  C8  UNL d   1       3.282   3.623   5.871  0.00  0.00     0.001 A 
ENDROOT
BRANCH   1   8
ATOM      8  C1  UNL d   1       3.959   1.194   5.999  0.00  0.00     0.053 C 
ATOM      9  C   UNL d   1       4.989   0.345   5.270  0.00  0.00     0.018 C 
ENDBRANCH   1   8
TORSDOF 1
ENDMDL
