MODEL 1
REMARK minimizedAffinity 5.98870659
REMARK minimizedRMSD -1
REMARK  1 active torsions:
REMARK  status: ('A' for Active; 'I' for Inactive)
REMARK    1  A    between atoms: C1_2  and  C2_3 
ROOT
ATOM      1  C2  UNL d   1       4.892   4.144   3.927  0.00  0.00    -0.073 A 
ATOM      2  C3  UNL d   1       6.000   4.731   4.550  0.00  0.00    -0.002 A 
ATOM      3  C4  UNL d   1       5.822   5.657   5.579  0.00  0.00     0.004 A 
ATOM      4  C5  UNL d   1       4.537   6.000   6.000  0.00  0.00    -0.004 A 
ATOM      5  C6  UNL d   1       3.418   5.416   5.398  0.00  0.00    -0.075 A 
ATOM      6  C7  UNL d   1       2.029   5.776   5.838  0.00  0.00     0.076 C 
ATOM      7  C8  UNL d   1       3.605   4.489   4.364  0.00  0.00     0.001 A 
ENDROOT
BRANCH   1   8
ATOM      8  C1  UNL d   1       5.080   3.140   2.820  0.00  0.00     0.053 C 
ATOM      9  C   UNL d   1       4.495   3.626   1.503  0.00  0.00     0.018 C 
ENDBRANCH   1   8
TORSDOF 1
ENDMDL
