MODEL 1
REMARK minimizedAffinity 1.59682071
REMARK minimizedRMSD -1
REMARK  1 active torsions:
REMARK  status: ('A' for Active; 'I' for Inactive)
REMARK    1  A    between atoms: C1_2  and  C2_3 
ROOT
ATOM      1  C2  UNL d   1      -4.699   5.527  -0.203  0.00  0.00    -0.073 A 
ATOM      2  C3  UNL d   1      -5.776   5.997   0.557  0.00  0.00    -0.002 A 
ATOM      3  C4  UNL d   1      -5.954   5.562   1.871  0.00  0.00     0.004 A 
ATOM      4  C5  UNL d   1      -5.056   4.659   2.439  0.00  0.00    -0.004 A 
ATOM      5  C6  UNL d   1      -3.967   4.187   1.699  0.00  0.00    -0.075 A 
ATOM      6  C7  UNL d   1      -2.993   3.213   2.295  0.00  0.00     0.076 C 
ATOM      7  C8  UNL d   1      -3.796   4.627   0.380  0.00  0.00     0.001 A 
ENDROOT
BRANCH   1   8
ATOM      8  C1  UNL d   1      -4.498   6.000  -1.620  0.00  0.00     0.053 C 
ATOM      9  C   UNL d   1      -3.422   5.203  -2.340  0.00  0.00     0.018 C 
ENDBRANCH   1   8
TORSDOF 1
ENDMDL
