MODEL 1
REMARK minimizedAffinity 17.5603695
REMARK minimizedRMSD -1
REMARK  1 active torsions:
REMARK  status: ('A' for Active; 'I' for Inactive)
REMARK    1  A    between atoms: C1_2  and  C2_3 
ROOT
ATOM      1  C2  UNL d   1       4.478   4.309   3.775  0.00  0.00    -0.073 A 
ATOM      2  C3  UNL d   1       5.225   5.486   3.658  0.00  0.00    -0.002 A 
ATOM      3  C4  UNL d   1       5.560   5.986   2.399  0.00  0.00     0.004 A 
ATOM      4  C5  UNL d   1       5.147   5.319   1.245  0.00  0.00    -0.004 A 
ATOM      5  C6  UNL d   1       4.389   4.148   1.342  0.00  0.00    -0.075 A 
ATOM      6  C7  UNL d   1       3.939   3.417   0.111  0.00  0.00     0.076 C 
ATOM      7  C8  UNL d   1       4.059   3.650   2.609  0.00  0.00     0.001 A 
ENDROOT
BRANCH   1   8
ATOM      8  C1  UNL d   1       4.108   3.769   5.132  0.00  0.00     0.053 C 
ATOM      9  C   UNL d   1       3.377   4.801   5.976  0.00  0.00     0.018 C 
ENDBRANCH   1   8
TORSDOF 1
ENDMDL
