MODEL 1
REMARK minimizedAffinity 17.0249958
REMARK minimizedRMSD -1
REMARK  1 active torsions:
REMARK  status: ('A' for Active; 'I' for Inactive)
REMARK    1  A    between atoms: C1_2  and  C2_3 
ROOT
ATOM      1  C2  UNL d   1      -1.794  -1.975  -1.501  0.00  0.00    -0.073 A 
ATOM      2  C3  UNL d   1      -1.219  -2.641  -0.412  0.00  0.00    -0.002 A 
ATOM      3  C4  UNL d   1      -1.697  -2.420   0.881  0.00  0.00     0.004 A 
ATOM      4  C5  UNL d   1      -2.755  -1.538   1.097  0.00  0.00    -0.004 A 
ATOM      5  C6  UNL d   1      -3.350  -0.873   0.020  0.00  0.00    -0.075 A 
ATOM      6  C7  UNL d   1      -4.489   0.081   0.236  0.00  0.00     0.076 C 
ATOM      7  C8  UNL d   1      -2.864  -1.098  -1.274  0.00  0.00     0.001 A 
ENDROOT
BRANCH   1   8
ATOM      8  C1  UNL d   1      -1.286  -2.216  -2.899  0.00  0.00     0.053 C 
ATOM      9  C   UNL d   1      -2.410  -2.208  -3.923  0.00  0.00     0.018 C 
ENDBRANCH   1   8
TORSDOF 1
ENDMDL
