MODEL 1
REMARK minimizedAffinity 11.6153402
REMARK minimizedRMSD -1
REMARK  1 active torsions:
REMARK  status: ('A' for Active; 'I' for Inactive)
REMARK    1  A    between atoms: C1_2  and  C2_3 
ROOT
ATOM      1  C2  UNL d   1       4.812   0.514  -3.420  0.00  0.00    -0.073 A 
ATOM      2  C3  UNL d   1       3.874  -0.521  -3.514  0.00  0.00    -0.002 A 
ATOM      3  C4  UNL d   1       2.798  -0.579  -2.628  0.00  0.00     0.004 A 
ATOM      4  C5  UNL d   1       2.644   0.398  -1.645  0.00  0.00    -0.004 A 
ATOM      5  C6  UNL d   1       3.564   1.446  -1.542  0.00  0.00    -0.075 A 
ATOM      6  C7  UNL d   1       3.414   2.504  -0.489  0.00  0.00     0.076 C 
ATOM      7  C8  UNL d   1       4.644   1.497  -2.434  0.00  0.00     0.001 A 
ENDROOT
BRANCH   1   8
ATOM      8  C1  UNL d   1       5.972   0.585  -4.379  0.00  0.00     0.053 C 
ATOM      9  C   UNL d   1       6.000   1.899  -5.144  0.00  0.00     0.018 C 
ENDBRANCH   1   8
TORSDOF 1
ENDMDL
