MODEL 1
REMARK minimizedAffinity 8.12478924
REMARK minimizedRMSD -1
REMARK  1 active torsions:
REMARK  status: ('A' for Active; 'I' for Inactive)
REMARK    1  A    between atoms: C1_2  and  C2_3 
ROOT
ATOM      1  C2  UNL d   1      -4.962   4.695  -4.902  0.00  0.00    -0.073 A 
ATOM      2  C3  UNL d   1      -5.645   3.718  -5.634  0.00  0.00    -0.002 A 
ATOM      3  C4  UNL d   1      -5.006   2.531  -5.995  0.00  0.00     0.004 A 
ATOM      4  C5  UNL d   1      -3.681   2.306  -5.622  0.00  0.00    -0.004 A 
ATOM      5  C6  UNL d   1      -2.984   3.266  -4.880  0.00  0.00    -0.075 A 
ATOM      6  C7  UNL d   1      -1.557   3.041  -4.473  0.00  0.00     0.076 C 
ATOM      7  C8  UNL d   1      -3.633   4.456  -4.524  0.00  0.00     0.001 A 
ENDROOT
BRANCH   1   8
ATOM      8  C1  UNL d   1      -5.650   5.975  -4.504  0.00  0.00     0.053 C 
ATOM      9  C   UNL d   1      -5.997   6.000  -3.024  0.00  0.00     0.018 C 
ENDBRANCH   1   8
TORSDOF 1
ENDMDL
