MODEL 1
REMARK minimizedAffinity 14.3789282
REMARK minimizedRMSD -1
REMARK  1 active torsions:
REMARK  status: ('A' for Active; 'I' for Inactive)
REMARK    1  A    between atoms: C1_2  and  C2_3 
ROOT
ATOM      1  C2  UNL d   1       5.415   1.203  -3.696  0.00  0.00    -0.073 A 
ATOM      2  C3  UNL d   1       5.992  -0.014  -4.075  0.00  0.00    -0.002 A 
ATOM      3  C4  UNL d   1       5.443  -1.221  -3.637  0.00  0.00     0.004 A 
ATOM      4  C5  UNL d   1       4.311  -1.223  -2.823  0.00  0.00    -0.004 A 
ATOM      5  C6  UNL d   1       3.713  -0.016  -2.443  0.00  0.00    -0.075 A 
ATOM      6  C7  UNL d   1       2.496  -0.001  -1.566  0.00  0.00     0.076 C 
ATOM      7  C8  UNL d   1       4.271   1.191  -2.885  0.00  0.00     0.001 A 
ENDROOT
BRANCH   1   8
ATOM      8  C1  UNL d   1       6.000   2.508  -4.172  0.00  0.00     0.053 C 
ATOM      9  C   UNL d   1       5.999   2.614  -5.689  0.00  0.00     0.018 C 
ENDBRANCH   1   8
TORSDOF 1
ENDMDL
