MODEL 1
REMARK minimizedAffinity 12.3237343
REMARK minimizedRMSD -1
REMARK  1 active torsions:
REMARK  status: ('A' for Active; 'I' for Inactive)
REMARK    1  A    between atoms: C1_2  and  C2_3 
ROOT
ATOM      1  C2  UNL d   1      -3.100   0.013   5.705  0.00  0.00    -0.073 A 
ATOM      2  C3  UNL d   1      -4.305  -0.468   5.180  0.00  0.00    -0.002 A 
ATOM      3  C4  UNL d   1      -4.464  -1.828   4.914  0.00  0.00     0.004 A 
ATOM      4  C5  UNL d   1      -3.426  -2.721   5.177  0.00  0.00    -0.004 A 
ATOM      5  C6  UNL d   1      -2.218  -2.262   5.712  0.00  0.00    -0.075 A 
ATOM      6  C7  UNL d   1      -1.090  -3.209   5.998  0.00  0.00     0.076 C 
ATOM      7  C8  UNL d   1      -2.065  -0.893   5.974  0.00  0.00     0.001 A 
ENDROOT
BRANCH   1   8
ATOM      8  C1  UNL d   1      -2.926   1.481   6.000  0.00  0.00     0.053 C 
ATOM      9  C   UNL d   1      -4.252   2.224   5.998  0.00  0.00     0.018 C 
ENDBRANCH   1   8
TORSDOF 1
ENDMDL
