MODEL 1
REMARK minimizedAffinity 14.057436
REMARK minimizedRMSD -1
REMARK  1 active torsions:
REMARK  status: ('A' for Active; 'I' for Inactive)
REMARK    1  A    between atoms: C1_2  and  C2_3 
ROOT
ATOM      1  C2  UNL d   1      -2.232  -2.397   5.956  0.00  0.00    -0.073 A 
ATOM      2  C3  UNL d   1      -2.979  -1.213   5.968  0.00  0.00    -0.002 A 
ATOM      3  C4  UNL d   1      -2.336   0.025   5.977  0.00  0.00     0.004 A 
ATOM      4  C5  UNL d   1      -0.943   0.094   5.966  0.00  0.00    -0.004 A 
ATOM      5  C6  UNL d   1      -0.180  -1.078   5.942  0.00  0.00    -0.075 A 
ATOM      6  C7  UNL d   1       1.320  -1.022   5.933  0.00  0.00     0.076 C 
ATOM      7  C8  UNL d   1      -0.832  -2.318   5.937  0.00  0.00     0.001 A 
ENDROOT
BRANCH   1   8
ATOM      8  C1  UNL d   1      -2.922  -3.737   5.941  0.00  0.00     0.053 C 
ATOM      9  C   UNL d   1      -1.931  -4.888   5.997  0.00  0.00     0.018 C 
ENDBRANCH   1   8
TORSDOF 1
ENDMDL
