MODEL 1
REMARK minimizedAffinity 4.76247883
REMARK minimizedRMSD -1
REMARK  0 active torsions:
REMARK  status: ('A' for Active; 'I' for Inactive)
ROOT
ATOM      1  C   UNL d   1      -0.091  -0.038  -0.569  0.00  0.00    -0.002 A 
ATOM      2  C1  UNL d   1      -1.416   0.020  -0.978  0.00  0.00     0.010 A 
ATOM      3  C2  UNL d   1      -2.006   1.242  -1.305  0.00  0.00     0.041 A 
ATOM      4  C3  UNL d   1      -1.234   2.417  -1.213  0.00  0.00    -0.075 A 
ATOM      5  S   UNL d   1      -1.744   4.026  -1.563  0.00  0.00     0.015 SA
ATOM      6  C4  UNL d   1      -0.215   4.675  -1.179  0.00  0.00     0.022 A 
ATOM      7  C5  UNL d   1       0.674   3.701  -0.791  0.00  0.00     0.026 A 
ATOM      8  C6  UNL d   1       0.103   2.384  -0.805  0.00  0.00    -0.082 A 
ATOM      9  C7  UNL d   1       0.671   1.129  -0.480  0.00  0.00     0.045 A 
ENDROOT
TORSDOF 0
ENDMDL
