MODEL 1
REMARK minimizedAffinity 17.559761
REMARK minimizedRMSD -1
REMARK  0 active torsions:
REMARK  status: ('A' for Active; 'I' for Inactive)
ROOT
ATOM      1  C   UNL d   1       6.000  -2.587  -1.538  0.00  0.00    -0.002 A 
ATOM      2  C1  UNL d   1       5.551  -3.856  -1.199  0.00  0.00     0.010 A 
ATOM      3  C2  UNL d   1       4.564  -4.023  -0.225  0.00  0.00     0.041 A 
ATOM      4  C3  UNL d   1       4.029  -2.883   0.406  0.00  0.00    -0.075 A 
ATOM      5  S   UNL d   1       2.812  -2.845   1.626  0.00  0.00     0.015 SA
ATOM      6  C4  UNL d   1       2.858  -1.144   1.724  0.00  0.00     0.022 A 
ATOM      7  C5  UNL d   1       3.774  -0.602   0.855  0.00  0.00     0.026 A 
ATOM      8  C6  UNL d   1       4.464  -1.595   0.080  0.00  0.00    -0.082 A 
ATOM      9  C7  UNL d   1       5.466  -1.459  -0.910  0.00  0.00     0.045 A 
ENDROOT
TORSDOF 0
ENDMDL
