MODEL 1
REMARK minimizedAffinity 15.9875717
REMARK minimizedRMSD -1
REMARK  0 active torsions:
REMARK  status: ('A' for Active; 'I' for Inactive)
ROOT
ATOM      1  C   UNL d   1       0.642   1.930   3.685  0.00  0.00    -0.002 A 
ATOM      2  C1  UNL d   1      -0.744   1.873   3.639  0.00  0.00     0.010 A 
ATOM      3  C2  UNL d   1      -1.444   2.467   2.588  0.00  0.00     0.041 A 
ATOM      4  C3  UNL d   1      -0.722   3.124   1.572  0.00  0.00    -0.075 A 
ATOM      5  S   UNL d   1      -1.367   3.922   0.187  0.00  0.00     0.015 SA
ATOM      6  C4  UNL d   1       0.181   4.356  -0.377  0.00  0.00     0.022 A 
ATOM      7  C5  UNL d   1       1.178   3.912   0.459  0.00  0.00     0.026 A 
ATOM      8  C6  UNL d   1       0.674   3.194   1.596  0.00  0.00    -0.082 A 
ATOM      9  C7  UNL d   1       1.355   2.583   2.676  0.00  0.00     0.045 A 
ENDROOT
TORSDOF 0
ENDMDL
