MODEL 1
REMARK minimizedAffinity 20.4585209
REMARK minimizedRMSD -1
REMARK  0 active torsions:
REMARK  status: ('A' for Active; 'I' for Inactive)
ROOT
ATOM      1  C   UNL d   1      -0.714   0.006  -0.747  0.00  0.00    -0.002 A 
ATOM      2  C1  UNL d   1      -1.925   0.500  -1.213  0.00  0.00     0.010 A 
ATOM      3  C2  UNL d   1      -2.169   1.875  -1.238  0.00  0.00     0.041 A 
ATOM      4  C3  UNL d   1      -1.165   2.753  -0.785  0.00  0.00    -0.075 A 
ATOM      5  S   UNL d   1      -1.241   4.475  -0.724  0.00  0.00     0.015 SA
ATOM      6  C4  UNL d   1       0.332   4.595  -0.079  0.00  0.00     0.022 A 
ATOM      7  C5  UNL d   1       0.915   3.362   0.092  0.00  0.00     0.026 A 
ATOM      8  C6  UNL d   1       0.062   2.280  -0.312  0.00  0.00    -0.082 A 
ATOM      9  C7  UNL d   1       0.279   0.881  -0.299  0.00  0.00     0.045 A 
ENDROOT
TORSDOF 0
ENDMDL
