MODEL 1
REMARK minimizedAffinity 15.3758335
REMARK minimizedRMSD -1
REMARK  0 active torsions:
REMARK  status: ('A' for Active; 'I' for Inactive)
ROOT
ATOM      1  C   UNL d   1       0.730   5.999  -0.514  0.00  0.00    -0.002 A 
ATOM      2  C1  UNL d   1       0.205   5.207  -1.524  0.00  0.00     0.010 A 
ATOM      3  C2  UNL d   1      -0.194   3.894  -1.264  0.00  0.00     0.041 A 
ATOM      4  C3  UNL d   1      -0.056   3.387   0.044  0.00  0.00    -0.075 A 
ATOM      5  S   UNL d   1      -0.478   1.810   0.597  0.00  0.00     0.015 SA
ATOM      6  C4  UNL d   1       0.027   2.151   2.188  0.00  0.00     0.022 A 
ATOM      7  C5  UNL d   1       0.509   3.433   2.312  0.00  0.00     0.026 A 
ATOM      8  C6  UNL d   1       0.469   4.166   1.079  0.00  0.00    -0.082 A 
ATOM      9  C7  UNL d   1       0.865   5.493   0.782  0.00  0.00     0.045 A 
ENDROOT
TORSDOF 0
ENDMDL
