MODEL 1
REMARK minimizedAffinity 14.0709381
REMARK minimizedRMSD -1
REMARK  0 active torsions:
REMARK  status: ('A' for Active; 'I' for Inactive)
ROOT
ATOM      1  C   UNL d   1       5.603  -3.955  -1.018  0.00  0.00    -0.002 A 
ATOM      2  C1  UNL d   1       5.725  -2.598  -1.280  0.00  0.00     0.010 A 
ATOM      3  C2  UNL d   1       5.043  -1.660  -0.502  0.00  0.00     0.041 A 
ATOM      4  C3  UNL d   1       4.231  -2.113   0.556  0.00  0.00    -0.075 A 
ATOM      5  S   UNL d   1       3.303  -1.148   1.642  0.00  0.00     0.015 SA
ATOM      6  C4  UNL d   1       2.724  -2.514   2.480  0.00  0.00     0.022 A 
ATOM      7  C5  UNL d   1       3.216  -3.686   1.958  0.00  0.00     0.026 A 
ATOM      8  C6  UNL d   1       4.093  -3.475   0.840  0.00  0.00    -0.082 A 
ATOM      9  C7  UNL d   1       4.796  -4.401   0.032  0.00  0.00     0.045 A 
ENDROOT
TORSDOF 0
ENDMDL
