MODEL 1
REMARK minimizedAffinity 8.09536934
REMARK minimizedRMSD -1
REMARK  0 active torsions:
REMARK  status: ('A' for Active; 'I' for Inactive)
ROOT
ATOM      1  C   UNL d   1       5.248  -1.801  -0.059  0.00  0.00    -0.002 A 
ATOM      2  C1  UNL d   1       4.201  -2.361   0.659  0.00  0.00     0.010 A 
ATOM      3  C2  UNL d   1       3.394  -3.347   0.086  0.00  0.00     0.041 A 
ATOM      4  C3  UNL d   1       3.661  -3.764  -1.233  0.00  0.00    -0.075 A 
ATOM      5  S   UNL d   1       2.806  -4.957  -2.138  0.00  0.00     0.015 SA
ATOM      6  C4  UNL d   1       3.811  -4.751  -3.499  0.00  0.00     0.022 A 
ATOM      7  C5  UNL d   1       4.780  -3.799  -3.286  0.00  0.00     0.026 A 
ATOM      8  C6  UNL d   1       4.710  -3.216  -1.976  0.00  0.00    -0.082 A 
ATOM      9  C7  UNL d   1       5.509  -2.218  -1.367  0.00  0.00     0.045 A 
ENDROOT
TORSDOF 0
ENDMDL
