MODEL 1
REMARK minimizedAffinity 13.7499542
REMARK minimizedRMSD -1
REMARK  0 active torsions:
REMARK  status: ('A' for Active; 'I' for Inactive)
ROOT
ATOM      1  C   UNL d   1      -1.127   5.999  -0.237  0.00  0.00    -0.002 A 
ATOM      2  C1  UNL d   1      -1.505   6.000   1.098  0.00  0.00     0.010 A 
ATOM      3  C2  UNL d   1      -1.103   4.970   1.951  0.00  0.00     0.041 A 
ATOM      4  C3  UNL d   1      -0.305   3.930   1.434  0.00  0.00    -0.075 A 
ATOM      5  S   UNL d   1       0.306   2.564   2.291  0.00  0.00     0.015 SA
ATOM      6  C4  UNL d   1       1.084   1.949   0.905  0.00  0.00     0.022 A 
ATOM      7  C5  UNL d   1       0.892   2.752  -0.194  0.00  0.00     0.026 A 
ATOM      8  C6  UNL d   1       0.088   3.908   0.093  0.00  0.00    -0.082 A 
ATOM      9  C7  UNL d   1      -0.336   4.966  -0.746  0.00  0.00     0.045 A 
ENDROOT
TORSDOF 0
ENDMDL
