MODEL 1
REMARK minimizedAffinity -4.78703737
REMARK minimizedRMSD -1
REMARK  1 active torsions:
REMARK  status: ('A' for Active; 'I' for Inactive)
REMARK    1  A    between atoms: C1_2  and  C2_3 
ROOT
ATOM      1  C2  UNL d   1      -3.566   2.023  -3.032  0.00  0.00    -0.077 A 
ATOM      2  C3  UNL d   1      -3.110   1.873  -1.715  0.00  0.00     0.002 A 
ATOM      3  C4  UNL d   1      -2.629   0.640  -1.269  0.00  0.00     0.002 A 
ATOM      4  C5  UNL d   1      -2.594  -0.450  -2.136  0.00  0.00    -0.004 A 
ATOM      5  C6  UNL d   1      -3.047  -0.312  -3.447  0.00  0.00     0.002 A 
ATOM      6  C7  UNL d   1      -3.529   0.919  -3.894  0.00  0.00     0.002 A 
ENDROOT
BRANCH   1   7
ATOM      7  C1  UNL d   1      -4.039   3.364  -3.528  0.00  0.00     0.055 C 
ATOM      8  C   UNL d   1      -4.627   4.196  -2.398  0.00  0.00     0.019 C 
ENDBRANCH   1   7
TORSDOF 1
ENDMDL
