MODEL 1
REMARK minimizedAffinity -5.0399065
REMARK minimizedRMSD -1
REMARK  1 active torsions:
REMARK  status: ('A' for Active; 'I' for Inactive)
REMARK    1  A    between atoms: C1_2  and  C2_3 
ROOT
ATOM      1  C2  UNL d   1       2.373  -0.565   2.067  0.00  0.00    -0.077 A 
ATOM      2  C3  UNL d   1       2.792   0.099   3.229  0.00  0.00     0.002 A 
ATOM      3  C4  UNL d   1       2.682   1.487   3.328  0.00  0.00     0.002 A 
ATOM      4  C5  UNL d   1       2.148   2.223   2.272  0.00  0.00    -0.004 A 
ATOM      5  C6  UNL d   1       1.730   1.572   1.112  0.00  0.00     0.002 A 
ATOM      6  C7  UNL d   1       1.841   0.185   1.010  0.00  0.00     0.002 A 
ENDROOT
BRANCH   1   7
ATOM      7  C1  UNL d   1       2.446  -2.066   1.977  0.00  0.00     0.055 C 
ATOM      8  C   UNL d   1       1.058  -2.683   1.877  0.00  0.00     0.019 C 
ENDBRANCH   1   7
TORSDOF 1
ENDMDL
