MODEL 1
REMARK minimizedAffinity -5.16860008
REMARK minimizedRMSD -1
REMARK  1 active torsions:
REMARK  status: ('A' for Active; 'I' for Inactive)
REMARK    1  A    between atoms: C1_2  and  C2_3 
ROOT
ATOM      1  C2  UNL d   1      -0.035  -0.609   0.581  0.00  0.00    -0.077 A 
ATOM      2  C3  UNL d   1       0.599  -1.770   1.048  0.00  0.00     0.002 A 
ATOM      3  C4  UNL d   1       1.968  -1.766   1.320  0.00  0.00     0.002 A 
ATOM      4  C5  UNL d   1       2.714  -0.604   1.133  0.00  0.00    -0.004 A 
ATOM      5  C6  UNL d   1       2.094   0.554   0.668  0.00  0.00     0.002 A 
ATOM      6  C7  UNL d   1       0.726   0.552   0.394  0.00  0.00     0.002 A 
ENDROOT
BRANCH   1   7
ATOM      7  C1  UNL d   1      -1.520  -0.597   0.334  0.00  0.00     0.055 C 
ATOM      8  C   UNL d   1      -1.869   0.220  -0.902  0.00  0.00     0.019 C 
ENDBRANCH   1   7
TORSDOF 1
ENDMDL
