MODEL 1
REMARK minimizedAffinity -5.77822781
REMARK minimizedRMSD -1
REMARK  1 active torsions:
REMARK  status: ('A' for Active; 'I' for Inactive)
REMARK    1  A    between atoms: C1_2  and  C2_3 
ROOT
ATOM      1  C2  UNL d   1      -0.032  -0.361   0.322  0.00  0.00    -0.077 A 
ATOM      2  C3  UNL d   1       0.711  -1.520   0.586  0.00  0.00     0.002 A 
ATOM      3  C4  UNL d   1       2.042  -1.427   0.999  0.00  0.00     0.002 A 
ATOM      4  C5  UNL d   1       2.639  -0.178   1.155  0.00  0.00    -0.004 A 
ATOM      5  C6  UNL d   1       1.909   0.981   0.892  0.00  0.00     0.002 A 
ATOM      6  C7  UNL d   1       0.579   0.889   0.478  0.00  0.00     0.002 A 
ENDROOT
BRANCH   1   7
ATOM      7  C1  UNL d   1      -1.482  -0.458  -0.076  0.00  0.00     0.055 C 
ATOM      8  C   UNL d   1      -1.782   0.408  -1.290  0.00  0.00     0.019 C 
ENDBRANCH   1   7
TORSDOF 1
ENDMDL
