MODEL 1
REMARK minimizedAffinity -3.79608488
REMARK minimizedRMSD -1
REMARK  1 active torsions:
REMARK  status: ('A' for Active; 'I' for Inactive)
REMARK    1  A    between atoms: C1_2  and  C2_3 
ROOT
ATOM      1  C2  UNL d   1      -1.569  -0.247  -1.217  0.00  0.00    -0.077 A 
ATOM      2  C3  UNL d   1      -1.900  -1.039  -0.108  0.00  0.00     0.002 A 
ATOM      3  C4  UNL d   1      -1.096  -1.028   1.033  0.00  0.00     0.002 A 
ATOM      4  C5  UNL d   1       0.041  -0.225   1.079  0.00  0.00    -0.004 A 
ATOM      5  C6  UNL d   1       0.380   0.565  -0.019  0.00  0.00     0.002 A 
ATOM      6  C7  UNL d   1      -0.421   0.555  -1.161  0.00  0.00     0.002 A 
ENDROOT
BRANCH   1   7
ATOM      7  C1  UNL d   1      -2.461  -0.219  -2.430  0.00  0.00     0.055 C 
ATOM      8  C   UNL d   1      -2.400  -1.535  -3.192  0.00  0.00     0.019 C 
ENDBRANCH   1   7
TORSDOF 1
ENDMDL
