MODEL 1
REMARK minimizedAffinity -6.06008863
REMARK minimizedRMSD -1
REMARK  1 active torsions:
REMARK  status: ('A' for Active; 'I' for Inactive)
REMARK    1  A    between atoms: C1_2  and  C2_3 
ROOT
ATOM      1  C2  UNL d   1       1.356  -0.189   0.875  0.00  0.00    -0.077 A 
ATOM      2  C3  UNL d   1       0.873  -1.390   1.414  0.00  0.00     0.002 A 
ATOM      3  C4  UNL d   1       1.687  -2.176   2.232  0.00  0.00     0.002 A 
ATOM      4  C5  UNL d   1       2.987  -1.767   2.522  0.00  0.00    -0.004 A 
ATOM      5  C6  UNL d   1       3.478  -0.575   1.990  0.00  0.00     0.002 A 
ATOM      6  C7  UNL d   1       2.666   0.210   1.171  0.00  0.00     0.002 A 
ENDROOT
BRANCH   1   7
ATOM      7  C1  UNL d   1       0.463   0.683   0.033  0.00  0.00     0.055 C 
ATOM      8  C   UNL d   1      -0.936   0.096  -0.082  0.00  0.00     0.019 C 
ENDBRANCH   1   7
TORSDOF 1
ENDMDL
