MODEL 1
REMARK minimizedAffinity -4.77948761
REMARK minimizedRMSD -1
REMARK  0 active torsions:
REMARK  status: ('A' for Active; 'I' for Inactive)
ROOT
ATOM      1  C4' PXY d   1       2.939  -1.152  -1.353  0.00  0.00     0.077 C 
ATOM      2  C1' PXY d   1      -2.133   0.646   0.760  0.00  0.00     0.077 C 
ATOM      3  C1  PXY d   1      -0.803   0.164   0.214  0.00  0.00    -0.082 A 
ATOM      4  C2  PXY d   1       0.042   1.035  -0.313  0.00  0.00     0.003 A 
ATOM      5  C3  PXY d   1       1.235   0.612  -0.841  0.00  0.00     0.003 A 
ATOM      6  C4  PXY d   1       1.589  -0.709  -0.781  0.00  0.00    -0.082 A 
ATOM      7  C5  PXY d   1       0.737  -1.602  -0.235  0.00  0.00     0.003 A 
ATOM      8  C6  PXY d   1      -0.487  -1.158   0.258  0.00  0.00     0.003 A 
ENDROOT
TORSDOF 0
ENDMDL
