MODEL 1
REMARK minimizedAffinity -4.11745501
REMARK minimizedRMSD -1
REMARK  0 active torsions:
REMARK  status: ('A' for Active; 'I' for Inactive)
ROOT
ATOM      1  C4' PXY d   1       1.875  -0.750  -1.875  0.00  0.00     0.077 C 
ATOM      2  C1' PXY d   1      -2.554   0.262   1.699  0.00  0.00     0.077 C 
ATOM      3  C1  PXY d   1      -1.400   0.000   0.752  0.00  0.00    -0.082 A 
ATOM      4  C2  PXY d   1      -0.428  -0.820   1.116  0.00  0.00     0.003 A 
ATOM      5  C3  PXY d   1       0.639  -1.044   0.285  0.00  0.00     0.003 A 
ATOM      6  C4  PXY d   1       0.685  -0.463  -0.954  0.00  0.00    -0.082 A 
ATOM      7  C5  PXY d   1      -0.308   0.366  -1.338  0.00  0.00     0.003 A 
ATOM      8  C6  PXY d   1      -1.362   0.612  -0.463  0.00  0.00     0.003 A 
ENDROOT
TORSDOF 0
ENDMDL
