MODEL 1
REMARK minimizedAffinity -4.75071716
REMARK minimizedRMSD -1
REMARK  0 active torsions:
REMARK  status: ('A' for Active; 'I' for Inactive)
ROOT
ATOM      1  C4' PXY d   1      -1.735   0.680   0.817  0.00  0.00     0.077 C 
ATOM      2  C1' PXY d   1       3.456  -0.551  -1.408  0.00  0.00     0.077 C 
ATOM      3  C1  PXY d   1       2.091  -0.240  -0.828  0.00  0.00    -0.082 A 
ATOM      4  C2  PXY d   1       1.685   1.017  -0.747  0.00  0.00     0.003 A 
ATOM      5  C3  PXY d   1       0.466   1.318  -0.195  0.00  0.00     0.003 A 
ATOM      6  C4  PXY d   1      -0.368   0.319   0.229  0.00  0.00    -0.082 A 
ATOM      7  C5  PXY d   1       0.034  -0.967   0.140  0.00  0.00     0.003 A 
ATOM      8  C6  PXY d   1       1.292  -1.249  -0.385  0.00  0.00     0.003 A 
ENDROOT
TORSDOF 0
ENDMDL
