MODEL 1
REMARK minimizedAffinity -2.5178709
REMARK minimizedRMSD -1
REMARK  0 active torsions:
REMARK  status: ('A' for Active; 'I' for Inactive)
ROOT
ATOM      1  C4' PXY d   1       5.106  -2.236   4.837  0.00  0.00     0.077 C 
ATOM      2  C1' PXY d   1       5.831   3.499   4.843  0.00  0.00     0.077 C 
ATOM      3  C1  PXY d   1       5.649   1.994   4.851  0.00  0.00    -0.082 A 
ATOM      4  C2  PXY d   1       5.263   1.375   3.747  0.00  0.00     0.003 A 
ATOM      5  C3  PXY d   1       5.063   0.019   3.746  0.00  0.00     0.003 A 
ATOM      6  C4  PXY d   1       5.311  -0.719   4.872  0.00  0.00    -0.082 A 
ATOM      7  C5  PXY d   1       5.716  -0.097   6.000  0.00  0.00     0.003 A 
ATOM      8  C6  PXY d   1       5.873   1.286   5.992  0.00  0.00     0.003 A 
ENDROOT
TORSDOF 0
ENDMDL
