MODEL 1
REMARK minimizedAffinity 8.65791035
REMARK minimizedRMSD -1
REMARK  0 active torsions:
REMARK  status: ('A' for Active; 'I' for Inactive)
ROOT
ATOM      1  C4' PXY d   1       0.360  -3.228   0.282  0.00  0.00     0.077 C 
ATOM      2  C1' PXY d   1      -1.273   2.259  -0.520  0.00  0.00     0.077 C 
ATOM      3  C1  PXY d   1      -0.841   0.819  -0.322  0.00  0.00    -0.082 A 
ATOM      4  C2  PXY d   1      -1.383   0.101   0.648  0.00  0.00     0.003 A 
ATOM      5  C3  PXY d   1      -0.980  -1.192   0.861  0.00  0.00     0.003 A 
ATOM      6  C4  PXY d   1      -0.053  -1.773   0.039  0.00  0.00    -0.082 A 
ATOM      7  C5  PXY d   1       0.497  -1.051  -0.960  0.00  0.00     0.003 A 
ATOM      8  C6  PXY d   1       0.105   0.274  -1.134  0.00  0.00     0.003 A 
ENDROOT
TORSDOF 0
ENDMDL
