MODEL 1
REMARK minimizedAffinity 0.692093194
REMARK minimizedRMSD -1
REMARK  0 active torsions:
REMARK  status: ('A' for Active; 'I' for Inactive)
ROOT
ATOM      1  C4' PXY d   1       4.812  -1.131   5.006  0.00  0.00     0.077 C 
ATOM      2  C1' PXY d   1       4.883   4.554   3.959  0.00  0.00     0.077 C 
ATOM      3  C1  PXY d   1       4.877   3.062   4.232  0.00  0.00    -0.082 A 
ATOM      4  C2  PXY d   1       3.773   2.364   4.025  0.00  0.00     0.003 A 
ATOM      5  C3  PXY d   1       3.741   1.020   4.296  0.00  0.00     0.003 A 
ATOM      6  C4  PXY d   1       4.866   0.375   4.735  0.00  0.00    -0.082 A 
ATOM      7  C5  PXY d   1       6.000   1.079   4.939  0.00  0.00     0.003 A 
ATOM      8  C6  PXY d   1       6.000   2.449   4.697  0.00  0.00     0.003 A 
ENDROOT
TORSDOF 0
ENDMDL
