MODEL 1
REMARK minimizedAffinity -2.95305896
REMARK minimizedRMSD -1
REMARK  0 active torsions:
REMARK  status: ('A' for Active; 'I' for Inactive)
ROOT
ATOM      1  C4' PXY d   1       2.306  -1.600  -1.252  0.00  0.00     0.077 C 
ATOM      2  C1' PXY d   1      -2.502   0.592   1.092  0.00  0.00     0.077 C 
ATOM      3  C1  PXY d   1      -1.244   0.005   0.481  0.00  0.00    -0.082 A 
ATOM      4  C2  PXY d   1      -0.195   0.783   0.270  0.00  0.00     0.003 A 
ATOM      5  C3  PXY d   1       0.939   0.276  -0.310  0.00  0.00     0.003 A 
ATOM      6  C4  PXY d   1       1.019  -1.053  -0.629  0.00  0.00    -0.082 A 
ATOM      7  C5  PXY d   1      -0.043  -1.856  -0.407  0.00  0.00     0.003 A 
ATOM      8  C6  PXY d   1      -1.200  -1.312   0.145  0.00  0.00     0.003 A 
ENDROOT
TORSDOF 0
ENDMDL
