MODEL 1
REMARK minimizedAffinity -4.33823252
REMARK minimizedRMSD -1
REMARK  0 active torsions:
REMARK  status: ('A' for Active; 'I' for Inactive)
ROOT
ATOM      1  C4' PXY d   1      -0.328   2.225  -1.692  0.00  0.00     0.077 C 
ATOM      2  C1' PXY d   1       1.774  -2.988  -0.344  0.00  0.00     0.077 C 
ATOM      3  C1  PXY d   1       1.235  -1.616  -0.697  0.00  0.00    -0.082 A 
ATOM      4  C2  PXY d   1      -0.025  -1.318  -0.422  0.00  0.00     0.003 A 
ATOM      5  C3  PXY d   1      -0.538  -0.093  -0.764  0.00  0.00     0.003 A 
ATOM      6  C4  PXY d   1       0.261   0.855  -1.345  0.00  0.00    -0.082 A 
ATOM      7  C5  PXY d   1       1.550   0.562  -1.619  0.00  0.00     0.003 A 
ATOM      8  C6  PXY d   1       2.040  -0.701  -1.301  0.00  0.00     0.003 A 
ENDROOT
TORSDOF 0
ENDMDL
