MODEL 1
REMARK minimizedAffinity -4.68535185
REMARK minimizedRMSD -1
REMARK  0 active torsions:
REMARK  status: ('A' for Active; 'I' for Inactive)
ROOT
ATOM      1  C4' PXY d   1      -2.121   0.311   1.184  0.00  0.00     0.077 C 
ATOM      2  C1' PXY d   1       2.880  -0.904  -1.447  0.00  0.00     0.077 C 
ATOM      3  C1  PXY d   1       1.573  -0.574  -0.755  0.00  0.00    -0.082 A 
ATOM      4  C2  PXY d   1       0.831  -1.550  -0.257  0.00  0.00     0.003 A 
ATOM      5  C3  PXY d   1      -0.370  -1.271   0.344  0.00  0.00     0.003 A 
ATOM      6  C4  PXY d   1      -0.790   0.025   0.485  0.00  0.00    -0.082 A 
ATOM      7  C5  PXY d   1      -0.033   1.027  -0.011  0.00  0.00     0.003 A 
ATOM      8  C6  PXY d   1       1.162   0.720  -0.654  0.00  0.00     0.003 A 
ENDROOT
TORSDOF 0
ENDMDL
