MODEL 1
REMARK minimizedAffinity -2.18424654
REMARK minimizedRMSD -1
REMARK  0 active torsions:
REMARK  status: ('A' for Active; 'I' for Inactive)
ROOT
ATOM      1  C4' PXY d   1      -5.091  -2.534   3.127  0.00  0.00     0.077 C 
ATOM      2  C1' PXY d   1      -1.280   1.807   3.350  0.00  0.00     0.077 C 
ATOM      3  C1  PXY d   1      -2.273   0.663   3.302  0.00  0.00    -0.082 A 
ATOM      4  C2  PXY d   1      -2.922   0.407   2.177  0.00  0.00     0.003 A 
ATOM      5  C3  PXY d   1      -3.848  -0.603   2.125  0.00  0.00     0.003 A 
ATOM      6  C4  PXY d   1      -4.072  -1.395   3.219  0.00  0.00    -0.082 A 
ATOM      7  C5  PXY d   1      -3.406  -1.147   4.367  0.00  0.00     0.003 A 
ATOM      8  C6  PXY d   1      -2.501  -0.091   4.412  0.00  0.00     0.003 A 
ENDROOT
TORSDOF 0
ENDMDL
