MODEL 1
REMARK minimizedAffinity -3.14678669
REMARK minimizedRMSD -1
REMARK  0 active torsions:
REMARK  status: ('A' for Active; 'I' for Inactive)
ROOT
ATOM      1  C4' PXY d   1      -2.984  -1.049   3.753  0.00  0.00     0.077 C 
ATOM      2  C1' PXY d   1       0.080   1.766  -0.260  0.00  0.00     0.077 C 
ATOM      3  C1  PXY d   1      -0.718   1.035   0.802  0.00  0.00    -0.082 A 
ATOM      4  C2  PXY d   1      -1.190  -0.175   0.548  0.00  0.00     0.003 A 
ATOM      5  C3  PXY d   1      -1.941  -0.837   1.485  0.00  0.00     0.003 A 
ATOM      6  C4  PXY d   1      -2.165  -0.278   2.714  0.00  0.00    -0.082 A 
ATOM      7  C5  PXY d   1      -1.678   0.952   2.985  0.00  0.00     0.003 A 
ATOM      8  C6  PXY d   1      -0.953   1.624   2.005  0.00  0.00     0.003 A 
ENDROOT
TORSDOF 0
ENDMDL
