MODEL 1
REMARK minimizedAffinity -5.01341438
REMARK minimizedRMSD -1
REMARK  0 active torsions:
REMARK  status: ('A' for Active; 'I' for Inactive)
ROOT
ATOM      1  C4' PXY d   1      -1.782   0.465   1.147  0.00  0.00     0.077 C 
ATOM      2  C1' PXY d   1       3.097  -1.067  -1.547  0.00  0.00     0.077 C 
ATOM      3  C1  PXY d   1       1.812  -0.677  -0.844  0.00  0.00    -0.082 A 
ATOM      4  C2  PXY d   1       1.508   0.603  -0.700  0.00  0.00     0.003 A 
ATOM      5  C3  PXY d   1       0.366   0.974  -0.038  0.00  0.00     0.003 A 
ATOM      6  C4  PXY d   1      -0.500   0.025   0.435  0.00  0.00    -0.082 A 
ATOM      7  C5  PXY d   1      -0.202  -1.283   0.283  0.00  0.00     0.003 A 
ATOM      8  C6  PXY d   1       0.983  -1.638  -0.356  0.00  0.00     0.003 A 
ENDROOT
TORSDOF 0
ENDMDL
