MODEL 1
REMARK minimizedAffinity -1.12594688
REMARK minimizedRMSD -1
REMARK  0 active torsions:
REMARK  status: ('A' for Active; 'I' for Inactive)
ROOT
ATOM      1  C4' PXY d   1      -2.664   0.317   2.979  0.00  0.00     0.077 C 
ATOM      2  C1' PXY d   1       1.471   0.997  -1.003  0.00  0.00     0.077 C 
ATOM      3  C1  PXY d   1       0.378   0.827   0.035  0.00  0.00    -0.082 A 
ATOM      4  C2  PXY d   1       0.699   0.481   1.271  0.00  0.00     0.003 A 
ATOM      5  C3  PXY d   1      -0.279   0.291   2.213  0.00  0.00     0.003 A 
ATOM      6  C4  PXY d   1      -1.594   0.510   1.901  0.00  0.00    -0.082 A 
ATOM      7  C5  PXY d   1      -1.928   0.873   0.645  0.00  0.00     0.003 A 
ATOM      8  C6  PXY d   1      -0.924   1.020  -0.308  0.00  0.00     0.003 A 
ENDROOT
TORSDOF 0
ENDMDL
