MODEL 1
REMARK minimizedAffinity -4.36361551
REMARK minimizedRMSD -1
REMARK  0 active torsions:
REMARK  status: ('A' for Active; 'I' for Inactive)
ROOT
ATOM      1  C4' PXY d   1      -2.192   0.006   0.888  0.00  0.00     0.077 C 
ATOM      2  C1' PXY d   1       2.991  -0.659  -1.583  0.00  0.00     0.077 C 
ATOM      3  C1  PXY d   1       1.634  -0.472  -0.933  0.00  0.00    -0.082 A 
ATOM      4  C2  PXY d   1       1.047  -1.497  -0.338  0.00  0.00     0.003 A 
ATOM      5  C3  PXY d   1      -0.195  -1.353   0.226  0.00  0.00     0.003 A 
ATOM      6  C4  PXY d   1      -0.818  -0.134   0.228  0.00  0.00    -0.082 A 
ATOM      7  C5  PXY d   1      -0.220   0.919  -0.368  0.00  0.00     0.003 A 
ATOM      8  C6  PXY d   1       1.021   0.743  -0.971  0.00  0.00     0.003 A 
ENDROOT
TORSDOF 0
ENDMDL
