MODEL 1
REMARK minimizedAffinity -5.49393225
REMARK minimizedRMSD -1
REMARK  0 active torsions:
REMARK  status: ('A' for Active; 'I' for Inactive)
ROOT
ATOM      1  C4' PXY d   1       0.043  -2.328   0.621  0.00  0.00     0.077 C 
ATOM      2  C1' PXY d   1       2.207   1.839  -2.752  0.00  0.00     0.077 C 
ATOM      3  C1  PXY d   1       1.632   0.755  -1.861  0.00  0.00    -0.082 A 
ATOM      4  C2  PXY d   1       2.292  -0.381  -1.705  0.00  0.00     0.003 A 
ATOM      5  C3  PXY d   1       1.772  -1.384  -0.928  0.00  0.00     0.003 A 
ATOM      6  C4  PXY d   1       0.590  -1.202  -0.262  0.00  0.00    -0.082 A 
ATOM      7  C5  PXY d   1      -0.084  -0.042  -0.407  0.00  0.00     0.003 A 
ATOM      8  C6  PXY d   1       0.441   0.948  -1.233  0.00  0.00     0.003 A 
ENDROOT
TORSDOF 0
ENDMDL
