MODEL 1
REMARK minimizedAffinity -6.04640579
REMARK minimizedRMSD -1
REMARK  0 active torsions:
REMARK  status: ('A' for Active; 'I' for Inactive)
ROOT
ATOM      1  C4' PXY d   1       0.215  -3.472   0.083  0.00  0.00     0.077 C 
ATOM      2  C1' PXY d   1       2.223   1.604  -1.819  0.00  0.00     0.077 C 
ATOM      3  C1  PXY d   1       1.691   0.279  -1.310  0.00  0.00    -0.082 A 
ATOM      4  C2  PXY d   1       2.291  -0.846  -1.664  0.00  0.00     0.003 A 
ATOM      5  C3  PXY d   1       1.804  -2.055  -1.239  0.00  0.00     0.003 A 
ATOM      6  C4  PXY d   1       0.723  -2.110  -0.400  0.00  0.00    -0.082 A 
ATOM      7  C5  PXY d   1       0.112  -0.966  -0.026  0.00  0.00     0.003 A 
ATOM      8  C6  PXY d   1       0.597   0.248  -0.501  0.00  0.00     0.003 A 
ENDROOT
TORSDOF 0
ENDMDL
