MODEL 1
REMARK minimizedAffinity -2.5213325
REMARK minimizedRMSD -1
REMARK  0 active torsions:
REMARK  status: ('A' for Active; 'I' for Inactive)
ROOT
ATOM      1  C4' PXY d   1      -2.394   0.581   3.616  0.00  0.00     0.077 C 
ATOM      2  C1' PXY d   1      -0.302   3.338  -1.014  0.00  0.00     0.077 C 
ATOM      3  C1  PXY d   1      -0.844   2.624   0.208  0.00  0.00    -0.082 A 
ATOM      4  C2  PXY d   1      -1.214   1.357   0.114  0.00  0.00     0.003 A 
ATOM      5  C3  PXY d   1      -1.737   0.705   1.201  0.00  0.00     0.003 A 
ATOM      6  C4  PXY d   1      -1.832   1.340   2.410  0.00  0.00    -0.082 A 
ATOM      7  C5  PXY d   1      -1.446   2.629   2.517  0.00  0.00     0.003 A 
ATOM      8  C6  PXY d   1      -0.957   3.286   1.391  0.00  0.00     0.003 A 
ENDROOT
TORSDOF 0
ENDMDL
