MODEL 1
REMARK minimizedAffinity -4.35976648
REMARK minimizedRMSD -1
REMARK  0 active torsions:
REMARK  status: ('A' for Active; 'I' for Inactive)
ROOT
ATOM      1  C4' PXY d   1       3.235  -0.442  -1.314  0.00  0.00     0.077 C 
ATOM      2  C1' PXY d   1      -2.075   0.362   0.825  0.00  0.00     0.077 C 
ATOM      3  C1  PXY d   1      -0.682   0.139   0.269  0.00  0.00    -0.082 A 
ATOM      4  C2  PXY d   1       0.102   1.178   0.033  0.00  0.00     0.003 A 
ATOM      5  C3  PXY d   1       1.353   0.997  -0.500  0.00  0.00     0.003 A 
ATOM      6  C4  PXY d   1       1.825  -0.265  -0.744  0.00  0.00    -0.082 A 
ATOM      7  C5  PXY d   1       1.035  -1.331  -0.496  0.00  0.00     0.003 A 
ATOM      8  C6  PXY d   1      -0.246  -1.123   0.006  0.00  0.00     0.003 A 
ENDROOT
TORSDOF 0
ENDMDL
