MODEL 1
REMARK minimizedAffinity -5.26191902
REMARK minimizedRMSD -1
REMARK  0 active torsions:
REMARK  status: ('A' for Active; 'I' for Inactive)
ROOT
ATOM      1  C4' PXY d   1      -1.989   0.790   0.832  0.00  0.00     0.077 C 
ATOM      2  C1' PXY d   1       2.987  -1.131  -1.396  0.00  0.00     0.077 C 
ATOM      3  C1  PXY d   1       1.687  -0.615  -0.812  0.00  0.00    -0.082 A 
ATOM      4  C2  PXY d   1       0.905  -1.436  -0.130  0.00  0.00     0.003 A 
ATOM      5  C3  PXY d   1      -0.290  -0.994   0.379  0.00  0.00     0.003 A 
ATOM      6  C4  PXY d   1      -0.662   0.315   0.233  0.00  0.00    -0.082 A 
ATOM      7  C5  PXY d   1       0.135   1.162  -0.453  0.00  0.00     0.003 A 
ATOM      8  C6  PXY d   1       1.324   0.683  -0.996  0.00  0.00     0.003 A 
ENDROOT
TORSDOF 0
ENDMDL
