MODEL 1
REMARK minimizedAffinity -4.32227373
REMARK minimizedRMSD -1
REMARK  0 active torsions:
REMARK  status: ('A' for Active; 'I' for Inactive)
ROOT
ATOM      1  C4' PXY d   1       2.830  -0.678  -1.318  0.00  0.00     0.077 C 
ATOM      2  C1' PXY d   1      -2.101   0.287   1.539  0.00  0.00     0.077 C 
ATOM      3  C1  PXY d   1      -0.807   0.022   0.795  0.00  0.00    -0.082 A 
ATOM      4  C2  PXY d   1      -0.089   1.040   0.350  0.00  0.00     0.003 A 
ATOM      5  C3  PXY d   1       1.068   0.818  -0.352  0.00  0.00     0.003 A 
ATOM      6  C4  PXY d   1       1.522  -0.458  -0.554  0.00  0.00    -0.082 A 
ATOM      7  C5  PXY d   1       0.800  -1.502  -0.094  0.00  0.00     0.003 A 
ATOM      8  C6  PXY d   1      -0.393  -1.256   0.581  0.00  0.00     0.003 A 
ENDROOT
TORSDOF 0
ENDMDL
