MODEL 1
REMARK minimizedAffinity 4.602139
REMARK minimizedRMSD -1
REMARK  3 active torsions:
REMARK  status: ('A' for Active; 'I' for Inactive)
REMARK    1  A    between atoms: C3'_2  and  C2'_3 
REMARK    2  A    between atoms: C2'_3  and  C1'_4 
REMARK    3  A    between atoms: C1'_4  and  C1_5 
ROOT
ATOM      1  C1  N4B d   1      -1.596   1.303   0.212  0.00  0.00    -0.075 A 
ATOM      2  C2  N4B d   1      -0.233   1.551  -0.061  0.00  0.00     0.002 A 
ATOM      3  C3  N4B d   1       0.740   0.927   0.680  0.00  0.00     0.002 A 
ATOM      4  C4  N4B d   1       0.375   0.070   1.708  0.00  0.00    -0.004 A 
ATOM      5  C5  N4B d   1      -0.943  -0.184   1.949  0.00  0.00     0.002 A 
ATOM      6  C6  N4B d   1      -1.932   0.433   1.208  0.00  0.00     0.002 A 
ENDROOT
BRANCH   1   7
ATOM      7  C1' N4B d   1      -2.696   2.027  -0.515  0.00  0.00     0.057 C 
BRANCH   7   8
ATOM      8  C2' N4B d   1      -2.116   2.707  -1.752  0.00  0.00     0.009 C 
BRANCH   8   9
ATOM      9  C3' N4B d   1      -3.195   3.078  -2.755  0.00  0.00     0.004 C 
ATOM     10  C4' N4B d   1      -3.030   2.377  -4.071  0.00  0.00     0.003 C 
ENDBRANCH   8   9
ENDBRANCH   7   8
ENDBRANCH   1   7
TORSDOF 3
ENDMDL
