MODEL 1
REMARK minimizedAffinity -0.353039324
REMARK minimizedRMSD -1
REMARK  3 active torsions:
REMARK  status: ('A' for Active; 'I' for Inactive)
REMARK    1  A    between atoms: C3'_2  and  C2'_3 
REMARK    2  A    between atoms: C2'_3  and  C1'_4 
REMARK    3  A    between atoms: C1'_4  and  C1_5 
ROOT
ATOM      1  C1  N4B d   1      -0.686   1.294   1.004  0.00  0.00    -0.075 A 
ATOM      2  C2  N4B d   1      -1.630   0.252   1.144  0.00  0.00     0.002 A 
ATOM      3  C3  N4B d   1      -2.926   0.441   0.731  0.00  0.00     0.002 A 
ATOM      4  C4  N4B d   1      -3.305   1.663   0.197  0.00  0.00    -0.004 A 
ATOM      5  C5  N4B d   1      -2.381   2.655   0.042  0.00  0.00     0.002 A 
ATOM      6  C6  N4B d   1      -1.074   2.478   0.449  0.00  0.00     0.002 A 
ENDROOT
BRANCH   1   7
ATOM      7  C1' N4B d   1       0.721   1.164   1.519  0.00  0.00     0.057 C 
BRANCH   7   8
ATOM      8  C2' N4B d   1       1.698   1.516   0.401  0.00  0.00     0.009 C 
BRANCH   8   9
ATOM      9  C3' N4B d   1       2.970   0.690   0.477  0.00  0.00     0.004 C 
ATOM     10  C4' N4B d   1       3.724   0.663  -0.819  0.00  0.00     0.003 C 
ENDBRANCH   8   9
ENDBRANCH   7   8
ENDBRANCH   1   7
TORSDOF 3
ENDMDL
