MODEL 1
REMARK minimizedAffinity -1.51868618
REMARK minimizedRMSD -1
REMARK  3 active torsions:
REMARK  status: ('A' for Active; 'I' for Inactive)
REMARK    1  A    between atoms: C3'_2  and  C2'_3 
REMARK    2  A    between atoms: C2'_3  and  C1'_4 
REMARK    3  A    between atoms: C1'_4  and  C1_5 
ROOT
ATOM      1  C1  N4B d   1       0.115   0.986   0.431  0.00  0.00    -0.075 A 
ATOM      2  C2  N4B d   1       1.476   0.654   0.612  0.00  0.00     0.002 A 
ATOM      3  C3  N4B d   1       2.270   1.430   1.420  0.00  0.00     0.002 A 
ATOM      4  C4  N4B d   1       1.734   2.549   2.039  0.00  0.00    -0.004 A 
ATOM      5  C5  N4B d   1       0.413   2.849   1.878  0.00  0.00     0.002 A 
ATOM      6  C6  N4B d   1      -0.399   2.076   1.073  0.00  0.00     0.002 A 
ENDROOT
BRANCH   1   7
ATOM      7  C1' N4B d   1      -0.772   0.218  -0.510  0.00  0.00     0.057 C 
BRANCH   7   8
ATOM      8  C2' N4B d   1      -1.390  -0.961   0.235  0.00  0.00     0.009 C 
BRANCH   8   9
ATOM      9  C3' N4B d   1      -2.605  -1.517  -0.488  0.00  0.00     0.004 C 
ATOM     10  C4' N4B d   1      -2.267  -2.668  -1.389  0.00  0.00     0.003 C 
ENDBRANCH   8   9
ENDBRANCH   7   8
ENDBRANCH   1   7
TORSDOF 3
ENDMDL
