MODEL 1
REMARK minimizedAffinity -0.651893914
REMARK minimizedRMSD -1
REMARK  0 active torsions:
REMARK  status: ('A' for Active; 'I' for Inactive)
ROOT
ATOM      1  C   UNL d   1       2.431  -0.702  -1.292  0.00  0.00     0.124 A 
ATOM      2  C1  UNL d   1       2.224   0.520  -0.667  0.00  0.00     0.062 A 
ATOM      3  C2  UNL d   1       1.085   0.728   0.104  0.00  0.00     0.162 A 
ATOM      4  C3  UNL d   1       0.142  -0.288   0.256  0.00  0.00    -0.034 A 
ATOM      5  C4  UNL d   1       0.356  -1.515  -0.376  0.00  0.00     0.162 A 
ATOM      6  C5  UNL d   1       1.497  -1.718  -1.146  0.00  0.00     0.062 A 
ATOM      7  F   UNL d   1       1.695  -2.899  -1.748  0.00  0.00    -0.097 F 
ATOM      8  F1  UNL d   1      -0.530  -2.514  -0.251  0.00  0.00    -0.096 F 
ATOM      9  I   UNL d   1      -1.564   0.019   1.408  0.00  0.00    -0.060 I 
ATOM     10  F2  UNL d   1       0.911   1.919   0.696  0.00  0.00    -0.096 F 
ATOM     11  F3  UNL d   1       3.125   1.504  -0.807  0.00  0.00    -0.097 F 
ATOM     12  F4  UNL d   1       3.528  -0.900  -2.034  0.00  0.00    -0.092 F 
ENDROOT
TORSDOF 0
ENDMDL
