MODEL 1
REMARK minimizedAffinity -0.211594179
REMARK minimizedRMSD -1
REMARK  0 active torsions:
REMARK  status: ('A' for Active; 'I' for Inactive)
ROOT
ATOM      1  C   UNL d   1       1.198  -1.002  -1.120  0.00  0.00     0.124 A 
ATOM      2  C1  UNL d   1       1.794  -0.021  -0.339  0.00  0.00     0.062 A 
ATOM      3  C2  UNL d   1       1.113   0.516   0.749  0.00  0.00     0.162 A 
ATOM      4  C3  UNL d   1      -0.171   0.073   1.064  0.00  0.00    -0.034 A 
ATOM      5  C4  UNL d   1      -0.764  -0.913   0.274  0.00  0.00     0.162 A 
ATOM      6  C5  UNL d   1      -0.080  -1.447  -0.813  0.00  0.00     0.062 A 
ATOM      7  F   UNL d   1      -0.657  -2.395  -1.567  0.00  0.00    -0.097 F 
ATOM      8  F1  UNL d   1      -1.998  -1.362   0.548  0.00  0.00    -0.096 F 
ATOM      9  I   UNL d   1      -1.193   0.874   2.691  0.00  0.00    -0.060 I 
ATOM     10  F2  UNL d   1       1.713   1.462   1.486  0.00  0.00    -0.096 F 
ATOM     11  F3  UNL d   1       3.028   0.411  -0.635  0.00  0.00    -0.097 F 
ATOM     12  F4  UNL d   1       1.855  -1.517  -2.168  0.00  0.00    -0.092 F 
ENDROOT
TORSDOF 0
ENDMDL
