MODEL 1
REMARK minimizedAffinity -2.72080255
REMARK minimizedRMSD -1
REMARK  0 active torsions:
REMARK  status: ('A' for Active; 'I' for Inactive)
ROOT
ATOM      1  C   UNL d   1       2.213  -0.086  -1.896  0.00  0.00     0.124 A 
ATOM      2  C1  UNL d   1       1.541   1.112  -1.699  0.00  0.00     0.062 A 
ATOM      3  C2  UNL d   1       0.344   1.135  -0.989  0.00  0.00     0.162 A 
ATOM      4  C3  UNL d   1      -0.189  -0.045  -0.471  0.00  0.00    -0.034 A 
ATOM      5  C4  UNL d   1       0.491  -1.247  -0.675  0.00  0.00     0.162 A 
ATOM      6  C5  UNL d   1       1.688  -1.264  -1.384  0.00  0.00     0.062 A 
ATOM      7  F   UNL d   1       2.335  -2.423  -1.574  0.00  0.00    -0.097 F 
ATOM      8  F1  UNL d   1       0.007  -2.400  -0.190  0.00  0.00    -0.096 F 
ATOM      9  I   UNL d   1      -1.979  -0.015   0.590  0.00  0.00    -0.060 I 
ATOM     10  F2  UNL d   1      -0.284   2.307  -0.813  0.00  0.00    -0.096 F 
ATOM     11  F3  UNL d   1       2.046   2.252  -2.193  0.00  0.00    -0.097 F 
ATOM     12  F4  UNL d   1       3.364  -0.105  -2.580  0.00  0.00    -0.092 F 
ENDROOT
TORSDOF 0
ENDMDL
