MODEL 1
REMARK minimizedAffinity 1.03696549
REMARK minimizedRMSD -1
REMARK  0 active torsions:
REMARK  status: ('A' for Active; 'I' for Inactive)
ROOT
ATOM      1  C   UNL d   1       2.517  -0.777  -0.800  0.00  0.00     0.124 A 
ATOM      2  C1  UNL d   1       2.411   0.067   0.297  0.00  0.00     0.062 A 
ATOM      3  C2  UNL d   1       1.164   0.340   0.853  0.00  0.00     0.162 A 
ATOM      4  C3  UNL d   1       0.013  -0.233   0.313  0.00  0.00    -0.034 A 
ATOM      5  C4  UNL d   1       0.127  -1.079  -0.791  0.00  0.00     0.162 A 
ATOM      6  C5  UNL d   1       1.375  -1.349  -1.343  0.00  0.00     0.062 A 
ATOM      7  F   UNL d   1       1.476  -2.165  -2.402  0.00  0.00    -0.097 F 
ATOM      8  F1  UNL d   1      -0.960  -1.647  -1.335  0.00  0.00    -0.096 F 
ATOM      9  I   UNL d   1      -1.853   0.173   1.141  0.00  0.00    -0.060 I 
ATOM     10  F2  UNL d   1       1.092   1.159   1.913  0.00  0.00    -0.096 F 
ATOM     11  F3  UNL d   1       3.512   0.622   0.823  0.00  0.00    -0.097 F 
ATOM     12  F4  UNL d   1       3.718  -1.037  -1.333  0.00  0.00    -0.092 F 
ENDROOT
TORSDOF 0
ENDMDL
