MODEL 1
REMARK minimizedAffinity -2.0858624
REMARK minimizedRMSD -1
REMARK  0 active torsions:
REMARK  status: ('A' for Active; 'I' for Inactive)
ROOT
ATOM      1  C   UNL d   1       1.813  -0.480  -1.138  0.00  0.00     0.124 A 
ATOM      2  C1  UNL d   1       1.108  -1.637  -0.837  0.00  0.00     0.062 A 
ATOM      3  C2  UNL d   1      -0.002  -1.582   0.002  0.00  0.00     0.162 A 
ATOM      4  C3  UNL d   1      -0.414  -0.365   0.545  0.00  0.00    -0.034 A 
ATOM      5  C4  UNL d   1       0.301   0.794   0.238  0.00  0.00     0.162 A 
ATOM      6  C5  UNL d   1       1.409   0.734  -0.600  0.00  0.00     0.062 A 
ATOM      7  F   UNL d   1       2.089   1.853  -0.890  0.00  0.00    -0.097 F 
ATOM      8  F1  UNL d   1      -0.068   1.981   0.743  0.00  0.00    -0.096 F 
ATOM      9  I   UNL d   1      -2.073  -0.279   1.799  0.00  0.00    -0.060 I 
ATOM     10  F2  UNL d   1      -0.664  -2.715   0.275  0.00  0.00    -0.096 F 
ATOM     11  F3  UNL d   1       1.497  -2.811  -1.354  0.00  0.00    -0.097 F 
ATOM     12  F4  UNL d   1       2.881  -0.535  -1.944  0.00  0.00    -0.092 F 
ENDROOT
TORSDOF 0
ENDMDL
