MODEL 1
REMARK minimizedAffinity -1.68158698
REMARK minimizedRMSD -1
REMARK  0 active torsions:
REMARK  status: ('A' for Active; 'I' for Inactive)
ROOT
ATOM      1  C   UNL d   1       1.550  -0.456  -1.503  0.00  0.00     0.124 A 
ATOM      2  C1  UNL d   1       0.890   0.762  -1.416  0.00  0.00     0.062 A 
ATOM      3  C2  UNL d   1      -0.235   0.892  -0.607  0.00  0.00     0.162 A 
ATOM      4  C3  UNL d   1      -0.708  -0.199   0.122  0.00  0.00    -0.034 A 
ATOM      5  C4  UNL d   1      -0.040  -1.421   0.028  0.00  0.00     0.162 A 
ATOM      6  C5  UNL d   1       1.084  -1.546  -0.782  0.00  0.00     0.062 A 
ATOM      7  F   UNL d   1       1.720  -2.724  -0.866  0.00  0.00    -0.097 F 
ATOM      8  F1  UNL d   1      -0.468  -2.491   0.715  0.00  0.00    -0.096 F 
ATOM      9  I   UNL d   1      -2.390  -0.009   1.333  0.00  0.00    -0.060 I 
ATOM     10  F2  UNL d   1      -0.852   2.081  -0.541  0.00  0.00    -0.096 F 
ATOM     11  F3  UNL d   1       1.337   1.817  -2.112  0.00  0.00    -0.097 F 
ATOM     12  F4  UNL d   1       2.631  -0.579  -2.283  0.00  0.00    -0.092 F 
ENDROOT
TORSDOF 0
ENDMDL
