MODEL 1
REMARK minimizedAffinity 1.40229666
REMARK minimizedRMSD -1
REMARK  0 active torsions:
REMARK  status: ('A' for Active; 'I' for Inactive)
ROOT
ATOM      1  C   UNL d   1       1.447   0.837  -0.347  0.00  0.00     0.124 A 
ATOM      2  C1  UNL d   1       0.060   0.896  -0.336  0.00  0.00     0.062 A 
ATOM      3  C2  UNL d   1      -0.691  -0.259  -0.536  0.00  0.00     0.162 A 
ATOM      4  C3  UNL d   1      -0.057  -1.483  -0.747  0.00  0.00    -0.034 A 
ATOM      5  C4  UNL d   1       1.339  -1.534  -0.757  0.00  0.00     0.162 A 
ATOM      6  C5  UNL d   1       2.085  -0.377  -0.557  0.00  0.00     0.062 A 
ATOM      7  F   UNL d   1       3.424  -0.436  -0.567  0.00  0.00    -0.097 F 
ATOM      8  F1  UNL d   1       1.981  -2.695  -0.957  0.00  0.00    -0.096 F 
ATOM      9  I   UNL d   1      -1.176  -3.212  -1.045  0.00  0.00    -0.060 I 
ATOM     10  F2  UNL d   1      -2.029  -0.173  -0.521  0.00  0.00    -0.096 F 
ATOM     11  F3  UNL d   1      -0.558   2.068  -0.134  0.00  0.00    -0.097 F 
ATOM     12  F4  UNL d   1       2.167   1.950  -0.155  0.00  0.00    -0.092 F 
ENDROOT
TORSDOF 0
ENDMDL
