MODEL 1
REMARK minimizedAffinity -0.371757567
REMARK minimizedRMSD -1
REMARK  0 active torsions:
REMARK  status: ('A' for Active; 'I' for Inactive)
ROOT
ATOM      1  C   UNL d   1       1.962   0.435  -1.116  0.00  0.00     0.124 A 
ATOM      2  C1  UNL d   1       0.984   1.419  -1.100  0.00  0.00     0.062 A 
ATOM      3  C2  UNL d   1      -0.149   1.267  -0.306  0.00  0.00     0.162 A 
ATOM      4  C3  UNL d   1      -0.309   0.126   0.480  0.00  0.00    -0.034 A 
ATOM      5  C4  UNL d   1       0.679  -0.860   0.458  0.00  0.00     0.162 A 
ATOM      6  C5  UNL d   1       1.809  -0.704  -0.338  0.00  0.00     0.062 A 
ATOM      7  F   UNL d   1       2.753  -1.656  -0.352  0.00  0.00    -0.097 F 
ATOM      8  F1  UNL d   1       0.557  -1.970   1.201  0.00  0.00    -0.096 F 
ATOM      9  I   UNL d   1      -2.001  -0.105   1.670  0.00  0.00    -0.060 I 
ATOM     10  F2  UNL d   1      -1.078   2.234  -0.309  0.00  0.00    -0.096 F 
ATOM     11  F3  UNL d   1       1.129   2.520  -1.852  0.00  0.00    -0.097 F 
ATOM     12  F4  UNL d   1       3.051   0.583  -1.882  0.00  0.00    -0.092 F 
ENDROOT
TORSDOF 0
ENDMDL
