MODEL 1
REMARK minimizedAffinity -1.34425437
REMARK minimizedRMSD -1
REMARK  0 active torsions:
REMARK  status: ('A' for Active; 'I' for Inactive)
ROOT
ATOM      1  C   UNL d   1       1.413   0.487  -1.034  0.00  0.00     0.124 A 
ATOM      2  C1  UNL d   1       1.557  -0.295   0.104  0.00  0.00     0.062 A 
ATOM      3  C2  UNL d   1       0.513  -0.401   1.017  0.00  0.00     0.162 A 
ATOM      4  C3  UNL d   1      -0.687   0.275   0.796  0.00  0.00    -0.034 A 
ATOM      5  C4  UNL d   1      -0.825   1.060  -0.351  0.00  0.00     0.162 A 
ATOM      6  C5  UNL d   1       0.222   1.163  -1.260  0.00  0.00     0.062 A 
ATOM      7  F   UNL d   1       0.081   1.919  -2.359  0.00  0.00    -0.097 F 
ATOM      8  F1  UNL d   1      -1.965   1.724  -0.594  0.00  0.00    -0.096 F 
ATOM      9  I   UNL d   1      -2.252   0.119   2.159  0.00  0.00    -0.060 I 
ATOM     10  F2  UNL d   1       0.680  -1.163   2.108  0.00  0.00    -0.096 F 
ATOM     11  F3  UNL d   1       2.707  -0.948   0.325  0.00  0.00    -0.097 F 
ATOM     12  F4  UNL d   1       2.420   0.588  -1.911  0.00  0.00    -0.092 F 
ENDROOT
TORSDOF 0
ENDMDL
