MODEL 1
REMARK minimizedAffinity 0.208184421
REMARK minimizedRMSD -1
REMARK  0 active torsions:
REMARK  status: ('A' for Active; 'I' for Inactive)
ROOT
ATOM      1  C   UNL d   1       1.893  -0.590  -1.476  0.00  0.00     0.124 A 
ATOM      2  C1  UNL d   1       1.251  -1.715  -0.977  0.00  0.00     0.062 A 
ATOM      3  C2  UNL d   1       0.086  -1.580  -0.227  0.00  0.00     0.162 A 
ATOM      4  C3  UNL d   1      -0.445  -0.316   0.028  0.00  0.00    -0.034 A 
ATOM      5  C4  UNL d   1       0.207   0.810  -0.477  0.00  0.00     0.162 A 
ATOM      6  C5  UNL d   1       1.371   0.671  -1.226  0.00  0.00     0.062 A 
ATOM      7  F   UNL d   1       1.990   1.759  -1.707  0.00  0.00    -0.097 F 
ATOM      8  F1  UNL d   1      -0.277   2.041  -0.251  0.00  0.00    -0.096 F 
ATOM      9  I   UNL d   1      -2.187  -0.111   1.149  0.00  0.00    -0.060 I 
ATOM     10  F2  UNL d   1      -0.513  -2.685   0.243  0.00  0.00    -0.096 F 
ATOM     11  F3  UNL d   1       1.754  -2.934  -1.217  0.00  0.00    -0.097 F 
ATOM     12  F4  UNL d   1       3.014  -0.722  -2.197  0.00  0.00    -0.092 F 
ENDROOT
TORSDOF 0
ENDMDL
