MODEL 1
REMARK minimizedAffinity 3.80482268
REMARK minimizedRMSD -1
REMARK  0 active torsions:
REMARK  status: ('A' for Active; 'I' for Inactive)
ROOT
ATOM      1  C   UNL d   1      -2.617  -0.189   3.393  0.00  0.00     0.124 A 
ATOM      2  C1  UNL d   1      -1.845   0.964   3.439  0.00  0.00     0.062 A 
ATOM      3  C2  UNL d   1      -1.175   1.403   2.301  0.00  0.00     0.162 A 
ATOM      4  C3  UNL d   1      -1.275   0.690   1.106  0.00  0.00    -0.034 A 
ATOM      5  C4  UNL d   1      -2.053  -0.469   1.068  0.00  0.00     0.162 A 
ATOM      6  C5  UNL d   1      -2.720  -0.904   2.208  0.00  0.00     0.062 A 
ATOM      7  F   UNL d   1      -3.466  -2.018   2.162  0.00  0.00    -0.097 F 
ATOM      8  F1  UNL d   1      -2.171  -1.178  -0.064  0.00  0.00    -0.096 F 
ATOM      9  I   UNL d   1      -0.275   1.343  -0.598  0.00  0.00    -0.060 I 
ATOM     10  F2  UNL d   1      -0.436   2.520   2.374  0.00  0.00    -0.096 F 
ATOM     11  F3  UNL d   1      -1.743   1.656   4.583  0.00  0.00    -0.097 F 
ATOM     12  F4  UNL d   1      -3.260  -0.610   4.490  0.00  0.00    -0.092 F 
ENDROOT
TORSDOF 0
ENDMDL
