MODEL 1
REMARK minimizedAffinity 1.29673743
REMARK minimizedRMSD -1
REMARK  0 active torsions:
REMARK  status: ('A' for Active; 'I' for Inactive)
ROOT
ATOM      1  C   UNL d   1       1.145  -0.028  -1.242  0.00  0.00     0.124 A 
ATOM      2  C1  UNL d   1       0.640  -1.152  -0.604  0.00  0.00     0.062 A 
ATOM      3  C2  UNL d   1      -0.473  -1.046   0.225  0.00  0.00     0.162 A 
ATOM      4  C3  UNL d   1      -1.089   0.190   0.421  0.00  0.00    -0.034 A 
ATOM      5  C4  UNL d   1      -0.574   1.317  -0.222  0.00  0.00     0.162 A 
ATOM      6  C5  UNL d   1       0.538   1.205  -1.050  0.00  0.00     0.062 A 
ATOM      7  F   UNL d   1       1.025   2.293  -1.664  0.00  0.00    -0.097 F 
ATOM      8  F1  UNL d   1      -1.142   2.520  -0.055  0.00  0.00    -0.096 F 
ATOM      9  I   UNL d   1      -2.753   0.353   1.661  0.00  0.00    -0.060 I 
ATOM     10  F2  UNL d   1      -0.940  -2.150   0.828  0.00  0.00    -0.096 F 
ATOM     11  F3  UNL d   1       1.225  -2.345  -0.787  0.00  0.00    -0.097 F 
ATOM     12  F4  UNL d   1       2.217  -0.132  -2.038  0.00  0.00    -0.092 F 
ENDROOT
TORSDOF 0
ENDMDL
