MODEL 1
REMARK minimizedAffinity -1.56015038
REMARK minimizedRMSD -1
REMARK  0 active torsions:
REMARK  status: ('A' for Active; 'I' for Inactive)
ROOT
ATOM      1  C   UNL d   1       1.153  -0.555  -1.229  0.00  0.00     0.124 A 
ATOM      2  C1  UNL d   1       0.648  -1.750  -0.734  0.00  0.00     0.062 A 
ATOM      3  C2  UNL d   1      -0.327  -1.740   0.259  0.00  0.00     0.162 A 
ATOM      4  C3  UNL d   1      -0.805  -0.531   0.763  0.00  0.00    -0.034 A 
ATOM      5  C4  UNL d   1      -0.292   0.667   0.261  0.00  0.00     0.162 A 
ATOM      6  C5  UNL d   1       0.683   0.651  -0.731  0.00  0.00     0.062 A 
ATOM      7  F   UNL d   1       1.169   1.807  -1.208  0.00  0.00    -0.097 F 
ATOM      8  F1  UNL d   1      -0.729   1.847   0.724  0.00  0.00    -0.096 F 
ATOM      9  I   UNL d   1      -2.264  -0.511   2.248  0.00  0.00    -0.060 I 
ATOM     10  F2  UNL d   1      -0.797  -2.909   0.718  0.00  0.00    -0.096 F 
ATOM     11  F3  UNL d   1       1.102  -2.917  -1.213  0.00  0.00    -0.097 F 
ATOM     12  F4  UNL d   1       2.092  -0.568  -2.184  0.00  0.00    -0.092 F 
ENDROOT
TORSDOF 0
ENDMDL
