MODEL 1
REMARK minimizedAffinity -2.70401454
REMARK minimizedRMSD -1
REMARK  0 active torsions:
REMARK  status: ('A' for Active; 'I' for Inactive)
ROOT
ATOM      1  N1  IND d   1       0.024  -0.037  -1.552  0.00  0.00    -0.196 N 
ATOM      2  C2  IND d   1       0.260  -0.639  -0.347  0.00  0.00     0.054 A 
ATOM      3  C3  IND d   1      -0.652  -1.611  -0.121  0.00  0.00    -0.031 A 
ATOM      4  C4  IND d   1      -2.556  -2.453  -1.636  0.00  0.00     0.051 A 
ATOM      5  C5  IND d   1      -3.188  -2.189  -2.818  0.00  0.00    -0.031 A 
ATOM      6  C6  IND d   1      -2.772  -1.176  -3.658  0.00  0.00     0.015 A 
ATOM      7  C7  IND d   1      -1.696  -0.393  -3.349  0.00  0.00    -0.016 A 
ATOM      8  C8  IND d   1      -1.056  -0.653  -2.146  0.00  0.00    -0.047 A 
ATOM      9  C9  IND d   1      -1.500  -1.652  -1.270  0.00  0.00    -0.096 A 
ATOM     10  HN1 IND d   1       0.475   0.616  -1.883  0.00  0.00     0.298 HD
ENDROOT
TORSDOF 0
ENDMDL
