MODEL 1
REMARK minimizedAffinity -5.22421074
REMARK minimizedRMSD -1
REMARK  0 active torsions:
REMARK  status: ('A' for Active; 'I' for Inactive)
ROOT
ATOM      1  N1  IND d   1       2.822   0.293   0.006  0.00  0.00    -0.196 N 
ATOM      2  C2  IND d   1       3.477   1.297   0.665  0.00  0.00     0.054 A 
ATOM      3  C3  IND d   1       2.612   1.999   1.431  0.00  0.00    -0.031 A 
ATOM      4  C4  IND d   1       0.098   1.613   1.833  0.00  0.00     0.051 A 
ATOM      5  C5  IND d   1      -0.952   0.841   1.424  0.00  0.00    -0.031 A 
ATOM      6  C6  IND d   1      -0.794  -0.176   0.504  0.00  0.00     0.015 A 
ATOM      7  C7  IND d   1       0.427  -0.467  -0.034  0.00  0.00    -0.016 A 
ATOM      8  C8  IND d   1       1.495   0.320   0.374  0.00  0.00    -0.047 A 
ATOM      9  C9  IND d   1       1.333   1.381   1.275  0.00  0.00    -0.096 A 
ATOM     10  HN1 IND d   1       3.179  -0.262  -0.545  0.00  0.00     0.298 HD
ENDROOT
TORSDOF 0
ENDMDL
