MODEL 1
REMARK minimizedAffinity -2.87240005
REMARK minimizedRMSD -1
REMARK  0 active torsions:
REMARK  status: ('A' for Active; 'I' for Inactive)
ROOT
ATOM      1  N1  IND d   1       2.865   0.052   0.057  0.00  0.00    -0.196 N 
ATOM      2  C2  IND d   1       3.634   0.786   0.916  0.00  0.00     0.054 A 
ATOM      3  C3  IND d   1       2.859   1.622   1.643  0.00  0.00    -0.031 A 
ATOM      4  C4  IND d   1       0.298   1.878   1.661  0.00  0.00     0.051 A 
ATOM      5  C5  IND d   1      -0.832   1.448   1.023  0.00  0.00    -0.031 A 
ATOM      6  C6  IND d   1      -0.787   0.510   0.012  0.00  0.00     0.015 A 
ATOM      7  C7  IND d   1       0.394  -0.045  -0.392  0.00  0.00    -0.016 A 
ATOM      8  C8  IND d   1       1.544   0.395   0.248  0.00  0.00    -0.047 A 
ATOM      9  C9  IND d   1       1.509   1.378   1.245  0.00  0.00    -0.096 A 
ATOM     10  HN1 IND d   1       3.157  -0.528  -0.508  0.00  0.00     0.298 HD
ENDROOT
TORSDOF 0
ENDMDL
