MODEL 1
REMARK minimizedAffinity -4.74309969
REMARK minimizedRMSD -1
REMARK  0 active torsions:
REMARK  status: ('A' for Active; 'I' for Inactive)
ROOT
ATOM      1  N1  IND d   1       0.740  -0.892  -0.375  0.00  0.00    -0.196 N 
ATOM      2  C2  IND d   1      -0.572  -0.887   0.006  0.00  0.00     0.054 A 
ATOM      3  C3  IND d   1      -0.856   0.235   0.704  0.00  0.00    -0.031 A 
ATOM      4  C4  IND d   1       0.656   2.245   1.252  0.00  0.00     0.051 A 
ATOM      5  C5  IND d   1       1.946   2.683   1.147  0.00  0.00    -0.031 A 
ATOM      6  C6  IND d   1       2.919   1.938   0.513  0.00  0.00     0.015 A 
ATOM      7  C7  IND d   1       2.635   0.727  -0.051  0.00  0.00    -0.016 A 
ATOM      8  C8  IND d   1       1.327   0.276   0.061  0.00  0.00    -0.047 A 
ATOM      9  C9  IND d   1       0.345   1.008   0.740  0.00  0.00    -0.096 A 
ATOM     10  HN1 IND d   1       1.133  -1.518  -0.814  0.00  0.00     0.298 HD
ENDROOT
TORSDOF 0
ENDMDL
