MODEL 1
REMARK minimizedAffinity -5.47946835
REMARK minimizedRMSD -1
REMARK  0 active torsions:
REMARK  status: ('A' for Active; 'I' for Inactive)
ROOT
ATOM      1  N1  IND d   1       1.083  -0.469  -0.635  0.00  0.00    -0.196 N 
ATOM      2  C2  IND d   1      -0.240  -0.495  -0.291  0.00  0.00     0.054 A 
ATOM      3  C3  IND d   1      -0.544   0.566   0.490  0.00  0.00    -0.031 A 
ATOM      4  C4  IND d   1       0.950   2.522   1.245  0.00  0.00     0.051 A 
ATOM      5  C5  IND d   1       2.242   2.966   1.212  0.00  0.00    -0.031 A 
ATOM      6  C6  IND d   1       3.233   2.275   0.546  0.00  0.00     0.015 A 
ATOM      7  C7  IND d   1       2.966   1.115  -0.124  0.00  0.00    -0.016 A 
ATOM      8  C8  IND d   1       1.656   0.657  -0.087  0.00  0.00    -0.047 A 
ATOM      9  C9  IND d   1       0.654   1.332   0.623  0.00  0.00    -0.096 A 
ATOM     10  HN1 IND d   1       1.489  -1.058  -1.113  0.00  0.00     0.298 HD
ENDROOT
TORSDOF 0
ENDMDL
