MODEL 1
REMARK minimizedAffinity -5.29123211
REMARK minimizedRMSD -1
REMARK  0 active torsions:
REMARK  status: ('A' for Active; 'I' for Inactive)
ROOT
ATOM      1  N1  IND d   1       0.756  -0.981  -0.540  0.00  0.00    -0.196 N 
ATOM      2  C2  IND d   1      -0.560  -0.869  -0.189  0.00  0.00     0.054 A 
ATOM      3  C3  IND d   1      -0.753   0.236   0.565  0.00  0.00    -0.031 A 
ATOM      4  C4  IND d   1       0.930   2.056   1.261  0.00  0.00     0.051 A 
ATOM      5  C5  IND d   1       2.259   2.371   1.209  0.00  0.00    -0.031 A 
ATOM      6  C6  IND d   1       3.173   1.569   0.557  0.00  0.00     0.015 A 
ATOM      7  C7  IND d   1       2.788   0.424  -0.082  0.00  0.00    -0.016 A 
ATOM      8  C8  IND d   1       1.441   0.098  -0.026  0.00  0.00    -0.047 A 
ATOM      9  C9  IND d   1       0.515   0.885   0.671  0.00  0.00    -0.096 A 
ATOM     10  HN1 IND d   1       1.099  -1.618  -1.005  0.00  0.00     0.298 HD
ENDROOT
TORSDOF 0
ENDMDL
