MODEL 1
REMARK minimizedAffinity -4.05996084
REMARK minimizedRMSD -1
REMARK  0 active torsions:
REMARK  status: ('A' for Active; 'I' for Inactive)
ROOT
ATOM      1  N1  IND d   1       0.738   0.148  -0.576  0.00  0.00    -0.196 N 
ATOM      2  C2  IND d   1      -0.596   0.194  -0.280  0.00  0.00     0.054 A 
ATOM      3  C3  IND d   1      -0.825   1.070   0.724  0.00  0.00    -0.031 A 
ATOM      4  C4  IND d   1       0.826   2.612   1.958  0.00  0.00     0.051 A 
ATOM      5  C5  IND d   1       2.158   2.900   2.063  0.00  0.00    -0.031 A 
ATOM      6  C6  IND d   1       3.103   2.276   1.275  0.00  0.00     0.015 A 
ATOM      7  C7  IND d   1       2.749   1.343   0.342  0.00  0.00    -0.016 A 
ATOM      8  C8  IND d   1       1.398   1.043   0.238  0.00  0.00    -0.047 A 
ATOM      9  C9  IND d   1       0.439   1.642   1.064  0.00  0.00    -0.096 A 
ATOM     10  HN1 IND d   1       1.103  -0.354  -1.170  0.00  0.00     0.298 HD
ENDROOT
TORSDOF 0
ENDMDL
