MODEL 1
REMARK minimizedAffinity -4.54824734
REMARK minimizedRMSD -1
REMARK  0 active torsions:
REMARK  status: ('A' for Active; 'I' for Inactive)
ROOT
ATOM      1  N1  IND d   1       0.683  -0.133  -0.520  0.00  0.00    -0.196 N 
ATOM      2  C2  IND d   1      -0.424  -0.551   0.164  0.00  0.00     0.054 A 
ATOM      3  C3  IND d   1      -0.529   0.112   1.338  0.00  0.00    -0.031 A 
ATOM      4  C4  IND d   1       0.946   1.995   2.291  0.00  0.00     0.051 A 
ATOM      5  C5  IND d   1       2.095   2.691   2.044  0.00  0.00    -0.031 A 
ATOM      6  C6  IND d   1       2.847   2.480   0.906  0.00  0.00     0.015 A 
ATOM      7  C7  IND d   1       2.469   1.568  -0.038  0.00  0.00    -0.016 A 
ATOM      8  C8  IND d   1       1.306   0.853   0.212  0.00  0.00    -0.047 A 
ATOM      9  C9  IND d   1       0.562   1.033   1.386  0.00  0.00    -0.096 A 
ATOM     10  HN1 IND d   1       0.946  -0.436  -1.281  0.00  0.00     0.298 HD
ENDROOT
TORSDOF 0
ENDMDL
