MODEL 1
REMARK minimizedAffinity -3.7104876
REMARK minimizedRMSD -1
REMARK  0 active torsions:
REMARK  status: ('A' for Active; 'I' for Inactive)
ROOT
ATOM      1  N1  IND d   1       1.216  -1.249  -0.487  0.00  0.00    -0.196 N 
ATOM      2  C2  IND d   1       2.384  -1.105  -1.182  0.00  0.00     0.054 A 
ATOM      3  C3  IND d   1       2.942   0.098  -0.922  0.00  0.00    -0.031 A 
ATOM      4  C4  IND d   1       2.162   1.947   0.691  0.00  0.00     0.051 A 
ATOM      5  C5  IND d   1       1.131   2.289   1.521  0.00  0.00    -0.031 A 
ATOM      6  C6  IND d   1       0.055   1.451   1.729  0.00  0.00     0.015 A 
ATOM      7  C7  IND d   1      -0.025   0.229   1.122  0.00  0.00    -0.016 A 
ATOM      8  C8  IND d   1       1.017  -0.118   0.274  0.00  0.00    -0.047 A 
ATOM      9  C9  IND d   1       2.091   0.746   0.026  0.00  0.00    -0.096 A 
ATOM     10  HN1 IND d   1       0.693  -1.930  -0.520  0.00  0.00     0.298 HD
ENDROOT
TORSDOF 0
ENDMDL
