MODEL 1
REMARK minimizedAffinity -0.418727666
REMARK minimizedRMSD -1
REMARK  0 active torsions:
REMARK  status: ('A' for Active; 'I' for Inactive)
ROOT
ATOM      1  N1  IND d   1      -1.230  -1.907  -2.352  0.00  0.00    -0.196 N 
ATOM      2  C2  IND d   1      -2.432  -1.456  -2.821  0.00  0.00     0.054 A 
ATOM      3  C3  IND d   1      -2.831  -0.368  -2.124  0.00  0.00    -0.031 A 
ATOM      4  C4  IND d   1      -1.620   0.902  -0.241  0.00  0.00     0.051 A 
ATOM      5  C5  IND d   1      -0.510   0.847   0.555  0.00  0.00    -0.031 A 
ATOM      6  C6  IND d   1       0.437  -0.148   0.418  0.00  0.00     0.015 A 
ATOM      7  C7  IND d   1       0.314  -1.122  -0.532  0.00  0.00    -0.016 A 
ATOM      8  C8  IND d   1      -0.815  -1.073  -1.337  0.00  0.00    -0.047 A 
ATOM      9  C9  IND d   1      -1.800  -0.091  -1.175  0.00  0.00    -0.096 A 
ATOM     10  HN1 IND d   1      -0.805  -2.596  -2.642  0.00  0.00     0.298 HD
ENDROOT
TORSDOF 0
ENDMDL
