MODEL 1
REMARK minimizedAffinity 0.571069002
REMARK minimizedRMSD -1
REMARK  0 active torsions:
REMARK  status: ('A' for Active; 'I' for Inactive)
ROOT
ATOM      1  N1  IND d   1       0.437  -1.521  -0.296  0.00  0.00    -0.196 N 
ATOM      2  C2  IND d   1      -0.768  -1.843  -0.855  0.00  0.00     0.054 A 
ATOM      3  C3  IND d   1      -1.664  -0.854  -0.642  0.00  0.00    -0.031 A 
ATOM      4  C4  IND d   1      -1.342   1.426   0.510  0.00  0.00     0.051 A 
ATOM      5  C5  IND d   1      -0.426   2.158   1.211  0.00  0.00    -0.031 A 
ATOM      6  C6  IND d   1       0.851   1.694   1.448  0.00  0.00     0.015 A 
ATOM      7  C7  IND d   1       1.266   0.479   0.981  0.00  0.00    -0.016 A 
ATOM      8  C8  IND d   1       0.336  -0.271   0.275  0.00  0.00    -0.047 A 
ATOM      9  C9  IND d   1      -0.975   0.177   0.068  0.00  0.00    -0.096 A 
ATOM     10  HN1 IND d   1       1.140  -2.016  -0.299  0.00  0.00     0.298 HD
ENDROOT
TORSDOF 0
ENDMDL
