MODEL 1
REMARK minimizedAffinity 2.53535938
REMARK minimizedRMSD -1
REMARK  0 active torsions:
REMARK  status: ('A' for Active; 'I' for Inactive)
ROOT
ATOM      1  N1  IND d   1      -3.287  -0.819  -2.129  0.00  0.00    -0.196 N 
ATOM      2  C2  IND d   1      -3.445  -2.174  -2.053  0.00  0.00     0.054 A 
ATOM      3  C3  IND d   1      -2.629  -2.691  -1.107  0.00  0.00    -0.031 A 
ATOM      4  C4  IND d   1      -1.024  -1.484   0.504  0.00  0.00     0.051 A 
ATOM      5  C5  IND d   1      -0.509  -0.251   0.789  0.00  0.00    -0.031 A 
ATOM      6  C6  IND d   1      -0.904   0.880   0.103  0.00  0.00     0.015 A 
ATOM      7  C7  IND d   1      -1.841   0.820  -0.889  0.00  0.00    -0.016 A 
ATOM      8  C8  IND d   1      -2.360  -0.432  -1.186  0.00  0.00    -0.047 A 
ATOM      9  C9  IND d   1      -1.932  -1.589  -0.523  0.00  0.00    -0.096 A 
ATOM     10  HN1 IND d   1      -3.696  -0.296  -2.675  0.00  0.00     0.298 HD
ENDROOT
TORSDOF 0
ENDMDL
