MODEL 1
REMARK minimizedAffinity -6.53609753
REMARK minimizedRMSD -1
REMARK  0 active torsions:
REMARK  status: ('A' for Active; 'I' for Inactive)
ROOT
ATOM      1  N1  IND d   1       0.408  -0.957  -0.394  0.00  0.00    -0.196 N 
ATOM      2  C2  IND d   1      -0.743  -1.133   0.323  0.00  0.00     0.054 A 
ATOM      3  C3  IND d   1      -0.925  -0.102   1.179  0.00  0.00    -0.031 A 
ATOM      4  C4  IND d   1       0.485   2.028   1.499  0.00  0.00     0.051 A 
ATOM      5  C5  IND d   1       1.649   2.620   1.096  0.00  0.00    -0.031 A 
ATOM      6  C6  IND d   1       2.474   2.039   0.154  0.00  0.00     0.015 A 
ATOM      7  C7  IND d   1       2.159   0.845  -0.430  0.00  0.00    -0.016 A 
ATOM      8  C8  IND d   1       0.981   0.238  -0.018  0.00  0.00    -0.047 A 
ATOM      9  C9  IND d   1       0.161   0.802   0.968  0.00  0.00    -0.096 A 
ATOM     10  HN1 IND d   1       0.721  -1.502  -0.981  0.00  0.00     0.298 HD
ENDROOT
TORSDOF 0
ENDMDL
