MODEL 1
REMARK minimizedAffinity 4.1919241
REMARK minimizedRMSD -1
REMARK  0 active torsions:
REMARK  status: ('A' for Active; 'I' for Inactive)
ROOT
ATOM      1  N1  IND d   1       0.250   0.113  -1.513  0.00  0.00    -0.196 N 
ATOM      2  C2  IND d   1       1.463  -0.487  -1.315  0.00  0.00     0.054 A 
ATOM      3  C3  IND d   1       1.673  -0.700   0.003  0.00  0.00    -0.031 A 
ATOM      4  C4  IND d   1       0.120  -0.236   2.003  0.00  0.00     0.051 A 
ATOM      5  C5  IND d   1      -1.078   0.337   2.326  0.00  0.00    -0.031 A 
ATOM      6  C6  IND d   1      -1.912   0.874   1.367  0.00  0.00     0.015 A 
ATOM      7  C7  IND d   1      -1.583   0.846   0.041  0.00  0.00    -0.016 A 
ATOM      8  C8  IND d   1      -0.365   0.271  -0.290  0.00  0.00    -0.047 A 
ATOM      9  C9  IND d   1       0.506  -0.237   0.683  0.00  0.00    -0.096 A 
ATOM     10  HN1 IND d   1      -0.074   0.351  -2.273  0.00  0.00     0.298 HD
ENDROOT
TORSDOF 0
ENDMDL
