MODEL 1
REMARK minimizedAffinity -5.56949568
REMARK minimizedRMSD -1
REMARK  0 active torsions:
REMARK  status: ('A' for Active; 'I' for Inactive)
ROOT
ATOM      1  N1  IND d   1       0.725  -0.927  -0.531  0.00  0.00    -0.196 N 
ATOM      2  C2  IND d   1      -0.638  -0.833  -0.504  0.00  0.00     0.054 A 
ATOM      3  C3  IND d   1      -1.019   0.314   0.103  0.00  0.00    -0.031 A 
ATOM      4  C4  IND d   1       0.427   2.229   1.035  0.00  0.00     0.051 A 
ATOM      5  C5  IND d   1       1.727   2.581   1.271  0.00  0.00    -0.031 A 
ATOM      6  C6  IND d   1       2.780   1.767   0.908  0.00  0.00     0.015 A 
ATOM      7  C7  IND d   1       2.573   0.570   0.283  0.00  0.00    -0.016 A 
ATOM      8  C8  IND d   1       1.254   0.205   0.049  0.00  0.00    -0.047 A 
ATOM      9  C9  IND d   1       0.180   1.008   0.453  0.00  0.00    -0.096 A 
ATOM     10  HN1 IND d   1       1.177  -1.583  -0.855  0.00  0.00     0.298 HD
ENDROOT
TORSDOF 0
ENDMDL
