MODEL 1
REMARK minimizedAffinity -1.30473268
REMARK minimizedRMSD -1
REMARK  0 active torsions:
REMARK  status: ('A' for Active; 'I' for Inactive)
ROOT
ATOM      1  N1  IND d   1      -1.137  -0.124  -0.893  0.00  0.00    -0.196 N 
ATOM      2  C2  IND d   1      -0.253  -0.560  -1.840  0.00  0.00     0.054 A 
ATOM      3  C3  IND d   1       1.016  -0.444  -1.388  0.00  0.00    -0.031 A 
ATOM      4  C4  IND d   1       1.868   0.340   0.911  0.00  0.00     0.051 A 
ATOM      5  C5  IND d   1       1.438   0.872   2.095  0.00  0.00    -0.031 A 
ATOM      6  C6  IND d   1       0.102   1.101   2.349  0.00  0.00     0.015 A 
ATOM      7  C7  IND d   1      -0.861   0.795   1.429  0.00  0.00    -0.016 A 
ATOM      8  C8  IND d   1      -0.428   0.261   0.224  0.00  0.00    -0.047 A 
ATOM      9  C9  IND d   1       0.930   0.066  -0.056  0.00  0.00    -0.096 A 
ATOM     10  HN1 IND d   1      -1.992  -0.096  -0.980  0.00  0.00     0.298 HD
ENDROOT
TORSDOF 0
ENDMDL
