MODEL 1
REMARK minimizedAffinity -1.54125154
REMARK minimizedRMSD -1
REMARK  0 active torsions:
REMARK  status: ('A' for Active; 'I' for Inactive)
ROOT
ATOM      1  N1  IND d   1       1.345  -0.474  -0.539  0.00  0.00    -0.196 N 
ATOM      2  C2  IND d   1      -0.011  -0.542  -0.382  0.00  0.00     0.054 A 
ATOM      3  C3  IND d   1      -0.418   0.324   0.573  0.00  0.00    -0.031 A 
ATOM      4  C4  IND d   1       0.957   2.022   1.934  0.00  0.00     0.051 A 
ATOM      5  C5  IND d   1       2.241   2.429   2.167  0.00  0.00    -0.031 A 
ATOM      6  C6  IND d   1       3.314   1.879   1.494  0.00  0.00     0.015 A 
ATOM      7  C7  IND d   1       3.140   0.906   0.551  0.00  0.00    -0.016 A 
ATOM      8  C8  IND d   1       1.838   0.486   0.317  0.00  0.00    -0.047 A 
ATOM      9  C9  IND d   1       0.750   1.010   1.027  0.00  0.00    -0.096 A 
ATOM     10  HN1 IND d   1       1.812  -0.951  -1.082  0.00  0.00     0.298 HD
ENDROOT
TORSDOF 0
ENDMDL
