MODEL 1
REMARK minimizedAffinity -2.25653791
REMARK minimizedRMSD -1
REMARK  0 active torsions:
REMARK  status: ('A' for Active; 'I' for Inactive)
ROOT
ATOM      1  N1  IND d   1      -3.031  -0.537  -1.887  0.00  0.00    -0.196 N 
ATOM      2  C2  IND d   1      -2.989  -1.787  -2.439  0.00  0.00     0.054 A 
ATOM      3  C3  IND d   1      -1.833  -2.407  -2.113  0.00  0.00    -0.031 A 
ATOM      4  C4  IND d   1       0.087  -1.597  -0.602  0.00  0.00     0.051 A 
ATOM      5  C5  IND d   1       0.519  -0.507   0.100  0.00  0.00    -0.031 A 
ATOM      6  C6  IND d   1      -0.227   0.651   0.180  0.00  0.00     0.015 A 
ATOM      7  C7  IND d   1      -1.443   0.759  -0.433  0.00  0.00    -0.016 A 
ATOM      8  C8  IND d   1      -1.881  -0.344  -1.153  0.00  0.00    -0.047 A 
ATOM      9  C9  IND d   1      -1.109  -1.506  -1.273  0.00  0.00    -0.096 A 
ATOM     10  HN1 IND d   1      -3.669   0.032  -1.981  0.00  0.00     0.298 HD
ENDROOT
TORSDOF 0
ENDMDL
