MODEL 1
REMARK minimizedAffinity 6.27847242
REMARK minimizedRMSD -1
REMARK  0 active torsions:
REMARK  status: ('A' for Active; 'I' for Inactive)
ROOT
ATOM      1  C2' OXE d   1      -4.155   3.834  -5.869  0.00  0.00     0.078 C 
ATOM      2  C1' OXE d   1      -2.362   5.994  -5.842  0.00  0.00     0.078 C 
ATOM      3  C1  OXE d   1      -1.786   4.602  -5.915  0.00  0.00    -0.078 A 
ATOM      4  C2  OXE d   1      -2.669   3.549  -5.880  0.00  0.00    -0.078 A 
ATOM      5  C3  OXE d   1      -2.194   2.246  -6.000  0.00  0.00     0.003 A 
ATOM      6  C4  OXE d   1      -0.817   1.991  -5.999  0.00  0.00    -0.002 A 
ATOM      7  C5  OXE d   1       0.101   3.047  -5.995  0.00  0.00    -0.002 A 
ATOM      8  C6  OXE d   1      -0.367   4.356  -5.996  0.00  0.00     0.003 A 
ENDROOT
TORSDOF 0
ENDMDL
