MODEL 1
REMARK minimizedAffinity 15.9183178
REMARK minimizedRMSD -1
REMARK  0 active torsions:
REMARK  status: ('A' for Active; 'I' for Inactive)
ROOT
ATOM      1  C2' OXE d   1      -1.270  -1.312   1.024  0.00  0.00     0.078 C 
ATOM      2  C1' OXE d   1      -2.497   1.212   0.947  0.00  0.00     0.078 C 
ATOM      3  C1  OXE d   1      -1.106   1.088   0.377  0.00  0.00    -0.078 A 
ATOM      4  C2  OXE d   1      -0.495  -0.140   0.461  0.00  0.00    -0.078 A 
ATOM      5  C3  OXE d   1       0.766  -0.322  -0.098  0.00  0.00     0.003 A 
ATOM      6  C4  OXE d   1       1.480   0.769  -0.608  0.00  0.00    -0.002 A 
ATOM      7  C5  OXE d   1       0.892   2.037  -0.667  0.00  0.00    -0.002 A 
ATOM      8  C6  OXE d   1      -0.413   2.204  -0.219  0.00  0.00     0.003 A 
ENDROOT
TORSDOF 0
ENDMDL
