MODEL 1
REMARK minimizedAffinity 1.79338109
REMARK minimizedRMSD -1
REMARK  0 active torsions:
REMARK  status: ('A' for Active; 'I' for Inactive)
ROOT
ATOM      1  C2' OXE d   1      -0.092   4.109  -6.000  0.00  0.00     0.078 C 
ATOM      2  C1' OXE d   1      -2.144   2.192  -6.000  0.00  0.00     0.078 C 
ATOM      3  C1  OXE d   1      -2.370   3.466  -5.223  0.00  0.00    -0.078 A 
ATOM      4  C2  OXE d   1      -1.343   4.377  -5.191  0.00  0.00    -0.078 A 
ATOM      5  C3  OXE d   1      -1.520   5.592  -4.534  0.00  0.00     0.003 A 
ATOM      6  C4  OXE d   1      -2.675   5.828  -3.780  0.00  0.00    -0.002 A 
ATOM      7  C5  OXE d   1      -3.718   4.896  -3.767  0.00  0.00    -0.002 A 
ATOM      8  C6  OXE d   1      -3.599   3.731  -4.517  0.00  0.00     0.003 A 
ENDROOT
TORSDOF 0
ENDMDL
