MODEL 1
REMARK minimizedAffinity 3.26568103
REMARK minimizedRMSD -1
REMARK  0 active torsions:
REMARK  status: ('A' for Active; 'I' for Inactive)
ROOT
ATOM      1  C2' OXE d   1      -0.127   2.396  -5.986  0.00  0.00     0.078 C 
ATOM      2  C1' OXE d   1      -2.900   1.960  -5.964  0.00  0.00     0.078 C 
ATOM      3  C1  OXE d   1      -2.413   3.387  -5.974  0.00  0.00    -0.078 A 
ATOM      4  C2  OXE d   1      -1.055   3.591  -5.937  0.00  0.00    -0.078 A 
ATOM      5  C3  OXE d   1      -0.551   4.887  -6.000  0.00  0.00     0.003 A 
ATOM      6  C4  OXE d   1      -1.415   5.987  -5.944  0.00  0.00    -0.002 A 
ATOM      7  C5  OXE d   1      -2.802   5.801  -5.941  0.00  0.00    -0.002 A 
ATOM      8  C6  OXE d   1      -3.316   4.511  -5.999  0.00  0.00     0.003 A 
ENDROOT
TORSDOF 0
ENDMDL
