MODEL 1
REMARK minimizedAffinity -1.35438383
REMARK minimizedRMSD -1
REMARK  0 active torsions:
REMARK  status: ('A' for Active; 'I' for Inactive)
ROOT
ATOM      1  C2' OXE d   1      -1.544   3.169  -5.949  0.00  0.00     0.078 C 
ATOM      2  C1' OXE d   1      -1.663   5.973  -5.998  0.00  0.00     0.078 C 
ATOM      3  C1  OXE d   1      -2.966   5.214  -5.976  0.00  0.00    -0.078 A 
ATOM      4  C2  OXE d   1      -2.899   3.841  -5.999  0.00  0.00    -0.078 A 
ATOM      5  C3  OXE d   1      -4.070   3.092  -5.925  0.00  0.00     0.003 A 
ATOM      6  C4  OXE d   1      -5.319   3.722  -5.982  0.00  0.00    -0.002 A 
ATOM      7  C5  OXE d   1      -5.410   5.118  -5.998  0.00  0.00    -0.002 A 
ATOM      8  C6  OXE d   1      -4.246   5.877  -5.953  0.00  0.00     0.003 A 
ENDROOT
TORSDOF 0
ENDMDL
