MODEL 1
REMARK minimizedAffinity 7.33885908
REMARK minimizedRMSD -1
REMARK  0 active torsions:
REMARK  status: ('A' for Active; 'I' for Inactive)
ROOT
ATOM      1  C2' OXE d   1      -0.372   3.331  -0.519  0.00  0.00     0.078 C 
ATOM      2  C1' OXE d   1       1.269   1.195   0.270  0.00  0.00     0.078 C 
ATOM      3  C1  OXE d   1      -0.223   1.023   0.405  0.00  0.00    -0.078 A 
ATOM      4  C2  OXE d   1      -1.016   2.091   0.060  0.00  0.00    -0.078 A 
ATOM      5  C3  OXE d   1      -2.402   1.966   0.114  0.00  0.00     0.003 A 
ATOM      6  C4  OXE d   1      -2.989   0.819   0.661  0.00  0.00    -0.002 A 
ATOM      7  C5  OXE d   1      -2.198  -0.265   1.055  0.00  0.00    -0.002 A 
ATOM      8  C6  OXE d   1      -0.818  -0.196   0.894  0.00  0.00     0.003 A 
ENDROOT
TORSDOF 0
ENDMDL
