MODEL 1
REMARK minimizedAffinity 6.5802145
REMARK minimizedRMSD -1
REMARK  0 active torsions:
REMARK  status: ('A' for Active; 'I' for Inactive)
ROOT
ATOM      1  C2' OXE d   1      -1.117   3.128  -5.949  0.00  0.00     0.078 C 
ATOM      2  C1' OXE d   1      -1.075   5.934  -5.981  0.00  0.00     0.078 C 
ATOM      3  C1  OXE d   1      -2.420   5.251  -5.966  0.00  0.00    -0.078 A 
ATOM      4  C2  OXE d   1      -2.431   3.877  -5.998  0.00  0.00    -0.078 A 
ATOM      5  C3  OXE d   1      -3.643   3.196  -5.931  0.00  0.00     0.003 A 
ATOM      6  C4  OXE d   1      -4.854   3.897  -5.987  0.00  0.00    -0.002 A 
ATOM      7  C5  OXE d   1      -4.865   5.296  -5.995  0.00  0.00    -0.002 A 
ATOM      8  C6  OXE d   1      -3.660   5.987  -5.942  0.00  0.00     0.003 A 
ENDROOT
TORSDOF 0
ENDMDL
