MODEL 1
REMARK minimizedAffinity 8.90802288
REMARK minimizedRMSD -1
REMARK  0 active torsions:
REMARK  status: ('A' for Active; 'I' for Inactive)
ROOT
ATOM      1  C2' OXE d   1       1.350   1.381  -0.523  0.00  0.00     0.078 C 
ATOM      2  C1' OXE d   1      -0.224   3.703  -0.605  0.00  0.00     0.078 C 
ATOM      3  C1  OXE d   1      -0.811   2.479   0.052  0.00  0.00    -0.078 A 
ATOM      4  C2  OXE d   1      -0.051   1.333   0.045  0.00  0.00    -0.078 A 
ATOM      5  C3  OXE d   1      -0.522   0.191   0.686  0.00  0.00     0.003 A 
ATOM      6  C4  OXE d   1      -1.824   0.152   1.200  0.00  0.00    -0.002 A 
ATOM      7  C5  OXE d   1      -2.629   1.296   1.181  0.00  0.00    -0.002 A 
ATOM      8  C6  OXE d   1      -2.123   2.477   0.650  0.00  0.00     0.003 A 
ENDROOT
TORSDOF 0
ENDMDL
