MODEL 1
REMARK minimizedAffinity 6.96946049
REMARK minimizedRMSD -1
REMARK  0 active torsions:
REMARK  status: ('A' for Active; 'I' for Inactive)
ROOT
ATOM      1  C2' OXE d   1      -2.797  -0.040   1.956  0.00  0.00     0.078 C 
ATOM      2  C1' OXE d   1      -2.126   2.411   0.763  0.00  0.00     0.078 C 
ATOM      3  C1  OXE d   1      -1.086   1.319   0.759  0.00  0.00    -0.078 A 
ATOM      4  C2  OXE d   1      -1.406   0.139   1.386  0.00  0.00    -0.078 A 
ATOM      5  C3  OXE d   1      -0.504  -0.921   1.363  0.00  0.00     0.003 A 
ATOM      6  C4  OXE d   1       0.784  -0.745   0.843  0.00  0.00    -0.002 A 
ATOM      7  C5  OXE d   1       1.145   0.463   0.235  0.00  0.00    -0.002 A 
ATOM      8  C6  OXE d   1       0.209   1.488   0.147  0.00  0.00     0.003 A 
ENDROOT
TORSDOF 0
ENDMDL
