MODEL 1
REMARK minimizedAffinity 1.80763972
REMARK minimizedRMSD -1
REMARK  0 active torsions:
REMARK  status: ('A' for Active; 'I' for Inactive)
ROOT
ATOM      1  C2' OXE d   1      -2.176   3.027  -5.973  0.00  0.00     0.078 C 
ATOM      2  C1' OXE d   1      -2.236   5.832  -5.880  0.00  0.00     0.078 C 
ATOM      3  C1  OXE d   1      -3.555   5.100  -5.902  0.00  0.00    -0.078 A 
ATOM      4  C2  OXE d   1      -3.516   3.730  -5.995  0.00  0.00    -0.078 A 
ATOM      5  C3  OXE d   1      -4.703   3.003  -5.964  0.00  0.00     0.003 A 
ATOM      6  C4  OXE d   1      -5.938   3.661  -5.994  0.00  0.00    -0.002 A 
ATOM      7  C5  OXE d   1      -6.000   5.058  -5.940  0.00  0.00    -0.002 A 
ATOM      8  C6  OXE d   1      -4.821   5.789  -5.851  0.00  0.00     0.003 A 
ENDROOT
TORSDOF 0
ENDMDL
