MODEL 1
REMARK minimizedAffinity 10.1897182
REMARK minimizedRMSD -1
REMARK  0 active torsions:
REMARK  status: ('A' for Active; 'I' for Inactive)
ROOT
ATOM      1  C2' OXE d   1      -0.083   1.942   0.672  0.00  0.00     0.078 C 
ATOM      2  C1' OXE d   1       2.132   2.720   2.211  0.00  0.00     0.078 C 
ATOM      3  C1  OXE d   1       0.759   2.936   2.795  0.00  0.00    -0.078 A 
ATOM      4  C2  OXE d   1      -0.321   2.595   2.016  0.00  0.00    -0.078 A 
ATOM      5  C3  OXE d   1      -1.608   2.723   2.529  0.00  0.00     0.003 A 
ATOM      6  C4  OXE d   1      -1.820   3.337   3.769  0.00  0.00    -0.002 A 
ATOM      7  C5  OXE d   1      -0.735   3.728   4.562  0.00  0.00    -0.002 A 
ATOM      8  C6  OXE d   1       0.559   3.496   4.109  0.00  0.00     0.003 A 
ENDROOT
TORSDOF 0
ENDMDL
