MODEL 1
REMARK minimizedAffinity 10.1455688
REMARK minimizedRMSD -1
REMARK  0 active torsions:
REMARK  status: ('A' for Active; 'I' for Inactive)
ROOT
ATOM      1  C2' OXE d   1      -0.638  -5.988  -2.256  0.00  0.00     0.078 C 
ATOM      2  C1' OXE d   1      -2.983  -5.998  -0.711  0.00  0.00     0.078 C 
ATOM      3  C1  OXE d   1      -2.296  -4.674  -0.940  0.00  0.00    -0.078 A 
ATOM      4  C2  OXE d   1      -1.124  -4.685  -1.658  0.00  0.00    -0.078 A 
ATOM      5  C3  OXE d   1      -0.480  -3.485  -1.944  0.00  0.00     0.003 A 
ATOM      6  C4  OXE d   1      -0.931  -2.286  -1.379  0.00  0.00    -0.002 A 
ATOM      7  C5  OXE d   1      -2.101  -2.259  -0.612  0.00  0.00    -0.002 A 
ATOM      8  C6  OXE d   1      -2.817  -3.435  -0.419  0.00  0.00     0.003 A 
ENDROOT
TORSDOF 0
ENDMDL
