MODEL 1
REMARK minimizedAffinity 1.98810518
REMARK minimizedRMSD -1
REMARK  0 active torsions:
REMARK  status: ('A' for Active; 'I' for Inactive)
ROOT
ATOM      1  C2' OXE d   1      -3.755   4.379  -3.371  0.00  0.00     0.078 C 
ATOM      2  C1' OXE d   1      -3.907   3.406  -6.000  0.00  0.00     0.078 C 
ATOM      3  C1  OXE d   1      -2.551   3.438  -5.339  0.00  0.00    -0.078 A 
ATOM      4  C2  OXE d   1      -2.479   3.959  -4.069  0.00  0.00    -0.078 A 
ATOM      5  C3  OXE d   1      -1.263   3.961  -3.393  0.00  0.00     0.003 A 
ATOM      6  C4  OXE d   1      -0.086   3.580  -4.050  0.00  0.00    -0.002 A 
ATOM      7  C5  OXE d   1      -0.131   3.084  -5.357  0.00  0.00    -0.002 A 
ATOM      8  C6  OXE d   1      -1.359   2.966  -5.999  0.00  0.00     0.003 A 
ENDROOT
TORSDOF 0
ENDMDL
