MODEL 1
REMARK minimizedAffinity -0.234281033
REMARK minimizedRMSD -1
REMARK  0 active torsions:
REMARK  status: ('A' for Active; 'I' for Inactive)
ROOT
ATOM      1  C2' OXE d   1      -5.997   3.195  -5.998  0.00  0.00     0.078 C 
ATOM      2  C1' OXE d   1      -5.878   5.999  -5.986  0.00  0.00     0.078 C 
ATOM      3  C1  OXE d   1      -4.575   5.240  -5.978  0.00  0.00    -0.078 A 
ATOM      4  C2  OXE d   1      -4.643   3.868  -5.937  0.00  0.00    -0.078 A 
ATOM      5  C3  OXE d   1      -3.471   3.118  -5.983  0.00  0.00     0.003 A 
ATOM      6  C4  OXE d   1      -2.223   3.749  -5.916  0.00  0.00    -0.002 A 
ATOM      7  C5  OXE d   1      -2.131   5.145  -5.918  0.00  0.00    -0.002 A 
ATOM      8  C6  OXE d   1      -3.294   5.903  -5.991  0.00  0.00     0.003 A 
ENDROOT
TORSDOF 0
ENDMDL
