MODEL 1
REMARK minimizedAffinity 4.15509033
REMARK minimizedRMSD -1
REMARK  0 active torsions:
REMARK  status: ('A' for Active; 'I' for Inactive)
ROOT
ATOM      1  C2' OXE d   1       2.234   1.159  -0.604  0.00  0.00     0.078 C 
ATOM      2  C1' OXE d   1       0.416   3.298  -0.611  0.00  0.00     0.078 C 
ATOM      3  C1  OXE d   1      -0.035   1.994  -0.001  0.00  0.00    -0.078 A 
ATOM      4  C2  OXE d   1       0.845   0.939  -0.044  0.00  0.00    -0.078 A 
ATOM      5  C3  OXE d   1       0.500  -0.270   0.553  0.00  0.00     0.003 A 
ATOM      6  C4  OXE d   1      -0.790  -0.468   1.060  0.00  0.00    -0.002 A 
ATOM      7  C5  OXE d   1      -1.715   0.581   1.077  0.00  0.00    -0.002 A 
ATOM      8  C6  OXE d   1      -1.339   1.828   0.590  0.00  0.00     0.003 A 
ENDROOT
TORSDOF 0
ENDMDL
