MODEL 1
REMARK minimizedAffinity 10.8585157
REMARK minimizedRMSD -1
REMARK  0 active torsions:
REMARK  status: ('A' for Active; 'I' for Inactive)
ROOT
ATOM      1  C2' OXE d   1       2.290   1.541  -0.334  0.00  0.00     0.078 C 
ATOM      2  C1' OXE d   1      -0.001   3.158  -0.207  0.00  0.00     0.078 C 
ATOM      3  C1  OXE d   1      -0.159   1.689   0.099  0.00  0.00    -0.078 A 
ATOM      4  C2  OXE d   1       0.959   0.897  -0.011  0.00  0.00    -0.078 A 
ATOM      5  C3  OXE d   1       0.881  -0.454   0.314  0.00  0.00     0.003 A 
ATOM      6  C4  OXE d   1      -0.356  -1.043   0.602  0.00  0.00    -0.002 A 
ATOM      7  C5  OXE d   1      -1.514  -0.262   0.680  0.00  0.00    -0.002 A 
ATOM      8  C6  OXE d   1      -1.425   1.110   0.474  0.00  0.00     0.003 A 
ENDROOT
TORSDOF 0
ENDMDL
