MODEL 1
REMARK minimizedAffinity -0.26987806
REMARK minimizedRMSD -1
REMARK  0 active torsions:
REMARK  status: ('A' for Active; 'I' for Inactive)
ROOT
ATOM      1  C2' OXE d   1      -4.477   3.515  -5.997  0.00  0.00     0.078 C 
ATOM      2  C1' OXE d   1      -3.167   5.998  -5.972  0.00  0.00     0.078 C 
ATOM      3  C1  OXE d   1      -2.315   4.753  -5.977  0.00  0.00    -0.078 A 
ATOM      4  C2  OXE d   1      -2.964   3.542  -5.942  0.00  0.00    -0.078 A 
ATOM      5  C3  OXE d   1      -2.227   2.363  -6.000  0.00  0.00     0.003 A 
ATOM      6  C4  OXE d   1      -0.829   2.397  -5.938  0.00  0.00    -0.002 A 
ATOM      7  C5  OXE d   1      -0.148   3.620  -5.933  0.00  0.00    -0.002 A 
ATOM      8  C6  OXE d   1      -0.874   4.804  -5.995  0.00  0.00     0.003 A 
ENDROOT
TORSDOF 0
ENDMDL
