MODEL 1
REMARK minimizedAffinity 4.60431051
REMARK minimizedRMSD -1
REMARK  0 active torsions:
REMARK  status: ('A' for Active; 'I' for Inactive)
ROOT
ATOM      1  C2' OXE d   1       0.573   1.360  -5.953  0.00  0.00     0.078 C 
ATOM      2  C1' OXE d   1       1.245   4.086  -5.962  0.00  0.00     0.078 C 
ATOM      3  C1  OXE d   1      -0.218   3.722  -5.955  0.00  0.00    -0.078 A 
ATOM      4  C2  OXE d   1      -0.538   2.386  -5.998  0.00  0.00    -0.078 A 
ATOM      5  C3  OXE d   1      -1.873   1.995  -5.939  0.00  0.00     0.003 A 
ATOM      6  C4  OXE d   1      -2.895   2.950  -5.991  0.00  0.00    -0.002 A 
ATOM      7  C5  OXE d   1      -2.591   4.316  -5.987  0.00  0.00    -0.002 A 
ATOM      8  C6  OXE d   1      -1.261   4.718  -5.927  0.00  0.00     0.003 A 
ENDROOT
TORSDOF 0
ENDMDL
