MODEL 1
REMARK minimizedAffinity 3.68763614
REMARK minimizedRMSD -1
REMARK  0 active torsions:
REMARK  status: ('A' for Active; 'I' for Inactive)
ROOT
ATOM      1  C2' OXE d   1      -1.955   5.318  -5.688  0.00  0.00     0.078 C 
ATOM      2  C1' OXE d   1      -2.287   2.548  -5.999  0.00  0.00     0.078 C 
ATOM      3  C1  OXE d   1      -0.879   3.085  -5.934  0.00  0.00    -0.078 A 
ATOM      4  C2  OXE d   1      -0.726   4.446  -5.829  0.00  0.00    -0.078 A 
ATOM      5  C3  OXE d   1       0.551   4.989  -5.710  0.00  0.00     0.003 A 
ATOM      6  C4  OXE d   1       1.682   4.176  -5.852  0.00  0.00    -0.002 A 
ATOM      7  C5  OXE d   1       1.548   2.792  -5.999  0.00  0.00    -0.002 A 
ATOM      8  C6  OXE d   1       0.278   2.226  -6.000  0.00  0.00     0.003 A 
ENDROOT
TORSDOF 0
ENDMDL
