MODEL 1
REMARK minimizedAffinity 7.6843338
REMARK minimizedRMSD -1
REMARK  0 active torsions:
REMARK  status: ('A' for Active; 'I' for Inactive)
ROOT
ATOM      1  C2' OXE d   1      -1.983  -2.282  -1.003  0.00  0.00     0.078 C 
ATOM      2  C1' OXE d   1      -0.832  -4.692  -1.869  0.00  0.00     0.078 C 
ATOM      3  C1  OXE d   1      -2.179  -4.758  -1.194  0.00  0.00    -0.078 A 
ATOM      4  C2  OXE d   1      -2.713  -3.580  -0.731  0.00  0.00    -0.078 A 
ATOM      5  C3  OXE d   1      -3.978  -3.577  -0.150  0.00  0.00     0.003 A 
ATOM      6  C4  OXE d   1      -4.642  -4.783   0.106  0.00  0.00    -0.002 A 
ATOM      7  C5  OXE d   1      -4.098  -5.999  -0.321  0.00  0.00    -0.002 A 
ATOM      8  C6  OXE d   1      -2.889  -5.999  -1.009  0.00  0.00     0.003 A 
ENDROOT
TORSDOF 0
ENDMDL
