MODEL 1
REMARK minimizedAffinity 2.31777096
REMARK minimizedRMSD -1
REMARK  0 active torsions:
REMARK  status: ('A' for Active; 'I' for Inactive)
ROOT
ATOM      1  C   UNL d   1      -2.013   0.028   1.100  0.00  0.00     0.124 A 
ATOM      2  C1  UNL d   1      -1.137   1.098   1.222  0.00  0.00     0.062 A 
ATOM      3  C2  UNL d   1       0.019   1.148   0.448  0.00  0.00     0.162 A 
ATOM      4  C3  UNL d   1       0.306   0.125  -0.455  0.00  0.00    -0.034 A 
ATOM      5  C4  UNL d   1      -0.579  -0.949  -0.571  0.00  0.00     0.162 A 
ATOM      6  C5  UNL d   1      -1.733  -0.994   0.204  0.00  0.00     0.062 A 
ATOM      7  F   UNL d   1      -2.578  -2.029   0.085  0.00  0.00    -0.097 F 
ATOM      8  F1  UNL d   1      -0.333  -1.950  -1.430  0.00  0.00    -0.096 F 
ATOM      9  I   UNL d   1       2.034   0.196  -1.613  0.00  0.00    -0.060 I 
ATOM     10  F2  UNL d   1       0.847   2.194   0.587  0.00  0.00    -0.096 F 
ATOM     11  F3  UNL d   1      -1.405   2.086   2.087  0.00  0.00    -0.097 F 
ATOM     12  F4  UNL d   1      -3.124  -0.019   1.846  0.00  0.00    -0.092 F 
ENDROOT
TORSDOF 0
ENDMDL
