MODEL 1
REMARK minimizedAffinity -1.89864838
REMARK minimizedRMSD -1
REMARK  0 active torsions:
REMARK  status: ('A' for Active; 'I' for Inactive)
ROOT
ATOM      1  C   UNL d   1      -0.771  -0.624   1.623  0.00  0.00     0.124 A 
ATOM      2  C1  UNL d   1      -0.661   0.650   1.082  0.00  0.00     0.062 A 
ATOM      3  C2  UNL d   1       0.045   0.850  -0.101  0.00  0.00     0.162 A 
ATOM      4  C3  UNL d   1       0.647  -0.228  -0.751  0.00  0.00    -0.034 A 
ATOM      5  C4  UNL d   1       0.533  -1.505  -0.201  0.00  0.00     0.162 A 
ATOM      6  C5  UNL d   1      -0.174  -1.700   0.981  0.00  0.00     0.062 A 
ATOM      7  F   UNL d   1      -0.279  -2.931   1.503  0.00  0.00    -0.097 F 
ATOM      8  F1  UNL d   1       1.099  -2.563  -0.800  0.00  0.00    -0.096 F 
ATOM      9  I   UNL d   1       1.704   0.067  -2.520  0.00  0.00    -0.060 I 
ATOM     10  F2  UNL d   1       0.135   2.091  -0.601  0.00  0.00    -0.096 F 
ATOM     11  F3  UNL d   1      -1.237   1.691   1.700  0.00  0.00    -0.097 F 
ATOM     12  F4  UNL d   1      -1.451  -0.813   2.761  0.00  0.00    -0.092 F 
ENDROOT
TORSDOF 0
ENDMDL
