MODEL 1
REMARK minimizedAffinity -1.25449872
REMARK minimizedRMSD -1
REMARK  0 active torsions:
REMARK  status: ('A' for Active; 'I' for Inactive)
ROOT
ATOM      1  C   UNL d   1       0.552  -0.896   1.695  0.00  0.00     0.124 A 
ATOM      2  C1  UNL d   1       0.302  -1.868   0.737  0.00  0.00     0.062 A 
ATOM      3  C2  UNL d   1       0.388  -1.557  -0.617  0.00  0.00     0.162 A 
ATOM      4  C3  UNL d   1       0.727  -0.265  -1.021  0.00  0.00    -0.034 A 
ATOM      5  C4  UNL d   1       0.977   0.708  -0.052  0.00  0.00     0.162 A 
ATOM      6  C5  UNL d   1       0.890   0.391   1.300  0.00  0.00     0.062 A 
ATOM      7  F   UNL d   1       1.132   1.333   2.224  0.00  0.00    -0.097 F 
ATOM      8  F1  UNL d   1       1.306   1.959  -0.406  0.00  0.00    -0.096 F 
ATOM      9  I   UNL d   1       0.857   0.205  -3.044  0.00  0.00    -0.060 I 
ATOM     10  F2  UNL d   1       0.141  -2.516  -1.520  0.00  0.00    -0.096 F 
ATOM     11  F3  UNL d   1      -0.025  -3.112   1.116  0.00  0.00    -0.097 F 
ATOM     12  F4  UNL d   1       0.468  -1.198   2.997  0.00  0.00    -0.092 F 
ENDROOT
TORSDOF 0
ENDMDL
