MODEL 1
REMARK minimizedAffinity 1.1550343
REMARK minimizedRMSD -1
REMARK  0 active torsions:
REMARK  status: ('A' for Active; 'I' for Inactive)
ROOT
ATOM      1  C   UNL d   1       2.369  -0.878  -1.919  0.00  0.00     0.124 A 
ATOM      2  C1  UNL d   1       1.531  -1.861  -1.412  0.00  0.00     0.062 A 
ATOM      3  C2  UNL d   1       0.545  -1.532  -0.486  0.00  0.00     0.162 A 
ATOM      4  C3  UNL d   1       0.391  -0.213  -0.062  0.00  0.00    -0.034 A 
ATOM      5  C4  UNL d   1       1.237   0.771  -0.576  0.00  0.00     0.162 A 
ATOM      6  C5  UNL d   1       2.221   0.437  -1.501  0.00  0.00     0.062 A 
ATOM      7  F   UNL d   1       3.029   1.389  -1.990  0.00  0.00    -0.097 F 
ATOM      8  F1  UNL d   1       1.116   2.050  -0.190  0.00  0.00    -0.096 F 
ATOM      9  I   UNL d   1      -1.082   0.283   1.322  0.00  0.00    -0.060 I 
ATOM     10  F2  UNL d   1      -0.250  -2.503  -0.013  0.00  0.00    -0.096 F 
ATOM     11  F3  UNL d   1       1.673  -3.133  -1.814  0.00  0.00    -0.097 F 
ATOM     12  F4  UNL d   1       3.317  -1.197  -2.809  0.00  0.00    -0.092 F 
ENDROOT
TORSDOF 0
ENDMDL
