MODEL 1
REMARK minimizedAffinity -5.20349169
REMARK minimizedRMSD -1
REMARK  0 active torsions:
REMARK  status: ('A' for Active; 'I' for Inactive)
ROOT
ATOM      1  C   UNL d   1       1.765  -1.305  -2.046  0.00  0.00     0.124 A 
ATOM      2  C1  UNL d   1       1.719  -2.015  -0.854  0.00  0.00     0.062 A 
ATOM      3  C2  UNL d   1       0.827  -1.643   0.147  0.00  0.00     0.162 A 
ATOM      4  C3  UNL d   1      -0.028  -0.557  -0.039  0.00  0.00    -0.034 A 
ATOM      5  C4  UNL d   1       0.025   0.153  -1.240  0.00  0.00     0.162 A 
ATOM      6  C5  UNL d   1       0.918  -0.222  -2.238  0.00  0.00     0.062 A 
ATOM      7  F   UNL d   1       0.961   0.465  -3.389  0.00  0.00    -0.097 F 
ATOM      8  F1  UNL d   1      -0.783   1.203  -1.452  0.00  0.00    -0.096 F 
ATOM      9  I   UNL d   1      -1.363   0.002   1.457  0.00  0.00    -0.060 I 
ATOM     10  F2  UNL d   1       0.804  -2.347   1.289  0.00  0.00    -0.096 F 
ATOM     11  F3  UNL d   1       2.537  -3.060  -0.666  0.00  0.00    -0.097 F 
ATOM     12  F4  UNL d   1       2.625  -1.664  -3.008  0.00  0.00    -0.092 F 
ENDROOT
TORSDOF 0
ENDMDL
