MODEL 1
REMARK minimizedAffinity -1.71655345
REMARK minimizedRMSD -1
REMARK  0 active torsions:
REMARK  status: ('A' for Active; 'I' for Inactive)
ROOT
ATOM      1  C   UNL d   1       2.669   0.201  -1.449  0.00  0.00     0.124 A 
ATOM      2  C1  UNL d   1       1.445  -0.277  -1.896  0.00  0.00     0.062 A 
ATOM      3  C2  UNL d   1       0.340  -0.272  -1.049  0.00  0.00     0.162 A 
ATOM      4  C3  UNL d   1       0.454   0.215   0.254  0.00  0.00    -0.034 A 
ATOM      5  C4  UNL d   1       1.689   0.693   0.696  0.00  0.00     0.162 A 
ATOM      6  C5  UNL d   1       2.790   0.685  -0.154  0.00  0.00     0.062 A 
ATOM      7  F   UNL d   1       3.972   1.147   0.279  0.00  0.00    -0.097 F 
ATOM      8  F1  UNL d   1       1.834   1.167   1.942  0.00  0.00    -0.096 F 
ATOM      9  I   UNL d   1      -1.195   0.225   1.523  0.00  0.00    -0.060 I 
ATOM     10  F2  UNL d   1      -0.831  -0.739  -1.507  0.00  0.00    -0.096 F 
ATOM     11  F3  UNL d   1       1.325  -0.747  -3.146  0.00  0.00    -0.097 F 
ATOM     12  F4  UNL d   1       3.730   0.193  -2.266  0.00  0.00    -0.092 F 
ENDROOT
TORSDOF 0
ENDMDL
