MODEL 1
REMARK minimizedAffinity -1.09055054
REMARK minimizedRMSD -1
REMARK  0 active torsions:
REMARK  status: ('A' for Active; 'I' for Inactive)
ROOT
ATOM      1  C   UNL d   1      -0.414  -1.101   1.496  0.00  0.00     0.124 A 
ATOM      2  C1  UNL d   1      -0.023  -2.135   0.656  0.00  0.00     0.062 A 
ATOM      3  C2  UNL d   1       0.463  -1.856  -0.618  0.00  0.00     0.162 A 
ATOM      4  C3  UNL d   1       0.561  -0.537  -1.061  0.00  0.00    -0.034 A 
ATOM      5  C4  UNL d   1       0.165   0.497  -0.211  0.00  0.00     0.162 A 
ATOM      6  C5  UNL d   1      -0.320   0.213   1.061  0.00  0.00     0.062 A 
ATOM      7  F   UNL d   1      -0.697   1.214   1.871  0.00  0.00    -0.097 F 
ATOM      8  F1  UNL d   1       0.246   1.777  -0.605  0.00  0.00    -0.096 F 
ATOM      9  I   UNL d   1       1.286  -0.116  -2.966  0.00  0.00    -0.060 I 
ATOM     10  F2  UNL d   1       0.833  -2.875  -1.408  0.00  0.00    -0.096 F 
ATOM     11  F3  UNL d   1      -0.113  -3.406   1.073  0.00  0.00    -0.097 F 
ATOM     12  F4  UNL d   1      -0.881  -1.372   2.721  0.00  0.00    -0.092 F 
ENDROOT
TORSDOF 0
ENDMDL
