MODEL 1
REMARK minimizedAffinity -2.08594251
REMARK minimizedRMSD -1
REMARK  0 active torsions:
REMARK  status: ('A' for Active; 'I' for Inactive)
ROOT
ATOM      1  C   UNL d   1       0.443  -1.329  -0.136  0.00  0.00     0.124 A 
ATOM      2  C1  UNL d   1       0.092  -0.299  -0.997  0.00  0.00     0.062 A 
ATOM      3  C2  UNL d   1      -1.044   0.465  -0.748  0.00  0.00     0.162 A 
ATOM      4  C3  UNL d   1      -1.837   0.204   0.369  0.00  0.00    -0.034 A 
ATOM      5  C4  UNL d   1      -1.478  -0.834   1.231  0.00  0.00     0.162 A 
ATOM      6  C5  UNL d   1      -0.342  -1.596   0.977  0.00  0.00     0.062 A 
ATOM      7  F   UNL d   1      -0.004  -2.590   1.811  0.00  0.00    -0.097 F 
ATOM      8  F1  UNL d   1      -2.218  -1.113   2.314  0.00  0.00    -0.096 F 
ATOM      9  I   UNL d   1      -3.536   1.345   0.745  0.00  0.00    -0.060 I 
ATOM     10  F2  UNL d   1      -1.359   1.454  -1.598  0.00  0.00    -0.096 F 
ATOM     11  F3  UNL d   1       0.849  -0.040  -2.074  0.00  0.00    -0.097 F 
ATOM     12  F4  UNL d   1       1.537  -2.064  -0.379  0.00  0.00    -0.092 F 
ENDROOT
TORSDOF 0
ENDMDL
