MODEL 1
REMARK minimizedAffinity -1.34107685
REMARK minimizedRMSD -1
REMARK  0 active torsions:
REMARK  status: ('A' for Active; 'I' for Inactive)
ROOT
ATOM      1  C   UNL d   1       0.205  -1.264  -1.659  0.00  0.00     0.124 A 
ATOM      2  C1  UNL d   1       0.145  -1.830  -0.392  0.00  0.00     0.062 A 
ATOM      3  C2  UNL d   1      -0.438  -1.130   0.660  0.00  0.00     0.162 A 
ATOM      4  C3  UNL d   1      -0.968   0.143   0.451  0.00  0.00    -0.034 A 
ATOM      5  C4  UNL d   1      -0.903   0.706  -0.825  0.00  0.00     0.162 A 
ATOM      6  C5  UNL d   1      -0.319   0.003  -1.874  0.00  0.00     0.062 A 
ATOM      7  F   UNL d   1      -0.262   0.551  -3.096  0.00  0.00    -0.097 F 
ATOM      8  F1  UNL d   1      -1.403   1.928  -1.061  0.00  0.00    -0.096 F 
ATOM      9  I   UNL d   1      -1.841   1.193   2.022  0.00  0.00    -0.060 I 
ATOM     10  F2  UNL d   1      -0.482  -1.701   1.873  0.00  0.00    -0.096 F 
ATOM     11  F3  UNL d   1       0.652  -3.053  -0.182  0.00  0.00    -0.097 F 
ATOM     12  F4  UNL d   1       0.768  -1.939  -2.669  0.00  0.00    -0.092 F 
ENDROOT
TORSDOF 0
ENDMDL
