MODEL 1
REMARK minimizedAffinity 3.72248077
REMARK minimizedRMSD -1
REMARK  0 active torsions:
REMARK  status: ('A' for Active; 'I' for Inactive)
ROOT
ATOM      1  C   UNL d   1       1.769  -0.740  -1.276  0.00  0.00     0.124 A 
ATOM      2  C1  UNL d   1       0.939  -1.630  -0.609  0.00  0.00     0.062 A 
ATOM      3  C2  UNL d   1      -0.025  -1.158   0.277  0.00  0.00     0.162 A 
ATOM      4  C3  UNL d   1      -0.166   0.211   0.501  0.00  0.00    -0.034 A 
ATOM      5  C4  UNL d   1       0.674   1.100  -0.172  0.00  0.00     0.162 A 
ATOM      6  C5  UNL d   1       1.636   0.624  -1.057  0.00  0.00     0.062 A 
ATOM      7  F   UNL d   1       2.437   1.486  -1.700  0.00  0.00    -0.097 F 
ATOM      8  F1  UNL d   1       0.566   2.424   0.020  0.00  0.00    -0.096 F 
ATOM      9  I   UNL d   1      -1.606   0.920   1.825  0.00  0.00    -0.060 I 
ATOM     10  F2  UNL d   1      -0.814  -2.042   0.907  0.00  0.00    -0.096 F 
ATOM     11  F3  UNL d   1       1.067  -2.948  -0.818  0.00  0.00    -0.097 F 
ATOM     12  F4  UNL d   1       2.697  -1.196  -2.127  0.00  0.00    -0.092 F 
ENDROOT
TORSDOF 0
ENDMDL
