MODEL 1
REMARK minimizedAffinity 2.26716232
REMARK minimizedRMSD -1
REMARK  0 active torsions:
REMARK  status: ('A' for Active; 'I' for Inactive)
ROOT
ATOM      1  C   UNL d   1      -3.524   1.979   2.301  0.00  0.00     0.124 A 
ATOM      2  C1  UNL d   1      -2.152   2.193   2.309  0.00  0.00     0.062 A 
ATOM      3  C2  UNL d   1      -1.298   1.277   1.701  0.00  0.00     0.162 A 
ATOM      4  C3  UNL d   1      -1.813   0.139   1.080  0.00  0.00    -0.034 A 
ATOM      5  C4  UNL d   1      -3.193  -0.069   1.077  0.00  0.00     0.162 A 
ATOM      6  C5  UNL d   1      -4.043   0.849   1.685  0.00  0.00     0.062 A 
ATOM      7  F   UNL d   1      -5.368   0.641   1.676  0.00  0.00    -0.097 F 
ATOM      8  F1  UNL d   1      -3.722  -1.152   0.488  0.00  0.00    -0.096 F 
ATOM      9  I   UNL d   1      -0.539  -1.232   0.171  0.00  0.00    -0.060 I 
ATOM     10  F2  UNL d   1       0.023   1.509   1.724  0.00  0.00    -0.096 F 
ATOM     11  F3  UNL d   1      -1.648   3.284   2.904  0.00  0.00    -0.097 F 
ATOM     12  F4  UNL d   1      -4.344   2.862   2.887  0.00  0.00    -0.092 F 
ENDROOT
TORSDOF 0
ENDMDL
