MODEL 1
REMARK minimizedAffinity 0.386487007
REMARK minimizedRMSD -1
REMARK  0 active torsions:
REMARK  status: ('A' for Active; 'I' for Inactive)
ROOT
ATOM      1  C   UNL d   1      -3.658   2.758   2.957  0.00  0.00     0.124 A 
ATOM      2  C1  UNL d   1      -2.295   2.968   3.113  0.00  0.00     0.062 A 
ATOM      3  C2  UNL d   1      -1.382   2.058   2.587  0.00  0.00     0.162 A 
ATOM      4  C3  UNL d   1      -1.830   0.930   1.900  0.00  0.00    -0.034 A 
ATOM      5  C4  UNL d   1      -3.202   0.725   1.749  0.00  0.00     0.162 A 
ATOM      6  C5  UNL d   1      -4.110   1.637   2.276  0.00  0.00     0.062 A 
ATOM      7  F   UNL d   1      -5.427   1.432   2.125  0.00  0.00    -0.097 F 
ATOM      8  F1  UNL d   1      -3.666  -0.350   1.094  0.00  0.00    -0.096 F 
ATOM      9  I   UNL d   1      -0.468  -0.433   1.113  0.00  0.00    -0.060 I 
ATOM     10  F2  UNL d   1      -0.071   2.286   2.752  0.00  0.00    -0.096 F 
ATOM     11  F3  UNL d   1      -1.856   4.050   3.772  0.00  0.00    -0.097 F 
ATOM     12  F4  UNL d   1      -4.534   3.634   3.465  0.00  0.00    -0.092 F 
ENDROOT
TORSDOF 0
ENDMDL
