MODEL 1
REMARK minimizedAffinity 1.80736446
REMARK minimizedRMSD -1
REMARK  0 active torsions:
REMARK  status: ('A' for Active; 'I' for Inactive)
ROOT
ATOM      1  C   UNL d   1       0.034  -1.336   1.334  0.00  0.00     0.124 A 
ATOM      2  C1  UNL d   1       0.195   0.007   1.020  0.00  0.00     0.062 A 
ATOM      3  C2  UNL d   1       0.526   0.388  -0.277  0.00  0.00     0.162 A 
ATOM      4  C3  UNL d   1       0.697  -0.575  -1.271  0.00  0.00    -0.034 A 
ATOM      5  C4  UNL d   1       0.535  -1.923  -0.948  0.00  0.00     0.162 A 
ATOM      6  C5  UNL d   1       0.205  -2.299   0.350  0.00  0.00     0.062 A 
ATOM      7  F   UNL d   1       0.050  -3.597   0.651  0.00  0.00    -0.097 F 
ATOM      8  F1  UNL d   1       0.693  -2.875  -1.880  0.00  0.00    -0.096 F 
ATOM      9  I   UNL d   1       1.192  -0.009  -3.212  0.00  0.00    -0.060 I 
ATOM     10  F2  UNL d   1       0.674   1.693  -0.552  0.00  0.00    -0.096 F 
ATOM     11  F3  UNL d   1       0.032   0.940   1.969  0.00  0.00    -0.097 F 
ATOM     12  F4  UNL d   1      -0.283  -1.700   2.583  0.00  0.00    -0.092 F 
ENDROOT
TORSDOF 0
ENDMDL
