MODEL 1
REMARK minimizedAffinity 0.783084691
REMARK minimizedRMSD -1
REMARK  0 active torsions:
REMARK  status: ('A' for Active; 'I' for Inactive)
ROOT
ATOM      1  C   UNL d   1      -3.217   1.959   2.412  0.00  0.00     0.124 A 
ATOM      2  C1  UNL d   1      -3.800   1.039   1.552  0.00  0.00     0.062 A 
ATOM      3  C2  UNL d   1      -3.015   0.082   0.914  0.00  0.00     0.162 A 
ATOM      4  C3  UNL d   1      -1.638   0.039   1.135  0.00  0.00    -0.034 A 
ATOM      5  C4  UNL d   1      -1.059   0.969   2.001  0.00  0.00     0.162 A 
ATOM      6  C5  UNL d   1      -1.848   1.923   2.636  0.00  0.00     0.062 A 
ATOM      7  F   UNL d   1      -1.283   2.812   3.466  0.00  0.00    -0.097 F 
ATOM      8  F1  UNL d   1       0.261   0.957   2.236  0.00  0.00    -0.096 F 
ATOM      9  I   UNL d   1      -0.462  -1.390   0.184  0.00  0.00    -0.060 I 
ATOM     10  F2  UNL d   1      -3.605  -0.795   0.088  0.00  0.00    -0.096 F 
ATOM     11  F3  UNL d   1      -5.122   1.072   1.333  0.00  0.00    -0.097 F 
ATOM     12  F4  UNL d   1      -3.974   2.879   3.023  0.00  0.00    -0.092 F 
ENDROOT
TORSDOF 0
ENDMDL
