MODEL 1
REMARK minimizedAffinity -3.0743649
REMARK minimizedRMSD -1
REMARK  0 active torsions:
REMARK  status: ('A' for Active; 'I' for Inactive)
ROOT
ATOM      1  C   UNL d   1       0.324  -0.955  -1.617  0.00  0.00     0.124 A 
ATOM      2  C1  UNL d   1       0.330  -1.482  -0.333  0.00  0.00     0.062 A 
ATOM      3  C2  UNL d   1      -0.281  -0.791   0.709  0.00  0.00     0.162 A 
ATOM      4  C3  UNL d   1      -0.905   0.433   0.472  0.00  0.00    -0.034 A 
ATOM      5  C4  UNL d   1      -0.907   0.957  -0.822  0.00  0.00     0.162 A 
ATOM      6  C5  UNL d   1      -0.295   0.263  -1.861  0.00  0.00     0.062 A 
ATOM      7  F   UNL d   1      -0.302   0.774  -3.101  0.00  0.00    -0.097 F 
ATOM      8  F1  UNL d   1      -1.498   2.132  -1.085  0.00  0.00    -0.096 F 
ATOM      9  I   UNL d   1      -1.821   1.469   2.028  0.00  0.00    -0.060 I 
ATOM     10  F2  UNL d   1      -0.260  -1.324   1.940  0.00  0.00    -0.096 F 
ATOM     11  F3  UNL d   1       0.928  -2.658  -0.096  0.00  0.00    -0.097 F 
ATOM     12  F4  UNL d   1       0.913  -1.621  -2.619  0.00  0.00    -0.092 F 
ENDROOT
TORSDOF 0
ENDMDL
