MODEL 1
REMARK minimizedAffinity -1.1869911
REMARK minimizedRMSD -1
REMARK  0 active torsions:
REMARK  status: ('A' for Active; 'I' for Inactive)
ROOT
ATOM      1  C   UNL d   1       1.537  -0.255  -1.713  0.00  0.00     0.124 A 
ATOM      2  C1  UNL d   1       0.871  -1.167  -0.906  0.00  0.00     0.062 A 
ATOM      3  C2  UNL d   1       0.036  -0.721   0.114  0.00  0.00     0.162 A 
ATOM      4  C3  UNL d   1      -0.140   0.645   0.332  0.00  0.00    -0.034 A 
ATOM      5  C4  UNL d   1       0.533   1.557  -0.483  0.00  0.00     0.162 A 
ATOM      6  C5  UNL d   1       1.367   1.106  -1.501  0.00  0.00     0.062 A 
ATOM      7  F   UNL d   1       2.008   1.989  -2.280  0.00  0.00    -0.097 F 
ATOM      8  F1  UNL d   1       0.386   2.878  -0.301  0.00  0.00    -0.096 F 
ATOM      9  I   UNL d   1      -1.389   1.317   1.856  0.00  0.00    -0.060 I 
ATOM     10  F2  UNL d   1      -0.594  -1.625   0.879  0.00  0.00    -0.096 F 
ATOM     11  F3  UNL d   1       1.035  -2.483  -1.108  0.00  0.00    -0.097 F 
ATOM     12  F4  UNL d   1       2.341  -0.687  -2.693  0.00  0.00    -0.092 F 
ENDROOT
TORSDOF 0
ENDMDL
