MODEL 1
REMARK minimizedAffinity -2.8184073
REMARK minimizedRMSD -1
REMARK  0 active torsions:
REMARK  status: ('A' for Active; 'I' for Inactive)
ROOT
ATOM      1  C   UNL d   1       0.457  -0.878   1.410  0.00  0.00     0.124 A 
ATOM      2  C1  UNL d   1       0.279  -1.835   0.421  0.00  0.00     0.062 A 
ATOM      3  C2  UNL d   1       0.634  -1.556  -0.896  0.00  0.00     0.162 A 
ATOM      4  C3  UNL d   1       1.173  -0.314  -1.231  0.00  0.00    -0.034 A 
ATOM      5  C4  UNL d   1       1.349   0.644  -0.231  0.00  0.00     0.162 A 
ATOM      6  C5  UNL d   1       0.992   0.360   1.083  0.00  0.00     0.062 A 
ATOM      7  F   UNL d   1       1.165   1.287   2.038  0.00  0.00    -0.097 F 
ATOM      8  F1  UNL d   1       1.864   1.849  -0.518  0.00  0.00    -0.096 F 
ATOM      9  I   UNL d   1       1.706   0.107  -3.198  0.00  0.00    -0.060 I 
ATOM     10  F2  UNL d   1       0.451  -2.500  -1.831  0.00  0.00    -0.096 F 
ATOM     11  F3  UNL d   1      -0.238  -3.032   0.734  0.00  0.00    -0.097 F 
ATOM     12  F4  UNL d   1       0.113  -1.149   2.676  0.00  0.00    -0.092 F 
ENDROOT
TORSDOF 0
ENDMDL
