MODEL 1
REMARK minimizedAffinity 5.14299297
REMARK minimizedRMSD -1
REMARK  0 active torsions:
REMARK  status: ('A' for Active; 'I' for Inactive)
ROOT
ATOM      1  C   UNL d   1       1.475  -0.212  -0.732  0.00  0.00     0.124 A 
ATOM      2  C1  UNL d   1       0.714  -1.220  -0.156  0.00  0.00     0.062 A 
ATOM      3  C2  UNL d   1      -0.555  -0.940   0.343  0.00  0.00     0.162 A 
ATOM      4  C3  UNL d   1      -1.071   0.354   0.269  0.00  0.00    -0.034 A 
ATOM      5  C4  UNL d   1      -0.300   1.362  -0.311  0.00  0.00     0.162 A 
ATOM      6  C5  UNL d   1       0.968   1.078  -0.809  0.00  0.00     0.062 A 
ATOM      7  F   UNL d   1       1.702   2.053  -1.365  0.00  0.00    -0.097 F 
ATOM      8  F1  UNL d   1      -0.765   2.617  -0.399  0.00  0.00    -0.096 F 
ATOM      9  I   UNL d   1      -2.968   0.776   1.014  0.00  0.00    -0.060 I 
ATOM     10  F2  UNL d   1      -1.268  -1.933   0.894  0.00  0.00    -0.096 F 
ATOM     11  F3  UNL d   1       1.202  -2.466  -0.080  0.00  0.00    -0.097 F 
ATOM     12  F4  UNL d   1       2.696  -0.483  -1.211  0.00  0.00    -0.092 F 
ENDROOT
TORSDOF 0
ENDMDL
