MODEL 1
REMARK minimizedAffinity -3.05515504
REMARK minimizedRMSD -1
REMARK  1 active torsions:
REMARK  status: ('A' for Active; 'I' for Inactive)
REMARK    1  A    between atoms: C1_2  and  C2_3 
ROOT
ATOM      1  C2  UNL d   1       0.761  -0.733  -0.253  0.00  0.00    -0.081 A 
ATOM      2  C3  UNL d   1       0.159  -0.794   1.010  0.00  0.00     0.006 A 
ATOM      3  C4  UNL d   1      -0.562   0.296   1.503  0.00  0.00     0.002 A 
ATOM      4  C5  UNL d   1      -0.701   1.460   0.740  0.00  0.00    -0.080 A 
ATOM      5  C6  UNL d   1      -1.499   2.625   1.246  0.00  0.00     0.076 C 
ATOM      6  C7  UNL d   1      -0.086   1.527  -0.514  0.00  0.00     0.002 A 
ATOM      7  C8  UNL d   1       0.637   0.439  -1.008  0.00  0.00     0.006 A 
ENDROOT
BRANCH   1   8
ATOM      8  C1  UNL d   1       1.485  -1.929  -0.816  0.00  0.00     0.054 C 
ATOM      9  C   UNL d   1       0.635  -2.655  -1.849  0.00  0.00     0.018 C 
ENDBRANCH   1   8
TORSDOF 1
ENDMDL
