MODEL 1
REMARK minimizedAffinity -0.519629478
REMARK minimizedRMSD -1
REMARK  1 active torsions:
REMARK  status: ('A' for Active; 'I' for Inactive)
REMARK    1  A    between atoms: C1_2  and  C2_3 
ROOT
ATOM      1  C2  UNL d   1       1.265  -1.647  -0.629  0.00  0.00    -0.081 A 
ATOM      2  C3  UNL d   1       0.687  -1.551   0.642  0.00  0.00     0.006 A 
ATOM      3  C4  UNL d   1      -0.035  -0.412   1.008  0.00  0.00     0.002 A 
ATOM      4  C5  UNL d   1      -0.196   0.645   0.106  0.00  0.00    -0.080 A 
ATOM      5  C6  UNL d   1      -0.994   1.861   0.475  0.00  0.00     0.076 C 
ATOM      6  C7  UNL d   1       0.397   0.557  -1.158  0.00  0.00     0.002 A 
ATOM      7  C8  UNL d   1       1.119  -0.582  -1.524  0.00  0.00     0.006 A 
ENDROOT
BRANCH   1   8
ATOM      8  C1  UNL d   1       1.989  -2.901  -1.049  0.00  0.00     0.054 C 
ATOM      9  C   UNL d   1       1.063  -3.851  -1.796  0.00  0.00     0.018 C 
ENDBRANCH   1   8
TORSDOF 1
ENDMDL
