MODEL 1
REMARK minimizedAffinity -1.09729135
REMARK minimizedRMSD -1
REMARK  1 active torsions:
REMARK  status: ('A' for Active; 'I' for Inactive)
REMARK    1  A    between atoms: C1_2  and  C2_3 
ROOT
ATOM      1  C2  UNL d   1       0.671  -0.776  -0.496  0.00  0.00    -0.081 A 
ATOM      2  C3  UNL d   1       0.550   0.504  -1.052  0.00  0.00     0.006 A 
ATOM      3  C4  UNL d   1      -0.161   1.502  -0.382  0.00  0.00     0.002 A 
ATOM      4  C5  UNL d   1      -0.756   1.241   0.857  0.00  0.00    -0.080 A 
ATOM      5  C6  UNL d   1      -1.496   2.312   1.600  0.00  0.00     0.076 C 
ATOM      6  C7  UNL d   1      -0.649  -0.042   1.404  0.00  0.00     0.002 A 
ATOM      7  C8  UNL d   1       0.061  -1.041   0.735  0.00  0.00     0.006 A 
ENDROOT
BRANCH   1   8
ATOM      8  C1  UNL d   1       1.492  -1.836  -1.185  0.00  0.00     0.054 C 
ATOM      9  C   UNL d   1       0.632  -2.690  -2.105  0.00  0.00     0.018 C 
ENDBRANCH   1   8
TORSDOF 1
ENDMDL
