MODEL 1
REMARK minimizedAffinity -1.21778762
REMARK minimizedRMSD -1
REMARK  1 active torsions:
REMARK  status: ('A' for Active; 'I' for Inactive)
REMARK    1  A    between atoms: C1_2  and  C2_3 
ROOT
ATOM      1  C2  UNL d   1       0.714  -1.295  -0.702  0.00  0.00    -0.081 A 
ATOM      2  C3  UNL d   1      -0.056  -1.336   0.467  0.00  0.00     0.006 A 
ATOM      3  C4  UNL d   1      -0.560  -0.158   1.024  0.00  0.00     0.002 A 
ATOM      4  C5  UNL d   1      -0.310   1.078   0.418  0.00  0.00    -0.080 A 
ATOM      5  C6  UNL d   1      -0.870   2.346   0.988  0.00  0.00     0.076 C 
ATOM      6  C7  UNL d   1       0.474   1.120  -0.740  0.00  0.00     0.002 A 
ATOM      7  C8  UNL d   1       0.979  -0.057  -1.297  0.00  0.00     0.006 A 
ENDROOT
BRANCH   1   8
ATOM      8  C1  UNL d   1       1.205  -2.570  -1.340  0.00  0.00     0.054 C 
ATOM      9  C   UNL d   1       0.290  -3.008  -2.475  0.00  0.00     0.018 C 
ENDBRANCH   1   8
TORSDOF 1
ENDMDL
