MODEL 1
REMARK minimizedAffinity -3.6784265
REMARK minimizedRMSD -1
REMARK  1 active torsions:
REMARK  status: ('A' for Active; 'I' for Inactive)
REMARK    1  A    between atoms: C1_2  and  C2_3 
ROOT
ATOM      1  C2  UNL d   1       0.235  -1.223  -0.654  0.00  0.00    -0.081 A 
ATOM      2  C3  UNL d   1      -0.181  -1.578   0.635  0.00  0.00     0.006 A 
ATOM      3  C4  UNL d   1      -0.777  -0.632   1.472  0.00  0.00     0.002 A 
ATOM      4  C5  UNL d   1      -0.975   0.681   1.032  0.00  0.00    -0.080 A 
ATOM      5  C6  UNL d   1      -1.641   1.699   1.910  0.00  0.00     0.076 C 
ATOM      6  C7  UNL d   1      -0.543   1.040  -0.249  0.00  0.00     0.002 A 
ATOM      7  C8  UNL d   1       0.054   0.095  -1.087  0.00  0.00     0.006 A 
ENDROOT
BRANCH   1   8
ATOM      8  C1  UNL d   1       0.820  -2.257  -1.582  0.00  0.00     0.054 C 
ATOM      9  C   UNL d   1       0.163  -2.202  -2.955  0.00  0.00     0.018 C 
ENDBRANCH   1   8
TORSDOF 1
ENDMDL
