MODEL 1
REMARK minimizedAffinity -4.7601943
REMARK minimizedRMSD -1
REMARK  1 active torsions:
REMARK  status: ('A' for Active; 'I' for Inactive)
REMARK    1  A    between atoms: C1_2  and  C2_3 
ROOT
ATOM      1  C2  UNL d   1       0.833  -0.459  -0.177  0.00  0.00    -0.081 A 
ATOM      2  C3  UNL d   1       1.187   0.564  -1.066  0.00  0.00     0.006 A 
ATOM      3  C4  UNL d   1       0.731   1.869  -0.861  0.00  0.00     0.002 A 
ATOM      4  C5  UNL d   1      -0.078   2.174   0.239  0.00  0.00    -0.080 A 
ATOM      5  C6  UNL d   1      -0.549   3.576   0.487  0.00  0.00     0.076 C 
ATOM      6  C7  UNL d   1      -0.446   1.148   1.116  0.00  0.00     0.002 A 
ATOM      7  C8  UNL d   1       0.008  -0.156   0.912  0.00  0.00     0.006 A 
ENDROOT
BRANCH   1   8
ATOM      8  C1  UNL d   1       1.375  -1.854  -0.359  0.00  0.00     0.054 C 
ATOM      9  C   UNL d   1       0.909  -2.461  -1.674  0.00  0.00     0.018 C 
ENDBRANCH   1   8
TORSDOF 1
ENDMDL
