MODEL 1
REMARK minimizedAffinity -5.66870022
REMARK minimizedRMSD -1
REMARK  1 active torsions:
REMARK  status: ('A' for Active; 'I' for Inactive)
REMARK    1  A    between atoms: C1_2  and  C2_3 
ROOT
ATOM      1  C2  UNL d   1       0.275   1.138  -0.145  0.00  0.00    -0.081 A 
ATOM      2  C3  UNL d   1       0.127   2.443  -0.630  0.00  0.00     0.006 A 
ATOM      3  C4  UNL d   1      -0.787   3.319  -0.039  0.00  0.00     0.002 A 
ATOM      4  C5  UNL d   1      -1.562   2.907   1.051  0.00  0.00    -0.080 A 
ATOM      5  C6  UNL d   1      -2.525   3.846   1.714  0.00  0.00     0.076 C 
ATOM      6  C7  UNL d   1      -1.426   1.597   1.525  0.00  0.00     0.002 A 
ATOM      7  C8  UNL d   1      -0.513   0.721   0.933  0.00  0.00     0.006 A 
ENDROOT
BRANCH   1   8
ATOM      8  C1  UNL d   1       1.306   0.213  -0.739  0.00  0.00     0.054 C 
ATOM      9  C   UNL d   1       0.789  -1.217  -0.812  0.00  0.00     0.018 C 
ENDBRANCH   1   8
TORSDOF 1
ENDMDL
