MODEL 1
REMARK minimizedAffinity 9.84990215
REMARK minimizedRMSD -1
REMARK  1 active torsions:
REMARK  status: ('A' for Active; 'I' for Inactive)
REMARK    1  A    between atoms: C3_4  and  O_7 
ROOT
ATOM      1  C   UNL d   1       0.562   5.684  -0.749  0.00  0.00    -0.033 A 
ATOM      2  C1  UNL d   1       1.119   4.405  -0.796  0.00  0.00     0.039 A 
ATOM      3  C2  UNL d   1       0.738   3.440   0.138  0.00  0.00    -0.080 A 
ATOM      4  C3  UNL d   1      -0.201   3.766   1.112  0.00  0.00     0.150 A 
ATOM      5  C4  UNL d   1      -0.764   5.037   1.163  0.00  0.00    -0.007 A 
ATOM      6  C5  UNL d   1      -0.381   6.000   0.229  0.00  0.00     0.039 A 
ENDROOT
BRANCH   4   7
ATOM      7  O   UNL d   1      -0.601   2.860   2.048  0.00  0.00    -0.526 OA
ATOM      8  H5  UNL d   1      -0.108   2.034   1.908  0.00  0.00     0.418 HD
ENDBRANCH   4   7
TORSDOF 1
ENDMDL
