MODEL 1
REMARK minimizedAffinity 3.56056809
REMARK minimizedRMSD -1
REMARK  1 active torsions:
REMARK  status: ('A' for Active; 'I' for Inactive)
REMARK    1  A    between atoms: C3_4  and  O_7 
ROOT
ATOM      1  C   UNL d   1       0.738  -6.000  -1.043  0.00  0.00    -0.033 A 
ATOM      2  C1  UNL d   1       0.649  -6.000  -2.436  0.00  0.00     0.039 A 
ATOM      3  C2  UNL d   1       1.728  -5.562  -3.207  0.00  0.00    -0.080 A 
ATOM      4  C3  UNL d   1       2.889  -5.129  -2.573  0.00  0.00     0.150 A 
ATOM      5  C4  UNL d   1       2.986  -5.130  -1.185  0.00  0.00    -0.007 A 
ATOM      6  C5  UNL d   1       1.908  -5.566  -0.418  0.00  0.00     0.039 A 
ENDROOT
BRANCH   4   7
ATOM      7  O   UNL d   1       3.966  -4.688  -3.283  0.00  0.00    -0.526 OA
ATOM      8  H5  UNL d   1       3.744  -4.716  -4.228  0.00  0.00     0.418 HD
ENDBRANCH   4   7
TORSDOF 1
ENDMDL
