MODEL 1
REMARK minimizedAffinity 3.47367334
REMARK minimizedRMSD -1
REMARK  1 active torsions:
REMARK  status: ('A' for Active; 'I' for Inactive)
REMARK    1  A    between atoms: C3_4  and  O_7 
ROOT
ATOM      1  C   UNL d   1       0.073   5.992  -0.690  0.00  0.00    -0.033 A 
ATOM      2  C1  UNL d   1       0.768   4.848  -1.088  0.00  0.00     0.039 A 
ATOM      3  C2  UNL d   1       0.768   3.711  -0.278  0.00  0.00    -0.080 A 
ATOM      4  C3  UNL d   1       0.070   3.730   0.927  0.00  0.00     0.150 A 
ATOM      5  C4  UNL d   1      -0.627   4.865   1.328  0.00  0.00    -0.007 A 
ATOM      6  C5  UNL d   1      -0.625   6.000   0.518  0.00  0.00     0.039 A 
ENDROOT
BRANCH   4   7
ATOM      7  O   UNL d   1       0.045   2.647   1.753  0.00  0.00    -0.526 OA
ATOM      8  H5  UNL d   1       0.593   1.947   1.360  0.00  0.00     0.418 HD
ENDBRANCH   4   7
TORSDOF 1
ENDMDL
