MODEL 1
REMARK minimizedAffinity 2.47928905
REMARK minimizedRMSD -1
REMARK  1 active torsions:
REMARK  status: ('A' for Active; 'I' for Inactive)
REMARK    1  A    between atoms: C3_4  and  O_7 
ROOT
ATOM      1  C   UNL d   1       1.519  -5.262  -0.012  0.00  0.00    -0.033 A 
ATOM      2  C1  UNL d   1       1.079  -5.999  -1.113  0.00  0.00     0.039 A 
ATOM      3  C2  UNL d   1       1.821  -6.000  -2.296  0.00  0.00    -0.080 A 
ATOM      4  C3  UNL d   1       2.999  -5.262  -2.364  0.00  0.00     0.150 A 
ATOM      5  C4  UNL d   1       3.445  -4.528  -1.270  0.00  0.00    -0.007 A 
ATOM      6  C5  UNL d   1       2.703  -4.528  -0.090  0.00  0.00     0.039 A 
ENDROOT
BRANCH   4   7
ATOM      7  O   UNL d   1       3.754  -5.228  -3.499  0.00  0.00    -0.526 OA
ATOM      8  H5  UNL d   1       3.309  -5.758  -4.181  0.00  0.00     0.418 HD
ENDBRANCH   4   7
TORSDOF 1
ENDMDL
