MODEL 1
REMARK minimizedAffinity 4.90189028
REMARK minimizedRMSD -1
REMARK  1 active torsions:
REMARK  status: ('A' for Active; 'I' for Inactive)
REMARK    1  A    between atoms: C3_4  and  O_7 
ROOT
ATOM      1  C   UNL d   1      -0.257   5.418  -0.397  0.00  0.00    -0.033 A 
ATOM      2  C1  UNL d   1       0.245   4.125  -0.559  0.00  0.00     0.039 A 
ATOM      3  C2  UNL d   1       0.320   3.261   0.535  0.00  0.00    -0.080 A 
ATOM      4  C3  UNL d   1      -0.110   3.700   1.784  0.00  0.00     0.150 A 
ATOM      5  C4  UNL d   1      -0.614   4.986   1.952  0.00  0.00    -0.007 A 
ATOM      6  C5  UNL d   1      -0.688   5.848   0.859  0.00  0.00     0.039 A 
ENDROOT
BRANCH   4   7
ATOM      7  O   UNL d   1      -0.051   2.894   2.882  0.00  0.00    -0.526 OA
ATOM      8  H5  UNL d   1       0.345   2.047   2.621  0.00  0.00     0.418 HD
ENDBRANCH   4   7
TORSDOF 1
ENDMDL
