MODEL 1
REMARK minimizedAffinity 4.68575954
REMARK minimizedRMSD -1
REMARK  1 active torsions:
REMARK  status: ('A' for Active; 'I' for Inactive)
REMARK    1  A    between atoms: C3_4  and  O_7 
ROOT
ATOM      1  C   UNL d   1      -0.720  -0.872  -3.196  0.00  0.00    -0.033 A 
ATOM      2  C1  UNL d   1      -1.582   0.119  -3.670  0.00  0.00     0.039 A 
ATOM      3  C2  UNL d   1      -2.428   0.792  -2.787  0.00  0.00    -0.080 A 
ATOM      4  C3  UNL d   1      -2.402   0.466  -1.434  0.00  0.00     0.150 A 
ATOM      5  C4  UNL d   1      -1.544  -0.518  -0.954  0.00  0.00    -0.007 A 
ATOM      6  C5  UNL d   1      -0.700  -1.189  -1.838  0.00  0.00     0.039 A 
ENDROOT
BRANCH   4   7
ATOM      7  O   UNL d   1      -3.213   1.091  -0.535  0.00  0.00    -0.526 OA
ATOM      8  H5  UNL d   1      -3.772   1.726  -1.013  0.00  0.00     0.418 HD
ENDBRANCH   4   7
TORSDOF 1
ENDMDL
