MODEL 1
REMARK minimizedAffinity 2.26435685
REMARK minimizedRMSD -1
REMARK  1 active torsions:
REMARK  status: ('A' for Active; 'I' for Inactive)
REMARK    1  A    between atoms: C3_4  and  O_7 
ROOT
ATOM      1  C   UNL d   1       0.449   5.190  -0.921  0.00  0.00    -0.033 A 
ATOM      2  C1  UNL d   1       0.129   5.924   0.223  0.00  0.00     0.039 A 
ATOM      3  C2  UNL d   1      -0.176   5.265   1.415  0.00  0.00    -0.080 A 
ATOM      4  C3  UNL d   1      -0.156   3.873   1.451  0.00  0.00     0.150 A 
ATOM      5  C4  UNL d   1       0.166   3.136   0.317  0.00  0.00    -0.007 A 
ATOM      6  C5  UNL d   1       0.469   3.796  -0.874  0.00  0.00     0.039 A 
ENDROOT
BRANCH   4   7
ATOM      7  O   UNL d   1      -0.450   3.185   2.591  0.00  0.00    -0.526 OA
ATOM      8  H5  UNL d   1      -0.681   3.825   3.285  0.00  0.00     0.418 HD
ENDBRANCH   4   7
TORSDOF 1
ENDMDL
