MODEL 1
REMARK minimizedAffinity 6.47538042
REMARK minimizedRMSD -1
REMARK  1 active torsions:
REMARK  status: ('A' for Active; 'I' for Inactive)
REMARK    1  A    between atoms: C3_4  and  O_7 
ROOT
ATOM      1  C   UNL d   1       0.355   5.282  -0.668  0.00  0.00    -0.033 A 
ATOM      2  C1  UNL d   1       1.040   4.076  -0.512  0.00  0.00     0.039 A 
ATOM      3  C2  UNL d   1       0.596   3.134   0.418  0.00  0.00    -0.080 A 
ATOM      4  C3  UNL d   1      -0.534   3.410   1.184  0.00  0.00     0.150 A 
ATOM      5  C4  UNL d   1      -1.223   4.608   1.031  0.00  0.00    -0.007 A 
ATOM      6  C5  UNL d   1      -0.778   5.548   0.102  0.00  0.00     0.039 A 
ENDROOT
BRANCH   4   7
ATOM      7  O   UNL d   1      -1.003   2.524   2.108  0.00  0.00    -0.526 OA
ATOM      8  H5  UNL d   1      -0.410   1.754   2.124  0.00  0.00     0.418 HD
ENDBRANCH   4   7
TORSDOF 1
ENDMDL
