MODEL 1
REMARK minimizedAffinity 9.03719616
REMARK minimizedRMSD -1
REMARK  1 active torsions:
REMARK  status: ('A' for Active; 'I' for Inactive)
REMARK    1  A    between atoms: C3_4  and  O_7 
ROOT
ATOM      1  C   UNL d   1      -0.561   6.000  -0.939  0.00  0.00    -0.033 A 
ATOM      2  C1  UNL d   1       0.112   4.892  -1.458  0.00  0.00     0.039 A 
ATOM      3  C2  UNL d   1       0.364   3.783  -0.647  0.00  0.00    -0.080 A 
ATOM      4  C3  UNL d   1      -0.064   3.794   0.678  0.00  0.00     0.150 A 
ATOM      5  C4  UNL d   1      -0.739   4.893   1.200  0.00  0.00    -0.007 A 
ATOM      6  C5  UNL d   1      -0.988   6.000   0.389  0.00  0.00     0.039 A 
ENDROOT
BRANCH   4   7
ATOM      7  O   UNL d   1       0.162   2.737   1.508  0.00  0.00    -0.526 OA
ATOM      8  H5  UNL d   1       0.664   2.064   1.019  0.00  0.00     0.418 HD
ENDBRANCH   4   7
TORSDOF 1
ENDMDL
