MODEL 1
REMARK minimizedAffinity 8.6620388
REMARK minimizedRMSD -1
REMARK  1 active torsions:
REMARK  status: ('A' for Active; 'I' for Inactive)
REMARK    1  A    between atoms: C3_4  and  O_7 
ROOT
ATOM      1  C   UNL d   1      -4.318  -0.065   3.020  0.00  0.00    -0.033 A 
ATOM      2  C1  UNL d   1      -3.755  -1.310   3.310  0.00  0.00     0.039 A 
ATOM      3  C2  UNL d   1      -4.308  -2.112   4.310  0.00  0.00    -0.080 A 
ATOM      4  C3  UNL d   1      -5.422  -1.660   5.011  0.00  0.00     0.150 A 
ATOM      5  C4  UNL d   1      -5.991  -0.423   4.725  0.00  0.00    -0.007 A 
ATOM      6  C5  UNL d   1      -5.437   0.377   3.726  0.00  0.00     0.039 A 
ENDROOT
BRANCH   4   7
ATOM      7  O   UNL d   1      -5.994  -2.405   5.999  0.00  0.00    -0.526 OA
ATOM      8  H5  UNL d   1      -5.478  -3.222   6.106  0.00  0.00     0.418 HD
ENDBRANCH   4   7
TORSDOF 1
ENDMDL
