MODEL 1
REMARK minimizedAffinity 1.09021652
REMARK minimizedRMSD -1
REMARK  1 active torsions:
REMARK  status: ('A' for Active; 'I' for Inactive)
REMARK    1  A    between atoms: C3_4  and  O_7 
ROOT
ATOM      1  C   UNL d   1      -0.689   3.512   0.791  0.00  0.00    -0.033 A 
ATOM      2  C1  UNL d   1       0.622   3.108   0.531  0.00  0.00     0.039 A 
ATOM      3  C2  UNL d   1       1.231   2.146   1.338  0.00  0.00    -0.080 A 
ATOM      4  C3  UNL d   1       0.519   1.594   2.400  0.00  0.00     0.150 A 
ATOM      5  C4  UNL d   1      -0.789   1.989   2.662  0.00  0.00    -0.007 A 
ATOM      6  C5  UNL d   1      -1.395   2.951   1.855  0.00  0.00     0.039 A 
ENDROOT
BRANCH   4   7
ATOM      7  O   UNL d   1       1.073   0.655   3.218  0.00  0.00    -0.526 OA
ATOM      8  H5  UNL d   1       1.989   0.502   2.934  0.00  0.00     0.418 HD
ENDBRANCH   4   7
TORSDOF 1
ENDMDL
