MODEL 1
REMARK minimizedAffinity 2.99277067
REMARK minimizedRMSD -1
REMARK  1 active torsions:
REMARK  status: ('A' for Active; 'I' for Inactive)
REMARK    1  A    between atoms: C3_4  and  O_7 
ROOT
ATOM      1  C   UNL d   1      -0.757   5.218  -0.429  0.00  0.00    -0.033 A 
ATOM      2  C1  UNL d   1       0.506   4.950  -0.961  0.00  0.00     0.039 A 
ATOM      3  C2  UNL d   1       0.765   5.205  -2.310  0.00  0.00    -0.080 A 
ATOM      4  C3  UNL d   1      -0.245   5.727  -3.113  0.00  0.00     0.150 A 
ATOM      5  C4  UNL d   1      -1.504   6.000  -2.588  0.00  0.00    -0.007 A 
ATOM      6  C5  UNL d   1      -1.761   5.744  -1.242  0.00  0.00     0.039 A 
ENDROOT
BRANCH   4   7
ATOM      7  O   UNL d   1      -0.040   5.988  -4.435  0.00  0.00    -0.526 OA
ATOM      8  H5  UNL d   1       0.866   5.723  -4.665  0.00  0.00     0.418 HD
ENDBRANCH   4   7
TORSDOF 1
ENDMDL
