MODEL 1
REMARK minimizedAffinity 6.01677847
REMARK minimizedRMSD -1
REMARK  1 active torsions:
REMARK  status: ('A' for Active; 'I' for Inactive)
REMARK    1  A    between atoms: C3_4  and  O_7 
ROOT
ATOM      1  C   UNL d   1       0.007   1.383   3.700  0.00  0.00    -0.033 A 
ATOM      2  C1  UNL d   1       1.195   1.951   3.236  0.00  0.00     0.039 A 
ATOM      3  C2  UNL d   1       1.177   2.810   2.136  0.00  0.00    -0.080 A 
ATOM      4  C3  UNL d   1      -0.034   3.094   1.511  0.00  0.00     0.150 A 
ATOM      5  C4  UNL d   1      -1.221   2.535   1.970  0.00  0.00    -0.007 A 
ATOM      6  C5  UNL d   1      -1.201   1.676   3.068  0.00  0.00     0.039 A 
ENDROOT
BRANCH   4   7
ATOM      7  O   UNL d   1      -0.100   3.923   0.431  0.00  0.00    -0.526 OA
ATOM      8  H5  UNL d   1       0.800   4.212   0.208  0.00  0.00     0.418 HD
ENDBRANCH   4   7
TORSDOF 1
ENDMDL
