MODEL 1
REMARK minimizedAffinity 9.41348934
REMARK minimizedRMSD -1
REMARK  0 active torsions:
REMARK  status: ('A' for Active; 'I' for Inactive)
ROOT
ATOM      1  C1  BNZ d   1      -0.698  -1.741   2.520  0.00  0.00     0.000 A 
ATOM      2  C2  BNZ d   1       0.017  -0.820   3.238  0.00  0.00     0.000 A 
ATOM      3  C3  BNZ d   1      -0.146  -0.708   4.591  0.00  0.00     0.000 A 
ATOM      4  C4  BNZ d   1      -1.052  -1.487   5.216  0.00  0.00     0.000 A 
ATOM      5  C5  BNZ d   1      -1.788  -2.413   4.504  0.00  0.00     0.000 A 
ATOM      6  C6  BNZ d   1      -1.592  -2.551   3.149  0.00  0.00     0.000 A 
ENDROOT
TORSDOF 0
ENDMDL
