MODEL 1
REMARK minimizedAffinity 6.46532536
REMARK minimizedRMSD -1
REMARK  0 active torsions:
REMARK  status: ('A' for Active; 'I' for Inactive)
ROOT
ATOM      1  C1  BNZ d   1       0.022  -1.880   2.627  0.00  0.00     0.000 A 
ATOM      2  C2  BNZ d   1       0.692  -0.788   3.111  0.00  0.00     0.000 A 
ATOM      3  C3  BNZ d   1       0.189  -0.065   4.157  0.00  0.00     0.000 A 
ATOM      4  C4  BNZ d   1      -1.001  -0.411   4.689  0.00  0.00     0.000 A 
ATOM      5  C5  BNZ d   1      -1.693  -1.503   4.205  0.00  0.00     0.000 A 
ATOM      6  C6  BNZ d   1      -1.165  -2.251   3.179  0.00  0.00     0.000 A 
ENDROOT
TORSDOF 0
ENDMDL
