MODEL 1
REMARK minimizedAffinity 9.29927635
REMARK minimizedRMSD -1
REMARK  0 active torsions:
REMARK  status: ('A' for Active; 'I' for Inactive)
ROOT
ATOM      1  C1  BNZ d   1       3.386   0.142   2.477  0.00  0.00     0.000 A 
ATOM      2  C2  BNZ d   1       2.173   0.082   3.110  0.00  0.00     0.000 A 
ATOM      3  C3  BNZ d   1       1.307  -0.948   2.868  0.00  0.00     0.000 A 
ATOM      4  C4  BNZ d   1       1.638  -1.894   1.965  0.00  0.00     0.000 A 
ATOM      5  C5  BNZ d   1       2.853  -1.843   1.312  0.00  0.00     0.000 A 
ATOM      6  C6  BNZ d   1       3.738  -0.825   1.587  0.00  0.00     0.000 A 
ENDROOT
TORSDOF 0
ENDMDL
