MODEL 1
REMARK minimizedAffinity 3.01421833
REMARK minimizedRMSD -1
REMARK  0 active torsions:
REMARK  status: ('A' for Active; 'I' for Inactive)
ROOT
ATOM      1  C1  BNZ d   1      -5.607  -4.847   0.850  0.00  0.00     0.000 A 
ATOM      2  C2  BNZ d   1      -4.864  -3.697   0.878  0.00  0.00     0.000 A 
ATOM      3  C3  BNZ d   1      -3.575  -3.685   0.423  0.00  0.00     0.000 A 
ATOM      4  C4  BNZ d   1      -3.019  -4.830  -0.022  0.00  0.00     0.000 A 
ATOM      5  C5  BNZ d   1      -3.751  -6.000  -0.048  0.00  0.00     0.000 A 
ATOM      6  C6  BNZ d   1      -5.061  -6.000   0.375  0.00  0.00     0.000 A 
ENDROOT
TORSDOF 0
ENDMDL
