MODEL 1
REMARK minimizedAffinity -2.374717
REMARK minimizedRMSD -1
REMARK  0 active torsions:
REMARK  status: ('A' for Active; 'I' for Inactive)
ROOT
ATOM      1  C1  BNZ d   1       1.576  -3.755  -5.237  0.00  0.00     0.000 A 
ATOM      2  C2  BNZ d   1       1.254  -3.772  -3.906  0.00  0.00     0.000 A 
ATOM      3  C3  BNZ d   1       0.755  -4.902  -3.321  0.00  0.00     0.000 A 
ATOM      4  C4  BNZ d   1       0.541  -6.000  -4.074  0.00  0.00     0.000 A 
ATOM      5  C5  BNZ d   1       0.852  -5.996  -5.420  0.00  0.00     0.000 A 
ATOM      6  C6  BNZ d   1       1.390  -4.868  -5.997  0.00  0.00     0.000 A 
ENDROOT
TORSDOF 0
ENDMDL
