MODEL 1
REMARK minimizedAffinity 3.33700204
REMARK minimizedRMSD -1
REMARK  0 active torsions:
REMARK  status: ('A' for Active; 'I' for Inactive)
ROOT
ATOM      1  C1  BNZ d   1      -0.743  -1.031   4.083  0.00  0.00     0.000 A 
ATOM      2  C2  BNZ d   1       0.415  -0.727   3.418  0.00  0.00     0.000 A 
ATOM      3  C3  BNZ d   1       0.595  -1.103   2.117  0.00  0.00     0.000 A 
ATOM      4  C4  BNZ d   1      -0.365  -1.817   1.494  0.00  0.00     0.000 A 
ATOM      5  C5  BNZ d   1      -1.534  -2.140   2.153  0.00  0.00     0.000 A 
ATOM      6  C6  BNZ d   1      -1.728  -1.726   3.451  0.00  0.00     0.000 A 
ENDROOT
TORSDOF 0
ENDMDL
