MODEL 1
REMARK minimizedAffinity 9.8356142
REMARK minimizedRMSD -1
REMARK  0 active torsions:
REMARK  status: ('A' for Active; 'I' for Inactive)
ROOT
ATOM      1  C1  BNZ d   1      -1.892   3.762  -5.224  0.00  0.00     0.000 A 
ATOM      2  C2  BNZ d   1      -3.016   3.657  -5.999  0.00  0.00     0.000 A 
ATOM      3  C3  BNZ d   1      -4.146   3.059  -5.516  0.00  0.00     0.000 A 
ATOM      4  C4  BNZ d   1      -4.138   2.533  -4.274  0.00  0.00     0.000 A 
ATOM      5  C5  BNZ d   1      -3.010   2.623  -3.484  0.00  0.00     0.000 A 
ATOM      6  C6  BNZ d   1      -1.887   3.260  -3.959  0.00  0.00     0.000 A 
ENDROOT
TORSDOF 0
ENDMDL
