MODEL 1
REMARK minimizedAffinity 4.33415031
REMARK minimizedRMSD -1
REMARK  0 active torsions:
REMARK  status: ('A' for Active; 'I' for Inactive)
ROOT
ATOM      1  C1  BNZ d   1      -4.365  -3.381   1.640  0.00  0.00     0.000 A 
ATOM      2  C2  BNZ d   1      -4.320  -3.385   3.009  0.00  0.00     0.000 A 
ATOM      3  C3  BNZ d   1      -3.968  -4.514   3.694  0.00  0.00     0.000 A 
ATOM      4  C4  BNZ d   1      -3.700  -5.647   3.013  0.00  0.00     0.000 A 
ATOM      5  C5  BNZ d   1      -3.749  -5.661   1.633  0.00  0.00     0.000 A 
ATOM      6  C6  BNZ d   1      -4.066  -4.512   0.945  0.00  0.00     0.000 A 
ENDROOT
TORSDOF 0
ENDMDL
