MODEL 1
REMARK minimizedAffinity 9.06809711
REMARK minimizedRMSD -1
REMARK  0 active torsions:
REMARK  status: ('A' for Active; 'I' for Inactive)
ROOT
ATOM      1  C1  BNZ d   1      -2.602   3.724  -3.731  0.00  0.00     0.000 A 
ATOM      2  C2  BNZ d   1      -2.787   3.739  -5.088  0.00  0.00     0.000 A 
ATOM      3  C3  BNZ d   1      -2.544   4.871  -5.815  0.00  0.00     0.000 A 
ATOM      4  C4  BNZ d   1      -2.155   5.996  -5.180  0.00  0.00     0.000 A 
ATOM      5  C5  BNZ d   1      -1.973   5.999  -3.811  0.00  0.00     0.000 A 
ATOM      6  C6  BNZ d   1      -2.181   4.847  -3.088  0.00  0.00     0.000 A 
ENDROOT
TORSDOF 0
ENDMDL
