MODEL 1
REMARK minimizedAffinity 8.18828487
REMARK minimizedRMSD -1
REMARK  0 active torsions:
REMARK  status: ('A' for Active; 'I' for Inactive)
ROOT
ATOM      1  C1  BNZ d   1       0.796  -3.639  -3.681  0.00  0.00     0.000 A 
ATOM      2  C2  BNZ d   1       1.128  -3.655  -5.009  0.00  0.00     0.000 A 
ATOM      3  C3  BNZ d   1       1.247  -4.836  -5.686  0.00  0.00     0.000 A 
ATOM      4  C4  BNZ d   1       1.074  -5.999  -5.026  0.00  0.00     0.000 A 
ATOM      5  C5  BNZ d   1       0.748  -6.000  -3.685  0.00  0.00     0.000 A 
ATOM      6  C6  BNZ d   1       0.590  -4.808  -3.015  0.00  0.00     0.000 A 
ENDROOT
TORSDOF 0
ENDMDL
