MODEL 1
REMARK minimizedAffinity 12.2059536
REMARK minimizedRMSD -1
REMARK  0 active torsions:
REMARK  status: ('A' for Active; 'I' for Inactive)
ROOT
ATOM      1  C1  BNZ d   1       2.336  -2.050   1.076  0.00  0.00     0.000 A 
ATOM      2  C2  BNZ d   1       1.068  -2.568   1.050  0.00  0.00     0.000 A 
ATOM      3  C3  BNZ d   1       0.010  -1.855   1.539  0.00  0.00     0.000 A 
ATOM      4  C4  BNZ d   1       0.225  -0.643   2.091  0.00  0.00     0.000 A 
ATOM      5  C5  BNZ d   1       1.498  -0.111   2.133  0.00  0.00     0.000 A 
ATOM      6  C6  BNZ d   1       2.556  -0.815   1.604  0.00  0.00     0.000 A 
ENDROOT
TORSDOF 0
ENDMDL
