MODEL 1
REMARK minimizedAffinity 3.77441955
REMARK minimizedRMSD -1
REMARK  0 active torsions:
REMARK  status: ('A' for Active; 'I' for Inactive)
ROOT
ATOM      1  C1  BNZ d   1       1.346  -0.876   3.343  0.00  0.00     0.000 A 
ATOM      2  C2  BNZ d   1       0.263  -1.673   3.088  0.00  0.00     0.000 A 
ATOM      3  C3  BNZ d   1       0.248  -2.509   2.006  0.00  0.00     0.000 A 
ATOM      4  C4  BNZ d   1       1.298  -2.516   1.159  0.00  0.00     0.000 A 
ATOM      5  C5  BNZ d   1       2.393  -1.711   1.398  0.00  0.00     0.000 A 
ATOM      6  C6  BNZ d   1       2.421  -0.900   2.509  0.00  0.00     0.000 A 
ENDROOT
TORSDOF 0
ENDMDL
