MODEL 1
REMARK minimizedAffinity 6.78329754
REMARK minimizedRMSD -1
REMARK  0 active torsions:
REMARK  status: ('A' for Active; 'I' for Inactive)
ROOT
ATOM      1  C1  BNZ d   1      -4.083  -4.677   0.744  0.00  0.00     0.000 A 
ATOM      2  C2  BNZ d   1      -4.253  -3.380   1.149  0.00  0.00     0.000 A 
ATOM      3  C3  BNZ d   1      -4.228  -3.052   2.476  0.00  0.00     0.000 A 
ATOM      4  C4  BNZ d   1      -4.073  -4.025   3.397  0.00  0.00     0.000 A 
ATOM      5  C5  BNZ d   1      -3.910  -5.339   3.005  0.00  0.00     0.000 A 
ATOM      6  C6  BNZ d   1      -3.896  -5.660   1.667  0.00  0.00     0.000 A 
ENDROOT
TORSDOF 0
ENDMDL
