MODEL 1
REMARK minimizedAffinity 2.30437613
REMARK minimizedRMSD -1
REMARK  0 active torsions:
REMARK  status: ('A' for Active; 'I' for Inactive)
ROOT
ATOM      1  C1  BNZ d   1      -2.293   3.760  -3.972  0.00  0.00     0.000 A 
ATOM      2  C2  BNZ d   1      -2.276   3.804  -5.340  0.00  0.00     0.000 A 
ATOM      3  C3  BNZ d   1      -1.837   4.918  -6.000  0.00  0.00     0.000 A 
ATOM      4  C4  BNZ d   1      -1.453   5.999  -5.291  0.00  0.00     0.000 A 
ATOM      5  C5  BNZ d   1      -1.474   5.974  -3.911  0.00  0.00     0.000 A 
ATOM      6  C6  BNZ d   1      -1.880   4.837  -3.250  0.00  0.00     0.000 A 
ENDROOT
TORSDOF 0
ENDMDL
