MODEL 1
REMARK minimizedAffinity -1.97128928
REMARK minimizedRMSD -1
REMARK  0 active torsions:
REMARK  status: ('A' for Active; 'I' for Inactive)
ROOT
ATOM      1  C1  BNZ d   1      -4.066  -4.913   2.768  0.00  0.00     0.000 A 
ATOM      2  C2  BNZ d   1      -4.035  -5.998   1.933  0.00  0.00     0.000 A 
ATOM      3  C3  BNZ d   1      -3.994  -5.836   0.577  0.00  0.00     0.000 A 
ATOM      4  C4  BNZ d   1      -4.025  -4.592   0.056  0.00  0.00     0.000 A 
ATOM      5  C5  BNZ d   1      -4.066  -3.489   0.885  0.00  0.00     0.000 A 
ATOM      6  C6  BNZ d   1      -4.068  -3.655   2.251  0.00  0.00     0.000 A 
ENDROOT
TORSDOF 0
ENDMDL
