MODEL 1
REMARK minimizedAffinity -2.60371566
REMARK minimizedRMSD -1
REMARK  0 active torsions:
REMARK  status: ('A' for Active; 'I' for Inactive)
ROOT
ATOM      1  C1  BNZ d   1      -5.447  -5.476   3.639  0.00  0.00     0.000 A 
ATOM      2  C2  BNZ d   1      -4.605  -4.397   3.675  0.00  0.00     0.000 A 
ATOM      3  C3  BNZ d   1      -4.298  -3.788   4.860  0.00  0.00     0.000 A 
ATOM      4  C4  BNZ d   1      -4.864  -4.233   6.000  0.00  0.00     0.000 A 
ATOM      5  C5  BNZ d   1      -5.723  -5.313   5.979  0.00  0.00     0.000 A 
ATOM      6  C6  BNZ d   1      -5.999  -5.948   4.790  0.00  0.00     0.000 A 
ENDROOT
TORSDOF 0
ENDMDL
