MODEL 1
REMARK minimizedAffinity 11.9748373
REMARK minimizedRMSD -1
REMARK  0 active torsions:
REMARK  status: ('A' for Active; 'I' for Inactive)
ROOT
ATOM      1  C1  BNZ d   1       1.231   2.816   0.307  0.00  0.00     0.000 A 
ATOM      2  C2  BNZ d   1       0.337   1.961  -0.280  0.00  0.00     0.000 A 
ATOM      3  C3  BNZ d   1      -0.267   2.282  -1.463  0.00  0.00     0.000 A 
ATOM      4  C4  BNZ d   1      -0.007   3.474  -2.038  0.00  0.00     0.000 A 
ATOM      5  C5  BNZ d   1       0.885   4.352  -1.454  0.00  0.00     0.000 A 
ATOM      6  C6  BNZ d   1       1.521   4.008  -0.283  0.00  0.00     0.000 A 
ENDROOT
TORSDOF 0
ENDMDL
