MODEL 1
REMARK minimizedAffinity 2.22461867
REMARK minimizedRMSD -1
REMARK  0 active torsions:
REMARK  status: ('A' for Active; 'I' for Inactive)
ROOT
ATOM      1  C1  BNZ d   1       1.123  -6.000  -3.923  0.00  0.00     0.000 A 
ATOM      2  C2  BNZ d   1       1.122  -4.857  -3.169  0.00  0.00     0.000 A 
ATOM      3  C3  BNZ d   1       1.664  -3.699  -3.652  0.00  0.00     0.000 A 
ATOM      4  C4  BNZ d   1       2.243  -3.696  -4.870  0.00  0.00     0.000 A 
ATOM      5  C5  BNZ d   1       2.260  -4.842  -5.639  0.00  0.00     0.000 A 
ATOM      6  C6  BNZ d   1       1.679  -5.996  -5.166  0.00  0.00     0.000 A 
ENDROOT
TORSDOF 0
ENDMDL
