MODEL 1
REMARK minimizedAffinity 12.5790701
REMARK minimizedRMSD -1
REMARK  0 active torsions:
REMARK  status: ('A' for Active; 'I' for Inactive)
ROOT
ATOM      1  C1  BNZ d   1      -3.214   5.076  -1.936  0.00  0.00     0.000 A 
ATOM      2  C2  BNZ d   1      -2.158   4.586  -2.657  0.00  0.00     0.000 A 
ATOM      3  C3  BNZ d   1      -2.094   3.262  -2.993  0.00  0.00     0.000 A 
ATOM      4  C4  BNZ d   1      -3.064   2.424  -2.575  0.00  0.00     0.000 A 
ATOM      5  C5  BNZ d   1      -4.131   2.901  -1.839  0.00  0.00     0.000 A 
ATOM      6  C6  BNZ d   1      -4.212   4.241  -1.536  0.00  0.00     0.000 A 
ENDROOT
TORSDOF 0
ENDMDL
