MODEL 1
REMARK minimizedAffinity 4.79915619
REMARK minimizedRMSD -1
REMARK  2 active torsions:
REMARK  status: ('A' for Active; 'I' for Inactive)
REMARK    1  A    between atoms: C2'_3  and  C1'_4 
REMARK    2  A    between atoms: C1'_4  and  C1_5 
ROOT
ATOM      1  C1  I4B d   1       1.545  -0.567  -5.115  0.00  0.00    -0.075 A 
ATOM      2  C2  I4B d   1       2.580  -0.392  -6.000  0.00  0.00     0.003 A 
ATOM      3  C3  I4B d   1       3.888  -0.812  -5.658  0.00  0.00     0.002 A 
ATOM      4  C4  I4B d   1       4.125  -1.351  -4.410  0.00  0.00    -0.004 A 
ATOM      5  C5  I4B d   1       3.070  -1.548  -3.523  0.00  0.00     0.002 A 
ATOM      6  C6  I4B d   1       1.770  -1.165  -3.882  0.00  0.00     0.003 A 
ENDROOT
BRANCH   1   7
ATOM      7  C1' I4B d   1       0.182  -0.082  -5.496  0.00  0.00     0.060 C 
BRANCH   7   8
ATOM      8  C2' I4B d   1      -0.837  -0.991  -4.838  0.00  0.00    -0.013 C 
ATOM      9  C4' I4B d   1      -2.201  -0.353  -4.816  0.00  0.00     0.013 C 
ATOM     10  C3' I4B d   1      -0.857  -2.286  -5.593  0.00  0.00     0.013 C 
ENDBRANCH   7   8
ENDBRANCH   1   7
TORSDOF 2
ENDMDL
