MODEL 1
REMARK minimizedAffinity 6.24101877
REMARK minimizedRMSD -1
REMARK  2 active torsions:
REMARK  status: ('A' for Active; 'I' for Inactive)
REMARK    1  A    between atoms: C2'_3  and  C1'_4 
REMARK    2  A    between atoms: C1'_4  and  C1_5 
ROOT
ATOM      1  C1  I4B d   1       0.754  -1.493   3.204  0.00  0.00    -0.075 A 
ATOM      2  C2  I4B d   1      -0.159  -2.508   3.064  0.00  0.00     0.003 A 
ATOM      3  C3  I4B d   1      -1.479  -2.225   2.635  0.00  0.00     0.002 A 
ATOM      4  C4  I4B d   1      -1.854  -0.917   2.408  0.00  0.00    -0.004 A 
ATOM      5  C5  I4B d   1      -0.921   0.108   2.529  0.00  0.00     0.002 A 
ATOM      6  C6  I4B d   1       0.395  -0.182   2.918  0.00  0.00     0.003 A 
ENDROOT
BRANCH   1   7
ATOM      7  C1' I4B d   1       2.130  -1.823   3.691  0.00  0.00     0.060 C 
BRANCH   7   8
ATOM      8  C2' I4B d   1       2.456  -0.887   4.837  0.00  0.00    -0.013 C 
ATOM      9  C4' I4B d   1       1.524  -1.102   6.000  0.00  0.00     0.013 C 
ATOM     10  C3' I4B d   1       3.883  -1.124   5.236  0.00  0.00     0.013 C 
ENDBRANCH   7   8
ENDBRANCH   1   7
TORSDOF 2
ENDMDL
