MODEL 1
REMARK minimizedAffinity 4.26754665
REMARK minimizedRMSD -1
REMARK  2 active torsions:
REMARK  status: ('A' for Active; 'I' for Inactive)
REMARK    1  A    between atoms: C2'_3  and  C1'_4 
REMARK    2  A    between atoms: C1'_4  and  C1_5 
ROOT
ATOM      1  C1  I4B d   1       2.790  -0.193  -5.305  0.00  0.00    -0.075 A 
ATOM      2  C2  I4B d   1       3.931   0.125  -6.000  0.00  0.00     0.003 A 
ATOM      3  C3  I4B d   1       5.201  -0.024  -5.391  0.00  0.00     0.002 A 
ATOM      4  C4  I4B d   1       5.281  -0.442  -4.079  0.00  0.00    -0.004 A 
ATOM      5  C5  I4B d   1       4.125  -0.786  -3.384  0.00  0.00     0.002 A 
ATOM      6  C6  I4B d   1       2.872  -0.672  -4.004  0.00  0.00     0.003 A 
ENDROOT
BRANCH   1   7
ATOM      7  C1' I4B d   1       1.464   0.008  -5.967  0.00  0.00     0.060 C 
BRANCH   7   8
ATOM      8  C2' I4B d   1       0.395  -0.545  -5.047  0.00  0.00    -0.013 C 
ATOM      9  C4' I4B d   1      -0.753   0.420  -4.904  0.00  0.00     0.013 C 
ATOM     10  C3' I4B d   1      -0.067  -1.856  -5.608  0.00  0.00     0.013 C 
ENDBRANCH   7   8
ENDBRANCH   1   7
TORSDOF 2
ENDMDL
