MODEL 1
REMARK minimizedAffinity 7.18332624
REMARK minimizedRMSD -1
REMARK  2 active torsions:
REMARK  status: ('A' for Active; 'I' for Inactive)
REMARK    1  A    between atoms: C2'_3  and  C1'_4 
REMARK    2  A    between atoms: C1'_4  and  C1_5 
ROOT
ATOM      1  C1  I4B d   1       3.210  -0.731  -4.553  0.00  0.00    -0.075 A 
ATOM      2  C2  I4B d   1       3.697  -0.490  -5.813  0.00  0.00     0.003 A 
ATOM      3  C3  I4B d   1       5.061  -0.160  -6.000  0.00  0.00     0.002 A 
ATOM      4  C4  I4B d   1       5.885  -0.032  -4.901  0.00  0.00    -0.004 A 
ATOM      5  C5  I4B d   1       5.395  -0.299  -3.625  0.00  0.00     0.002 A 
ATOM      6  C6  I4B d   1       4.052  -0.662  -3.451  0.00  0.00     0.003 A 
ENDROOT
BRANCH   1   7
ATOM      7  C1' I4B d   1       1.756  -1.045  -4.389  0.00  0.00     0.060 C 
BRANCH   7   8
ATOM      8  C2' I4B d   1       1.047  -0.650  -5.668  0.00  0.00    -0.013 C 
ATOM      9  C4' I4B d   1      -0.418  -0.994  -5.607  0.00  0.00     0.013 C 
ATOM     10  C3' I4B d   1       1.249   0.821  -5.875  0.00  0.00     0.013 C 
ENDBRANCH   7   8
ENDBRANCH   1   7
TORSDOF 2
ENDMDL
