MODEL 1
REMARK minimizedAffinity 5.53712368
REMARK minimizedRMSD -1
REMARK  2 active torsions:
REMARK  status: ('A' for Active; 'I' for Inactive)
REMARK    1  A    between atoms: C2'_3  and  C1'_4 
REMARK    2  A    between atoms: C1'_4  and  C1_5 
ROOT
ATOM      1  C1  I4B d   1       0.745  -1.724   3.152  0.00  0.00    -0.075 A 
ATOM      2  C2  I4B d   1      -0.059  -2.828   3.014  0.00  0.00     0.003 A 
ATOM      3  C3  I4B d   1      -1.407  -2.681   2.609  0.00  0.00     0.002 A 
ATOM      4  C4  I4B d   1      -1.921  -1.418   2.402  0.00  0.00    -0.004 A 
ATOM      5  C5  I4B d   1      -1.099  -0.301   2.520  0.00  0.00     0.002 A 
ATOM      6  C6  I4B d   1       0.246  -0.455   2.886  0.00  0.00     0.003 A 
ENDROOT
BRANCH   1   7
ATOM      7  C1' I4B d   1       2.156  -1.912   3.614  0.00  0.00     0.060 C 
BRANCH   7   8
ATOM      8  C2' I4B d   1       2.336  -1.126   4.896  0.00  0.00    -0.013 C 
ATOM      9  C4' I4B d   1       1.468  -1.673   5.998  0.00  0.00     0.013 C 
ATOM     10  C3' I4B d   1       3.787  -1.179   5.272  0.00  0.00     0.013 C 
ENDBRANCH   7   8
ENDBRANCH   1   7
TORSDOF 2
ENDMDL
