MODEL 1
REMARK minimizedAffinity 7.15065289
REMARK minimizedRMSD -1
REMARK  2 active torsions:
REMARK  status: ('A' for Active; 'I' for Inactive)
REMARK    1  A    between atoms: C2'_3  and  C1'_4 
REMARK    2  A    between atoms: C1'_4  and  C1_5 
ROOT
ATOM      1  C1  I4B d   1       0.356  -1.881   3.547  0.00  0.00    -0.075 A 
ATOM      2  C2  I4B d   1       1.061  -1.702   4.711  0.00  0.00     0.003 A 
ATOM      3  C3  I4B d   1       2.446  -1.412   4.668  0.00  0.00     0.002 A 
ATOM      4  C4  I4B d   1       3.092  -1.361   3.450  0.00  0.00    -0.004 A 
ATOM      5  C5  I4B d   1       2.372  -1.520   2.270  0.00  0.00     0.002 A 
ATOM      6  C6  I4B d   1       0.992  -1.769   2.318  0.00  0.00     0.003 A 
ENDROOT
BRANCH   1   7
ATOM      7  C1' I4B d   1      -1.099  -2.218   3.630  0.00  0.00     0.060 C 
BRANCH   7   8
ATOM      8  C2' I4B d   1      -1.814  -1.477   2.518  0.00  0.00    -0.013 C 
ATOM      9  C4' I4B d   1      -2.116  -2.392   1.360  0.00  0.00     0.013 C 
ATOM     10  C3' I4B d   1      -3.071  -0.890   3.087  0.00  0.00     0.013 C 
ENDBRANCH   7   8
ENDBRANCH   1   7
TORSDOF 2
ENDMDL
