MODEL 1
REMARK minimizedAffinity -0.0949368477
REMARK minimizedRMSD -1
REMARK  2 active torsions:
REMARK  status: ('A' for Active; 'I' for Inactive)
REMARK    1  A    between atoms: C2'_3  and  C1'_4 
REMARK    2  A    between atoms: C1'_4  and  C1_5 
ROOT
ATOM      1  C1  I4B d   1       2.330  -0.740  -5.317  0.00  0.00    -0.075 A 
ATOM      2  C2  I4B d   1       1.118  -0.428  -5.882  0.00  0.00     0.003 A 
ATOM      3  C3  I4B d   1      -0.084  -0.868  -5.277  0.00  0.00     0.002 A 
ATOM      4  C4  I4B d   1      -0.028  -1.655  -4.145  0.00  0.00    -0.004 A 
ATOM      5  C5  I4B d   1       1.201  -1.951  -3.561  0.00  0.00     0.002 A 
ATOM      6  C6  I4B d   1       2.387  -1.481  -4.144  0.00  0.00     0.003 A 
ENDROOT
BRANCH   1   7
ATOM      7  C1' I4B d   1       3.581  -0.287  -6.000  0.00  0.00     0.060 C 
BRANCH   7   8
ATOM      8  C2' I4B d   1       4.756  -0.944  -5.305  0.00  0.00    -0.013 C 
ATOM      9  C4' I4B d   1       4.921  -2.374  -5.748  0.00  0.00     0.013 C 
ATOM     10  C3' I4B d   1       5.984  -0.139  -5.609  0.00  0.00     0.013 C 
ENDBRANCH   7   8
ENDBRANCH   1   7
TORSDOF 2
ENDMDL
