MODEL 1
REMARK minimizedAffinity 13.0912304
REMARK minimizedRMSD -1
REMARK  1 active torsions:
REMARK  status: ('A' for Active; 'I' for Inactive)
REMARK    1  A    between atoms: C1_2  and  C2_3 
ROOT
ATOM      1  C2  UNL d   1      -4.210   1.953  -1.167  0.00  0.00    -0.076 A 
ATOM      2  C3  UNL d   1      -5.349   2.726  -1.454  0.00  0.00     0.004 A 
ATOM      3  C4  UNL d   1      -5.996   3.448  -0.453  0.00  0.00    -0.003 A 
ATOM      4  C5  UNL d   1      -5.514   3.410   0.851  0.00  0.00     0.000 A 
ATOM      5  C6  UNL d   1      -4.376   2.663   1.150  0.00  0.00     0.000 A 
ATOM      6  C7  UNL d   1      -3.702   1.942   0.150  0.00  0.00    -0.073 A 
ATOM      7  C8  UNL d   1      -2.482   1.149   0.529  0.00  0.00     0.078 C 
ENDROOT
BRANCH   1   8
ATOM      8  C1  UNL d   1      -3.566   1.169  -2.288  0.00  0.00     0.053 C 
ATOM      9  C   UNL d   1      -4.379   1.214  -3.573  0.00  0.00     0.018 C 
ENDBRANCH   1   8
TORSDOF 1
ENDMDL
