MODEL 1
REMARK minimizedAffinity 16.8311653
REMARK minimizedRMSD -1
REMARK  1 active torsions:
REMARK  status: ('A' for Active; 'I' for Inactive)
REMARK    1  A    between atoms: C1_2  and  C2_3 
ROOT
ATOM      1  C2  UNL d   1      -0.170   3.532  -0.251  0.00  0.00    -0.076 A 
ATOM      2  C3  UNL d   1      -0.889   3.120  -1.386  0.00  0.00     0.004 A 
ATOM      3  C4  UNL d   1      -1.803   2.070  -1.315  0.00  0.00    -0.003 A 
ATOM      4  C5  UNL d   1      -2.015   1.416  -0.106  0.00  0.00     0.000 A 
ATOM      5  C6  UNL d   1      -1.323   1.823   1.035  0.00  0.00     0.000 A 
ATOM      6  C7  UNL d   1      -0.410   2.890   0.983  0.00  0.00    -0.073 A 
ATOM      7  C8  UNL d   1       0.312   3.283   2.243  0.00  0.00     0.078 C 
ENDROOT
BRANCH   1   8
ATOM      8  C1  UNL d   1       0.829   4.658  -0.395  0.00  0.00     0.053 C 
ATOM      9  C   UNL d   1       0.261   6.000   0.041  0.00  0.00     0.018 C 
ENDBRANCH   1   8
TORSDOF 1
ENDMDL
