MODEL 1
REMARK minimizedAffinity 6.68467999
REMARK minimizedRMSD -1
REMARK  1 active torsions:
REMARK  status: ('A' for Active; 'I' for Inactive)
REMARK    1  A    between atoms: C1_2  and  C2_3 
ROOT
ATOM      1  C2  UNL d   1       1.631  -2.857  -0.009  0.00  0.00    -0.076 A 
ATOM      2  C3  UNL d   1       1.858  -1.878  -0.993  0.00  0.00     0.004 A 
ATOM      3  C4  UNL d   1       1.707  -2.173  -2.347  0.00  0.00    -0.003 A 
ATOM      4  C5  UNL d   1       1.325  -3.452  -2.739  0.00  0.00     0.000 A 
ATOM      5  C6  UNL d   1       1.079  -4.430  -1.776  0.00  0.00     0.000 A 
ATOM      6  C7  UNL d   1       1.211  -4.144  -0.406  0.00  0.00    -0.073 A 
ATOM      7  C8  UNL d   1       0.938  -5.239   0.589  0.00  0.00     0.078 C 
ENDROOT
BRANCH   1   8
ATOM      8  C1  UNL d   1       1.838  -2.486   1.442  0.00  0.00     0.053 C 
ATOM      9  C   UNL d   1       1.051  -1.248   1.845  0.00  0.00     0.018 C 
ENDBRANCH   1   8
TORSDOF 1
ENDMDL
