MODEL 1
REMARK minimizedAffinity -2.08745861
REMARK minimizedRMSD -1
REMARK  1 active torsions:
REMARK  status: ('A' for Active; 'I' for Inactive)
REMARK    1  A    between atoms: C1_2  and  C2_3 
ROOT
ATOM      1  C2  UNL d   1       0.712  -4.391   3.112  0.00  0.00    -0.076 A 
ATOM      2  C3  UNL d   1       0.291  -3.165   3.657  0.00  0.00     0.004 A 
ATOM      3  C4  UNL d   1       0.563  -1.961   3.010  0.00  0.00    -0.003 A 
ATOM      4  C5  UNL d   1       1.260  -1.963   1.807  0.00  0.00     0.000 A 
ATOM      5  C6  UNL d   1       1.670  -3.171   1.243  0.00  0.00     0.000 A 
ATOM      6  C7  UNL d   1       1.389  -4.395   1.874  0.00  0.00    -0.073 A 
ATOM      7  C8  UNL d   1       1.860  -5.667   1.224  0.00  0.00     0.078 C 
ENDROOT
BRANCH   1   8
ATOM      8  C1  UNL d   1       0.411  -5.663   3.872  0.00  0.00     0.053 C 
ATOM      9  C   UNL d   1       1.483  -5.994   4.900  0.00  0.00     0.018 C 
ENDBRANCH   1   8
TORSDOF 1
ENDMDL
