MODEL 1
REMARK minimizedAffinity 7.02758884
REMARK minimizedRMSD -1
REMARK  1 active torsions:
REMARK  status: ('A' for Active; 'I' for Inactive)
REMARK    1  A    between atoms: C1_2  and  C2_3 
ROOT
ATOM      1  C2  UNL d   1       1.161  -1.840   3.437  0.00  0.00    -0.076 A 
ATOM      2  C3  UNL d   1       1.331  -0.516   3.879  0.00  0.00     0.004 A 
ATOM      3  C4  UNL d   1       1.859   0.460   3.036  0.00  0.00    -0.003 A 
ATOM      4  C5  UNL d   1       2.226   0.128   1.737  0.00  0.00     0.000 A 
ATOM      5  C6  UNL d   1       2.048  -1.176   1.275  0.00  0.00     0.000 A 
ATOM      6  C7  UNL d   1       1.502  -2.168   2.107  0.00  0.00    -0.073 A 
ATOM      7  C8  UNL d   1       1.338  -3.559   1.560  0.00  0.00     0.078 C 
ENDROOT
BRANCH   1   8
ATOM      8  C1  UNL d   1       0.609  -2.862   4.405  0.00  0.00     0.053 C 
ATOM      9  C   UNL d   1       1.262  -2.778   5.776  0.00  0.00     0.018 C 
ENDBRANCH   1   8
TORSDOF 1
ENDMDL
