MODEL 1
REMARK minimizedAffinity 9.55090809
REMARK minimizedRMSD -1
REMARK  1 active torsions:
REMARK  status: ('A' for Active; 'I' for Inactive)
REMARK    1  A    between atoms: C1_2  and  C2_3 
ROOT
ATOM      1  C2  UNL d   1       3.633  -3.049   3.865  0.00  0.00    -0.076 A 
ATOM      2  C3  UNL d   1       3.338  -2.219   2.769  0.00  0.00     0.004 A 
ATOM      3  C4  UNL d   1       2.024  -1.858   2.477  0.00  0.00    -0.003 A 
ATOM      4  C5  UNL d   1       0.984  -2.318   3.277  0.00  0.00     0.000 A 
ATOM      5  C6  UNL d   1       1.260  -3.128   4.378  0.00  0.00     0.000 A 
ATOM      6  C7  UNL d   1       2.580  -3.489   4.696  0.00  0.00    -0.073 A 
ATOM      7  C8  UNL d   1       2.820  -4.368   5.893  0.00  0.00     0.078 C 
ENDROOT
BRANCH   1   8
ATOM      8  C1  UNL d   1       5.074  -3.430   4.117  0.00  0.00     0.053 C 
ATOM      9  C   UNL d   1       5.998  -2.993   2.992  0.00  0.00     0.018 C 
ENDBRANCH   1   8
TORSDOF 1
ENDMDL
