MODEL 1
REMARK minimizedAffinity 12.7630873
REMARK minimizedRMSD -1
REMARK  1 active torsions:
REMARK  status: ('A' for Active; 'I' for Inactive)
REMARK    1  A    between atoms: C1_2  and  C2_3 
ROOT
ATOM      1  C2  UNL d   1       0.898  -3.001   1.684  0.00  0.00    -0.076 A 
ATOM      2  C3  UNL d   1       0.947  -3.841   0.558  0.00  0.00     0.004 A 
ATOM      3  C4  UNL d   1       1.469  -5.130   0.646  0.00  0.00    -0.003 A 
ATOM      4  C5  UNL d   1       1.950  -5.601   1.863  0.00  0.00     0.000 A 
ATOM      5  C6  UNL d   1       1.894  -4.788   2.994  0.00  0.00     0.000 A 
ATOM      6  C7  UNL d   1       1.356  -3.492   2.926  0.00  0.00    -0.073 A 
ATOM      7  C8  UNL d   1       1.325  -2.656   4.176  0.00  0.00     0.078 C 
ENDROOT
BRANCH   1   8
ATOM      8  C1  UNL d   1       0.346  -1.603   1.522  0.00  0.00     0.053 C 
ATOM      9  C   UNL d   1       1.431  -0.538   1.574  0.00  0.00     0.018 C 
ENDBRANCH   1   8
TORSDOF 1
ENDMDL
