MODEL 1
REMARK minimizedAffinity 9.75321865
REMARK minimizedRMSD -1
REMARK  1 active torsions:
REMARK  status: ('A' for Active; 'I' for Inactive)
REMARK    1  A    between atoms: C1_2  and  C2_3 
ROOT
ATOM      1  C2  UNL d   1      -4.117  -3.446  -4.777  0.00  0.00    -0.076 A 
ATOM      2  C3  UNL d   1      -3.504  -4.660  -4.420  0.00  0.00     0.004 A 
ATOM      3  C4  UNL d   1      -4.051  -5.881  -4.808  0.00  0.00    -0.003 A 
ATOM      4  C5  UNL d   1      -5.221  -5.909  -5.559  0.00  0.00     0.000 A 
ATOM      5  C6  UNL d   1      -5.833  -4.714  -5.936  0.00  0.00     0.000 A 
ATOM      6  C7  UNL d   1      -5.285  -3.474  -5.568  0.00  0.00    -0.073 A 
ATOM      7  C8  UNL d   1      -5.991  -2.217  -5.997  0.00  0.00     0.078 C 
ENDROOT
BRANCH   1   8
ATOM      8  C1  UNL d   1      -3.492  -2.153  -4.305  0.00  0.00     0.053 C 
ATOM      9  C   UNL d   1      -4.308  -1.475  -3.215  0.00  0.00     0.018 C 
ENDBRANCH   1   8
TORSDOF 1
ENDMDL
