MODEL 1
REMARK minimizedAffinity 13.8436546
REMARK minimizedRMSD -1
REMARK  1 active torsions:
REMARK  status: ('A' for Active; 'I' for Inactive)
REMARK    1  A    between atoms: C1_2  and  C2_3 
ROOT
ATOM      1  C2  UNL d   1       2.202  -2.240   2.620  0.00  0.00    -0.076 A 
ATOM      2  C3  UNL d   1       2.864  -1.616   1.549  0.00  0.00     0.004 A 
ATOM      3  C4  UNL d   1       2.571  -0.301   1.192  0.00  0.00    -0.003 A 
ATOM      4  C5  UNL d   1       1.610   0.412   1.901  0.00  0.00     0.000 A 
ATOM      5  C6  UNL d   1       0.955  -0.186   2.977  0.00  0.00     0.000 A 
ATOM      6  C7  UNL d   1       1.251  -1.505   3.360  0.00  0.00    -0.073 A 
ATOM      7  C8  UNL d   1       0.510  -2.102   4.526  0.00  0.00     0.078 C 
ENDROOT
BRANCH   1   8
ATOM      8  C1  UNL d   1       2.542  -3.677   2.944  0.00  0.00     0.053 C 
ATOM      9  C   UNL d   1       1.759  -4.667   2.095  0.00  0.00     0.018 C 
ENDBRANCH   1   8
TORSDOF 1
ENDMDL
