MODEL 1
REMARK minimizedAffinity 14.1035967
REMARK minimizedRMSD -1
REMARK  0 active torsions:
REMARK  status: ('A' for Active; 'I' for Inactive)
ROOT
ATOM      1  C   UNL d   1      -3.064  -0.067  -2.971  0.00  0.00    -0.002 A 
ATOM      2  C1  UNL d   1      -3.416   1.049  -2.224  0.00  0.00     0.010 A 
ATOM      3  C2  UNL d   1      -2.617   1.471  -1.159  0.00  0.00     0.041 A 
ATOM      4  C3  UNL d   1      -1.447   0.748  -0.856  0.00  0.00    -0.075 A 
ATOM      5  S   UNL d   1      -0.317   1.080   0.403  0.00  0.00     0.015 SA
ATOM      6  C4  UNL d   1       0.660  -0.250  -0.022  0.00  0.00     0.022 A 
ATOM      7  C5  UNL d   1       0.151  -0.943  -1.095  0.00  0.00     0.026 A 
ATOM      8  C6  UNL d   1      -1.072  -0.379  -1.593  0.00  0.00    -0.082 A 
ATOM      9  C7  UNL d   1      -1.903  -0.782  -2.666  0.00  0.00     0.045 A 
ENDROOT
TORSDOF 0
ENDMDL
