MODEL 1
REMARK minimizedAffinity 6.13681698
REMARK minimizedRMSD -1
REMARK  0 active torsions:
REMARK  status: ('A' for Active; 'I' for Inactive)
ROOT
ATOM      1  C   UNL d   1      -4.257   2.854  -3.964  0.00  0.00    -0.002 A 
ATOM      2  C1  UNL d   1      -3.717   4.094  -3.652  0.00  0.00     0.010 A 
ATOM      3  C2  UNL d   1      -2.540   4.189  -2.907  0.00  0.00     0.041 A 
ATOM      4  C3  UNL d   1      -1.907   3.005  -2.478  0.00  0.00    -0.075 A 
ATOM      5  S   UNL d   1      -0.457   2.878  -1.555  0.00  0.00     0.015 SA
ATOM      6  C4  UNL d   1      -0.519   1.175  -1.554  0.00  0.00     0.022 A 
ATOM      7  C5  UNL d   1      -1.613   0.698  -2.236  0.00  0.00     0.026 A 
ATOM      8  C6  UNL d   1      -2.431   1.745  -2.780  0.00  0.00    -0.082 A 
ATOM      9  C7  UNL d   1      -3.626   1.682  -3.536  0.00  0.00     0.045 A 
ENDROOT
TORSDOF 0
ENDMDL
