MODEL 1
REMARK minimizedAffinity 7.01789904
REMARK minimizedRMSD -1
REMARK  0 active torsions:
REMARK  status: ('A' for Active; 'I' for Inactive)
ROOT
ATOM      1  C   UNL d   1      -1.348   6.000   0.101  0.00  0.00    -0.002 A 
ATOM      2  C1  UNL d   1      -0.708   5.513  -1.030  0.00  0.00     0.010 A 
ATOM      3  C2  UNL d   1      -0.332   4.170  -1.111  0.00  0.00     0.041 A 
ATOM      4  C3  UNL d   1      -0.615   3.317  -0.026  0.00  0.00    -0.075 A 
ATOM      5  S   UNL d   1      -0.249   1.637   0.098  0.00  0.00     0.015 SA
ATOM      6  C4  UNL d   1      -0.933   1.526   1.655  0.00  0.00     0.022 A 
ATOM      7  C5  UNL d   1      -1.434   2.732   2.085  0.00  0.00     0.026 A 
ATOM      8  C6  UNL d   1      -1.259   3.784   1.124  0.00  0.00    -0.082 A 
ATOM      9  C7  UNL d   1      -1.626   5.150   1.175  0.00  0.00     0.045 A 
ENDROOT
TORSDOF 0
ENDMDL
