MODEL 1
REMARK minimizedAffinity 18.6695499
REMARK minimizedRMSD -1
REMARK  0 active torsions:
REMARK  status: ('A' for Active; 'I' for Inactive)
ROOT
ATOM      1  C   UNL d   1      -1.876   4.514  -2.561  0.00  0.00    -0.002 A 
ATOM      2  C1  UNL d   1      -3.193   4.330  -2.957  0.00  0.00     0.010 A 
ATOM      3  C2  UNL d   1      -3.767   3.057  -2.945  0.00  0.00     0.041 A 
ATOM      4  C3  UNL d   1      -2.988   1.962  -2.523  0.00  0.00    -0.075 A 
ATOM      5  S   UNL d   1      -3.480   0.312  -2.426  0.00  0.00     0.015 SA
ATOM      6  C4  UNL d   1      -1.954  -0.187  -1.856  0.00  0.00     0.022 A 
ATOM      7  C5  UNL d   1      -1.078   0.866  -1.737  0.00  0.00     0.026 A 
ATOM      8  C6  UNL d   1      -1.660   2.122  -2.119  0.00  0.00    -0.082 A 
ATOM      9  C7  UNL d   1      -1.106   3.425  -2.143  0.00  0.00     0.045 A 
ENDROOT
TORSDOF 0
ENDMDL
