MODEL 1
REMARK minimizedAffinity 7.92798281
REMARK minimizedRMSD -1
REMARK  0 active torsions:
REMARK  status: ('A' for Active; 'I' for Inactive)
ROOT
ATOM      1  C   UNL d   1       4.360  -5.575  -3.670  0.00  0.00    -0.002 A 
ATOM      2  C1  UNL d   1       4.801  -5.902  -2.396  0.00  0.00     0.010 A 
ATOM      3  C2  UNL d   1       3.926  -5.860  -1.309  0.00  0.00     0.041 A 
ATOM      4  C3  UNL d   1       2.587  -5.483  -1.526  0.00  0.00    -0.075 A 
ATOM      5  S   UNL d   1       1.336  -5.363  -0.346  0.00  0.00     0.015 SA
ATOM      6  C4  UNL d   1       0.186  -4.875  -1.505  0.00  0.00     0.022 A 
ATOM      7  C5  UNL d   1       0.726  -4.800  -2.767  0.00  0.00     0.026 A 
ATOM      8  C6  UNL d   1       2.118  -5.150  -2.800  0.00  0.00    -0.082 A 
ATOM      9  C7  UNL d   1       3.030  -5.201  -3.882  0.00  0.00     0.045 A 
ENDROOT
TORSDOF 0
ENDMDL
