MODEL 1
REMARK minimizedAffinity 5.19986534
REMARK minimizedRMSD -1
REMARK  0 active torsions:
REMARK  status: ('A' for Active; 'I' for Inactive)
ROOT
ATOM      1  C   UNL d   1      -5.974  -2.406   4.643  0.00  0.00    -0.002 A 
ATOM      2  C1  UNL d   1      -5.960  -1.023   4.758  0.00  0.00     0.010 A 
ATOM      3  C2  UNL d   1      -5.958  -0.215   3.620  0.00  0.00     0.041 A 
ATOM      4  C3  UNL d   1      -5.973  -0.826   2.350  0.00  0.00    -0.075 A 
ATOM      5  S   UNL d   1      -5.974  -0.038   0.817  0.00  0.00     0.015 SA
ATOM      6  C4  UNL d   1      -5.994  -1.518  -0.028  0.00  0.00     0.022 A 
ATOM      7  C5  UNL d   1      -5.999  -2.597   0.824  0.00  0.00     0.026 A 
ATOM      8  C6  UNL d   1      -5.987  -2.217   2.208  0.00  0.00    -0.082 A 
ATOM      9  C7  UNL d   1      -5.988  -3.009   3.382  0.00  0.00     0.045 A 
ENDROOT
TORSDOF 0
ENDMDL
