MODEL 1
REMARK minimizedAffinity 1.22817671
REMARK minimizedRMSD -1
REMARK  0 active torsions:
REMARK  status: ('A' for Active; 'I' for Inactive)
ROOT
ATOM      1  C   UNL d   1       1.116   0.013   3.031  0.00  0.00    -0.002 A 
ATOM      2  C1  UNL d   1       0.377   1.187   3.008  0.00  0.00     0.010 A 
ATOM      3  C2  UNL d   1      -0.053   1.732   1.796  0.00  0.00     0.041 A 
ATOM      4  C3  UNL d   1       0.274   1.069   0.597  0.00  0.00    -0.075 A 
ATOM      5  S   UNL d   1      -0.146   1.550  -1.005  0.00  0.00     0.015 SA
ATOM      6  C4  UNL d   1       0.646   0.208  -1.695  0.00  0.00     0.022 A 
ATOM      7  C5  UNL d   1       1.222  -0.597  -0.742  0.00  0.00     0.026 A 
ATOM      8  C6  UNL d   1       1.017  -0.115   0.595  0.00  0.00    -0.082 A 
ATOM      9  C7  UNL d   1       1.439  -0.641   1.840  0.00  0.00     0.045 A 
ENDROOT
TORSDOF 0
ENDMDL
