MODEL 1
REMARK minimizedAffinity 6.20329332
REMARK minimizedRMSD -1
REMARK  0 active torsions:
REMARK  status: ('A' for Active; 'I' for Inactive)
ROOT
ATOM      1  N1  IND d   1       3.933   1.196  -5.469  0.00  0.00    -0.196 N 
ATOM      2  C2  IND d   1       5.193   1.199  -5.999  0.00  0.00     0.054 A 
ATOM      3  C3  IND d   1       5.825   0.038  -5.716  0.00  0.00    -0.031 A 
ATOM      4  C4  IND d   1       4.946  -2.044  -4.483  0.00  0.00     0.051 A 
ATOM      5  C5  IND d   1       3.866  -2.507  -3.785  0.00  0.00    -0.031 A 
ATOM      6  C6  IND d   1       2.729  -1.744  -3.611  0.00  0.00     0.015 A 
ATOM      7  C7  IND d   1       2.625  -0.489  -4.141  0.00  0.00    -0.016 A 
ATOM      8  C8  IND d   1       3.722  -0.014  -4.845  0.00  0.00    -0.047 A 
ATOM      9  C9  IND d   1       4.895  -0.766  -4.988  0.00  0.00    -0.096 A 
ATOM     10  HN1 IND d   1       3.367   1.842  -5.517  0.00  0.00     0.298 HD
ENDROOT
TORSDOF 0
ENDMDL
