MODEL 1
REMARK minimizedAffinity 14.1933956
REMARK minimizedRMSD -1
REMARK  0 active torsions:
REMARK  status: ('A' for Active; 'I' for Inactive)
ROOT
ATOM      1  N1  IND d   1      -3.485   2.232   0.548  0.00  0.00    -0.196 N 
ATOM      2  C2  IND d   1      -2.148   2.200   0.832  0.00  0.00     0.054 A 
ATOM      3  C3  IND d   1      -1.438   1.920  -0.283  0.00  0.00    -0.031 A 
ATOM      4  C4  IND d   1      -2.254   1.580  -2.701  0.00  0.00     0.051 A 
ATOM      5  C5  IND d   1      -3.394   1.481  -3.449  0.00  0.00    -0.031 A 
ATOM      6  C6  IND d   1      -4.647   1.632  -2.892  0.00  0.00     0.015 A 
ATOM      7  C7  IND d   1      -4.808   1.902  -1.562  0.00  0.00    -0.016 A 
ATOM      8  C8  IND d   1      -3.653   1.996  -0.798  0.00  0.00    -0.047 A 
ATOM      9  C9  IND d   1      -2.381   1.801  -1.350  0.00  0.00    -0.096 A 
ATOM     10  HN1 IND d   1      -4.115   2.376   1.116  0.00  0.00     0.298 HD
ENDROOT
TORSDOF 0
ENDMDL
