MODEL 1
REMARK minimizedAffinity 1.91884947
REMARK minimizedRMSD -1
REMARK  0 active torsions:
REMARK  status: ('A' for Active; 'I' for Inactive)
ROOT
ATOM      1  N1  IND d   1       4.957  -1.992   2.667  0.00  0.00    -0.196 N 
ATOM      2  C2  IND d   1       5.382  -2.514   3.857  0.00  0.00     0.054 A 
ATOM      3  C3  IND d   1       4.327  -2.767   4.663  0.00  0.00    -0.031 A 
ATOM      4  C4  IND d   1       1.810  -2.496   4.196  0.00  0.00     0.051 A 
ATOM      5  C5  IND d   1       0.932  -2.021   3.262  0.00  0.00    -0.031 A 
ATOM      6  C6  IND d   1       1.360  -1.504   2.056  0.00  0.00     0.015 A 
ATOM      7  C7  IND d   1       2.687  -1.453   1.734  0.00  0.00    -0.016 A 
ATOM      8  C8  IND d   1       3.581  -1.928   2.683  0.00  0.00    -0.047 A 
ATOM      9  C9  IND d   1       3.155  -2.414   3.926  0.00  0.00    -0.096 A 
ATOM     10  HN1 IND d   1       5.464  -1.745   2.018  0.00  0.00     0.298 HD
ENDROOT
TORSDOF 0
ENDMDL
