MODEL 1
REMARK minimizedAffinity 17.5966873
REMARK minimizedRMSD -1
REMARK  0 active torsions:
REMARK  status: ('A' for Active; 'I' for Inactive)
ROOT
ATOM      1  N1  IND d   1       2.857  -0.713   1.309  0.00  0.00    -0.196 N 
ATOM      2  C2  IND d   1       1.527  -0.712   1.624  0.00  0.00     0.054 A 
ATOM      3  C3  IND d   1       0.777  -0.748   0.499  0.00  0.00    -0.031 A 
ATOM      4  C4  IND d   1       1.524  -0.914  -1.959  0.00  0.00     0.051 A 
ATOM      5  C5  IND d   1       2.639  -0.907  -2.749  0.00  0.00    -0.031 A 
ATOM      6  C6  IND d   1       3.910  -0.836  -2.216  0.00  0.00     0.015 A 
ATOM      7  C7  IND d   1       4.114  -0.781  -0.866  0.00  0.00    -0.016 A 
ATOM      8  C8  IND d   1       2.983  -0.781  -0.061  0.00  0.00    -0.047 A 
ATOM      9  C9  IND d   1       1.690  -0.810  -0.598  0.00  0.00    -0.096 A 
ATOM     10  HN1 IND d   1       3.506  -0.676   1.872  0.00  0.00     0.298 HD
ENDROOT
TORSDOF 0
ENDMDL
