MODEL 1
REMARK minimizedAffinity 24.5963078
REMARK minimizedRMSD -1
REMARK  0 active torsions:
REMARK  status: ('A' for Active; 'I' for Inactive)
ROOT
ATOM      1  N1  IND d   1       2.576  -2.603  -0.762  0.00  0.00    -0.196 N 
ATOM      2  C2  IND d   1       3.010  -1.594  -1.576  0.00  0.00     0.054 A 
ATOM      3  C3  IND d   1       2.811  -0.394  -0.984  0.00  0.00    -0.031 A 
ATOM      4  C4  IND d   1       1.884   0.141   1.357  0.00  0.00     0.051 A 
ATOM      5  C5  IND d   1       1.321  -0.450   2.454  0.00  0.00    -0.031 A 
ATOM      6  C6  IND d   1       1.147  -1.816   2.537  0.00  0.00     0.015 A 
ATOM      7  C7  IND d   1       1.541  -2.647   1.527  0.00  0.00    -0.016 A 
ATOM      8  C8  IND d   1       2.106  -2.051   0.409  0.00  0.00    -0.047 A 
ATOM      9  C9  IND d   1       2.247  -0.661   0.301  0.00  0.00    -0.096 A 
ATOM     10  HN1 IND d   1       2.593  -3.442  -0.951  0.00  0.00     0.298 HD
ENDROOT
TORSDOF 0
ENDMDL
