MODEL 1
REMARK minimizedAffinity 7.20420599
REMARK minimizedRMSD -1
REMARK  0 active torsions:
REMARK  status: ('A' for Active; 'I' for Inactive)
ROOT
ATOM      1  C   UNL d   1      -4.886   5.189  -5.331  0.00  0.00     0.020 A 
ATOM      2  C1  UNL d   1      -5.995   4.344  -5.334  0.00  0.00     0.020 A 
ATOM      3  C2  UNL d   1      -6.000   3.196  -4.539  0.00  0.00     0.034 A 
ATOM      4  C3  UNL d   1      -4.894   2.889  -3.739  0.00  0.00     0.017 A 
ATOM      5  C4  UNL d   1      -3.781   3.738  -3.736  0.00  0.00     0.017 A 
ATOM      6  C5  UNL d   1      -3.781   4.886  -4.534  0.00  0.00     0.034 A 
ATOM      7 Cl   UNL d   1      -2.379   3.425  -2.775  0.00  0.00    -0.070 Cl
ATOM      8 Cl1  UNL d   1      -4.968   1.453  -2.781  0.00  0.00    -0.070 Cl
ENDROOT
TORSDOF 0
ENDMDL
