MODEL 1
REMARK minimizedAffinity 11.6286354
REMARK minimizedRMSD -1
REMARK  0 active torsions:
REMARK  status: ('A' for Active; 'I' for Inactive)
ROOT
ATOM      1  C   UNL d   1      -4.983   0.730  -1.276  0.00  0.00     0.020 A 
ATOM      2  C1  UNL d   1      -4.247   1.889  -1.031  0.00  0.00     0.020 A 
ATOM      3  C2  UNL d   1      -2.952   2.014  -1.540  0.00  0.00     0.034 A 
ATOM      4  C3  UNL d   1      -2.390   0.979  -2.296  0.00  0.00     0.017 A 
ATOM      5  C4  UNL d   1      -3.130  -0.183  -2.542  0.00  0.00     0.017 A 
ATOM      6  C5  UNL d   1      -4.425  -0.303  -2.030  0.00  0.00     0.034 A 
ATOM      7 Cl   UNL d   1      -2.503  -1.502  -3.467  0.00  0.00    -0.070 Cl
ATOM      8 Cl1  UNL d   1      -0.784   1.202  -2.894  0.00  0.00    -0.070 Cl
ENDROOT
TORSDOF 0
ENDMDL
