MODEL 1
REMARK minimizedAffinity 0.782764912
REMARK minimizedRMSD -1
REMARK  0 active torsions:
REMARK  status: ('A' for Active; 'I' for Inactive)
ROOT
ATOM      1  C   UNL d   1      -0.765   0.056  -4.454  0.00  0.00     0.020 A 
ATOM      2  C1  UNL d   1      -1.994  -0.449  -4.876  0.00  0.00     0.020 A 
ATOM      3  C2  UNL d   1      -2.084  -1.760  -5.350  0.00  0.00     0.034 A 
ATOM      4  C3  UNL d   1      -0.944  -2.569  -5.403  0.00  0.00     0.017 A 
ATOM      5  C4  UNL d   1       0.289  -2.061  -4.979  0.00  0.00     0.017 A 
ATOM      6  C5  UNL d   1       0.374  -0.748  -4.505  0.00  0.00     0.034 A 
ATOM      7 Cl   UNL d   1       1.740  -2.999  -5.014  0.00  0.00    -0.070 Cl
ATOM      8 Cl1  UNL d   1      -1.128  -4.180  -6.000  0.00  0.00    -0.070 Cl
ENDROOT
TORSDOF 0
ENDMDL
