MODEL 1
REMARK minimizedAffinity 8.39971066
REMARK minimizedRMSD -1
REMARK  0 active torsions:
REMARK  status: ('A' for Active; 'I' for Inactive)
ROOT
ATOM      1  C   UNL d   1       0.131   2.841   0.882  0.00  0.00     0.020 A 
ATOM      2  C1  UNL d   1       1.515   2.960   0.994  0.00  0.00     0.020 A 
ATOM      3  C2  UNL d   1       2.193   3.942   0.268  0.00  0.00     0.034 A 
ATOM      4  C3  UNL d   1       1.486   4.809  -0.574  0.00  0.00     0.017 A 
ATOM      5  C4  UNL d   1       0.096   4.688  -0.686  0.00  0.00     0.017 A 
ATOM      6  C5  UNL d   1      -0.577   3.703   0.044  0.00  0.00     0.034 A 
ATOM      7 Cl   UNL d   1      -0.845   5.721  -1.704  0.00  0.00    -0.070 Cl
ATOM      8 Cl1  UNL d   1       2.388   6.000  -1.441  0.00  0.00    -0.070 Cl
ENDROOT
TORSDOF 0
ENDMDL
