MODEL 1
REMARK minimizedAffinity 9.20436954
REMARK minimizedRMSD -1
REMARK  0 active torsions:
REMARK  status: ('A' for Active; 'I' for Inactive)
ROOT
ATOM      1  C   UNL d   1       0.319   3.123   1.139  0.00  0.00     0.020 A 
ATOM      2  C1  UNL d   1       1.671   3.466   1.146  0.00  0.00     0.020 A 
ATOM      3  C2  UNL d   1       2.170   4.356   0.193  0.00  0.00     0.034 A 
ATOM      4  C3  UNL d   1       1.317   4.906  -0.772  0.00  0.00     0.017 A 
ATOM      5  C4  UNL d   1      -0.039   4.560  -0.778  0.00  0.00     0.017 A 
ATOM      6  C5  UNL d   1      -0.534   3.669   0.179  0.00  0.00     0.034 A 
ATOM      7 Cl   UNL d   1      -1.153   5.198  -1.936  0.00  0.00    -0.070 Cl
ATOM      8 Cl1  UNL d   1       2.002   6.000  -1.920  0.00  0.00    -0.070 Cl
ENDROOT
TORSDOF 0
ENDMDL
