MODEL 1
REMARK minimizedAffinity 4.17481804
REMARK minimizedRMSD -1
REMARK  0 active torsions:
REMARK  status: ('A' for Active; 'I' for Inactive)
ROOT
ATOM      1  C   UNL d   1       1.785  -0.724  -1.212  0.00  0.00     0.020 A 
ATOM      2  C1  UNL d   1       1.922  -0.052   0.003  0.00  0.00     0.020 A 
ATOM      3  C2  UNL d   1       1.229   1.139   0.224  0.00  0.00     0.034 A 
ATOM      4  C3  UNL d   1       0.395   1.664  -0.771  0.00  0.00     0.017 A 
ATOM      5  C4  UNL d   1       0.257   0.989  -1.989  0.00  0.00     0.017 A 
ATOM      6  C5  UNL d   1       0.954  -0.204  -2.205  0.00  0.00     0.034 A 
ATOM      7 Cl   UNL d   1      -0.753   1.574  -3.264  0.00  0.00    -0.070 Cl
ATOM      8 Cl1  UNL d   1      -0.433   3.141  -0.429  0.00  0.00    -0.070 Cl
ENDROOT
TORSDOF 0
ENDMDL
