MODEL 1
REMARK minimizedAffinity 4.84800768
REMARK minimizedRMSD -1
REMARK  0 active torsions:
REMARK  status: ('A' for Active; 'I' for Inactive)
ROOT
ATOM      1  C   UNL d   1       5.089  -4.938  -1.493  0.00  0.00     0.020 A 
ATOM      2  C1  UNL d   1       5.731  -3.703  -1.571  0.00  0.00     0.020 A 
ATOM      3  C2  UNL d   1       5.019  -2.529  -1.316  0.00  0.00     0.034 A 
ATOM      4  C3  UNL d   1       3.661  -2.588  -0.981  0.00  0.00     0.017 A 
ATOM      5  C4  UNL d   1       3.018  -3.829  -0.903  0.00  0.00     0.017 A 
ATOM      6  C5  UNL d   1       3.736  -5.001  -1.159  0.00  0.00     0.034 A 
ATOM      7 Cl   UNL d   1       1.345  -3.981  -0.495  0.00  0.00    -0.070 Cl
ATOM      8 Cl1  UNL d   1       2.843  -1.097  -0.678  0.00  0.00    -0.070 Cl
ENDROOT
TORSDOF 0
ENDMDL
