MODEL 1
REMARK minimizedAffinity 8.12341595
REMARK minimizedRMSD -1
REMARK  0 active torsions:
REMARK  status: ('A' for Active; 'I' for Inactive)
ROOT
ATOM      1  C   UNL d   1       1.509   3.758  -0.489  0.00  0.00     0.020 A 
ATOM      2  C1  UNL d   1       1.236   3.559   0.864  0.00  0.00     0.020 A 
ATOM      3  C2  UNL d   1       0.051   2.931   1.252  0.00  0.00     0.034 A 
ATOM      4  C3  UNL d   1      -0.866   2.499   0.286  0.00  0.00     0.017 A 
ATOM      5  C4  UNL d   1      -0.590   2.699  -1.072  0.00  0.00     0.017 A 
ATOM      6  C5  UNL d   1       0.598   3.329  -1.454  0.00  0.00     0.034 A 
ATOM      7 Cl   UNL d   1      -1.672   2.194  -2.321  0.00  0.00    -0.070 Cl
ATOM      8 Cl1  UNL d   1      -2.311   1.729   0.837  0.00  0.00    -0.070 Cl
ENDROOT
TORSDOF 0
ENDMDL
