MODEL 1
REMARK minimizedAffinity 4.32082844
REMARK minimizedRMSD -1
REMARK  0 active torsions:
REMARK  status: ('A' for Active; 'I' for Inactive)
ROOT
ATOM      1  C   UNL d   1      -4.126   5.336  -5.307  0.00  0.00     0.020 A 
ATOM      2  C1  UNL d   1      -5.441   5.001  -5.628  0.00  0.00     0.020 A 
ATOM      3  C2  UNL d   1      -6.000   3.819  -5.137  0.00  0.00     0.034 A 
ATOM      4  C3  UNL d   1      -5.244   2.968  -4.323  0.00  0.00     0.017 A 
ATOM      5  C4  UNL d   1      -3.924   3.306  -4.001  0.00  0.00     0.017 A 
ATOM      6  C5  UNL d   1      -3.369   4.490  -4.495  0.00  0.00     0.034 A 
ATOM      7 Cl   UNL d   1      -2.929   2.306  -3.002  0.00  0.00    -0.070 Cl
ATOM      8 Cl1  UNL d   1      -5.999   1.523  -3.751  0.00  0.00    -0.070 Cl
ENDROOT
TORSDOF 0
ENDMDL
