MODEL 1
REMARK minimizedAffinity 10.7914572
REMARK minimizedRMSD -1
REMARK  0 active torsions:
REMARK  status: ('A' for Active; 'I' for Inactive)
ROOT
ATOM      1  C   UNL d   1      -6.000   4.596  -5.482  0.00  0.00     0.020 A 
ATOM      2  C1  UNL d   1      -4.867   5.408  -5.436  0.00  0.00     0.020 A 
ATOM      3  C2  UNL d   1      -3.734   4.985  -4.739  0.00  0.00     0.034 A 
ATOM      4  C3  UNL d   1      -3.730   3.748  -4.084  0.00  0.00     0.017 A 
ATOM      5  C4  UNL d   1      -4.868   2.934  -4.131  0.00  0.00     0.017 A 
ATOM      6  C5  UNL d   1      -6.000   3.362  -4.831  0.00  0.00     0.034 A 
ATOM      7 Cl   UNL d   1      -4.939   1.395  -3.348  0.00  0.00    -0.070 Cl
ATOM      8 Cl1  UNL d   1      -2.294   3.290  -3.240  0.00  0.00    -0.070 Cl
ENDROOT
TORSDOF 0
ENDMDL
