MODEL 1
REMARK minimizedAffinity 8.41073132
REMARK minimizedRMSD -1
REMARK  0 active torsions:
REMARK  status: ('A' for Active; 'I' for Inactive)
ROOT
ATOM      1  C   UNL d   1       0.094   3.022   0.794  0.00  0.00     0.020 A 
ATOM      2  C1  UNL d   1       1.469   3.219   0.917  0.00  0.00     0.020 A 
ATOM      3  C2  UNL d   1       2.119   4.138   0.090  0.00  0.00     0.034 A 
ATOM      4  C3  UNL d   1       1.394   4.863  -0.863  0.00  0.00     0.017 A 
ATOM      5  C4  UNL d   1       0.014   4.664  -0.985  0.00  0.00     0.017 A 
ATOM      6  C5  UNL d   1      -0.631   3.743  -0.155  0.00  0.00     0.034 A 
ATOM      7 Cl   UNL d   1      -0.947   5.521  -2.138  0.00  0.00    -0.070 Cl
ATOM      8 Cl1  UNL d   1       2.262   5.983  -1.852  0.00  0.00    -0.070 Cl
ENDROOT
TORSDOF 0
ENDMDL
