MODEL 1
REMARK minimizedAffinity 2.92488241
REMARK minimizedRMSD -1
REMARK  0 active torsions:
REMARK  status: ('A' for Active; 'I' for Inactive)
ROOT
ATOM      1  C   UNL d   1       4.387  -5.994  -0.281  0.00  0.00     0.020 A 
ATOM      2  C1  UNL d   1       5.508  -5.190  -0.079  0.00  0.00     0.020 A 
ATOM      3  C2  UNL d   1       5.989  -4.390  -1.118  0.00  0.00     0.034 A 
ATOM      4  C3  UNL d   1       5.350  -4.394  -2.363  0.00  0.00     0.017 A 
ATOM      5  C4  UNL d   1       4.225  -5.202  -2.564  0.00  0.00     0.017 A 
ATOM      6  C5  UNL d   1       3.747  -6.000  -1.521  0.00  0.00     0.034 A 
ATOM      7 Cl   UNL d   1       3.383  -5.259  -4.073  0.00  0.00    -0.070 Cl
ATOM      8 Cl1  UNL d   1       6.000  -3.380  -3.602  0.00  0.00    -0.070 Cl
ENDROOT
TORSDOF 0
ENDMDL
