MODEL 1
REMARK minimizedAffinity 7.66678858
REMARK minimizedRMSD -1
REMARK  0 active torsions:
REMARK  status: ('A' for Active; 'I' for Inactive)
ROOT
ATOM      1  C   UNL d   1       0.208   2.839  -0.154  0.00  0.00     0.020 A 
ATOM      2  C1  UNL d   1       0.762   2.766   1.124  0.00  0.00     0.020 A 
ATOM      3  C2  UNL d   1       1.723   3.697   1.523  0.00  0.00     0.034 A 
ATOM      4  C3  UNL d   1       2.133   4.706   0.644  0.00  0.00     0.017 A 
ATOM      5  C4  UNL d   1       1.577   4.779  -0.638  0.00  0.00     0.017 A 
ATOM      6  C5  UNL d   1       0.615   3.844  -1.033  0.00  0.00     0.034 A 
ATOM      7 Cl   UNL d   1       2.033   5.995  -1.779  0.00  0.00    -0.070 Cl
ATOM      8 Cl1  UNL d   1       3.326   5.824   1.204  0.00  0.00    -0.070 Cl
ENDROOT
TORSDOF 0
ENDMDL
