MODEL 1
REMARK minimizedAffinity 10.1373158
REMARK minimizedRMSD -1
REMARK  0 active torsions:
REMARK  status: ('A' for Active; 'I' for Inactive)
ROOT
ATOM      1  C   UNL d   1      -0.724   1.525   0.188  0.00  0.00     0.020 A 
ATOM      2  C1  UNL d   1       0.112   1.639  -0.922  0.00  0.00     0.020 A 
ATOM      3  C2  UNL d   1       1.173   0.747  -1.092  0.00  0.00     0.034 A 
ATOM      4  C3  UNL d   1       1.401  -0.264  -0.151  0.00  0.00     0.017 A 
ATOM      5  C4  UNL d   1       0.561  -0.378   0.963  0.00  0.00     0.017 A 
ATOM      6  C5  UNL d   1      -0.500   0.518   1.129  0.00  0.00     0.034 A 
ATOM      7 Cl   UNL d   1       0.778  -1.599   2.167  0.00  0.00    -0.070 Cl
ATOM      8 Cl1  UNL d   1       2.731  -1.332  -0.425  0.00  0.00    -0.070 Cl
ENDROOT
TORSDOF 0
ENDMDL
