MODEL 1
REMARK minimizedAffinity 18.2569771
REMARK minimizedRMSD -1
REMARK  0 active torsions:
REMARK  status: ('A' for Active; 'I' for Inactive)
ROOT
ATOM      1  O1  BZF d   1       1.158  -1.504  -5.599  0.00  0.00    -0.204 OA
ATOM      2  C2  BZF d   1       2.258  -0.771  -6.000  0.00  0.00     0.174 A 
ATOM      3  C3  BZF d   1       2.871  -0.209  -4.938  0.00  0.00    -0.012 A 
ATOM      4  C3A BZF d   1       2.160  -0.692  -3.794  0.00  0.00    -0.107 A 
ATOM      5  C4  BZF d   1       2.305  -0.502  -2.450  0.00  0.00     0.055 A 
ATOM      6  C5  BZF d   1       1.400  -1.059  -1.603  0.00  0.00    -0.016 A 
ATOM      7  C6  BZF d   1       0.337  -1.807  -2.065  0.00  0.00     0.022 A 
ATOM      8  C7  BZF d   1       0.155  -2.028  -3.390  0.00  0.00     0.029 A 
ATOM      9  C7A BZF d   1       1.086  -1.494  -4.246  0.00  0.00     0.058 A 
ENDROOT
TORSDOF 0
ENDMDL
