MODEL 1
REMARK minimizedAffinity 12.2133446
REMARK minimizedRMSD -1
REMARK  0 active torsions:
REMARK  status: ('A' for Active; 'I' for Inactive)
ROOT
ATOM      1  O1  BZF d   1       1.839  -0.016  -4.088  0.00  0.00    -0.204 OA
ATOM      2  C2  BZF d   1       1.884  -0.871  -5.173  0.00  0.00     0.174 A 
ATOM      3  C3  BZF d   1       1.989  -2.153  -4.768  0.00  0.00    -0.012 A 
ATOM      4  C3A BZF d   1       1.919  -2.104  -3.340  0.00  0.00    -0.107 A 
ATOM      5  C4  BZF d   1       1.952  -3.059  -2.365  0.00  0.00     0.055 A 
ATOM      6  C5  BZF d   1       1.936  -2.674  -1.062  0.00  0.00    -0.016 A 
ATOM      7  C6  BZF d   1       1.891  -1.344  -0.698  0.00  0.00     0.022 A 
ATOM      8  C7  BZF d   1       1.852  -0.360  -1.630  0.00  0.00     0.029 A 
ATOM      9  C7A BZF d   1       1.835  -0.748  -2.947  0.00  0.00     0.058 A 
ENDROOT
TORSDOF 0
ENDMDL
