MODEL 1
REMARK minimizedAffinity 16.5434628
REMARK minimizedRMSD -1
REMARK  0 active torsions:
REMARK  status: ('A' for Active; 'I' for Inactive)
ROOT
ATOM      1  O1  BZF d   1       2.350  -4.031  -0.598  0.00  0.00    -0.204 OA
ATOM      2  C2  BZF d   1       3.261  -3.437   0.254  0.00  0.00     0.174 A 
ATOM      3  C3  BZF d   1       3.260  -2.098   0.098  0.00  0.00    -0.012 A 
ATOM      4  C3A BZF d   1       2.223  -1.830  -0.850  0.00  0.00    -0.107 A 
ATOM      5  C4  BZF d   1       1.728  -0.683  -1.402  0.00  0.00     0.055 A 
ATOM      6  C5  BZF d   1       0.761  -0.771  -2.353  0.00  0.00    -0.016 A 
ATOM      7  C6  BZF d   1       0.270  -1.988  -2.779  0.00  0.00     0.022 A 
ATOM      8  C7  BZF d   1       0.726  -3.152  -2.257  0.00  0.00     0.029 A 
ATOM      9  C7A BZF d   1       1.680  -3.066  -1.273  0.00  0.00     0.058 A 
ENDROOT
TORSDOF 0
ENDMDL
