MODEL 1
REMARK minimizedAffinity 16.5192871
REMARK minimizedRMSD -1
REMARK  0 active torsions:
REMARK  status: ('A' for Active; 'I' for Inactive)
ROOT
ATOM      1  O1  BZF d   1       4.431   0.875   0.481  0.00  0.00    -0.204 OA
ATOM      2  C2  BZF d   1       4.420   2.048  -0.247  0.00  0.00     0.174 A 
ATOM      3  C3  BZF d   1       3.580   1.951  -1.298  0.00  0.00    -0.012 A 
ATOM      4  C3A BZF d   1       2.963   0.666  -1.169  0.00  0.00    -0.107 A 
ATOM      5  C4  BZF d   1       2.024  -0.002  -1.901  0.00  0.00     0.055 A 
ATOM      6  C5  BZF d   1       1.691  -1.271  -1.547  0.00  0.00    -0.016 A 
ATOM      7  C6  BZF d   1       2.280  -1.904  -0.472  0.00  0.00     0.022 A 
ATOM      8  C7  BZF d   1       3.213  -1.279   0.287  0.00  0.00     0.029 A 
ATOM      9  C7A BZF d   1       3.527   0.015  -0.048  0.00  0.00     0.058 A 
ENDROOT
TORSDOF 0
ENDMDL
