MODEL 1
REMARK minimizedAffinity 17.413044
REMARK minimizedRMSD -1
REMARK  0 active torsions:
REMARK  status: ('A' for Active; 'I' for Inactive)
ROOT
ATOM      1  O1  BZF d   1      -2.359  -2.611  -3.591  0.00  0.00    -0.204 OA
ATOM      2  C2  BZF d   1      -3.652  -3.015  -3.859  0.00  0.00     0.174 A 
ATOM      3  C3  BZF d   1      -3.834  -4.304  -3.507  0.00  0.00    -0.012 A 
ATOM      4  C3A BZF d   1      -2.601  -4.706  -2.901  0.00  0.00    -0.107 A 
ATOM      5  C4  BZF d   1      -2.168  -5.872  -2.337  0.00  0.00     0.055 A 
ATOM      6  C5  BZF d   1      -0.883  -5.958  -1.903  0.00  0.00    -0.016 A 
ATOM      7  C6  BZF d   1      -0.004  -4.902  -2.023  0.00  0.00     0.022 A 
ATOM      8  C7  BZF d   1      -0.389  -3.724  -2.571  0.00  0.00     0.029 A 
ATOM      9  C7A BZF d   1      -1.696  -3.622  -2.980  0.00  0.00     0.058 A 
ENDROOT
TORSDOF 0
ENDMDL
