MODEL 1
REMARK minimizedAffinity 18.6220837
REMARK minimizedRMSD -1
REMARK  0 active torsions:
REMARK  status: ('A' for Active; 'I' for Inactive)
ROOT
ATOM      1  O1  BZF d   1       2.301   1.234   5.272  0.00  0.00    -0.204 OA
ATOM      2  C2  BZF d   1       1.140   1.406   6.000  0.00  0.00     0.174 A 
ATOM      3  C3  BZF d   1       0.151   1.884   5.217  0.00  0.00    -0.012 A 
ATOM      4  C3A BZF d   1       0.704   1.931   3.898  0.00  0.00    -0.107 A 
ATOM      5  C4  BZF d   1       0.205   2.304   2.683  0.00  0.00     0.055 A 
ATOM      6  C5  BZF d   1       1.028   2.302   1.602  0.00  0.00    -0.016 A 
ATOM      7  C6  BZF d   1       2.355   1.939   1.701  0.00  0.00     0.022 A 
ATOM      8  C7  BZF d   1       2.895   1.557   2.884  0.00  0.00     0.029 A 
ATOM      9  C7A BZF d   1       2.057   1.526   3.972  0.00  0.00     0.058 A 
ENDROOT
TORSDOF 0
ENDMDL
