MODEL 1
REMARK minimizedAffinity 3.61638141
REMARK minimizedRMSD -1
REMARK  0 active torsions:
REMARK  status: ('A' for Active; 'I' for Inactive)
ROOT
ATOM      1  O1  BZF d   1      -3.239  -2.225   0.622  0.00  0.00    -0.204 OA
ATOM      2  C2  BZF d   1      -3.455  -0.978   0.067  0.00  0.00     0.174 A 
ATOM      3  C3  BZF d   1      -2.330  -0.513  -0.515  0.00  0.00    -0.012 A 
ATOM      4  C3A BZF d   1      -1.376  -1.572  -0.390  0.00  0.00    -0.107 A 
ATOM      5  C4  BZF d   1      -0.078  -1.718  -0.788  0.00  0.00     0.055 A 
ATOM      6  C5  BZF d   1       0.594  -2.849  -0.447  0.00  0.00    -0.016 A 
ATOM      7  C6  BZF d   1       0.002  -3.850   0.295  0.00  0.00     0.022 A 
ATOM      8  C7  BZF d   1      -1.285  -3.753   0.708  0.00  0.00     0.029 A 
ATOM      9  C7A BZF d   1      -1.977  -2.626   0.337  0.00  0.00     0.058 A 
ENDROOT
TORSDOF 0
ENDMDL
