MODEL 1
REMARK minimizedAffinity 17.24576
REMARK minimizedRMSD -1
REMARK  0 active torsions:
REMARK  status: ('A' for Active; 'I' for Inactive)
ROOT
ATOM      1  O1  BZF d   1      -2.980   2.021  -4.999  0.00  0.00    -0.204 OA
ATOM      2  C2  BZF d   1      -1.885   2.135  -4.163  0.00  0.00     0.174 A 
ATOM      3  C3  BZF d   1      -1.644   3.427  -3.865  0.00  0.00    -0.012 A 
ATOM      4  C3A BZF d   1      -2.706   4.161  -4.482  0.00  0.00    -0.107 A 
ATOM      5  C4  BZF d   1      -3.026   5.488  -4.531  0.00  0.00     0.055 A 
ATOM      6  C5  BZF d   1      -4.088   5.884  -5.280  0.00  0.00    -0.016 A 
ATOM      7  C6  BZF d   1      -4.847   4.982  -5.997  0.00  0.00     0.022 A 
ATOM      8  C7  BZF d   1      -4.571   3.656  -5.976  0.00  0.00     0.029 A 
ATOM      9  C7A BZF d   1      -3.519   3.248  -5.193  0.00  0.00     0.058 A 
ENDROOT
TORSDOF 0
ENDMDL
