MODEL 1
REMARK minimizedAffinity 25.8553848
REMARK minimizedRMSD -1
REMARK  0 active torsions:
REMARK  status: ('A' for Active; 'I' for Inactive)
ROOT
ATOM      1  O1  BZF d   1       3.360   1.456  -1.416  0.00  0.00    -0.204 OA
ATOM      2  C2  BZF d   1       4.049   1.274  -0.232  0.00  0.00     0.174 A 
ATOM      3  C3  BZF d   1       3.539   0.238   0.464  0.00  0.00    -0.012 A 
ATOM      4  C3A BZF d   1       2.524  -0.317  -0.377  0.00  0.00    -0.107 A 
ATOM      5  C4  BZF d   1       1.670  -1.376  -0.246  0.00  0.00     0.055 A 
ATOM      6  C5  BZF d   1       0.750  -1.606  -1.218  0.00  0.00    -0.016 A 
ATOM      7  C6  BZF d   1       0.650  -0.797  -2.331  0.00  0.00     0.022 A 
ATOM      8  C7  BZF d   1       1.478   0.262  -2.508  0.00  0.00     0.029 A 
ATOM      9  C7A BZF d   1       2.432   0.478  -1.543  0.00  0.00     0.058 A 
ENDROOT
TORSDOF 0
ENDMDL
