MODEL 1
REMARK minimizedAffinity 18.6078033
REMARK minimizedRMSD -1
REMARK  0 active torsions:
REMARK  status: ('A' for Active; 'I' for Inactive)
ROOT
ATOM      1  O1  BZF d   1       3.153   0.769  -0.765  0.00  0.00    -0.204 OA
ATOM      2  C2  BZF d   1       2.270  -0.025  -1.471  0.00  0.00     0.174 A 
ATOM      3  C3  BZF d   1       1.137  -0.223  -0.768  0.00  0.00    -0.012 A 
ATOM      4  C3A BZF d   1       1.285   0.568   0.415  0.00  0.00    -0.107 A 
ATOM      5  C4  BZF d   1       0.484   0.797   1.497  0.00  0.00     0.055 A 
ATOM      6  C5  BZF d   1       0.955   1.563   2.517  0.00  0.00    -0.016 A 
ATOM      7  C6  BZF d   1       2.221   2.109   2.489  0.00  0.00     0.022 A 
ATOM      8  C7  BZF d   1       3.050   1.913   1.435  0.00  0.00     0.029 A 
ATOM      9  C7A BZF d   1       2.565   1.167   0.389  0.00  0.00     0.058 A 
ENDROOT
TORSDOF 0
ENDMDL
