MODEL 1
REMARK minimizedAffinity 11.2392969
REMARK minimizedRMSD -1
REMARK  0 active torsions:
REMARK  status: ('A' for Active; 'I' for Inactive)
ROOT
ATOM      1  O1  BZF d   1      -4.123   1.951   3.763  0.00  0.00    -0.204 OA
ATOM      2  C2  BZF d   1      -4.823   2.253   4.915  0.00  0.00     0.174 A 
ATOM      3  C3  BZF d   1      -3.994   2.312   5.977  0.00  0.00    -0.012 A 
ATOM      4  C3A BZF d   1      -2.681   2.120   5.440  0.00  0.00    -0.107 A 
ATOM      5  C4  BZF d   1      -1.435   2.089   5.997  0.00  0.00     0.055 A 
ATOM      6  C5  BZF d   1      -0.366   1.806   5.207  0.00  0.00    -0.016 A 
ATOM      7  C6  BZF d   1      -0.507   1.544   3.861  0.00  0.00     0.022 A 
ATOM      8  C7  BZF d   1      -1.723   1.567   3.262  0.00  0.00     0.029 A 
ATOM      9  C7A BZF d   1      -2.801   1.886   4.051  0.00  0.00     0.058 A 
ENDROOT
TORSDOF 0
ENDMDL
