MODEL 1
REMARK minimizedAffinity 19.9108925
REMARK minimizedRMSD -1
REMARK  0 active torsions:
REMARK  status: ('A' for Active; 'I' for Inactive)
ROOT
ATOM      1  O1  BZF d   1       0.995  -2.788  -5.192  0.00  0.00    -0.204 OA
ATOM      2  C2  BZF d   1       1.659  -1.885  -5.999  0.00  0.00     0.174 A 
ATOM      3  C3  BZF d   1       2.016  -0.789  -5.299  0.00  0.00    -0.012 A 
ATOM      4  C3A BZF d   1       1.626  -1.062  -3.950  0.00  0.00    -0.107 A 
ATOM      5  C4  BZF d   1       1.729  -0.360  -2.783  0.00  0.00     0.055 A 
ATOM      6  C5  BZF d   1       1.183  -0.877  -1.651  0.00  0.00    -0.016 A 
ATOM      7  C6  BZF d   1       0.524  -2.089  -1.650  0.00  0.00     0.022 A 
ATOM      8  C7  BZF d   1       0.401  -2.824  -2.783  0.00  0.00     0.029 A 
ATOM      9  C7A BZF d   1       0.980  -2.319  -3.921  0.00  0.00     0.058 A 
ENDROOT
TORSDOF 0
ENDMDL
