MODEL 1
REMARK minimizedAffinity 15.3435249
REMARK minimizedRMSD -1
REMARK  0 active torsions:
REMARK  status: ('A' for Active; 'I' for Inactive)
ROOT
ATOM      1  O1  BZF d   1      -4.299  -3.157  -3.397  0.00  0.00    -0.204 OA
ATOM      2  C2  BZF d   1      -4.799  -2.906  -4.660  0.00  0.00     0.174 A 
ATOM      3  C3  BZF d   1      -4.014  -3.463  -5.605  0.00  0.00    -0.012 A 
ATOM      4  C3A BZF d   1      -3.009  -4.181  -4.883  0.00  0.00    -0.107 A 
ATOM      5  C4  BZF d   1      -1.950  -4.954  -5.266  0.00  0.00     0.055 A 
ATOM      6  C5  BZF d   1      -1.117  -5.451  -4.315  0.00  0.00    -0.016 A 
ATOM      7  C6  BZF d   1      -1.310  -5.193  -2.973  0.00  0.00     0.022 A 
ATOM      8  C7  BZF d   1      -2.350  -4.436  -2.545  0.00  0.00     0.029 A 
ATOM      9  C7A BZF d   1      -3.212  -3.959  -3.502  0.00  0.00     0.058 A 
ENDROOT
TORSDOF 0
ENDMDL
