MODEL 1
REMARK minimizedAffinity 10.221735
REMARK minimizedRMSD -1
REMARK  0 active torsions:
REMARK  status: ('A' for Active; 'I' for Inactive)
ROOT
ATOM      1  O1  BZF d   1      -2.812  -3.517  -5.426  0.00  0.00    -0.204 OA
ATOM      2  C2  BZF d   1      -3.405  -2.635  -4.544  0.00  0.00     0.174 A 
ATOM      3  C3  BZF d   1      -3.009  -2.883  -3.279  0.00  0.00    -0.012 A 
ATOM      4  C3A BZF d   1      -2.040  -3.931  -3.387  0.00  0.00    -0.107 A 
ATOM      5  C4  BZF d   1      -1.274  -4.599  -2.475  0.00  0.00     0.055 A 
ATOM      6  C5  BZF d   1      -0.482  -5.619  -2.899  0.00  0.00    -0.016 A 
ATOM      7  C6  BZF d   1      -0.435  -5.999  -4.224  0.00  0.00     0.022 A 
ATOM      8  C7  BZF d   1      -1.173  -5.363  -5.166  0.00  0.00     0.029 A 
ATOM      9  C7A BZF d   1      -1.949  -4.311  -4.746  0.00  0.00     0.058 A 
ENDROOT
TORSDOF 0
ENDMDL
