MODEL 1
REMARK minimizedAffinity 1.4737643
REMARK minimizedRMSD -1
REMARK  0 active torsions:
REMARK  status: ('A' for Active; 'I' for Inactive)
ROOT
ATOM      1  O1  BZF d   1      -4.102  -2.629  -4.901  0.00  0.00    -0.204 OA
ATOM      2  C2  BZF d   1      -5.064  -3.121  -5.763  0.00  0.00     0.174 A 
ATOM      3  C3  BZF d   1      -4.874  -4.436  -5.991  0.00  0.00    -0.012 A 
ATOM      4  C3A BZF d   1      -3.776  -4.809  -5.152  0.00  0.00    -0.107 A 
ATOM      5  C4  BZF d   1      -3.128  -5.989  -4.924  0.00  0.00     0.055 A 
ATOM      6  C5  BZF d   1      -2.048  -6.000  -4.099  0.00  0.00    -0.016 A 
ATOM      7  C6  BZF d   1      -1.586  -4.850  -3.492  0.00  0.00     0.022 A 
ATOM      8  C7  BZF d   1      -2.199  -3.657  -3.685  0.00  0.00     0.029 A 
ATOM      9  C7A BZF d   1      -3.311  -3.649  -4.491  0.00  0.00     0.058 A 
ENDROOT
TORSDOF 0
ENDMDL
