MODEL 1
REMARK minimizedAffinity -2.74326444
REMARK minimizedRMSD -1
REMARK  0 active torsions:
REMARK  status: ('A' for Active; 'I' for Inactive)
ROOT
ATOM      1  O1  BZF d   1      -3.923  -2.620  -5.031  0.00  0.00    -0.204 OA
ATOM      2  C2  BZF d   1      -4.998  -3.133  -5.731  0.00  0.00     0.174 A 
ATOM      3  C3  BZF d   1      -4.862  -4.462  -5.912  0.00  0.00    -0.012 A 
ATOM      4  C3A BZF d   1      -3.669  -4.817  -5.206  0.00  0.00    -0.107 A 
ATOM      5  C4  BZF d   1      -3.015  -5.999  -5.003  0.00  0.00     0.055 A 
ATOM      6  C5  BZF d   1      -1.835  -5.993  -4.329  0.00  0.00    -0.016 A 
ATOM      7  C6  BZF d   1      -1.278  -4.826  -3.850  0.00  0.00     0.022 A 
ATOM      8  C7  BZF d   1      -1.892  -3.630  -4.023  0.00  0.00     0.029 A 
ATOM      9  C7A BZF d   1      -3.101  -3.636  -4.675  0.00  0.00     0.058 A 
ENDROOT
TORSDOF 0
ENDMDL
