MODEL 1
REMARK minimizedAffinity 11.4730959
REMARK minimizedRMSD -1
REMARK  0 active torsions:
REMARK  status: ('A' for Active; 'I' for Inactive)
ROOT
ATOM      1  O1  BZF d   1       3.698  -1.062   0.270  0.00  0.00    -0.204 OA
ATOM      2  C2  BZF d   1       3.799   0.299   0.059  0.00  0.00     0.174 A 
ATOM      3  C3  BZF d   1       2.878   0.714  -0.835  0.00  0.00    -0.012 A 
ATOM      4  C3A BZF d   1       2.096  -0.446  -1.136  0.00  0.00    -0.107 A 
ATOM      5  C4  BZF d   1       1.020  -0.668  -1.946  0.00  0.00     0.055 A 
ATOM      6  C5  BZF d   1       0.537  -1.932  -2.072  0.00  0.00    -0.016 A 
ATOM      7  C6  BZF d   1       1.109  -2.997  -1.406  0.00  0.00     0.022 A 
ATOM      8  C7  BZF d   1       2.175  -2.825  -0.587  0.00  0.00     0.029 A 
ATOM      9  C7A BZF d   1       2.644  -1.543  -0.433  0.00  0.00     0.058 A 
ENDROOT
TORSDOF 0
ENDMDL
