MODEL 1
REMARK minimizedAffinity 15.0957184
REMARK minimizedRMSD -1
REMARK  0 active torsions:
REMARK  status: ('A' for Active; 'I' for Inactive)
ROOT
ATOM      1  O1  BZF d   1       2.263  -0.332  -4.277  0.00  0.00    -0.204 OA
ATOM      2  C2  BZF d   1       2.881  -1.251  -5.103  0.00  0.00     0.174 A 
ATOM      3  C3  BZF d   1       3.163  -2.385  -4.431  0.00  0.00    -0.012 A 
ATOM      4  C3A BZF d   1       2.608  -2.197  -3.126  0.00  0.00    -0.107 A 
ATOM      5  C4  BZF d   1       2.551  -2.979  -2.008  0.00  0.00     0.055 A 
ATOM      6  C5  BZF d   1       2.003  -2.471  -0.873  0.00  0.00    -0.016 A 
ATOM      7  C6  BZF d   1       1.507  -1.185  -0.820  0.00  0.00     0.022 A 
ATOM      8  C7  BZF d   1       1.536  -0.373  -1.904  0.00  0.00     0.029 A 
ATOM      9  C7A BZF d   1       2.060  -0.895  -3.062  0.00  0.00     0.058 A 
ENDROOT
TORSDOF 0
ENDMDL
