MODEL 1
REMARK minimizedAffinity 16.9470406
REMARK minimizedRMSD -1
REMARK  0 active torsions:
REMARK  status: ('A' for Active; 'I' for Inactive)
ROOT
ATOM      1  O1  BZF d   1      -3.001   0.004   4.494  0.00  0.00    -0.204 OA
ATOM      2  C2  BZF d   1      -3.231  -0.311   3.168  0.00  0.00     0.174 A 
ATOM      3  C3  BZF d   1      -4.110   0.551   2.618  0.00  0.00    -0.012 A 
ATOM      4  C3A BZF d   1      -4.381   1.516   3.639  0.00  0.00    -0.107 A 
ATOM      5  C4  BZF d   1      -5.166   2.632   3.692  0.00  0.00     0.055 A 
ATOM      6  C5  BZF d   1      -5.266   3.314   4.863  0.00  0.00    -0.016 A 
ATOM      7  C6  BZF d   1      -4.600   2.907   6.000  0.00  0.00     0.022 A 
ATOM      8  C7  BZF d   1      -3.805   1.809   5.995  0.00  0.00     0.029 A 
ATOM      9  C7A BZF d   1      -3.676   1.136   4.805  0.00  0.00     0.058 A 
ENDROOT
TORSDOF 0
ENDMDL
