MODEL 1
REMARK minimizedAffinity -1.89610863
REMARK minimizedRMSD -1
REMARK  1 active torsions:
REMARK  status: ('A' for Active; 'I' for Inactive)
REMARK    1  A    between atoms: C1_2  and  C2_3 
ROOT
ATOM      1  C2  UNL d   1      -0.196  -0.261   0.232  0.00  0.00    -0.076 A 
ATOM      2  C3  UNL d   1       0.686  -1.165  -0.386  0.00  0.00     0.004 A 
ATOM      3  C4  UNL d   1       1.682  -0.718  -1.253  0.00  0.00    -0.003 A 
ATOM      4  C5  UNL d   1       1.812   0.641  -1.516  0.00  0.00     0.000 A 
ATOM      5  C6  UNL d   1       0.957   1.554  -0.899  0.00  0.00     0.000 A 
ATOM      6  C7  UNL d   1      -0.041   1.121  -0.009  0.00  0.00    -0.073 A 
ATOM      7  C8  UNL d   1      -0.939   2.148   0.624  0.00  0.00     0.078 C 
ENDROOT
BRANCH   1   8
ATOM      8  C1  UNL d   1      -1.273  -0.807   1.142  0.00  0.00     0.053 C 
ATOM      9  C   UNL d   1      -0.703  -1.471   2.386  0.00  0.00     0.018 C 
ENDBRANCH   1   8
TORSDOF 1
ENDMDL
