MODEL 1
REMARK minimizedAffinity 4.1636548
REMARK minimizedRMSD -1
REMARK  1 active torsions:
REMARK  status: ('A' for Active; 'I' for Inactive)
REMARK    1  A    between atoms: C1_2  and  C2_3 
ROOT
ATOM      1  C2  UNL d   1      -1.317  -0.011   0.223  0.00  0.00    -0.076 A 
ATOM      2  C3  UNL d   1      -2.252   0.080   1.268  0.00  0.00     0.004 A 
ATOM      3  C4  UNL d   1      -1.938  -0.360   2.553  0.00  0.00    -0.003 A 
ATOM      4  C5  UNL d   1      -0.682  -0.897   2.814  0.00  0.00     0.000 A 
ATOM      5  C6  UNL d   1       0.265  -0.979   1.793  0.00  0.00     0.000 A 
ATOM      6  C7  UNL d   1      -0.031  -0.525   0.496  0.00  0.00    -0.073 A 
ATOM      7  C8  UNL d   1       1.026  -0.643  -0.568  0.00  0.00     0.078 C 
ENDROOT
BRANCH   1   8
ATOM      8  C1  UNL d   1      -1.723   0.456  -1.156  0.00  0.00     0.053 C 
ATOM      9  C   UNL d   1      -1.887   1.966  -1.235  0.00  0.00     0.018 C 
ENDBRANCH   1   8
TORSDOF 1
ENDMDL
