MODEL 1
REMARK minimizedAffinity -3.42885566
REMARK minimizedRMSD -1
REMARK  1 active torsions:
REMARK  status: ('A' for Active; 'I' for Inactive)
REMARK    1  A    between atoms: C1_2  and  C2_3 
ROOT
ATOM      1  C2  UNL d   1      -0.260  -1.089   1.142  0.00  0.00    -0.076 A 
ATOM      2  C3  UNL d   1       0.909  -1.255   0.380  0.00  0.00     0.004 A 
ATOM      3  C4  UNL d   1       0.933  -0.936  -0.976  0.00  0.00    -0.003 A 
ATOM      4  C5  UNL d   1      -0.213  -0.445  -1.593  0.00  0.00     0.000 A 
ATOM      5  C6  UNL d   1      -1.377  -0.258  -0.848  0.00  0.00     0.000 A 
ATOM      6  C7  UNL d   1      -1.413  -0.560   0.524  0.00  0.00    -0.073 A 
ATOM      7  C8  UNL d   1      -2.697  -0.344   1.277  0.00  0.00     0.078 C 
ENDROOT
BRANCH   1   8
ATOM      8  C1  UNL d   1      -0.233  -1.478   2.603  0.00  0.00     0.053 C 
ATOM      9  C   UNL d   1       0.606  -2.720   2.861  0.00  0.00     0.018 C 
ENDBRANCH   1   8
TORSDOF 1
ENDMDL
