MODEL 1
REMARK minimizedAffinity 1.85972321
REMARK minimizedRMSD -1
REMARK  1 active torsions:
REMARK  status: ('A' for Active; 'I' for Inactive)
REMARK    1  A    between atoms: C1_2  and  C2_3 
ROOT
ATOM      1  C2  UNL d   1       0.875  -2.146   0.959  0.00  0.00    -0.076 A 
ATOM      2  C3  UNL d   1       0.199  -2.528   2.131  0.00  0.00     0.004 A 
ATOM      3  C4  UNL d   1      -0.873  -1.782   2.616  0.00  0.00    -0.003 A 
ATOM      4  C5  UNL d   1      -1.288  -0.641   1.937  0.00  0.00     0.000 A 
ATOM      5  C6  UNL d   1      -0.641  -0.258   0.763  0.00  0.00     0.000 A 
ATOM      6  C7  UNL d   1       0.432  -1.008   0.251  0.00  0.00    -0.073 A 
ATOM      7  C8  UNL d   1       1.098  -0.544  -1.015  0.00  0.00     0.078 C 
ENDROOT
BRANCH   1   8
ATOM      8  C1  UNL d   1       2.049  -2.978   0.496  0.00  0.00     0.053 C 
ATOM      9  C   UNL d   1       2.126  -4.322   1.204  0.00  0.00     0.018 C 
ENDBRANCH   1   8
TORSDOF 1
ENDMDL
