MODEL 1
REMARK minimizedAffinity 7.07958412
REMARK minimizedRMSD -1
REMARK  1 active torsions:
REMARK  status: ('A' for Active; 'I' for Inactive)
REMARK    1  A    between atoms: C1_2  and  C2_3 
ROOT
ATOM      1  C2  UNL d   1      -1.895  -0.335   0.942  0.00  0.00    -0.076 A 
ATOM      2  C3  UNL d   1      -2.066  -0.134  -0.439  0.00  0.00     0.004 A 
ATOM      3  C4  UNL d   1      -1.042  -0.423  -1.338  0.00  0.00    -0.003 A 
ATOM      4  C5  UNL d   1       0.171  -0.918  -0.872  0.00  0.00     0.000 A 
ATOM      5  C6  UNL d   1       0.352  -1.140   0.493  0.00  0.00     0.000 A 
ATOM      6  C7  UNL d   1      -0.677  -0.870   1.411  0.00  0.00    -0.073 A 
ATOM      7  C8  UNL d   1      -0.425  -1.123   2.873  0.00  0.00     0.078 C 
ENDROOT
BRANCH   1   8
ATOM      8  C1  UNL d   1      -3.033   0.021   1.872  0.00  0.00     0.053 C 
ATOM      9  C   UNL d   1      -4.393  -0.104   1.204  0.00  0.00     0.018 C 
ENDBRANCH   1   8
TORSDOF 1
ENDMDL
