MODEL 1
REMARK minimizedAffinity 2.86516714
REMARK minimizedRMSD -1
REMARK  1 active torsions:
REMARK  status: ('A' for Active; 'I' for Inactive)
REMARK    1  A    between atoms: C1_2  and  C2_3 
ROOT
ATOM      1  C2  UNL d   1       1.298  -2.006   0.840  0.00  0.00    -0.076 A 
ATOM      2  C3  UNL d   1       2.029  -3.196   0.675  0.00  0.00     0.004 A 
ATOM      3  C4  UNL d   1       1.919  -4.239   1.593  0.00  0.00    -0.003 A 
ATOM      4  C5  UNL d   1       1.076  -4.109   2.691  0.00  0.00     0.000 A 
ATOM      5  C6  UNL d   1       0.330  -2.943   2.862  0.00  0.00     0.000 A 
ATOM      6  C7  UNL d   1       0.417  -1.889   1.936  0.00  0.00    -0.073 A 
ATOM      7  C8  UNL d   1      -0.406  -0.652   2.172  0.00  0.00     0.078 C 
ENDROOT
BRANCH   1   8
ATOM      8  C1  UNL d   1       1.478  -0.899  -0.173  0.00  0.00     0.053 C 
ATOM      9  C   UNL d   1       2.773  -0.128   0.030  0.00  0.00     0.018 C 
ENDBRANCH   1   8
TORSDOF 1
ENDMDL
