MODEL 1
REMARK minimizedAffinity 2.06902194
REMARK minimizedRMSD -1
REMARK  1 active torsions:
REMARK  status: ('A' for Active; 'I' for Inactive)
REMARK    1  A    between atoms: C1_2  and  C2_3 
ROOT
ATOM      1  C2  UNL d   1       3.154  -2.284  -0.294  0.00  0.00    -0.076 A 
ATOM      2  C3  UNL d   1       1.827  -1.828  -0.380  0.00  0.00     0.004 A 
ATOM      3  C4  UNL d   1       1.540  -0.467  -0.470  0.00  0.00    -0.003 A 
ATOM      4  C5  UNL d   1       2.577   0.461  -0.478  0.00  0.00     0.000 A 
ATOM      5  C6  UNL d   1       3.900   0.025  -0.412  0.00  0.00     0.000 A 
ATOM      6  C7  UNL d   1       4.206  -1.345  -0.336  0.00  0.00    -0.073 A 
ATOM      7  C8  UNL d   1       5.651  -1.758  -0.261  0.00  0.00     0.078 C 
ENDROOT
BRANCH   1   8
ATOM      8  C1  UNL d   1       3.402  -3.770  -0.170  0.00  0.00     0.053 C 
ATOM      9  C   UNL d   1       2.468  -4.436   0.828  0.00  0.00     0.018 C 
ENDBRANCH   1   8
TORSDOF 1
ENDMDL
