MODEL 1
REMARK minimizedAffinity 1.0628556
REMARK minimizedRMSD -1
REMARK  0 active torsions:
REMARK  status: ('A' for Active; 'I' for Inactive)
ROOT
ATOM      1  C2' OXE d   1       2.535  -1.451   0.257  0.00  0.00     0.078 C 
ATOM      2  C1' OXE d   1       1.122  -1.547   2.681  0.00  0.00     0.078 C 
ATOM      3  C1  OXE d   1       0.482  -0.825   1.521  0.00  0.00    -0.078 A 
ATOM      4  C2  OXE d   1       1.201  -0.743   0.353  0.00  0.00    -0.078 A 
ATOM      5  C3  OXE d   1       0.634  -0.136  -0.764  0.00  0.00     0.003 A 
ATOM      6  C4  OXE d   1      -0.596   0.526  -0.663  0.00  0.00    -0.002 A 
ATOM      7  C5  OXE d   1      -1.327   0.488   0.529  0.00  0.00    -0.002 A 
ATOM      8  C6  OXE d   1      -0.823  -0.218   1.615  0.00  0.00     0.003 A 
ENDROOT
TORSDOF 0
ENDMDL
