MODEL 1
REMARK minimizedAffinity -2.74312949
REMARK minimizedRMSD -1
REMARK  0 active torsions:
REMARK  status: ('A' for Active; 'I' for Inactive)
ROOT
ATOM      1  C2' OXE d   1      -0.632   0.776   1.497  0.00  0.00     0.078 C 
ATOM      2  C1' OXE d   1       1.866   0.045   2.550  0.00  0.00     0.078 C 
ATOM      3  C1  OXE d   1       1.612  -0.225   1.088  0.00  0.00    -0.078 A 
ATOM      4  C2  OXE d   1       0.371   0.093   0.592  0.00  0.00    -0.078 A 
ATOM      5  C3  OXE d   1       0.103  -0.085  -0.762  0.00  0.00     0.003 A 
ATOM      6  C4  OXE d   1       1.032  -0.727  -1.590  0.00  0.00    -0.002 A 
ATOM      7  C5  OXE d   1       2.288  -1.095  -1.096  0.00  0.00    -0.002 A 
ATOM      8  C6  OXE d   1       2.609  -0.813   0.227  0.00  0.00     0.003 A 
ENDROOT
TORSDOF 0
ENDMDL
