MODEL 1
REMARK minimizedAffinity -0.147635311
REMARK minimizedRMSD -1
REMARK  0 active torsions:
REMARK  status: ('A' for Active; 'I' for Inactive)
ROOT
ATOM      1  C2' OXE d   1       1.681  -0.171   2.030  0.00  0.00     0.078 C 
ATOM      2  C1' OXE d   1       3.002  -1.196  -0.225  0.00  0.00     0.078 C 
ATOM      3  C1  OXE d   1       1.656  -0.548  -0.432  0.00  0.00    -0.078 A 
ATOM      4  C2  OXE d   1       0.995  -0.091   0.683  0.00  0.00    -0.078 A 
ATOM      5  C3  OXE d   1      -0.225   0.564   0.542  0.00  0.00     0.003 A 
ATOM      6  C4  OXE d   1      -0.856   0.624  -0.707  0.00  0.00    -0.002 A 
ATOM      7  C5  OXE d   1      -0.219   0.130  -1.849  0.00  0.00    -0.002 A 
ATOM      8  C6  OXE d   1       1.053  -0.420  -1.736  0.00  0.00     0.003 A 
ENDROOT
TORSDOF 0
ENDMDL
