MODEL 1
REMARK minimizedAffinity -4.84779978
REMARK minimizedRMSD -1
REMARK  0 active torsions:
REMARK  status: ('A' for Active; 'I' for Inactive)
ROOT
ATOM      1  C2' OXE d   1      -2.162  -0.784   0.339  0.00  0.00     0.078 C 
ATOM      2  C1' OXE d   1      -0.177   0.304  -1.320  0.00  0.00     0.078 C 
ATOM      3  C1  OXE d   1       0.171   0.062   0.127  0.00  0.00    -0.078 A 
ATOM      4  C2  OXE d   1      -0.821  -0.427   0.943  0.00  0.00    -0.078 A 
ATOM      5  C3  OXE d   1      -0.538  -0.720   2.274  0.00  0.00     0.003 A 
ATOM      6  C4  OXE d   1       0.702  -0.377   2.826  0.00  0.00    -0.002 A 
ATOM      7  C5  OXE d   1       1.714   0.159   2.022  0.00  0.00    -0.002 A 
ATOM      8  C6  OXE d   1       1.479   0.345   0.665  0.00  0.00     0.003 A 
ENDROOT
TORSDOF 0
ENDMDL
