MODEL 1
REMARK minimizedAffinity 2.46694684
REMARK minimizedRMSD -1
REMARK  0 active torsions:
REMARK  status: ('A' for Active; 'I' for Inactive)
ROOT
ATOM      1  C2' OXE d   1      -2.344   2.307  -2.897  0.00  0.00     0.078 C 
ATOM      2  C1' OXE d   1      -0.690   2.593  -0.647  0.00  0.00     0.078 C 
ATOM      3  C1  OXE d   1      -0.185   3.128  -1.964  0.00  0.00    -0.078 A 
ATOM      4  C2  OXE d   1      -0.981   2.942  -3.069  0.00  0.00    -0.078 A 
ATOM      5  C3  OXE d   1      -0.587   3.465  -4.297  0.00  0.00     0.003 A 
ATOM      6  C4  OXE d   1       0.680   4.042  -4.449  0.00  0.00    -0.002 A 
ATOM      7  C5  OXE d   1       1.522   4.205  -3.345  0.00  0.00    -0.002 A 
ATOM      8  C6  OXE d   1       1.088   3.793  -2.090  0.00  0.00     0.003 A 
ENDROOT
TORSDOF 0
ENDMDL
