MODEL 1
REMARK minimizedAffinity 4.14425516
REMARK minimizedRMSD -1
REMARK  0 active torsions:
REMARK  status: ('A' for Active; 'I' for Inactive)
ROOT
ATOM      1  C2' OXE d   1      -1.072   0.503  -1.668  0.00  0.00     0.078 C 
ATOM      2  C1' OXE d   1      -0.764   1.452   0.956  0.00  0.00     0.078 C 
ATOM      3  C1  OXE d   1       0.296   0.526   0.414  0.00  0.00    -0.078 A 
ATOM      4  C2  OXE d   1       0.113   0.029  -0.854  0.00  0.00    -0.078 A 
ATOM      5  C3  OXE d   1       1.088  -0.786  -1.422  0.00  0.00     0.003 A 
ATOM      6  C4  OXE d   1       2.176  -1.227  -0.660  0.00  0.00    -0.002 A 
ATOM      7  C5  OXE d   1       2.360  -0.765   0.648  0.00  0.00    -0.002 A 
ATOM      8  C6  OXE d   1       1.454   0.144   1.184  0.00  0.00     0.003 A 
ENDROOT
TORSDOF 0
ENDMDL
