MODEL 1
REMARK minimizedAffinity -0.661361396
REMARK minimizedRMSD -1
REMARK  0 active torsions:
REMARK  status: ('A' for Active; 'I' for Inactive)
ROOT
ATOM      1  C2' OXE d   1      -1.841  -0.268  -0.745  0.00  0.00     0.078 C 
ATOM      2  C1' OXE d   1      -1.099   1.852   0.940  0.00  0.00     0.078 C 
ATOM      3  C1  OXE d   1      -0.034   0.858   0.549  0.00  0.00    -0.078 A 
ATOM      4  C2  OXE d   1      -0.417  -0.202  -0.238  0.00  0.00    -0.078 A 
ATOM      5  C3  OXE d   1       0.538  -1.117  -0.672  0.00  0.00     0.003 A 
ATOM      6  C4  OXE d   1       1.851  -1.055  -0.191  0.00  0.00    -0.002 A 
ATOM      7  C5  OXE d   1       2.252  -0.006   0.644  0.00  0.00    -0.002 A 
ATOM      8  C6  OXE d   1       1.334   0.980   0.988  0.00  0.00     0.003 A 
ENDROOT
TORSDOF 0
ENDMDL
