MODEL 1
REMARK minimizedAffinity -0.541233838
REMARK minimizedRMSD -1
REMARK  0 active torsions:
REMARK  status: ('A' for Active; 'I' for Inactive)
ROOT
ATOM      1  C2' OXE d   1      -0.007   1.082  -1.142  0.00  0.00     0.078 C 
ATOM      2  C1' OXE d   1      -2.091  -0.328   0.103  0.00  0.00     0.078 C 
ATOM      3  C1  OXE d   1      -0.728  -0.374   0.746  0.00  0.00    -0.078 A 
ATOM      4  C2  OXE d   1       0.297   0.280   0.105  0.00  0.00    -0.078 A 
ATOM      5  C3  OXE d   1       1.562   0.314   0.685  0.00  0.00     0.003 A 
ATOM      6  C4  OXE d   1       1.836  -0.439   1.833  0.00  0.00    -0.002 A 
ATOM      7  C5  OXE d   1       0.816  -1.145   2.480  0.00  0.00    -0.002 A 
ATOM      8  C6  OXE d   1      -0.478  -1.088   1.974  0.00  0.00     0.003 A 
ENDROOT
TORSDOF 0
ENDMDL
