MODEL 1
REMARK minimizedAffinity -4.26960039
REMARK minimizedRMSD -1
REMARK  1 active torsions:
REMARK  status: ('A' for Active; 'I' for Inactive)
REMARK    1  A    between atoms: C3_4  and  O_7 
ROOT
ATOM      1  C   UNL d   1       0.773   0.161   1.666  0.00  0.00    -0.033 A 
ATOM      2  C1  UNL d   1       0.190   0.357   0.413  0.00  0.00     0.039 A 
ATOM      3  C2  UNL d   1      -1.182   0.598   0.309  0.00  0.00    -0.080 A 
ATOM      4  C3  UNL d   1      -1.957   0.642   1.465  0.00  0.00     0.150 A 
ATOM      5  C4  UNL d   1      -1.381   0.453   2.717  0.00  0.00    -0.007 A 
ATOM      6  C5  UNL d   1      -0.012   0.211   2.818  0.00  0.00     0.039 A 
ENDROOT
BRANCH   4   7
ATOM      7  O   UNL d   1      -3.300   0.870   1.413  0.00  0.00    -0.526 OA
ATOM      8  H5  UNL d   1      -3.562   0.954   0.481  0.00  0.00     0.418 HD
ENDBRANCH   4   7
TORSDOF 1
ENDMDL
