MODEL 1
REMARK minimizedAffinity -2.02643013
REMARK minimizedRMSD -1
REMARK  1 active torsions:
REMARK  status: ('A' for Active; 'I' for Inactive)
REMARK    1  A    between atoms: C3_4  and  O_7 
ROOT
ATOM      1  C   UNL d   1       1.099   0.069   1.340  0.00  0.00    -0.033 A 
ATOM      2  C1  UNL d   1       0.475   0.180   2.584  0.00  0.00     0.039 A 
ATOM      3  C2  UNL d   1      -0.896   0.437   2.660  0.00  0.00    -0.080 A 
ATOM      4  C3  UNL d   1      -1.630   0.580   1.486  0.00  0.00     0.150 A 
ATOM      5  C4  UNL d   1      -1.015   0.467   0.243  0.00  0.00    -0.007 A 
ATOM      6  C5  UNL d   1       0.353   0.212   0.169  0.00  0.00     0.039 A 
ENDROOT
BRANCH   4   7
ATOM      7  O   UNL d   1      -2.968   0.836   1.509  0.00  0.00    -0.526 OA
ATOM      8  H5  UNL d   1      -3.250   0.916   2.435  0.00  0.00     0.418 HD
ENDBRANCH   4   7
TORSDOF 1
ENDMDL
