MODEL 1
REMARK minimizedAffinity -3.29323721
REMARK minimizedRMSD -1
REMARK  1 active torsions:
REMARK  status: ('A' for Active; 'I' for Inactive)
REMARK    1  A    between atoms: C3_4  and  O_7 
ROOT
ATOM      1  C   UNL d   1       0.997  -0.168   1.103  0.00  0.00    -0.033 A 
ATOM      2  C1  UNL d   1      -0.114  -0.017   0.270  0.00  0.00     0.039 A 
ATOM      3  C2  UNL d   1      -1.355   0.319   0.813  0.00  0.00    -0.080 A 
ATOM      4  C3  UNL d   1      -1.472   0.503   2.189  0.00  0.00     0.150 A 
ATOM      5  C4  UNL d   1      -0.369   0.358   3.023  0.00  0.00    -0.007 A 
ATOM      6  C5  UNL d   1       0.870   0.021   2.479  0.00  0.00     0.039 A 
ENDROOT
BRANCH   4   7
ATOM      7  O   UNL d   1      -2.664   0.827   2.765  0.00  0.00    -0.526 OA
ATOM      8  H5  UNL d   1      -3.342   0.866   2.070  0.00  0.00     0.418 HD
ENDBRANCH   4   7
TORSDOF 1
ENDMDL
