MODEL 1
REMARK minimizedAffinity -0.0342081934
REMARK minimizedRMSD -1
REMARK  1 active torsions:
REMARK  status: ('A' for Active; 'I' for Inactive)
REMARK    1  A    between atoms: C3_4  and  O_7 
ROOT
ATOM      1  C   UNL d   1       0.859   0.039  -0.318  0.00  0.00    -0.033 A 
ATOM      2  C1  UNL d   1      -0.047   0.127  -1.377  0.00  0.00     0.039 A 
ATOM      3  C2  UNL d   1      -1.401   0.352  -1.123  0.00  0.00    -0.080 A 
ATOM      4  C3  UNL d   1      -1.837   0.487   0.193  0.00  0.00     0.150 A 
ATOM      5  C4  UNL d   1      -0.939   0.403   1.252  0.00  0.00    -0.007 A 
ATOM      6  C5  UNL d   1       0.413   0.178   0.997  0.00  0.00     0.039 A 
ENDROOT
BRANCH   4   7
ATOM      7  O   UNL d   1      -3.149   0.702   0.490  0.00  0.00    -0.526 OA
ATOM      8  H5  UNL d   1      -3.656   0.708  -0.339  0.00  0.00     0.418 HD
ENDBRANCH   4   7
TORSDOF 1
ENDMDL
