MODEL 1
REMARK minimizedAffinity -1.69333112
REMARK minimizedRMSD -1
REMARK  1 active torsions:
REMARK  status: ('A' for Active; 'I' for Inactive)
REMARK    1  A    between atoms: C3_4  and  O_7 
ROOT
ATOM      1  C   UNL d   1      -0.207  -0.014  -1.243  0.00  0.00    -0.033 A 
ATOM      2  C1  UNL d   1      -1.424   0.269  -0.620  0.00  0.00     0.039 A 
ATOM      3  C2  UNL d   1      -1.505   0.306   0.773  0.00  0.00    -0.080 A 
ATOM      4  C3  UNL d   1      -0.363   0.061   1.531  0.00  0.00     0.150 A 
ATOM      5  C4  UNL d   1       0.854  -0.218   0.917  0.00  0.00    -0.007 A 
ATOM      6  C5  UNL d   1       0.932  -0.256  -0.474  0.00  0.00     0.039 A 
ENDROOT
BRANCH   4   7
ATOM      7  O   UNL d   1      -0.394   0.082   2.894  0.00  0.00    -0.526 OA
ATOM      8  H5  UNL d   1      -1.307   0.259   3.178  0.00  0.00     0.418 HD
ENDBRANCH   4   7
TORSDOF 1
ENDMDL
