MODEL 1
REMARK minimizedAffinity -2.65919471
REMARK minimizedRMSD -1
REMARK  1 active torsions:
REMARK  status: ('A' for Active; 'I' for Inactive)
REMARK    1  A    between atoms: C3_4  and  O_7 
ROOT
ATOM      1  C   UNL d   1       1.556  -1.470  -4.151  0.00  0.00    -0.033 A 
ATOM      2  C1  UNL d   1       1.632  -2.475  -3.185  0.00  0.00     0.039 A 
ATOM      3  C2  UNL d   1       1.360  -2.182  -1.847  0.00  0.00    -0.080 A 
ATOM      4  C3  UNL d   1       1.012  -0.882  -1.490  0.00  0.00     0.150 A 
ATOM      5  C4  UNL d   1       0.930   0.123  -2.448  0.00  0.00    -0.007 A 
ATOM      6  C5  UNL d   1       1.204  -0.172  -3.783  0.00  0.00     0.039 A 
ENDROOT
BRANCH   4   7
ATOM      7  O   UNL d   1       0.742  -0.547  -0.196  0.00  0.00    -0.526 OA
ATOM      8  H5  UNL d   1       0.866  -1.336   0.358  0.00  0.00     0.418 HD
ENDBRANCH   4   7
TORSDOF 1
ENDMDL
