MODEL 1
REMARK minimizedAffinity -1.30203593
REMARK minimizedRMSD -1
REMARK  1 active torsions:
REMARK  status: ('A' for Active; 'I' for Inactive)
REMARK    1  A    between atoms: C3_4  and  O_7 
ROOT
ATOM      1  C   UNL d   1       0.473  -0.013   1.082  0.00  0.00    -0.033 A 
ATOM      2  C1  UNL d   1       0.410   0.972   0.095  0.00  0.00     0.039 A 
ATOM      3  C2  UNL d   1       0.507   0.619  -1.253  0.00  0.00    -0.080 A 
ATOM      4  C3  UNL d   1       0.666  -0.720  -1.599  0.00  0.00     0.150 A 
ATOM      5  C4  UNL d   1       0.725  -1.707  -0.620  0.00  0.00    -0.007 A 
ATOM      6  C5  UNL d   1       0.629  -1.353   0.725  0.00  0.00     0.039 A 
ENDROOT
BRANCH   4   7
ATOM      7  O   UNL d   1       0.770  -1.112  -2.900  0.00  0.00    -0.526 OA
ATOM      8  H5  UNL d   1       0.741  -0.321  -3.463  0.00  0.00     0.418 HD
ENDBRANCH   4   7
TORSDOF 1
ENDMDL
