MODEL 1
REMARK minimizedAffinity -2.98179579
REMARK minimizedRMSD -1
REMARK  1 active torsions:
REMARK  status: ('A' for Active; 'I' for Inactive)
REMARK    1  A    between atoms: C3_4  and  O_7 
ROOT
ATOM      1  C   UNL d   1       1.527  -0.236   0.927  0.00  0.00    -0.033 A 
ATOM      2  C1  UNL d   1       0.348   0.068   0.244  0.00  0.00     0.039 A 
ATOM      3  C2  UNL d   1      -0.798   0.434   0.954  0.00  0.00    -0.080 A 
ATOM      4  C3  UNL d   1      -0.750   0.494   2.344  0.00  0.00     0.150 A 
ATOM      5  C4  UNL d   1       0.423   0.197   3.031  0.00  0.00    -0.007 A 
ATOM      6  C5  UNL d   1       1.565  -0.170   2.320  0.00  0.00     0.039 A 
ENDROOT
BRANCH   4   7
ATOM      7  O   UNL d   1      -1.843   0.842   3.081  0.00  0.00    -0.526 OA
ATOM      8  H5  UNL d   1      -2.588   0.991   2.474  0.00  0.00     0.418 HD
ENDBRANCH   4   7
TORSDOF 1
ENDMDL
