MODEL 1
REMARK minimizedAffinity -2.04754353
REMARK minimizedRMSD -1
REMARK  1 active torsions:
REMARK  status: ('A' for Active; 'I' for Inactive)
REMARK    1  A    between atoms: C3_4  and  O_7 
ROOT
ATOM      1  C   UNL d   1      -1.416   0.837   2.245  0.00  0.00    -0.033 A 
ATOM      2  C1  UNL d   1      -2.171   0.800   1.071  0.00  0.00     0.039 A 
ATOM      3  C2  UNL d   1      -1.549   0.542  -0.152  0.00  0.00    -0.080 A 
ATOM      4  C3  UNL d   1      -0.175   0.322  -0.187  0.00  0.00     0.150 A 
ATOM      5  C4  UNL d   1       0.582   0.353   0.979  0.00  0.00    -0.007 A 
ATOM      6  C5  UNL d   1      -0.040   0.612   2.199  0.00  0.00     0.039 A 
ENDROOT
BRANCH   4   7
ATOM      7  O   UNL d   1       0.477   0.070  -1.358  0.00  0.00    -0.526 OA
ATOM      8  H5  UNL d   1      -0.169   0.108  -2.084  0.00  0.00     0.418 HD
ENDBRANCH   4   7
TORSDOF 1
ENDMDL
