MODEL 1
REMARK minimizedAffinity -4.42609262
REMARK minimizedRMSD -1
REMARK  1 active torsions:
REMARK  status: ('A' for Active; 'I' for Inactive)
REMARK    1  A    between atoms: C3_4  and  O_7 
ROOT
ATOM      1  C   UNL d   1       0.795  -0.231   0.147  0.00  0.00    -0.033 A 
ATOM      2  C1  UNL d   1       0.042   0.342  -0.880  0.00  0.00     0.039 A 
ATOM      3  C2  UNL d   1       0.302   0.006  -2.210  0.00  0.00    -0.080 A 
ATOM      4  C3  UNL d   1       1.316  -0.903  -2.499  0.00  0.00     0.150 A 
ATOM      5  C4  UNL d   1       2.067  -1.480  -1.481  0.00  0.00    -0.007 A 
ATOM      6  C5  UNL d   1       1.807  -1.143  -0.154  0.00  0.00     0.039 A 
ENDROOT
BRANCH   4   7
ATOM      7  O   UNL d   1       1.609  -1.258  -3.782  0.00  0.00    -0.526 OA
ATOM      8  H5  UNL d   1       1.029  -0.758  -4.380  0.00  0.00     0.418 HD
ENDBRANCH   4   7
TORSDOF 1
ENDMDL
