MODEL 1
REMARK minimizedAffinity -1.12067199
REMARK minimizedRMSD -1
REMARK  1 active torsions:
REMARK  status: ('A' for Active; 'I' for Inactive)
REMARK    1  A    between atoms: C3_4  and  O_7 
ROOT
ATOM      1  C   UNL d   1      -0.056   0.353   1.505  0.00  0.00    -0.033 A 
ATOM      2  C1  UNL d   1      -1.045   0.452   0.524  0.00  0.00     0.039 A 
ATOM      3  C2  UNL d   1      -0.716   0.276  -0.822  0.00  0.00    -0.080 A 
ATOM      4  C3  UNL d   1       0.604   0.002  -1.172  0.00  0.00     0.150 A 
ATOM      5  C4  UNL d   1       1.593  -0.101  -0.200  0.00  0.00    -0.007 A 
ATOM      6  C5  UNL d   1       1.262   0.075   1.143  0.00  0.00     0.039 A 
ENDROOT
BRANCH   4   7
ATOM      7  O   UNL d   1       0.974  -0.172  -2.472  0.00  0.00    -0.526 OA
ATOM      8  H5  UNL d   1       0.192  -0.044  -3.035  0.00  0.00     0.418 HD
ENDBRANCH   4   7
TORSDOF 1
ENDMDL
