MODEL 1
REMARK minimizedAffinity -4.16546679
REMARK minimizedRMSD -1
REMARK  1 active torsions:
REMARK  status: ('A' for Active; 'I' for Inactive)
REMARK    1  A    between atoms: C3_4  and  O_7 
ROOT
ATOM      1  C   UNL d   1       1.483   0.003   1.073  0.00  0.00    -0.033 A 
ATOM      2  C1  UNL d   1       0.584   0.292   0.045  0.00  0.00     0.039 A 
ATOM      3  C2  UNL d   1      -0.763   0.517   0.335  0.00  0.00    -0.080 A 
ATOM      4  C3  UNL d   1      -1.198   0.450   1.656  0.00  0.00     0.150 A 
ATOM      5  C4  UNL d   1      -0.307   0.165   2.686  0.00  0.00    -0.007 A 
ATOM      6  C5  UNL d   1       1.037  -0.060   2.394  0.00  0.00     0.039 A 
ENDROOT
BRANCH   4   7
ATOM      7  O   UNL d   1      -2.504   0.656   1.988  0.00  0.00    -0.526 OA
ATOM      8  H5  UNL d   1      -3.008   0.814   1.172  0.00  0.00     0.418 HD
ENDBRANCH   4   7
TORSDOF 1
ENDMDL
