MODEL 1
REMARK minimizedAffinity -2.10533595
REMARK minimizedRMSD -1
REMARK  1 active torsions:
REMARK  status: ('A' for Active; 'I' for Inactive)
REMARK    1  A    between atoms: C3_4  and  O_7 
ROOT
ATOM      1  C   UNL d   1       1.020  -0.586   2.457  0.00  0.00    -0.033 A 
ATOM      2  C1  UNL d   1       0.651   0.739   2.217  0.00  0.00     0.039 A 
ATOM      3  C2  UNL d   1       0.497   1.196   0.907  0.00  0.00    -0.080 A 
ATOM      4  C3  UNL d   1       0.714   0.320  -0.153  0.00  0.00     0.150 A 
ATOM      5  C4  UNL d   1       1.078  -1.003   0.079  0.00  0.00    -0.007 A 
ATOM      6  C5  UNL d   1       1.232  -1.457   1.388  0.00  0.00     0.039 A 
ENDROOT
BRANCH   4   7
ATOM      7  O   UNL d   1       0.582   0.722  -1.449  0.00  0.00    -0.526 OA
ATOM      8  H5  UNL d   1       0.355   1.667  -1.456  0.00  0.00     0.418 HD
ENDBRANCH   4   7
TORSDOF 1
ENDMDL
