MODEL 1
REMARK minimizedAffinity -4.51592445
REMARK minimizedRMSD -1
REMARK  1 active torsions:
REMARK  status: ('A' for Active; 'I' for Inactive)
REMARK    1  A    between atoms: C1_2  and  C2_3 
ROOT
ATOM      1  C2  UNL d   1       0.866  -0.182  -0.574  0.00  0.00    -0.073 A 
ATOM      2  C3  UNL d   1       1.975  -0.991  -0.848  0.00  0.00    -0.002 A 
ATOM      3  C4  UNL d   1       2.985  -0.539  -1.698  0.00  0.00     0.004 A 
ATOM      4  C5  UNL d   1       2.900   0.728  -2.277  0.00  0.00    -0.004 A 
ATOM      5  C6  UNL d   1       1.806   1.555  -2.006  0.00  0.00    -0.075 A 
ATOM      6  C7  UNL d   1       1.699   2.919  -2.623  0.00  0.00     0.076 C 
ATOM      7  C8  UNL d   1       0.794   1.093  -1.154  0.00  0.00     0.001 A 
ENDROOT
BRANCH   1   8
ATOM      8  C1  UNL d   1      -0.224  -0.664   0.348  0.00  0.00     0.053 C 
ATOM      9  C   UNL d   1      -1.421   0.274   0.355  0.00  0.00     0.018 C 
ENDBRANCH   1   8
TORSDOF 1
ENDMDL
