MODEL 1
REMARK minimizedAffinity -5.21437216
REMARK minimizedRMSD -1
REMARK  1 active torsions:
REMARK  status: ('A' for Active; 'I' for Inactive)
REMARK    1  A    between atoms: C1_2  and  C2_3 
ROOT
ATOM      1  C2  UNL d   1      -0.080  -0.530   0.178  0.00  0.00    -0.073 A 
ATOM      2  C3  UNL d   1       0.810  -1.598   0.014  0.00  0.00    -0.002 A 
ATOM      3  C4  UNL d   1       1.896  -1.484  -0.854  0.00  0.00     0.004 A 
ATOM      4  C5  UNL d   1       2.109  -0.300  -1.561  0.00  0.00    -0.004 A 
ATOM      5  C6  UNL d   1       1.238   0.782  -1.402  0.00  0.00    -0.075 A 
ATOM      6  C7  UNL d   1       1.451   2.062  -2.157  0.00  0.00     0.076 C 
ATOM      7  C8  UNL d   1       0.147   0.659  -0.530  0.00  0.00     0.001 A 
ENDROOT
BRANCH   1   8
ATOM      8  C1  UNL d   1      -1.250  -0.646   1.119  0.00  0.00     0.053 C 
ATOM      9  C   UNL d   1      -1.682   0.707   1.662  0.00  0.00     0.018 C 
ENDBRANCH   1   8
TORSDOF 1
ENDMDL
