MODEL 1
REMARK minimizedAffinity -1.8744148
REMARK minimizedRMSD -1
REMARK  1 active torsions:
REMARK  status: ('A' for Active; 'I' for Inactive)
REMARK    1  A    between atoms: C1_2  and  C2_3 
ROOT
ATOM      1  C2  UNL d   1       0.162  -0.128  -0.078  0.00  0.00    -0.073 A 
ATOM      2  C3  UNL d   1       0.001  -1.467   0.297  0.00  0.00    -0.002 A 
ATOM      3  C4  UNL d   1       0.967  -2.415  -0.043  0.00  0.00     0.004 A 
ATOM      4  C5  UNL d   1       2.104  -2.035  -0.756  0.00  0.00    -0.004 A 
ATOM      5  C6  UNL d   1       2.288  -0.700  -1.130  0.00  0.00    -0.075 A 
ATOM      6  C7  UNL d   1       3.505  -0.275  -1.898  0.00  0.00     0.076 C 
ATOM      7  C8  UNL d   1       1.313   0.246  -0.786  0.00  0.00     0.001 A 
ENDROOT
BRANCH   1   8
ATOM      8  C1  UNL d   1      -0.874   0.901   0.293  0.00  0.00     0.053 C 
ATOM      9  C   UNL d   1      -1.472   0.638   1.666  0.00  0.00     0.018 C 
ENDBRANCH   1   8
TORSDOF 1
ENDMDL
