MODEL 1
REMARK minimizedAffinity -5.11537266
REMARK minimizedRMSD -1
REMARK  1 active torsions:
REMARK  status: ('A' for Active; 'I' for Inactive)
REMARK    1  A    between atoms: C1_2  and  C2_3 
ROOT
ATOM      1  C2  UNL d   1       0.349  -0.059   0.613  0.00  0.00    -0.073 A 
ATOM      2  C3  UNL d   1      -0.067  -1.393   0.527  0.00  0.00    -0.002 A 
ATOM      3  C4  UNL d   1       0.593  -2.283  -0.322  0.00  0.00     0.004 A 
ATOM      4  C5  UNL d   1       1.678  -1.852  -1.086  0.00  0.00    -0.004 A 
ATOM      5  C6  UNL d   1       2.115  -0.526  -1.004  0.00  0.00    -0.075 A 
ATOM      6  C7  UNL d   1       3.279  -0.046  -1.820  0.00  0.00     0.076 C 
ATOM      7  C8  UNL d   1       1.446   0.362  -0.151  0.00  0.00     0.001 A 
ENDROOT
BRANCH   1   8
ATOM      8  C1  UNL d   1      -0.356   0.904   1.533  0.00  0.00     0.053 C 
ATOM      9  C   UNL d   1      -1.866   0.739   1.482  0.00  0.00     0.018 C 
ENDBRANCH   1   8
TORSDOF 1
ENDMDL
