MODEL 1
REMARK minimizedAffinity -6.10035849
REMARK minimizedRMSD -1
REMARK  1 active torsions:
REMARK  status: ('A' for Active; 'I' for Inactive)
REMARK    1  A    between atoms: C1_2  and  C2_3 
ROOT
ATOM      1  C2  UNL d   1       1.118  -0.200  -0.498  0.00  0.00    -0.073 A 
ATOM      2  C3  UNL d   1       2.255  -1.010  -0.600  0.00  0.00    -0.002 A 
ATOM      3  C4  UNL d   1       3.325  -0.625  -1.409  0.00  0.00     0.004 A 
ATOM      4  C5  UNL d   1       3.273   0.575  -2.118  0.00  0.00    -0.004 A 
ATOM      5  C6  UNL d   1       2.150   1.404  -2.020  0.00  0.00    -0.075 A 
ATOM      6  C7  UNL d   1       2.077   2.697  -2.778  0.00  0.00     0.076 C 
ATOM      7  C8  UNL d   1       1.079   1.009  -1.208  0.00  0.00     0.001 A 
ENDROOT
BRANCH   1   8
ATOM      8  C1  UNL d   1      -0.037  -0.608   0.379  0.00  0.00     0.053 C 
ATOM      9  C   UNL d   1      -1.229   0.321   0.221  0.00  0.00     0.018 C 
ENDBRANCH   1   8
TORSDOF 1
ENDMDL
