MODEL 1
REMARK minimizedAffinity -3.49646306
REMARK minimizedRMSD -1
REMARK  1 active torsions:
REMARK  status: ('A' for Active; 'I' for Inactive)
REMARK    1  A    between atoms: C1_2  and  C2_3 
ROOT
ATOM      1  C2  UNL d   1      -0.131   0.014   0.176  0.00  0.00    -0.073 A 
ATOM      2  C3  UNL d   1      -0.451  -1.347   0.239  0.00  0.00    -0.002 A 
ATOM      3  C4  UNL d   1       0.460  -2.306  -0.205  0.00  0.00     0.004 A 
ATOM      4  C5  UNL d   1       1.701  -1.916  -0.708  0.00  0.00    -0.004 A 
ATOM      5  C6  UNL d   1       2.044  -0.561  -0.767  0.00  0.00    -0.075 A 
ATOM      6  C7  UNL d   1       3.374  -0.125  -1.308  0.00  0.00     0.076 C 
ATOM      7  C8  UNL d   1       1.123   0.396  -0.323  0.00  0.00     0.001 A 
ENDROOT
BRANCH   1   8
ATOM      8  C1  UNL d   1      -1.109   1.054   0.660  0.00  0.00     0.053 C 
ATOM      9  C   UNL d   1      -1.453   0.872   2.129  0.00  0.00     0.018 C 
ENDBRANCH   1   8
TORSDOF 1
ENDMDL
