MODEL 1
REMARK minimizedAffinity -4.02087307
REMARK minimizedRMSD -1
REMARK  1 active torsions:
REMARK  status: ('A' for Active; 'I' for Inactive)
REMARK    1  A    between atoms: C1_2  and  C2_3 
ROOT
ATOM      1  C2  UNL d   1      -1.030   0.198   0.545  0.00  0.00    -0.073 A 
ATOM      2  C3  UNL d   1      -1.002   1.384  -0.197  0.00  0.00    -0.002 A 
ATOM      3  C4  UNL d   1      -0.049   1.566  -1.200  0.00  0.00     0.004 A 
ATOM      4  C5  UNL d   1       0.880   0.562  -1.476  0.00  0.00    -0.004 A 
ATOM      5  C6  UNL d   1       0.860  -0.635  -0.753  0.00  0.00    -0.075 A 
ATOM      6  C7  UNL d   1       1.854  -1.723  -1.036  0.00  0.00     0.076 C 
ATOM      7  C8  UNL d   1      -0.098  -0.809   0.254  0.00  0.00     0.001 A 
ENDROOT
BRANCH   1   8
ATOM      8  C1  UNL d   1      -2.062  -0.005   1.624  0.00  0.00     0.053 C 
ATOM      9  C   UNL d   1      -1.939   1.030   2.732  0.00  0.00     0.018 C 
ENDBRANCH   1   8
TORSDOF 1
ENDMDL
