MODEL 1
REMARK minimizedAffinity -5.22481441
REMARK minimizedRMSD -1
REMARK  1 active torsions:
REMARK  status: ('A' for Active; 'I' for Inactive)
REMARK    1  A    between atoms: C1_2  and  C2_3 
ROOT
ATOM      1  C2  UNL d   1       1.367   0.548  -2.023  0.00  0.00    -0.073 A 
ATOM      2  C3  UNL d   1       1.807  -0.774  -1.891  0.00  0.00    -0.002 A 
ATOM      3  C4  UNL d   1       1.236  -1.615  -0.934  0.00  0.00     0.004 A 
ATOM      4  C5  UNL d   1       0.217  -1.145  -0.106  0.00  0.00    -0.004 A 
ATOM      5  C6  UNL d   1      -0.244   0.169  -0.230  0.00  0.00    -0.075 A 
ATOM      6  C7  UNL d   1      -1.338   0.690   0.655  0.00  0.00     0.076 C 
ATOM      7  C8  UNL d   1       0.336   1.008  -1.191  0.00  0.00     0.001 A 
ENDROOT
BRANCH   1   8
ATOM      8  C1  UNL d   1       1.976   1.458  -3.058  0.00  0.00     0.053 C 
ATOM      9  C   UNL d   1       1.465   1.151  -4.457  0.00  0.00     0.018 C 
ENDBRANCH   1   8
TORSDOF 1
ENDMDL
