MODEL 1
REMARK minimizedAffinity -3.07199693
REMARK minimizedRMSD -1
REMARK  1 active torsions:
REMARK  status: ('A' for Active; 'I' for Inactive)
REMARK    1  A    between atoms: C1_2  and  C2_3 
ROOT
ATOM      1  C2  UNL d   1       1.299  -1.278  -0.301  0.00  0.00    -0.073 A 
ATOM      2  C3  UNL d   1       2.582  -1.710  -0.653  0.00  0.00    -0.002 A 
ATOM      3  C4  UNL d   1       3.431  -0.876  -1.382  0.00  0.00     0.004 A 
ATOM      4  C5  UNL d   1       3.009   0.398  -1.760  0.00  0.00    -0.004 A 
ATOM      5  C6  UNL d   1       1.734   0.853  -1.407  0.00  0.00    -0.075 A 
ATOM      6  C7  UNL d   1       1.264   2.221  -1.807  0.00  0.00     0.076 C 
ATOM      7  C8  UNL d   1       0.887   0.009  -0.677  0.00  0.00     0.001 A 
ENDROOT
BRANCH   1   8
ATOM      8  C1  UNL d   1       0.381  -2.172   0.492  0.00  0.00     0.053 C 
ATOM      9  C   UNL d   1      -1.019  -2.221  -0.100  0.00  0.00     0.018 C 
ENDBRANCH   1   8
TORSDOF 1
ENDMDL
