MODEL 1
REMARK minimizedAffinity 7.04444504
REMARK minimizedRMSD -1
REMARK  1 active torsions:
REMARK  status: ('A' for Active; 'I' for Inactive)
REMARK    1  A    between atoms: C3_4  and  O_7 
ROOT
ATOM      1  C   UNL d   1       0.946  -1.713   2.660  0.00  0.00    -0.033 A 
ATOM      2  C1  UNL d   1       1.785  -1.223   1.657  0.00  0.00     0.039 A 
ATOM      3  C2  UNL d   1       3.160  -1.454   1.720  0.00  0.00    -0.080 A 
ATOM      4  C3  UNL d   1       3.684  -2.176   2.789  0.00  0.00     0.150 A 
ATOM      5  C4  UNL d   1       2.854  -2.671   3.790  0.00  0.00    -0.007 A 
ATOM      6  C5  UNL d   1       1.480  -2.439   3.725  0.00  0.00     0.039 A 
ENDROOT
BRANCH   4   7
ATOM      7  O   UNL d   1       5.020  -2.422   2.897  0.00  0.00    -0.526 OA
ATOM      8  H5  UNL d   1       5.473  -1.996   2.150  0.00  0.00     0.418 HD
ENDBRANCH   4   7
TORSDOF 1
ENDMDL
