MODEL 1
REMARK minimizedAffinity 0.103905655
REMARK minimizedRMSD -1
REMARK  1 active torsions:
REMARK  status: ('A' for Active; 'I' for Inactive)
REMARK    1  A    between atoms: C3_4  and  O_7 
ROOT
ATOM      1  C   UNL d   1       4.135   5.220  -5.266  0.00  0.00    -0.033 A 
ATOM      2  C1  UNL d   1       5.425   5.748  -5.183  0.00  0.00     0.039 A 
ATOM      3  C2  UNL d   1       5.999   6.000  -3.936  0.00  0.00    -0.080 A 
ATOM      4  C3  UNL d   1       5.275   5.719  -2.781  0.00  0.00     0.150 A 
ATOM      5  C4  UNL d   1       3.991   5.189  -2.855  0.00  0.00    -0.007 A 
ATOM      6  C5  UNL d   1       3.419   4.939  -4.102  0.00  0.00     0.039 A 
ENDROOT
BRANCH   4   7
ATOM      7  O   UNL d   1       5.793   5.953  -1.541  0.00  0.00    -0.526 OA
ATOM      8  H5  UNL d   1       6.675   6.346  -1.645  0.00  0.00     0.418 HD
ENDBRANCH   4   7
TORSDOF 1
ENDMDL
