MODEL 1
REMARK minimizedAffinity 2.39275169
REMARK minimizedRMSD -1
REMARK  1 active torsions:
REMARK  status: ('A' for Active; 'I' for Inactive)
REMARK    1  A    between atoms: C3_4  and  O_7 
ROOT
ATOM      1  C   UNL d   1       4.147   5.493  -1.775  0.00  0.00    -0.033 A 
ATOM      2  C1  UNL d   1       3.391   4.993  -2.837  0.00  0.00     0.039 A 
ATOM      3  C2  UNL d   1       3.914   4.998  -4.132  0.00  0.00    -0.080 A 
ATOM      4  C3  UNL d   1       5.193   5.504  -4.351  0.00  0.00     0.150 A 
ATOM      5  C4  UNL d   1       5.953   6.000  -3.297  0.00  0.00    -0.007 A 
ATOM      6  C5  UNL d   1       5.429   5.995  -2.005  0.00  0.00     0.039 A 
ENDROOT
BRANCH   4   7
ATOM      7  O   UNL d   1       5.744   5.534  -5.597  0.00  0.00    -0.526 OA
ATOM      8  H5  UNL d   1       5.093   5.186  -6.230  0.00  0.00     0.418 HD
ENDBRANCH   4   7
TORSDOF 1
ENDMDL
