MODEL 1
REMARK minimizedAffinity 0.457912385
REMARK minimizedRMSD -1
REMARK  1 active torsions:
REMARK  status: ('A' for Active; 'I' for Inactive)
REMARK    1  A    between atoms: C3_4  and  O_7 
ROOT
ATOM      1  C   UNL d   1       1.509  -0.683   0.891  0.00  0.00    -0.033 A 
ATOM      2  C1  UNL d   1       1.089   0.080   1.983  0.00  0.00     0.039 A 
ATOM      3  C2  UNL d   1       0.788  -0.542   3.196  0.00  0.00    -0.080 A 
ATOM      4  C3  UNL d   1       0.912  -1.924   3.305  0.00  0.00     0.150 A 
ATOM      5  C4  UNL d   1       1.333  -2.689   2.222  0.00  0.00    -0.007 A 
ATOM      6  C5  UNL d   1       1.632  -2.067   1.011  0.00  0.00     0.039 A 
ENDROOT
BRANCH   4   7
ATOM      7  O   UNL d   1       0.625  -2.576   4.467  0.00  0.00    -0.526 OA
ATOM      8  H5  UNL d   1       0.319  -1.923   5.119  0.00  0.00     0.418 HD
ENDBRANCH   4   7
TORSDOF 1
ENDMDL
