MODEL 1
REMARK minimizedAffinity 10.8202047
REMARK minimizedRMSD -1
REMARK  1 active torsions:
REMARK  status: ('A' for Active; 'I' for Inactive)
REMARK    1  A    between atoms: C3_4  and  O_7 
ROOT
ATOM      1  C   UNL d   1       1.654   1.007   1.660  0.00  0.00    -0.033 A 
ATOM      2  C1  UNL d   1       1.464   2.386   1.765  0.00  0.00     0.039 A 
ATOM      3  C2  UNL d   1       0.221   2.946   1.464  0.00  0.00    -0.080 A 
ATOM      4  C3  UNL d   1      -0.822   2.117   1.060  0.00  0.00     0.150 A 
ATOM      5  C4  UNL d   1      -0.640   0.742   0.956  0.00  0.00    -0.007 A 
ATOM      6  C5  UNL d   1       0.602   0.184   1.256  0.00  0.00     0.039 A 
ENDROOT
BRANCH   4   7
ATOM      7  O   UNL d   1      -2.051   2.618   0.750  0.00  0.00    -0.526 OA
ATOM      8  H5  UNL d   1      -2.021   3.586   0.839  0.00  0.00     0.418 HD
ENDBRANCH   4   7
TORSDOF 1
ENDMDL
