MODEL 1
REMARK minimizedAffinity 2.10835147
REMARK minimizedRMSD -1
REMARK  1 active torsions:
REMARK  status: ('A' for Active; 'I' for Inactive)
REMARK    1  A    between atoms: C3_4  and  O_7 
ROOT
ATOM      1  C   UNL d   1       3.011  -0.534   0.907  0.00  0.00    -0.033 A 
ATOM      2  C1  UNL d   1       1.784   0.065   1.198  0.00  0.00     0.039 A 
ATOM      3  C2  UNL d   1       0.919  -0.524   2.122  0.00  0.00    -0.080 A 
ATOM      4  C3  UNL d   1       1.293  -1.711   2.747  0.00  0.00     0.150 A 
ATOM      5  C4  UNL d   1       2.515  -2.311   2.465  0.00  0.00    -0.007 A 
ATOM      6  C5  UNL d   1       3.377  -1.722   1.541  0.00  0.00     0.039 A 
ENDROOT
BRANCH   4   7
ATOM      7  O   UNL d   1       0.480  -2.326   3.652  0.00  0.00    -0.526 OA
ATOM      8  H5  UNL d   1      -0.343  -1.813   3.726  0.00  0.00     0.418 HD
ENDBRANCH   4   7
TORSDOF 1
ENDMDL
