MODEL 1
REMARK minimizedAffinity 2.89411783
REMARK minimizedRMSD -1
REMARK  1 active torsions:
REMARK  status: ('A' for Active; 'I' for Inactive)
REMARK    1  A    between atoms: C3_4  and  O_7 
ROOT
ATOM      1  C   UNL d   1       1.571  -1.075   1.378  0.00  0.00    -0.033 A 
ATOM      2  C1  UNL d   1       1.623   0.261   1.780  0.00  0.00     0.039 A 
ATOM      3  C2  UNL d   1       1.381   0.601   3.113  0.00  0.00    -0.080 A 
ATOM      4  C3  UNL d   1       1.091  -0.403   4.032  0.00  0.00     0.150 A 
ATOM      5  C4  UNL d   1       1.042  -1.737   3.639  0.00  0.00    -0.007 A 
ATOM      6  C5  UNL d   1       1.282  -2.074   2.308  0.00  0.00     0.039 A 
ENDROOT
BRANCH   4   7
ATOM      7  O   UNL d   1       0.844  -0.120   5.342  0.00  0.00    -0.526 OA
ATOM      8  H5  UNL d   1       0.884   0.844   5.462  0.00  0.00     0.418 HD
ENDBRANCH   4   7
TORSDOF 1
ENDMDL
