MODEL 1
REMARK minimizedAffinity 6.99079323
REMARK minimizedRMSD -1
REMARK  1 active torsions:
REMARK  status: ('A' for Active; 'I' for Inactive)
REMARK    1  A    between atoms: C3_4  and  O_7 
ROOT
ATOM      1  C   UNL d   1      -2.661   2.613   0.770  0.00  0.00    -0.033 A 
ATOM      2  C1  UNL d   1      -2.282   1.275   0.896  0.00  0.00     0.039 A 
ATOM      3  C2  UNL d   1      -2.384   0.412  -0.197  0.00  0.00    -0.080 A 
ATOM      4  C3  UNL d   1      -2.865   0.900  -1.409  0.00  0.00     0.150 A 
ATOM      5  C4  UNL d   1      -3.241   2.232  -1.543  0.00  0.00    -0.007 A 
ATOM      6  C5  UNL d   1      -3.139   3.092  -0.450  0.00  0.00     0.039 A 
ENDROOT
BRANCH   4   7
ATOM      7  O   UNL d   1      -2.987   0.095  -2.503  0.00  0.00    -0.526 OA
ATOM      8  H5  UNL d   1      -2.717  -0.805  -2.254  0.00  0.00     0.418 HD
ENDBRANCH   4   7
TORSDOF 1
ENDMDL
