MODEL 1
REMARK minimizedAffinity 9.76728249
REMARK minimizedRMSD -1
REMARK  1 active torsions:
REMARK  status: ('A' for Active; 'I' for Inactive)
REMARK    1  A    between atoms: C3_4  and  O_7 
ROOT
ATOM      1  C   UNL d   1      -4.345   0.053  -3.430  0.00  0.00    -0.033 A 
ATOM      2  C1  UNL d   1      -3.209  -0.669  -3.059  0.00  0.00     0.039 A 
ATOM      3  C2  UNL d   1      -2.469  -0.283  -1.939  0.00  0.00    -0.080 A 
ATOM      4  C3  UNL d   1      -2.877   0.824  -1.200  0.00  0.00     0.150 A 
ATOM      5  C4  UNL d   1      -4.010   1.545  -1.562  0.00  0.00    -0.007 A 
ATOM      6  C5  UNL d   1      -4.746   1.159  -2.681  0.00  0.00     0.039 A 
ENDROOT
BRANCH   4   7
ATOM      7  O   UNL d   1      -2.185   1.242  -0.102  0.00  0.00    -0.526 OA
ATOM      8  H5  UNL d   1      -1.410   0.667   0.011  0.00  0.00     0.418 HD
ENDBRANCH   4   7
TORSDOF 1
ENDMDL
