MODEL 1
REMARK minimizedAffinity 3.981251
REMARK minimizedRMSD -1
REMARK  1 active torsions:
REMARK  status: ('A' for Active; 'I' for Inactive)
REMARK    1  A    between atoms: C3_4  and  O_7 
ROOT
ATOM      1  C   UNL d   1       1.885  -1.105   1.159  0.00  0.00    -0.033 A 
ATOM      2  C1  UNL d   1       1.114  -0.076   1.704  0.00  0.00     0.039 A 
ATOM      3  C2  UNL d   1       0.757  -0.108   3.054  0.00  0.00    -0.080 A 
ATOM      4  C3  UNL d   1       1.177  -1.173   3.846  0.00  0.00     0.150 A 
ATOM      5  C4  UNL d   1       1.948  -2.199   3.311  0.00  0.00    -0.007 A 
ATOM      6  C5  UNL d   1       2.303  -2.166   1.963  0.00  0.00     0.039 A 
ENDROOT
BRANCH   4   7
ATOM      7  O   UNL d   1       0.850  -1.250   5.167  0.00  0.00    -0.526 OA
ATOM      8  H5  UNL d   1       0.291  -0.487   5.391  0.00  0.00     0.418 HD
ENDBRANCH   4   7
TORSDOF 1
ENDMDL
