MODEL 1
REMARK minimizedAffinity 1.31229758
REMARK minimizedRMSD -1
REMARK  1 active torsions:
REMARK  status: ('A' for Active; 'I' for Inactive)
REMARK    1  A    between atoms: C3_4  and  O_7 
ROOT
ATOM      1  C   UNL d   1       2.153  -1.149   2.339  0.00  0.00    -0.033 A 
ATOM      2  C1  UNL d   1       2.632  -2.369   2.820  0.00  0.00     0.039 A 
ATOM      3  C2  UNL d   1       2.191  -2.857   4.052  0.00  0.00    -0.080 A 
ATOM      4  C3  UNL d   1       1.271  -2.118   4.790  0.00  0.00     0.150 A 
ATOM      5  C4  UNL d   1       0.786  -0.904   4.314  0.00  0.00    -0.007 A 
ATOM      6  C5  UNL d   1       1.229  -0.417   3.085  0.00  0.00     0.039 A 
ENDROOT
BRANCH   4   7
ATOM      7  O   UNL d   1       0.814  -2.551   5.999  0.00  0.00    -0.526 OA
ATOM      8  H5  UNL d   1       1.257  -3.390   6.213  0.00  0.00     0.418 HD
ENDBRANCH   4   7
TORSDOF 1
ENDMDL
