MODEL 1
REMARK minimizedAffinity -2.77408075
REMARK minimizedRMSD -1
REMARK  1 active torsions:
REMARK  status: ('A' for Active; 'I' for Inactive)
REMARK    1  A    between atoms: C3_4  and  O_7 
ROOT
ATOM      1  C   UNL d   1       1.966  -2.258   2.953  0.00  0.00    -0.033 A 
ATOM      2  C1  UNL d   1       1.684  -2.140   4.316  0.00  0.00     0.039 A 
ATOM      3  C2  UNL d   1       1.416  -0.887   4.869  0.00  0.00    -0.080 A 
ATOM      4  C3  UNL d   1       1.432   0.240   4.051  0.00  0.00     0.150 A 
ATOM      5  C4  UNL d   1       1.709   0.129   2.692  0.00  0.00    -0.007 A 
ATOM      6  C5  UNL d   1       1.977  -1.123   2.141  0.00  0.00     0.039 A 
ENDROOT
BRANCH   4   7
ATOM      7  O   UNL d   1       1.182   1.484   4.547  0.00  0.00    -0.526 OA
ATOM      8  H5  UNL d   1       1.036   1.410   5.505  0.00  0.00     0.418 HD
ENDBRANCH   4   7
TORSDOF 1
ENDMDL
