MODEL 1
REMARK minimizedAffinity -3.47538424
REMARK minimizedRMSD -1
REMARK  2 active torsions:
REMARK  status: ('A' for Active; 'I' for Inactive)
REMARK    1  A    between atoms: C1_2  and  C2_3 
REMARK    2  A    between atoms: C2_3  and  C3_4 
ROOT
ATOM      1  C3  UNL d   1      -0.249  -0.029   0.481  0.00  0.00    -0.075 A 
ATOM      2  C4  UNL d   1      -1.562   0.392   0.225  0.00  0.00     0.002 A 
ATOM      3  C5  UNL d   1      -2.640  -0.455   0.484  0.00  0.00     0.002 A 
ATOM      4  C6  UNL d   1      -2.420  -1.734   0.990  0.00  0.00    -0.004 A 
ATOM      5  C7  UNL d   1      -1.119  -2.168   1.233  0.00  0.00     0.002 A 
ATOM      6  C8  UNL d   1      -0.038  -1.322   0.979  0.00  0.00     0.002 A 
ENDROOT
BRANCH   1   7
ATOM      7  C2  UNL d   1       0.921   0.893   0.232  0.00  0.00     0.056 C 
BRANCH   7   8
ATOM      8  C1  UNL d   1       1.197   1.874   1.376  0.00  0.00     0.007 C 
ATOM      9  C   UNL d   1       2.046   3.065   0.953  0.00  0.00     0.009 C 
ENDBRANCH   7   8
ENDBRANCH   1   7
TORSDOF 2
ENDMDL
