MODEL 1
REMARK minimizedAffinity -5.4905324
REMARK minimizedRMSD -1
REMARK  2 active torsions:
REMARK  status: ('A' for Active; 'I' for Inactive)
REMARK    1  A    between atoms: C1_2  and  C2_3 
REMARK    2  A    between atoms: C2_3  and  C3_4 
ROOT
ATOM      1  C3  UNL d   1       0.059  -0.275  -0.040  0.00  0.00    -0.075 A 
ATOM      2  C4  UNL d   1      -0.946  -0.938   0.679  0.00  0.00     0.002 A 
ATOM      3  C5  UNL d   1      -2.226  -1.080   0.142  0.00  0.00     0.002 A 
ATOM      4  C6  UNL d   1      -2.520  -0.553  -1.114  0.00  0.00    -0.004 A 
ATOM      5  C7  UNL d   1      -1.534   0.122  -1.830  0.00  0.00     0.002 A 
ATOM      6  C8  UNL d   1      -0.251   0.261  -1.297  0.00  0.00     0.002 A 
ENDROOT
BRANCH   1   7
ATOM      7  C2  UNL d   1       1.454  -0.144   0.523  0.00  0.00     0.056 C 
BRANCH   7   8
ATOM      8  C1  UNL d   1       2.236   1.056  -0.022  0.00  0.00     0.007 C 
ATOM      9  C   UNL d   1       2.610   2.068   1.053  0.00  0.00     0.009 C 
ENDBRANCH   7   8
ENDBRANCH   1   7
TORSDOF 2
ENDMDL
