MODEL 1
REMARK minimizedAffinity 1.14184093
REMARK minimizedRMSD -1
REMARK  2 active torsions:
REMARK  status: ('A' for Active; 'I' for Inactive)
REMARK    1  A    between atoms: C1_2  and  C2_3 
REMARK    2  A    between atoms: C2_3  and  C3_4 
ROOT
ATOM      1  C3  UNL d   1      -0.835  -0.231  -0.595  0.00  0.00    -0.075 A 
ATOM      2  C4  UNL d   1      -1.230  -0.492   0.725  0.00  0.00     0.002 A 
ATOM      3  C5  UNL d   1      -2.312  -1.333   0.988  0.00  0.00     0.002 A 
ATOM      4  C6  UNL d   1      -3.017  -1.915  -0.063  0.00  0.00    -0.004 A 
ATOM      5  C7  UNL d   1      -2.643  -1.650  -1.379  0.00  0.00     0.002 A 
ATOM      6  C8  UNL d   1      -1.559  -0.812  -1.645  0.00  0.00     0.002 A 
ENDROOT
BRANCH   1   7
ATOM      7  C2  UNL d   1       0.352   0.655  -0.885  0.00  0.00     0.056 C 
BRANCH   7   8
ATOM      8  C1  UNL d   1       1.529   0.456   0.076  0.00  0.00     0.007 C 
ATOM      9  C   UNL d   1       2.418   1.686   0.199  0.00  0.00     0.009 C 
ENDBRANCH   7   8
ENDBRANCH   1   7
TORSDOF 2
ENDMDL
