MODEL 1
REMARK minimizedAffinity -4.76420164
REMARK minimizedRMSD -1
REMARK  2 active torsions:
REMARK  status: ('A' for Active; 'I' for Inactive)
REMARK    1  A    between atoms: C1_2  and  C2_3 
REMARK    2  A    between atoms: C2_3  and  C3_4 
ROOT
ATOM      1  C3  UNL d   1       0.323  -0.065   0.156  0.00  0.00    -0.075 A 
ATOM      2  C4  UNL d   1      -0.669  -0.773   0.849  0.00  0.00     0.002 A 
ATOM      3  C5  UNL d   1      -1.910  -1.015   0.259  0.00  0.00     0.002 A 
ATOM      4  C6  UNL d   1      -2.178  -0.546  -1.025  0.00  0.00    -0.004 A 
ATOM      5  C7  UNL d   1      -1.206   0.173  -1.716  0.00  0.00     0.002 A 
ATOM      6  C8  UNL d   1       0.038   0.414  -1.130  0.00  0.00     0.002 A 
ENDROOT
BRANCH   1   7
ATOM      7  C2  UNL d   1       1.678   0.176   0.777  0.00  0.00     0.056 C 
BRANCH   7   8
ATOM      8  C1  UNL d   1       2.299   1.529   0.415  0.00  0.00     0.007 C 
ATOM      9  C   UNL d   1       2.693   2.354   1.632  0.00  0.00     0.009 C 
ENDBRANCH   7   8
ENDBRANCH   1   7
TORSDOF 2
ENDMDL
