MODEL 1
REMARK minimizedAffinity -3.97366667
REMARK minimizedRMSD -1
REMARK  2 active torsions:
REMARK  status: ('A' for Active; 'I' for Inactive)
REMARK    1  A    between atoms: C1_2  and  C2_3 
REMARK    2  A    between atoms: C2_3  and  C3_4 
ROOT
ATOM      1  C3  UNL d   1       0.413  -0.060  -0.007  0.00  0.00    -0.075 A 
ATOM      2  C4  UNL d   1      -0.612  -0.634   0.759  0.00  0.00     0.002 A 
ATOM      3  C5  UNL d   1      -1.843  -0.939   0.179  0.00  0.00     0.002 A 
ATOM      4  C6  UNL d   1      -2.069  -0.664  -1.168  0.00  0.00    -0.004 A 
ATOM      5  C7  UNL d   1      -1.064  -0.079  -1.934  0.00  0.00     0.002 A 
ATOM      6  C8  UNL d   1       0.171   0.223  -1.357  0.00  0.00     0.002 A 
ENDROOT
BRANCH   1   7
ATOM      7  C2  UNL d   1       1.759   0.245   0.608  0.00  0.00     0.056 C 
BRANCH   7   8
ATOM      8  C1  UNL d   1       2.389   1.552   0.113  0.00  0.00     0.007 C 
ATOM      9  C   UNL d   1       2.776   2.497   1.243  0.00  0.00     0.009 C 
ENDBRANCH   7   8
ENDBRANCH   1   7
TORSDOF 2
ENDMDL
