MODEL 1
REMARK minimizedAffinity -1.5444293
REMARK minimizedRMSD -1
REMARK  2 active torsions:
REMARK  status: ('A' for Active; 'I' for Inactive)
REMARK    1  A    between atoms: C1_2  and  C2_3 
REMARK    2  A    between atoms: C2_3  and  C3_4 
ROOT
ATOM      1  C3  UNL d   1       1.366   0.766  -0.026  0.00  0.00    -0.075 A 
ATOM      2  C4  UNL d   1       0.624   0.742  -1.216  0.00  0.00     0.002 A 
ATOM      3  C5  UNL d   1      -0.565   0.017  -1.295  0.00  0.00     0.002 A 
ATOM      4  C6  UNL d   1      -1.023  -0.698  -0.190  0.00  0.00    -0.004 A 
ATOM      5  C7  UNL d   1      -0.286  -0.694   0.992  0.00  0.00     0.002 A 
ATOM      6  C8  UNL d   1       0.902   0.033   1.075  0.00  0.00     0.002 A 
ENDROOT
BRANCH   1   7
ATOM      7  C2  UNL d   1       2.639   1.572   0.075  0.00  0.00     0.056 C 
BRANCH   7   8
ATOM      8  C1  UNL d   1       2.639   2.598   1.213  0.00  0.00     0.007 C 
ATOM      9  C   UNL d   1       2.532   4.037   0.725  0.00  0.00     0.009 C 
ENDBRANCH   7   8
ENDBRANCH   1   7
TORSDOF 2
ENDMDL
