MODEL 1
REMARK minimizedAffinity -4.23947334
REMARK minimizedRMSD -1
REMARK  2 active torsions:
REMARK  status: ('A' for Active; 'I' for Inactive)
REMARK    1  A    between atoms: C1_2  and  C2_3 
REMARK    2  A    between atoms: C2_3  and  C3_4 
ROOT
ATOM      1  C3  UNL d   1      -0.801  -0.261  -0.907  0.00  0.00    -0.075 A 
ATOM      2  C4  UNL d   1      -0.993  -1.390  -0.098  0.00  0.00     0.002 A 
ATOM      3  C5  UNL d   1      -2.231  -2.033  -0.062  0.00  0.00     0.002 A 
ATOM      4  C6  UNL d   1      -3.292  -1.551  -0.824  0.00  0.00    -0.004 A 
ATOM      5  C7  UNL d   1      -3.117  -0.420  -1.619  0.00  0.00     0.002 A 
ATOM      6  C8  UNL d   1      -1.878   0.222  -1.661  0.00  0.00     0.002 A 
ENDROOT
BRANCH   1   7
ATOM      7  C2  UNL d   1       0.545   0.422  -0.973  0.00  0.00     0.056 C 
BRANCH   7   8
ATOM      8  C1  UNL d   1       1.349   0.343   0.329  0.00  0.00     0.007 C 
ATOM      9  C   UNL d   1       2.584   1.233   0.326  0.00  0.00     0.009 C 
ENDBRANCH   7   8
ENDBRANCH   1   7
TORSDOF 2
ENDMDL
