MODEL 1
REMARK minimizedAffinity -4.06601048
REMARK minimizedRMSD -1
REMARK  2 active torsions:
REMARK  status: ('A' for Active; 'I' for Inactive)
REMARK    1  A    between atoms: C1_2  and  C2_3 
REMARK    2  A    between atoms: C2_3  and  C3_4 
ROOT
ATOM      1  C3  UNL d   1      -1.107  -0.501   0.156  0.00  0.00    -0.075 A 
ATOM      2  C4  UNL d   1      -2.335  -0.681  -0.497  0.00  0.00     0.002 A 
ATOM      3  C5  UNL d   1      -3.149  -1.772  -0.188  0.00  0.00     0.002 A 
ATOM      4  C6  UNL d   1      -2.741  -2.700   0.767  0.00  0.00    -0.004 A 
ATOM      5  C7  UNL d   1      -1.516  -2.540   1.410  0.00  0.00     0.002 A 
ATOM      6  C8  UNL d   1      -0.702  -1.447   1.107  0.00  0.00     0.002 A 
ENDROOT
BRANCH   1   7
ATOM      7  C2  UNL d   1      -0.236   0.694  -0.152  0.00  0.00     0.056 C 
BRANCH   7   8
ATOM      8  C1  UNL d   1       1.233   0.513   0.245  0.00  0.00     0.007 C 
ATOM      9  C   UNL d   1       1.936   1.827   0.558  0.00  0.00     0.009 C 
ENDBRANCH   7   8
ENDBRANCH   1   7
TORSDOF 2
ENDMDL
