MODEL 1
REMARK minimizedAffinity -5.22570467
REMARK minimizedRMSD -1
REMARK  2 active torsions:
REMARK  status: ('A' for Active; 'I' for Inactive)
REMARK    1  A    between atoms: C1_2  and  C2_3 
REMARK    2  A    between atoms: C2_3  and  C3_4 
ROOT
ATOM      1  C3  UNL d   1       0.257  -0.205   0.039  0.00  0.00    -0.075 A 
ATOM      2  C4  UNL d   1      -0.884  -0.786   0.610  0.00  0.00     0.002 A 
ATOM      3  C5  UNL d   1      -2.084  -0.838  -0.101  0.00  0.00     0.002 A 
ATOM      4  C6  UNL d   1      -2.160  -0.301  -1.384  0.00  0.00    -0.004 A 
ATOM      5  C7  UNL d   1      -1.037   0.294  -1.954  0.00  0.00     0.002 A 
ATOM      6  C8  UNL d   1       0.166   0.343  -1.247  0.00  0.00     0.002 A 
ENDROOT
BRANCH   1   7
ATOM      7  C2  UNL d   1       1.566  -0.172   0.792  0.00  0.00     0.056 C 
BRANCH   7   8
ATOM      8  C1  UNL d   1       2.328   1.151   0.661  0.00  0.00     0.007 C 
ATOM      9  C   UNL d   1       2.566   1.842   1.997  0.00  0.00     0.009 C 
ENDBRANCH   7   8
ENDBRANCH   1   7
TORSDOF 2
ENDMDL
