MODEL 1
REMARK minimizedAffinity -4.86417913
REMARK minimizedRMSD -1
REMARK  2 active torsions:
REMARK  status: ('A' for Active; 'I' for Inactive)
REMARK    1  A    between atoms: C1_2  and  C2_3 
REMARK    2  A    between atoms: C2_3  and  C3_4 
ROOT
ATOM      1  C3  UNL d   1       0.012   0.176  -0.086  0.00  0.00    -0.075 A 
ATOM      2  C4  UNL d   1      -0.939  -0.249   0.852  0.00  0.00     0.002 A 
ATOM      3  C5  UNL d   1      -2.258  -0.487   0.465  0.00  0.00     0.002 A 
ATOM      4  C6  UNL d   1      -2.644  -0.294  -0.860  0.00  0.00    -0.004 A 
ATOM      5  C7  UNL d   1      -1.711   0.144  -1.797  0.00  0.00     0.002 A 
ATOM      6  C8  UNL d   1      -0.390   0.379  -1.413  0.00  0.00     0.002 A 
ENDROOT
BRANCH   1   7
ATOM      7  C2  UNL d   1       1.448   0.407   0.320  0.00  0.00     0.056 C 
BRANCH   7   8
ATOM      8  C1  UNL d   1       1.702   1.774   0.964  0.00  0.00     0.007 C 
ATOM      9  C   UNL d   1       2.450   1.685   2.287  0.00  0.00     0.009 C 
ENDBRANCH   7   8
ENDBRANCH   1   7
TORSDOF 2
ENDMDL
