MODEL 1
REMARK minimizedAffinity -4.14753914
REMARK minimizedRMSD -1
REMARK  2 active torsions:
REMARK  status: ('A' for Active; 'I' for Inactive)
REMARK    1  A    between atoms: C1_2  and  C2_3 
REMARK    2  A    between atoms: C2_3  and  C3_4 
ROOT
ATOM      1  C3  UNL d   1       0.223   0.114  -0.120  0.00  0.00    -0.075 A 
ATOM      2  C4  UNL d   1      -0.838  -0.627   0.421  0.00  0.00     0.002 A 
ATOM      3  C5  UNL d   1      -1.943  -0.958  -0.364  0.00  0.00     0.002 A 
ATOM      4  C6  UNL d   1      -2.006  -0.544  -1.693  0.00  0.00    -0.004 A 
ATOM      5  C7  UNL d   1      -0.966   0.206  -2.235  0.00  0.00     0.002 A 
ATOM      6  C8  UNL d   1       0.143   0.535  -1.454  0.00  0.00     0.002 A 
ENDROOT
BRANCH   1   7
ATOM      7  C2  UNL d   1       1.435   0.450   0.716  0.00  0.00     0.056 C 
BRANCH   7   8
ATOM      8  C1  UNL d   1       2.176   1.712   0.260  0.00  0.00     0.007 C 
ATOM      9  C   UNL d   1       2.775   2.506   1.414  0.00  0.00     0.009 C 
ENDBRANCH   7   8
ENDBRANCH   1   7
TORSDOF 2
ENDMDL
