MODEL 1
REMARK minimizedAffinity 1.69728577
REMARK minimizedRMSD -1
REMARK  0 active torsions:
REMARK  status: ('A' for Active; 'I' for Inactive)
ROOT
ATOM      1  C1  DEN d   1       2.278   5.278   5.961  0.00  0.00     0.130 A 
ATOM      2  C2  DEN d   1       3.686   5.664   5.990  0.00  0.00    -0.031 A 
ATOM      3  C3  DEN d   1       4.096   5.998   4.611  0.00  0.00     0.027 A 
ATOM      4  C4  DEN d   1       2.693   5.960   2.447  0.00  0.00     0.027 A 
ATOM      5  C5  DEN d   1       1.450   5.687   1.920  0.00  0.00    -0.003 A 
ATOM      6  C6  DEN d   1       0.414   5.231   2.691  0.00  0.00     0.001 A 
ATOM      7  C7  DEN d   1       0.589   5.076   4.041  0.00  0.00     0.017 A 
ATOM      8  C8  DEN d   1       1.842   5.341   4.578  0.00  0.00    -0.094 A 
ATOM      9  C9  DEN d   1       2.873   5.814   3.784  0.00  0.00    -0.072 A 
ENDROOT
TORSDOF 0
ENDMDL
