MODEL 1
REMARK minimizedAffinity 9.4843502
REMARK minimizedRMSD -1
REMARK  0 active torsions:
REMARK  status: ('A' for Active; 'I' for Inactive)
ROOT
ATOM      1  C1  DEN d   1       1.906  -1.707   2.358  0.00  0.00     0.130 A 
ATOM      2  C2  DEN d   1       0.469  -1.764   2.108  0.00  0.00    -0.031 A 
ATOM      3  C3  DEN d   1       0.202  -2.924   1.234  0.00  0.00     0.027 A 
ATOM      4  C4  DEN d   1       1.867  -4.631   0.251  0.00  0.00     0.027 A 
ATOM      5  C5  DEN d   1       3.196  -4.987   0.174  0.00  0.00    -0.003 A 
ATOM      6  C6  DEN d   1       4.183  -4.261   0.786  0.00  0.00     0.001 A 
ATOM      7  C7  DEN d   1       3.852  -3.167   1.540  0.00  0.00     0.017 A 
ATOM      8  C8  DEN d   1       2.516  -2.798   1.617  0.00  0.00    -0.094 A 
ATOM      9  C9  DEN d   1       1.531  -3.552   1.001  0.00  0.00    -0.072 A 
ENDROOT
TORSDOF 0
ENDMDL
