MODEL 1
REMARK minimizedAffinity 9.6810379
REMARK minimizedRMSD -1
REMARK  0 active torsions:
REMARK  status: ('A' for Active; 'I' for Inactive)
ROOT
ATOM      1  C1  DEN d   1       0.074  -0.373   2.691  0.00  0.00     0.130 A 
ATOM      2  C2  DEN d   1      -0.862  -1.262   3.373  0.00  0.00    -0.031 A 
ATOM      3  C3  DEN d   1      -0.595  -2.641   2.920  0.00  0.00     0.027 A 
ATOM      4  C4  DEN d   1       1.171  -3.483   1.239  0.00  0.00     0.027 A 
ATOM      5  C5  DEN d   1       2.187  -3.100   0.392  0.00  0.00    -0.003 A 
ATOM      6  C6  DEN d   1       2.545  -1.788   0.227  0.00  0.00     0.001 A 
ATOM      7  C7  DEN d   1       1.910  -0.815   0.954  0.00  0.00     0.017 A 
ATOM      8  C8  DEN d   1       0.880  -1.193   1.805  0.00  0.00    -0.094 A 
ATOM      9  C9  DEN d   1       0.542  -2.526   1.967  0.00  0.00    -0.072 A 
ENDROOT
TORSDOF 0
ENDMDL
