MODEL 1
REMARK minimizedAffinity 9.42497444
REMARK minimizedRMSD -1
REMARK  0 active torsions:
REMARK  status: ('A' for Active; 'I' for Inactive)
ROOT
ATOM      1  C1  DEN d   1       4.416   3.005   3.056  0.00  0.00     0.130 A 
ATOM      2  C2  DEN d   1       3.243   2.214   3.418  0.00  0.00    -0.031 A 
ATOM      3  C3  DEN d   1       2.626   2.829   4.610  0.00  0.00     0.027 A 
ATOM      4  C4  DEN d   1       3.366   4.923   5.921  0.00  0.00     0.027 A 
ATOM      5  C5  DEN d   1       4.311   5.923   6.000  0.00  0.00    -0.003 A 
ATOM      6  C6  DEN d   1       5.367   6.000   5.131  0.00  0.00     0.001 A 
ATOM      7  C7  DEN d   1       5.479   5.086   4.117  0.00  0.00     0.017 A 
ATOM      8  C8  DEN d   1       4.535   4.071   4.035  0.00  0.00    -0.094 A 
ATOM      9  C9  DEN d   1       3.468   4.017   4.916  0.00  0.00    -0.072 A 
ENDROOT
TORSDOF 0
ENDMDL
