MODEL 1
REMARK minimizedAffinity 9.93932533
REMARK minimizedRMSD -1
REMARK  0 active torsions:
REMARK  status: ('A' for Active; 'I' for Inactive)
ROOT
ATOM      1  C1  DEN d   1      -2.636   2.469   4.742  0.00  0.00     0.130 A 
ATOM      2  C2  DEN d   1      -3.800   1.621   4.503  0.00  0.00    -0.031 A 
ATOM      3  C3  DEN d   1      -5.010   2.408   4.816  0.00  0.00     0.027 A 
ATOM      4  C4  DEN d   1      -5.191   4.846   5.640  0.00  0.00     0.027 A 
ATOM      5  C5  DEN d   1      -4.474   5.965   6.000  0.00  0.00    -0.003 A 
ATOM      6  C6  DEN d   1      -3.104   5.986   5.999  0.00  0.00     0.001 A 
ATOM      7  C7  DEN d   1      -2.409   4.881   5.587  0.00  0.00     0.017 A 
ATOM      8  C8  DEN d   1      -3.125   3.746   5.229  0.00  0.00    -0.094 A 
ATOM      9  C9  DEN d   1      -4.509   3.748   5.225  0.00  0.00    -0.072 A 
ENDROOT
TORSDOF 0
ENDMDL
