MODEL 1
REMARK minimizedAffinity 15.9285669
REMARK minimizedRMSD -1
REMARK  0 active torsions:
REMARK  status: ('A' for Active; 'I' for Inactive)
ROOT
ATOM      1  C1  DEN d   1       3.361   1.056  -0.316  0.00  0.00     0.130 A 
ATOM      2  C2  DEN d   1       4.809   1.107  -0.491  0.00  0.00    -0.031 A 
ATOM      3  C3  DEN d   1       5.328  -0.274  -0.409  0.00  0.00     0.027 A 
ATOM      4  C4  DEN d   1       4.034  -2.473  -0.033  0.00  0.00     0.027 A 
ATOM      5  C5  DEN d   1       2.788  -3.020   0.181  0.00  0.00    -0.003 A 
ATOM      6  C6  DEN d   1       1.659  -2.250   0.277  0.00  0.00     0.001 A 
ATOM      7  C7  DEN d   1       1.748  -0.893   0.114  0.00  0.00     0.017 A 
ATOM      8  C8  DEN d   1       3.002  -0.333  -0.094  0.00  0.00    -0.094 A 
ATOM      9  C9  DEN d   1       4.129  -1.130  -0.201  0.00  0.00    -0.072 A 
ENDROOT
TORSDOF 0
ENDMDL
