MODEL 1
REMARK minimizedAffinity 6.6252532
REMARK minimizedRMSD -1
REMARK  0 active torsions:
REMARK  status: ('A' for Active; 'I' for Inactive)
ROOT
ATOM      1  C1  DEN d   1       1.387  -4.997   0.931  0.00  0.00     0.130 A 
ATOM      2  C2  DEN d   1       2.778  -4.576   0.783  0.00  0.00    -0.031 A 
ATOM      3  C3  DEN d   1       2.887  -3.185   1.266  0.00  0.00     0.027 A 
ATOM      4  C4  DEN d   1       1.050  -1.651   2.226  0.00  0.00     0.027 A 
ATOM      5  C5  DEN d   1      -0.290  -1.562   2.536  0.00  0.00    -0.003 A 
ATOM      6  C6  DEN d   1      -1.163  -2.591   2.303  0.00  0.00     0.001 A 
ATOM      7  C7  DEN d   1      -0.699  -3.771   1.785  0.00  0.00     0.017 A 
ATOM      8  C8  DEN d   1       0.649  -3.866   1.463  0.00  0.00    -0.094 A 
ATOM      9  C9  DEN d   1       1.518  -2.819   1.718  0.00  0.00    -0.072 A 
ENDROOT
TORSDOF 0
ENDMDL
