MODEL 1
REMARK minimizedAffinity 4.75407887
REMARK minimizedRMSD -1
REMARK  0 active torsions:
REMARK  status: ('A' for Active; 'I' for Inactive)
ROOT
ATOM      1  C1  DEN d   1       2.706  -3.140   2.406  0.00  0.00     0.130 A 
ATOM      2  C2  DEN d   1       3.028  -3.731   1.110  0.00  0.00    -0.031 A 
ATOM      3  C3  DEN d   1       2.129  -3.135   0.101  0.00  0.00     0.027 A 
ATOM      4  C4  DEN d   1       0.284  -1.361   0.417  0.00  0.00     0.027 A 
ATOM      5  C5  DEN d   1      -0.366  -0.569   1.337  0.00  0.00    -0.003 A 
ATOM      6  C6  DEN d   1      -0.063  -0.603   2.673  0.00  0.00     0.001 A 
ATOM      7  C7  DEN d   1       0.947  -1.414   3.119  0.00  0.00     0.017 A 
ATOM      8  C8  DEN d   1       1.602  -2.221   2.198  0.00  0.00    -0.094 A 
ATOM      9  C9  DEN d   1       1.289  -2.163   0.851  0.00  0.00    -0.072 A 
ENDROOT
TORSDOF 0
ENDMDL
