MODEL 1
REMARK minimizedAffinity 4.50116205
REMARK minimizedRMSD -1
REMARK  0 active torsions:
REMARK  status: ('A' for Active; 'I' for Inactive)
ROOT
ATOM      1  C1  DEN d   1      -0.893  -3.846   2.958  0.00  0.00     0.130 A 
ATOM      2  C2  DEN d   1      -1.406  -2.508   3.241  0.00  0.00    -0.031 A 
ATOM      3  C3  DEN d   1      -0.501  -1.529   2.606  0.00  0.00     0.027 A 
ATOM      4  C4  DEN d   1       1.630  -1.952   1.215  0.00  0.00     0.027 A 
ATOM      5  C5  DEN d   1       2.469  -2.923   0.715  0.00  0.00    -0.003 A 
ATOM      6  C6  DEN d   1       2.268  -4.256   0.955  0.00  0.00     0.001 A 
ATOM      7  C7  DEN d   1       1.176  -4.659   1.677  0.00  0.00     0.017 A 
ATOM      8  C8  DEN d   1       0.329  -3.686   2.190  0.00  0.00    -0.094 A 
ATOM      9  C9  DEN d   1       0.542  -2.344   1.927  0.00  0.00    -0.072 A 
ENDROOT
TORSDOF 0
ENDMDL
