MODEL 1
REMARK minimizedAffinity 0.671380639
REMARK minimizedRMSD -1
REMARK  0 active torsions:
REMARK  status: ('A' for Active; 'I' for Inactive)
ROOT
ATOM      1  C1  DEN d   1      -4.877   4.782   6.000  0.00  0.00     0.130 A 
ATOM      2  C2  DEN d   1      -3.493   5.247   5.969  0.00  0.00    -0.031 A 
ATOM      3  C3  DEN d   1      -2.690   4.242   5.243  0.00  0.00     0.027 A 
ATOM      4  C4  DEN d   1      -3.452   2.027   4.165  0.00  0.00     0.027 A 
ATOM      5  C5  DEN d   1      -4.531   1.199   3.943  0.00  0.00    -0.003 A 
ATOM      6  C6  DEN d   1      -5.783   1.488   4.416  0.00  0.00     0.001 A 
ATOM      7  C7  DEN d   1      -5.998   2.657   5.098  0.00  0.00     0.017 A 
ATOM      8  C8  DEN d   1      -4.914   3.493   5.332  0.00  0.00    -0.094 A 
ATOM      9  C9  DEN d   1      -3.658   3.189   4.835  0.00  0.00    -0.072 A 
ENDROOT
TORSDOF 0
ENDMDL
