MODEL 1
REMARK minimizedAffinity 2.20757031
REMARK minimizedRMSD -1
REMARK  0 active torsions:
REMARK  status: ('A' for Active; 'I' for Inactive)
ROOT
ATOM      1  C1  DEN d   1       0.765   4.268   2.067  0.00  0.00     0.130 A 
ATOM      2  C2  DEN d   1       1.462   3.005   1.843  0.00  0.00    -0.031 A 
ATOM      3  C3  DEN d   1       2.169   2.646   3.089  0.00  0.00     0.027 A 
ATOM      4  C4  DEN d   1       2.248   3.916   5.332  0.00  0.00     0.027 A 
ATOM      5  C5  DEN d   1       1.823   5.043   6.000  0.00  0.00    -0.003 A 
ATOM      6  C6  DEN d   1       1.049   6.000   5.398  0.00  0.00     0.001 A 
ATOM      7  C7  DEN d   1       0.639   5.825   4.102  0.00  0.00     0.017 A 
ATOM      8  C8  DEN d   1       1.071   4.695   3.421  0.00  0.00    -0.094 A 
ATOM      9  C9  DEN d   1       1.842   3.733   4.051  0.00  0.00    -0.072 A 
ENDROOT
TORSDOF 0
ENDMDL
