MODEL 1
REMARK minimizedAffinity -4.69915199
REMARK minimizedRMSD -1
REMARK  2 active torsions:
REMARK  status: ('A' for Active; 'I' for Inactive)
REMARK    1  A    between atoms: C1_2  and  C2_3 
REMARK    2  A    between atoms: C2_3  and  C3_4 
ROOT
ATOM      1  C3  UNL d   1       0.404   0.208   0.161  0.00  0.00    -0.075 A 
ATOM      2  C4  UNL d   1       0.974   1.420   0.577  0.00  0.00     0.002 A 
ATOM      3  C5  UNL d   1       0.984   2.527  -0.273  0.00  0.00     0.002 A 
ATOM      4  C6  UNL d   1       0.436   2.433  -1.551  0.00  0.00    -0.004 A 
ATOM      5  C7  UNL d   1      -0.117   1.228  -1.981  0.00  0.00     0.002 A 
ATOM      6  C8  UNL d   1      -0.133   0.121  -1.131  0.00  0.00     0.002 A 
ENDROOT
BRANCH   1   7
ATOM      7  C2  UNL d   1       0.363  -0.984   1.086  0.00  0.00     0.056 C 
BRANCH   7   8
ATOM      8  C1  UNL d   1      -0.652  -2.057   0.677  0.00  0.00     0.007 C 
ATOM      9  C   UNL d   1      -0.005  -3.382   0.297  0.00  0.00     0.009 C 
ENDBRANCH   7   8
ENDBRANCH   1   7
TORSDOF 2
ENDMDL
