MODEL 1
REMARK minimizedAffinity -4.25375938
REMARK minimizedRMSD -1
REMARK  2 active torsions:
REMARK  status: ('A' for Active; 'I' for Inactive)
REMARK    1  A    between atoms: C1_2  and  C2_3 
REMARK    2  A    between atoms: C2_3  and  C3_4 
ROOT
ATOM      1  C3  UNL d   1       0.024  -0.677   0.357  0.00  0.00    -0.075 A 
ATOM      2  C4  UNL d   1       1.080  -1.582   0.183  0.00  0.00     0.002 A 
ATOM      3  C5  UNL d   1       0.858  -2.956   0.274  0.00  0.00     0.002 A 
ATOM      4  C6  UNL d   1      -0.419  -3.442   0.548  0.00  0.00    -0.004 A 
ATOM      5  C7  UNL d   1      -1.473  -2.551   0.739  0.00  0.00     0.002 A 
ATOM      6  C8  UNL d   1      -1.254  -1.175   0.645  0.00  0.00     0.002 A 
ENDROOT
BRANCH   1   7
ATOM      7  C2  UNL d   1       0.252   0.811   0.232  0.00  0.00     0.056 C 
BRANCH   7   8
ATOM      8  C1  UNL d   1      -0.143   1.390  -1.131  0.00  0.00     0.007 C 
ATOM      9  C   UNL d   1       0.044   0.406  -2.278  0.00  0.00     0.009 C 
ENDBRANCH   7   8
ENDBRANCH   1   7
TORSDOF 2
ENDMDL
