MODEL 1
REMARK minimizedAffinity -4.02536583
REMARK minimizedRMSD -1
REMARK  2 active torsions:
REMARK  status: ('A' for Active; 'I' for Inactive)
REMARK    1  A    between atoms: C1_2  and  C2_3 
REMARK    2  A    between atoms: C2_3  and  C3_4 
ROOT
ATOM      1  C3  UNL d   1       0.014   0.266   0.143  0.00  0.00    -0.075 A 
ATOM      2  C4  UNL d   1      -0.537  -0.459   1.210  0.00  0.00     0.002 A 
ATOM      3  C5  UNL d   1      -0.880  -1.802   1.052  0.00  0.00     0.002 A 
ATOM      4  C6  UNL d   1      -0.687  -2.433  -0.175  0.00  0.00    -0.004 A 
ATOM      5  C7  UNL d   1      -0.155  -1.719  -1.246  0.00  0.00     0.002 A 
ATOM      6  C8  UNL d   1       0.193  -0.376  -1.089  0.00  0.00     0.002 A 
ENDROOT
BRANCH   1   7
ATOM      7  C2  UNL d   1       0.415   1.711   0.316  0.00  0.00     0.056 C 
BRANCH   7   8
ATOM      8  C1  UNL d   1       1.930   1.940   0.344  0.00  0.00     0.007 C 
ATOM      9  C   UNL d   1       2.334   3.195   1.106  0.00  0.00     0.009 C 
ENDBRANCH   7   8
ENDBRANCH   1   7
TORSDOF 2
ENDMDL
