MODEL 1
REMARK minimizedAffinity -5.6456461
REMARK minimizedRMSD -1
REMARK  2 active torsions:
REMARK  status: ('A' for Active; 'I' for Inactive)
REMARK    1  A    between atoms: C1_2  and  C2_3 
REMARK    2  A    between atoms: C2_3  and  C3_4 
ROOT
ATOM      1  C3  UNL d   1      -0.225   0.088   0.289  0.00  0.00    -0.075 A 
ATOM      2  C4  UNL d   1      -0.859   0.379   1.506  0.00  0.00     0.002 A 
ATOM      3  C5  UNL d   1      -1.228  -0.647   2.376  0.00  0.00     0.002 A 
ATOM      4  C6  UNL d   1      -0.978  -1.975   2.037  0.00  0.00    -0.004 A 
ATOM      5  C7  UNL d   1      -0.364  -2.277   0.823  0.00  0.00     0.002 A 
ATOM      6  C8  UNL d   1       0.010  -1.252  -0.047  0.00  0.00     0.002 A 
ENDROOT
BRANCH   1   7
ATOM      7  C2  UNL d   1       0.203   1.196  -0.643  0.00  0.00     0.056 C 
BRANCH   7   8
ATOM      8  C1  UNL d   1       0.511   2.521   0.062  0.00  0.00     0.007 C 
ATOM      9  C   UNL d   1       1.992   2.713   0.358  0.00  0.00     0.009 C 
ENDBRANCH   7   8
ENDBRANCH   1   7
TORSDOF 2
ENDMDL
