MODEL 1
REMARK minimizedAffinity -5.94080544
REMARK minimizedRMSD -1
REMARK  2 active torsions:
REMARK  status: ('A' for Active; 'I' for Inactive)
REMARK    1  A    between atoms: C1_2  and  C2_3 
REMARK    2  A    between atoms: C2_3  and  C3_4 
ROOT
ATOM      1  C3  UNL d   1       0.161   0.351   0.185  0.00  0.00    -0.075 A 
ATOM      2  C4  UNL d   1       0.152  -0.829  -0.573  0.00  0.00     0.002 A 
ATOM      3  C5  UNL d   1      -0.122  -2.056   0.029  0.00  0.00     0.002 A 
ATOM      4  C6  UNL d   1      -0.381  -2.123   1.397  0.00  0.00    -0.004 A 
ATOM      5  C7  UNL d   1      -0.359  -0.959   2.163  0.00  0.00     0.002 A 
ATOM      6  C8  UNL d   1      -0.089   0.271   1.562  0.00  0.00     0.002 A 
ENDROOT
BRANCH   1   7
ATOM      7  C2  UNL d   1       0.428   1.687  -0.466  0.00  0.00     0.056 C 
BRANCH   7   8
ATOM      8  C1  UNL d   1       1.047   2.726   0.474  0.00  0.00     0.007 C 
ATOM      9  C   UNL d   1       2.459   3.132   0.074  0.00  0.00     0.009 C 
ENDBRANCH   7   8
ENDBRANCH   1   7
TORSDOF 2
ENDMDL
