MODEL 1
REMARK minimizedAffinity -6.25609922
REMARK minimizedRMSD -1
REMARK  2 active torsions:
REMARK  status: ('A' for Active; 'I' for Inactive)
REMARK    1  A    between atoms: C1_2  and  C2_3 
REMARK    2  A    between atoms: C2_3  and  C3_4 
ROOT
ATOM      1  C3  UNL d   1      -0.235   0.103  -0.022  0.00  0.00    -0.075 A 
ATOM      2  C4  UNL d   1      -0.919   0.136   1.202  0.00  0.00     0.002 A 
ATOM      3  C5  UNL d   1      -1.125  -1.036   1.931  0.00  0.00     0.002 A 
ATOM      4  C6  UNL d   1      -0.660  -2.254   1.441  0.00  0.00    -0.004 A 
ATOM      5  C7  UNL d   1       0.006  -2.301   0.218  0.00  0.00     0.002 A 
ATOM      6  C8  UNL d   1       0.217  -1.129  -0.511  0.00  0.00     0.002 A 
ENDROOT
BRANCH   1   7
ATOM      7  C2  UNL d   1       0.017   1.372  -0.800  0.00  0.00     0.056 C 
BRANCH   7   8
ATOM      8  C1  UNL d   1       0.894   2.392  -0.064  0.00  0.00     0.007 C 
ATOM      9  C   UNL d   1       2.284   1.863   0.263  0.00  0.00     0.009 C 
ENDBRANCH   7   8
ENDBRANCH   1   7
TORSDOF 2
ENDMDL
