MODEL 1
REMARK minimizedAffinity -3.78341842
REMARK minimizedRMSD -1
REMARK  2 active torsions:
REMARK  status: ('A' for Active; 'I' for Inactive)
REMARK    1  A    between atoms: C1_2  and  C2_3 
REMARK    2  A    between atoms: C2_3  and  C3_4 
ROOT
ATOM      1  C3  UNL d   1       0.443   1.465  -0.016  0.00  0.00    -0.075 A 
ATOM      2  C4  UNL d   1       0.679   0.410   0.878  0.00  0.00     0.002 A 
ATOM      3  C5  UNL d   1       0.556  -0.915   0.457  0.00  0.00     0.002 A 
ATOM      4  C6  UNL d   1       0.188  -1.201  -0.855  0.00  0.00    -0.004 A 
ATOM      5  C7  UNL d   1      -0.064  -0.161  -1.747  0.00  0.00     0.002 A 
ATOM      6  C8  UNL d   1       0.062   1.166  -1.330  0.00  0.00     0.002 A 
ENDROOT
BRANCH   1   7
ATOM      7  C2  UNL d   1       0.603   2.901   0.425  0.00  0.00     0.056 C 
BRANCH   7   8
ATOM      8  C1  UNL d   1       2.058   3.376   0.488  0.00  0.00     0.007 C 
ATOM      9  C   UNL d   1       2.513   3.731   1.897  0.00  0.00     0.009 C 
ENDBRANCH   7   8
ENDBRANCH   1   7
TORSDOF 2
ENDMDL
