MODEL 1
REMARK minimizedAffinity -4.6126318
REMARK minimizedRMSD -1
REMARK  2 active torsions:
REMARK  status: ('A' for Active; 'I' for Inactive)
REMARK    1  A    between atoms: C1_2  and  C2_3 
REMARK    2  A    between atoms: C2_3  and  C3_4 
ROOT
ATOM      1  C3  UNL d   1       0.019   0.460  -0.233  0.00  0.00    -0.075 A 
ATOM      2  C4  UNL d   1      -0.484   0.268   1.062  0.00  0.00     0.002 A 
ATOM      3  C5  UNL d   1      -0.693  -1.019   1.557  0.00  0.00     0.002 A 
ATOM      4  C6  UNL d   1      -0.411  -2.128   0.763  0.00  0.00    -0.004 A 
ATOM      5  C7  UNL d   1       0.073  -1.949  -0.531  0.00  0.00     0.002 A 
ATOM      6  C8  UNL d   1       0.287  -0.662  -1.028  0.00  0.00     0.002 A 
ENDROOT
BRANCH   1   7
ATOM      7  C2  UNL d   1       0.275   1.851  -0.764  0.00  0.00     0.056 C 
BRANCH   7   8
ATOM      8  C1  UNL d   1       0.765   2.843   0.296  0.00  0.00     0.007 C 
ATOM      9  C   UNL d   1       2.279   3.006   0.311  0.00  0.00     0.009 C 
ENDBRANCH   7   8
ENDBRANCH   1   7
TORSDOF 2
ENDMDL
