MODEL 1
REMARK minimizedAffinity -4.45722914
REMARK minimizedRMSD -1
REMARK  2 active torsions:
REMARK  status: ('A' for Active; 'I' for Inactive)
REMARK    1  A    between atoms: C1_2  and  C2_3 
REMARK    2  A    between atoms: C2_3  and  C3_4 
ROOT
ATOM      1  C3  UNL d   1       0.232   0.118   0.314  0.00  0.00    -0.075 A 
ATOM      2  C4  UNL d   1      -0.658  -0.439   1.244  0.00  0.00     0.002 A 
ATOM      3  C5  UNL d   1      -0.862  -1.819   1.290  0.00  0.00     0.002 A 
ATOM      4  C6  UNL d   1      -0.189  -2.656   0.403  0.00  0.00    -0.004 A 
ATOM      5  C7  UNL d   1       0.685  -2.112  -0.536  0.00  0.00     0.002 A 
ATOM      6  C8  UNL d   1       0.894  -0.732  -0.582  0.00  0.00     0.002 A 
ENDROOT
BRANCH   1   7
ATOM      7  C2  UNL d   1       0.480   1.607   0.278  0.00  0.00     0.056 C 
BRANCH   7   8
ATOM      8  C1  UNL d   1       1.927   2.006   0.585  0.00  0.00     0.007 C 
ATOM      9  C   UNL d   1       2.042   3.355   1.282  0.00  0.00     0.009 C 
ENDBRANCH   7   8
ENDBRANCH   1   7
TORSDOF 2
ENDMDL
