MODEL 1
REMARK minimizedAffinity -2.93759418
REMARK minimizedRMSD -1
REMARK  2 active torsions:
REMARK  status: ('A' for Active; 'I' for Inactive)
REMARK    1  A    between atoms: C1_2  and  C2_3 
REMARK    2  A    between atoms: C2_3  and  C3_4 
ROOT
ATOM      1  C3  UNL d   1       0.141  -0.401   0.309  0.00  0.00    -0.075 A 
ATOM      2  C4  UNL d   1       1.030  -1.345  -0.225  0.00  0.00     0.002 A 
ATOM      3  C5  UNL d   1       0.793  -2.710  -0.066  0.00  0.00     0.002 A 
ATOM      4  C6  UNL d   1      -0.327  -3.149   0.637  0.00  0.00    -0.004 A 
ATOM      5  C7  UNL d   1      -1.208  -2.220   1.186  0.00  0.00     0.002 A 
ATOM      6  C8  UNL d   1      -0.976  -0.853   1.024  0.00  0.00     0.002 A 
ENDROOT
BRANCH   1   7
ATOM      7  C2  UNL d   1       0.376   1.078   0.115  0.00  0.00     0.056 C 
BRANCH   7   8
ATOM      8  C1  UNL d   1       0.892   1.797   1.365  0.00  0.00     0.007 C 
ATOM      9  C   UNL d   1       1.888   2.906   1.052  0.00  0.00     0.009 C 
ENDBRANCH   7   8
ENDBRANCH   1   7
TORSDOF 2
ENDMDL
