MODEL 1
REMARK minimizedAffinity -5.42665243
REMARK minimizedRMSD -1
REMARK  2 active torsions:
REMARK  status: ('A' for Active; 'I' for Inactive)
REMARK    1  A    between atoms: C1_2  and  C2_3 
REMARK    2  A    between atoms: C2_3  and  C3_4 
ROOT
ATOM      1  C3  UNL d   1       0.443   1.346  -0.037  0.00  0.00    -0.075 A 
ATOM      2  C4  UNL d   1       0.615   0.299   0.879  0.00  0.00     0.002 A 
ATOM      3  C5  UNL d   1       0.581  -1.029   0.452  0.00  0.00     0.002 A 
ATOM      4  C6  UNL d   1       0.366  -1.326  -0.892  0.00  0.00    -0.004 A 
ATOM      5  C7  UNL d   1       0.177  -0.294  -1.808  0.00  0.00     0.002 A 
ATOM      6  C8  UNL d   1       0.215   1.036  -1.384  0.00  0.00     0.002 A 
ENDROOT
BRANCH   1   7
ATOM      7  C2  UNL d   1       0.507   2.786   0.414  0.00  0.00     0.056 C 
BRANCH   7   8
ATOM      8  C1  UNL d   1       1.911   3.397   0.351  0.00  0.00     0.007 C 
ATOM      9  C   UNL d   1       2.599   3.462   1.707  0.00  0.00     0.009 C 
ENDBRANCH   7   8
ENDBRANCH   1   7
TORSDOF 2
ENDMDL
