MODEL 1
REMARK minimizedAffinity -4.74869204
REMARK minimizedRMSD -1
REMARK  2 active torsions:
REMARK  status: ('A' for Active; 'I' for Inactive)
REMARK    1  A    between atoms: C1_2  and  C2_3 
REMARK    2  A    between atoms: C2_3  and  C3_4 
ROOT
ATOM      1  C3  UNL d   1       0.152   0.110   0.188  0.00  0.00    -0.075 A 
ATOM      2  C4  UNL d   1      -0.051  -1.093  -0.504  0.00  0.00     0.002 A 
ATOM      3  C5  UNL d   1      -0.321  -2.273   0.190  0.00  0.00     0.002 A 
ATOM      4  C6  UNL d   1      -0.381  -2.268   1.582  0.00  0.00    -0.004 A 
ATOM      5  C7  UNL d   1      -0.164  -1.082   2.281  0.00  0.00     0.002 A 
ATOM      6  C8  UNL d   1       0.102   0.101   1.589  0.00  0.00     0.002 A 
ENDROOT
BRANCH   1   7
ATOM      7  C2  UNL d   1       0.416   1.395  -0.558  0.00  0.00     0.056 C 
BRANCH   7   8
ATOM      8  C1  UNL d   1       0.720   2.592   0.349  0.00  0.00     0.007 C 
ATOM      9  C   UNL d   1       2.208   2.892   0.469  0.00  0.00     0.009 C 
ENDBRANCH   7   8
ENDBRANCH   1   7
TORSDOF 2
ENDMDL
