MODEL 1
REMARK minimizedAffinity -4.12990522
REMARK minimizedRMSD -1
REMARK  2 active torsions:
REMARK  status: ('A' for Active; 'I' for Inactive)
REMARK    1  A    between atoms: C1_2  and  C2_3 
REMARK    2  A    between atoms: C2_3  and  C3_4 
ROOT
ATOM      1  C3  UNL d   1       0.104   0.200  -0.187  0.00  0.00    -0.075 A 
ATOM      2  C4  UNL d   1       0.509  -0.956  -0.870  0.00  0.00     0.002 A 
ATOM      3  C5  UNL d   1       0.142  -2.219  -0.404  0.00  0.00     0.002 A 
ATOM      4  C6  UNL d   1      -0.624  -2.342   0.753  0.00  0.00    -0.004 A 
ATOM      5  C7  UNL d   1      -1.018  -1.200   1.449  0.00  0.00     0.002 A 
ATOM      6  C8  UNL d   1      -0.655   0.064   0.982  0.00  0.00     0.002 A 
ENDROOT
BRANCH   1   7
ATOM      7  C2  UNL d   1       0.474   1.571  -0.703  0.00  0.00     0.056 C 
BRANCH   7   8
ATOM      8  C1  UNL d   1       0.792   2.587   0.400  0.00  0.00     0.007 C 
ATOM      9  C   UNL d   1       2.189   3.182   0.282  0.00  0.00     0.009 C 
ENDBRANCH   7   8
ENDBRANCH   1   7
TORSDOF 2
ENDMDL
