MODEL 1
REMARK minimizedAffinity 31.1679268
REMARK minimizedRMSD -1
REMARK  0 active torsions:
REMARK  status: ('A' for Active; 'I' for Inactive)
ROOT
ATOM      1  C   UNL d   1      -2.521   2.549  -0.139  0.00  0.00     0.124 A 
ATOM      2  C1  UNL d   1      -3.789   3.068   0.084  0.00  0.00     0.062 A 
ATOM      3  C2  UNL d   1      -4.784   2.923  -0.878  0.00  0.00     0.162 A 
ATOM      4  C3  UNL d   1      -4.515   2.256  -2.074  0.00  0.00    -0.034 A 
ATOM      5  C4  UNL d   1      -3.237   1.739  -2.292  0.00  0.00     0.162 A 
ATOM      6  C5  UNL d   1      -2.246   1.886  -1.326  0.00  0.00     0.062 A 
ATOM      7  F   UNL d   1      -1.021   1.384  -1.544  0.00  0.00    -0.097 F 
ATOM      8  F1  UNL d   1      -2.944   1.092  -3.430  0.00  0.00    -0.096 F 
ATOM      9  I   UNL d   1      -5.999   2.038  -3.516  0.00  0.00    -0.060 I 
ATOM     10  F2  UNL d   1      -6.000   3.434  -0.636  0.00  0.00    -0.096 F 
ATOM     11  F3  UNL d   1      -4.057   3.710   1.230  0.00  0.00    -0.097 F 
ATOM     12  F4  UNL d   1      -1.565   2.691   0.789  0.00  0.00    -0.092 F 
ENDROOT
TORSDOF 0
ENDMDL
