MODEL 1
REMARK minimizedAffinity 16.5444698
REMARK minimizedRMSD -1
REMARK  0 active torsions:
REMARK  status: ('A' for Active; 'I' for Inactive)
ROOT
ATOM      1  C   UNL d   1       1.119  -2.699   1.961  0.00  0.00     0.124 A 
ATOM      2  C1  UNL d   1       0.417  -2.151   3.025  0.00  0.00     0.062 A 
ATOM      3  C2  UNL d   1       0.199  -2.898   4.179  0.00  0.00     0.162 A 
ATOM      4  C3  UNL d   1       0.686  -4.202   4.275  0.00  0.00    -0.034 A 
ATOM      5  C4  UNL d   1       1.391  -4.746   3.200  0.00  0.00     0.162 A 
ATOM      6  C5  UNL d   1       1.606  -3.995   2.049  0.00  0.00     0.062 A 
ATOM      7  F   UNL d   1       2.285  -4.526   1.022  0.00  0.00    -0.097 F 
ATOM      8  F1  UNL d   1       1.873  -5.997   3.259  0.00  0.00    -0.096 F 
ATOM      9  I   UNL d   1       0.363  -5.323   5.999  0.00  0.00    -0.060 I 
ATOM     10  F2  UNL d   1      -0.483  -2.344   5.192  0.00  0.00    -0.096 F 
ATOM     11  F3  UNL d   1      -0.055  -0.899   2.942  0.00  0.00    -0.097 F 
ATOM     12  F4  UNL d   1       1.326  -1.977   0.852  0.00  0.00    -0.092 F 
ENDROOT
TORSDOF 0
ENDMDL
