MODEL 1
REMARK minimizedAffinity 14.7907276
REMARK minimizedRMSD -1
REMARK  0 active torsions:
REMARK  status: ('A' for Active; 'I' for Inactive)
ROOT
ATOM      1  C   UNL d   1       1.847  -2.252   2.131  0.00  0.00     0.124 A 
ATOM      2  C1  UNL d   1       1.233  -1.631   3.209  0.00  0.00     0.062 A 
ATOM      3  C2  UNL d   1       0.836  -2.378   4.315  0.00  0.00     0.162 A 
ATOM      4  C3  UNL d   1       1.053  -3.755   4.348  0.00  0.00    -0.034 A 
ATOM      5  C4  UNL d   1       1.670  -4.373   3.259  0.00  0.00     0.162 A 
ATOM      6  C5  UNL d   1       2.065  -3.622   2.157  0.00  0.00     0.062 A 
ATOM      7  F   UNL d   1       2.658  -4.224   1.116  0.00  0.00    -0.097 F 
ATOM      8  F1  UNL d   1       1.894  -5.696   3.258  0.00  0.00    -0.096 F 
ATOM      9  I   UNL d   1       0.461  -4.876   5.999  0.00  0.00    -0.060 I 
ATOM     10  F2  UNL d   1       0.245  -1.751   5.343  0.00  0.00    -0.096 F 
ATOM     11  F3  UNL d   1       1.021  -0.307   3.187  0.00  0.00    -0.097 F 
ATOM     12  F4  UNL d   1       2.227  -1.531   1.068  0.00  0.00    -0.092 F 
ENDROOT
TORSDOF 0
ENDMDL
