MODEL 1
REMARK minimizedAffinity 8.70209312
REMARK minimizedRMSD -1
REMARK  0 active torsions:
REMARK  status: ('A' for Active; 'I' for Inactive)
ROOT
ATOM      1  C   UNL d   1       1.277   0.313   1.719  0.00  0.00     0.124 A 
ATOM      2  C1  UNL d   1       0.968   0.445   3.066  0.00  0.00     0.062 A 
ATOM      3  C2  UNL d   1       0.800  -0.685   3.860  0.00  0.00     0.162 A 
ATOM      4  C3  UNL d   1       0.943  -1.959   3.310  0.00  0.00    -0.034 A 
ATOM      5  C4  UNL d   1       1.253  -2.085   1.955  0.00  0.00     0.162 A 
ATOM      6  C5  UNL d   1       1.419  -0.952   1.165  0.00  0.00     0.062 A 
ATOM      7  F   UNL d   1       1.718  -1.082  -0.136  0.00  0.00    -0.097 F 
ATOM      8  F1  UNL d   1       1.397  -3.294   1.393  0.00  0.00    -0.096 F 
ATOM      9  I   UNL d   1       0.693  -3.652   4.494  0.00  0.00    -0.060 I 
ATOM     10  F2  UNL d   1       0.502  -0.528   5.158  0.00  0.00    -0.096 F 
ATOM     11  F3  UNL d   1       0.829   1.666   3.603  0.00  0.00    -0.097 F 
ATOM     12  F4  UNL d   1       1.436   1.402   0.957  0.00  0.00    -0.092 F 
ENDROOT
TORSDOF 0
ENDMDL
