MODEL 1
REMARK minimizedAffinity 25.570879
REMARK minimizedRMSD -1
REMARK  0 active torsions:
REMARK  status: ('A' for Active; 'I' for Inactive)
ROOT
ATOM      1  C   UNL d   1      -4.514   0.515  -3.037  0.00  0.00     0.124 A 
ATOM      2  C1  UNL d   1      -4.861   1.585  -2.223  0.00  0.00     0.062 A 
ATOM      3  C2  UNL d   1      -4.030   1.964  -1.173  0.00  0.00     0.162 A 
ATOM      4  C3  UNL d   1      -2.843   1.273  -0.930  0.00  0.00    -0.034 A 
ATOM      5  C4  UNL d   1      -2.502   0.197  -1.751  0.00  0.00     0.162 A 
ATOM      6  C5  UNL d   1      -3.335  -0.178  -2.800  0.00  0.00     0.062 A 
ATOM      7  F   UNL d   1      -2.999  -1.212  -3.585  0.00  0.00    -0.097 F 
ATOM      8  F1  UNL d   1      -1.368  -0.489  -1.546  0.00  0.00    -0.096 F 
ATOM      9  I   UNL d   1      -1.598   1.836   0.640  0.00  0.00    -0.060 I 
ATOM     10  F2  UNL d   1      -4.390   3.002  -0.403  0.00  0.00    -0.096 F 
ATOM     11  F3  UNL d   1      -6.000   2.256  -2.449  0.00  0.00    -0.097 F 
ATOM     12  F4  UNL d   1      -5.316   0.153  -4.046  0.00  0.00    -0.092 F 
ENDROOT
TORSDOF 0
ENDMDL
