MODEL 1
REMARK minimizedAffinity 18.5061245
REMARK minimizedRMSD -1
REMARK  0 active torsions:
REMARK  status: ('A' for Active; 'I' for Inactive)
ROOT
ATOM      1  C   UNL d   1      -2.607   0.998  -1.113  0.00  0.00     0.124 A 
ATOM      2  C1  UNL d   1      -3.698   1.306  -1.913  0.00  0.00     0.062 A 
ATOM      3  C2  UNL d   1      -4.590   2.303  -1.526  0.00  0.00     0.162 A 
ATOM      4  C3  UNL d   1      -4.394   2.999  -0.334  0.00  0.00    -0.034 A 
ATOM      5  C4  UNL d   1      -3.294   2.682   0.466  0.00  0.00     0.162 A 
ATOM      6  C5  UNL d   1      -2.406   1.686   0.076  0.00  0.00     0.062 A 
ATOM      7  F   UNL d   1      -1.352   1.389   0.850  0.00  0.00    -0.097 F 
ATOM      8  F1  UNL d   1      -3.076   3.332   1.619  0.00  0.00    -0.096 F 
ATOM      9  I   UNL d   1      -5.725   4.489   0.247  0.00  0.00    -0.060 I 
ATOM     10  F2  UNL d   1      -5.636   2.580  -2.319  0.00  0.00    -0.096 F 
ATOM     11  F3  UNL d   1      -3.895   0.642  -3.061  0.00  0.00    -0.097 F 
ATOM     12  F4  UNL d   1      -1.751   0.038  -1.486  0.00  0.00    -0.092 F 
ENDROOT
TORSDOF 0
ENDMDL
