MODEL 1
REMARK minimizedAffinity 18.3881569
REMARK minimizedRMSD -1
REMARK  0 active torsions:
REMARK  status: ('A' for Active; 'I' for Inactive)
ROOT
ATOM      1  C   UNL d   1       1.524  -1.090   1.285  0.00  0.00     0.124 A 
ATOM      2  C1  UNL d   1       1.243  -0.120   2.237  0.00  0.00     0.062 A 
ATOM      3  C2  UNL d   1       1.165  -0.463   3.584  0.00  0.00     0.162 A 
ATOM      4  C3  UNL d   1       1.371  -1.782   3.987  0.00  0.00    -0.034 A 
ATOM      5  C4  UNL d   1       1.652  -2.752   3.024  0.00  0.00     0.162 A 
ATOM      6  C5  UNL d   1       1.729  -2.405   1.679  0.00  0.00     0.062 A 
ATOM      7  F   UNL d   1       2.000  -3.343   0.760  0.00  0.00    -0.097 F 
ATOM      8  F1  UNL d   1       1.855  -4.030   3.377  0.00  0.00    -0.096 F 
ATOM      9  I   UNL d   1       1.256  -2.298   6.000  0.00  0.00    -0.060 I 
ATOM     10  F2  UNL d   1       0.892   0.495   4.482  0.00  0.00    -0.096 F 
ATOM     11  F3  UNL d   1       1.044   1.151   1.859  0.00  0.00    -0.097 F 
ATOM     12  F4  UNL d   1       1.597  -0.757  -0.010  0.00  0.00    -0.092 F 
ENDROOT
TORSDOF 0
ENDMDL
