MODEL 1
REMARK minimizedAffinity 11.6186523
REMARK minimizedRMSD -1
REMARK  0 active torsions:
REMARK  status: ('A' for Active; 'I' for Inactive)
ROOT
ATOM      1  C   UNL d   1       1.214  -1.657   4.787  0.00  0.00     0.124 A 
ATOM      2  C1  UNL d   1       1.877  -2.829   4.449  0.00  0.00     0.062 A 
ATOM      3  C2  UNL d   1       2.452  -2.970   3.190  0.00  0.00     0.162 A 
ATOM      4  C3  UNL d   1       2.367  -1.935   2.258  0.00  0.00    -0.034 A 
ATOM      5  C4  UNL d   1       1.697  -0.760   2.604  0.00  0.00     0.162 A 
ATOM      6  C5  UNL d   1       1.125  -0.624   3.865  0.00  0.00     0.062 A 
ATOM      7  F   UNL d   1       0.485   0.508   4.189  0.00  0.00    -0.097 F 
ATOM      8  F1  UNL d   1       1.597   0.254   1.732  0.00  0.00    -0.096 F 
ATOM      9  I   UNL d   1       3.224  -2.142   0.373  0.00  0.00    -0.060 I 
ATOM     10  F2  UNL d   1       3.086  -4.113   2.890  0.00  0.00    -0.096 F 
ATOM     11  F3  UNL d   1       1.964  -3.828   5.339  0.00  0.00    -0.097 F 
ATOM     12  F4  UNL d   1       0.662  -1.524   6.000  0.00  0.00    -0.092 F 
ENDROOT
TORSDOF 0
ENDMDL
