MODEL 1
REMARK minimizedAffinity -4.8181963
REMARK minimizedRMSD -1
REMARK  1 active torsions:
REMARK  status: ('A' for Active; 'I' for Inactive)
REMARK    1  A    between atoms: N_2  and  C1_3 
ROOT
ATOM      1  C1  UNL d   1      -0.066  -0.050  -0.148  0.00  0.00     0.143 A 
ATOM      2  C2  UNL d   1      -0.160  -0.392   1.206  0.00  0.00    -0.057 A 
ATOM      3  C3  UNL d   1      -0.939   0.361   2.092  0.00  0.00     0.033 A 
ATOM      4  C4  UNL d   1      -1.618   1.490   1.645  0.00  0.00    -0.042 A 
ATOM      5  C5  UNL d   1      -1.519   1.863   0.309  0.00  0.00     0.033 A 
ATOM      6  C6  UNL d   1      -0.744   1.103  -0.572  0.00  0.00    -0.057 A 
ENDROOT
BRANCH   1   7
ATOM      7  N   UNL d   1       0.770  -0.701  -1.058  0.00  0.00    -0.732 N 
ATOM      8  C   UNL d   1       0.483  -2.053  -1.488  0.00  0.00     0.284 C 
ATOM      9  H3  UNL d   1       1.085  -0.086  -1.805  0.00  0.00     0.395 HD
ENDBRANCH   1   7
TORSDOF 1
ENDMDL
