MODEL 1
REMARK minimizedAffinity -3.44538093
REMARK minimizedRMSD -1
REMARK  1 active torsions:
REMARK  status: ('A' for Active; 'I' for Inactive)
REMARK    1  A    between atoms: N_2  and  C1_3 
ROOT
ATOM      1  C1  UNL d   1      -0.017  -0.424  -1.150  0.00  0.00     0.143 A 
ATOM      2  C2  UNL d   1      -1.136   0.410  -1.044  0.00  0.00    -0.057 A 
ATOM      3  C3  UNL d   1      -1.444   1.061   0.157  0.00  0.00     0.033 A 
ATOM      4  C4  UNL d   1      -0.653   0.866   1.284  0.00  0.00    -0.042 A 
ATOM      5  C5  UNL d   1       0.450   0.022   1.208  0.00  0.00     0.033 A 
ATOM      6  C6  UNL d   1       0.757  -0.620   0.005  0.00  0.00    -0.057 A 
ENDROOT
BRANCH   1   7
ATOM      7  N   UNL d   1       0.287  -1.176  -2.288  0.00  0.00    -0.732 N 
ATOM      8  C   UNL d   1       0.582  -2.588  -2.180  0.00  0.00     0.284 C 
ATOM      9  H3  UNL d   1      -0.300  -0.933  -3.082  0.00  0.00     0.395 HD
ENDBRANCH   1   7
TORSDOF 1
ENDMDL
