MODEL 1
REMARK minimizedAffinity -4.9910593
REMARK minimizedRMSD -1
REMARK  1 active torsions:
REMARK  status: ('A' for Active; 'I' for Inactive)
REMARK    1  A    between atoms: N_2  and  C1_3 
ROOT
ATOM      1  C1  UNL d   1      -0.102  -0.060   0.168  0.00  0.00     0.143 A 
ATOM      2  C2  UNL d   1      -1.005   0.993  -0.011  0.00  0.00    -0.057 A 
ATOM      3  C3  UNL d   1      -1.921   1.343   0.988  0.00  0.00     0.033 A 
ATOM      4  C4  UNL d   1      -1.970   0.623   2.178  0.00  0.00    -0.042 A 
ATOM      5  C5  UNL d   1      -1.099  -0.443   2.368  0.00  0.00     0.033 A 
ATOM      6  C6  UNL d   1      -0.182  -0.783   1.369  0.00  0.00    -0.057 A 
ENDROOT
BRANCH   1   7
ATOM      7  N   UNL d   1       0.765  -0.519  -0.826  0.00  0.00    -0.732 N 
ATOM      8  C   UNL d   1       0.772  -1.914  -1.212  0.00  0.00     0.284 C 
ATOM      9  H3  UNL d   1       0.839   0.129  -1.607  0.00  0.00     0.395 HD
ENDBRANCH   1   7
TORSDOF 1
ENDMDL
