MODEL 1
REMARK minimizedAffinity -3.64092016
REMARK minimizedRMSD -1
REMARK  1 active torsions:
REMARK  status: ('A' for Active; 'I' for Inactive)
REMARK    1  A    between atoms: N_2  and  C1_3 
ROOT
ATOM      1  C1  UNL d   1      -0.291   0.073   0.040  0.00  0.00     0.143 A 
ATOM      2  C2  UNL d   1      -0.866   1.157  -0.632  0.00  0.00    -0.057 A 
ATOM      3  C3  UNL d   1      -1.719   2.050   0.027  0.00  0.00     0.033 A 
ATOM      4  C4  UNL d   1      -2.036   1.858   1.367  0.00  0.00    -0.042 A 
ATOM      5  C5  UNL d   1      -1.496   0.774   2.049  0.00  0.00     0.033 A 
ATOM      6  C6  UNL d   1      -0.639  -0.111   1.387  0.00  0.00    -0.057 A 
ENDROOT
BRANCH   1   7
ATOM      7  N   UNL d   1       0.486  -0.906  -0.584  0.00  0.00    -0.732 N 
ATOM      8  C   UNL d   1      -0.100  -1.803  -1.556  0.00  0.00     0.284 C 
ATOM      9  H3  UNL d   1       1.411  -0.565  -0.837  0.00  0.00     0.395 HD
ENDBRANCH   1   7
TORSDOF 1
ENDMDL
