MODEL 1
REMARK minimizedAffinity -3.19414949
REMARK minimizedRMSD -1
REMARK  1 active torsions:
REMARK  status: ('A' for Active; 'I' for Inactive)
REMARK    1  A    between atoms: N_2  and  C1_3 
ROOT
ATOM      1  C1  UNL d   1      -0.126  -0.141   0.108  0.00  0.00     0.143 A 
ATOM      2  C2  UNL d   1      -0.743  -0.428   1.330  0.00  0.00    -0.057 A 
ATOM      3  C3  UNL d   1      -1.615   0.486   1.936  0.00  0.00     0.033 A 
ATOM      4  C4  UNL d   1      -1.863   1.719   1.341  0.00  0.00    -0.042 A 
ATOM      5  C5  UNL d   1      -1.241   2.035   0.138  0.00  0.00     0.033 A 
ATOM      6  C6  UNL d   1      -0.376   1.116  -0.464  0.00  0.00    -0.057 A 
ENDROOT
BRANCH   1   7
ATOM      7  N   UNL d   1       0.827  -0.966  -0.495  0.00  0.00    -0.732 N 
ATOM      8  C   UNL d   1       0.419  -2.123  -1.263  0.00  0.00     0.284 C 
ATOM      9  H3  UNL d   1       1.590  -0.438  -0.912  0.00  0.00     0.395 HD
ENDBRANCH   1   7
TORSDOF 1
ENDMDL
