MODEL 1
REMARK minimizedAffinity -2.35810208
REMARK minimizedRMSD -1
REMARK  1 active torsions:
REMARK  status: ('A' for Active; 'I' for Inactive)
REMARK    1  A    between atoms: N_2  and  C1_3 
ROOT
ATOM      1  C1  UNL d   1       0.315   0.008   0.168  0.00  0.00     0.143 A 
ATOM      2  C2  UNL d   1      -0.194  -0.623   1.308  0.00  0.00    -0.057 A 
ATOM      3  C3  UNL d   1      -1.008   0.065   2.216  0.00  0.00     0.033 A 
ATOM      4  C4  UNL d   1      -1.305   1.408   2.015  0.00  0.00    -0.042 A 
ATOM      5  C5  UNL d   1      -0.790   2.063   0.902  0.00  0.00     0.033 A 
ATOM      6  C6  UNL d   1       0.017   1.369  -0.006  0.00  0.00    -0.057 A 
ENDROOT
BRANCH   1   7
ATOM      7  N   UNL d   1       1.209  -0.593  -0.721  0.00  0.00    -0.732 N 
ATOM      8  C   UNL d   1       1.279  -2.034  -0.834  0.00  0.00     0.284 C 
ATOM      9  H3  UNL d   1       1.261  -0.103  -1.611  0.00  0.00     0.395 HD
ENDBRANCH   1   7
TORSDOF 1
ENDMDL
