MODEL 1
REMARK minimizedAffinity -4.45287657
REMARK minimizedRMSD -1
REMARK  1 active torsions:
REMARK  status: ('A' for Active; 'I' for Inactive)
REMARK    1  A    between atoms: N_2  and  C1_3 
ROOT
ATOM      1  C1  UNL d   1       0.496   0.284   0.001  0.00  0.00     0.143 A 
ATOM      2  C2  UNL d   1       0.080  -0.058   1.292  0.00  0.00    -0.057 A 
ATOM      3  C3  UNL d   1      -0.803   0.757   2.010  0.00  0.00     0.033 A 
ATOM      4  C4  UNL d   1      -1.264   1.948   1.459  0.00  0.00    -0.042 A 
ATOM      5  C5  UNL d   1      -0.843   2.321   0.187  0.00  0.00     0.033 A 
ATOM      6  C6  UNL d   1       0.033   1.499  -0.528  0.00  0.00    -0.057 A 
ENDROOT
BRANCH   1   7
ATOM      7  N   UNL d   1       1.449  -0.434  -0.725  0.00  0.00    -0.732 N 
ATOM      8  C   UNL d   1       1.207  -1.812  -1.098  0.00  0.00     0.284 C 
ATOM      9  H3  UNL d   1       1.882   0.124  -1.457  0.00  0.00     0.395 HD
ENDBRANCH   1   7
TORSDOF 1
ENDMDL
