MODEL 1
REMARK minimizedAffinity -4.93095922
REMARK minimizedRMSD -1
REMARK  1 active torsions:
REMARK  status: ('A' for Active; 'I' for Inactive)
REMARK    1  A    between atoms: N_2  and  C1_3 
ROOT
ATOM      1  C1  UNL d   1      -0.157  -0.040   0.213  0.00  0.00     0.143 A 
ATOM      2  C2  UNL d   1      -0.362   1.256  -0.273  0.00  0.00    -0.057 A 
ATOM      3  C3  UNL d   1      -1.190   2.162   0.400  0.00  0.00     0.033 A 
ATOM      4  C4  UNL d   1      -1.854   1.776   1.561  0.00  0.00    -0.042 A 
ATOM      5  C5  UNL d   1      -1.685   0.486   2.049  0.00  0.00     0.033 A 
ATOM      6  C6  UNL d   1      -0.851  -0.412   1.375  0.00  0.00    -0.057 A 
ENDROOT
BRANCH   1   7
ATOM      7  N   UNL d   1       0.576  -1.018  -0.464  0.00  0.00    -0.732 N 
ATOM      8  C   UNL d   1      -0.096  -2.040  -1.236  0.00  0.00     0.284 C 
ATOM      9  H3  UNL d   1       1.409  -0.639  -0.910  0.00  0.00     0.395 HD
ENDBRANCH   1   7
TORSDOF 1
ENDMDL
