MODEL 1
REMARK minimizedAffinity -3.81675315
REMARK minimizedRMSD -1
REMARK  1 active torsions:
REMARK  status: ('A' for Active; 'I' for Inactive)
REMARK    1  A    between atoms: N_2  and  C1_3 
ROOT
ATOM      1  C1  UNL d   1       0.443  -1.150  -0.285  0.00  0.00     0.143 A 
ATOM      2  C2  UNL d   1       0.981   0.127  -0.474  0.00  0.00    -0.057 A 
ATOM      3  C3  UNL d   1       0.357   1.264   0.055  0.00  0.00     0.033 A 
ATOM      4  C4  UNL d   1      -0.836   1.144   0.761  0.00  0.00    -0.042 A 
ATOM      5  C5  UNL d   1      -1.402  -0.113   0.939  0.00  0.00     0.033 A 
ATOM      6  C6  UNL d   1      -0.771  -1.244   0.414  0.00  0.00    -0.057 A 
ENDROOT
BRANCH   1   7
ATOM      7  N   UNL d   1       0.963  -2.307  -0.870  0.00  0.00    -0.732 N 
ATOM      8  C   UNL d   1       0.375  -2.852  -2.075  0.00  0.00     0.284 C 
ATOM      9  H3  UNL d   1       1.980  -2.325  -0.859  0.00  0.00     0.395 HD
ENDBRANCH   1   7
TORSDOF 1
ENDMDL
