MODEL 1
REMARK minimizedAffinity 5.90099716
REMARK minimizedRMSD -1
REMARK  0 active torsions:
REMARK  status: ('A' for Active; 'I' for Inactive)
ROOT
ATOM      1  C   UNL d   1      -1.623   6.000  -1.800  0.00  0.00     0.077 C 
ATOM      2  C1  UNL d   1      -1.117   5.990  -3.211  0.00  0.00    -0.074 A 
ATOM      3  C2  UNL d   1      -2.004   5.999  -4.293  0.00  0.00    -0.005 A 
ATOM      4  C3  UNL d   1      -1.519   5.999  -5.600  0.00  0.00     0.006 A 
ATOM      5  C4  UNL d   1      -0.144   5.990  -5.840  0.00  0.00    -0.005 A 
ATOM      6  C5  UNL d   1       0.758   5.982  -4.771  0.00  0.00    -0.074 A 
ATOM      7  C6  UNL d   1       2.239   5.982  -5.010  0.00  0.00     0.077 C 
ATOM      8  C7  UNL d   1       0.262   5.989  -3.460  0.00  0.00    -0.001 A 
ENDROOT
TORSDOF 0
ENDMDL
