MODEL 1
REMARK minimizedAffinity 1.38665473
REMARK minimizedRMSD -1
REMARK  0 active torsions:
REMARK  status: ('A' for Active; 'I' for Inactive)
ROOT
ATOM      1  C   UNL d   1       0.009   5.428  -1.361  0.00  0.00     0.077 C 
ATOM      2  C1  UNL d   1      -0.210   5.617  -2.833  0.00  0.00    -0.074 A 
ATOM      3  C2  UNL d   1      -1.499   5.759  -3.355  0.00  0.00    -0.005 A 
ATOM      4  C3  UNL d   1      -1.687   5.944  -4.725  0.00  0.00     0.006 A 
ATOM      5  C4  UNL d   1      -0.588   5.988  -5.585  0.00  0.00    -0.005 A 
ATOM      6  C5  UNL d   1       0.708   5.848  -5.080  0.00  0.00    -0.074 A 
ATOM      7  C6  UNL d   1       1.900   5.903  -5.989  0.00  0.00     0.077 C 
ATOM      8  C7  UNL d   1       0.889   5.670  -3.702  0.00  0.00    -0.001 A 
ENDROOT
TORSDOF 0
ENDMDL
