MODEL 1
REMARK minimizedAffinity 1.25017166
REMARK minimizedRMSD -1
REMARK  0 active torsions:
REMARK  status: ('A' for Active; 'I' for Inactive)
ROOT
ATOM      1  C   UNL d   1      -3.005   6.000  -3.730  0.00  0.00     0.077 C 
ATOM      2  C1  UNL d   1      -1.556   5.612  -3.700  0.00  0.00    -0.074 A 
ATOM      3  C2  UNL d   1      -1.029   4.884  -2.628  0.00  0.00    -0.005 A 
ATOM      4  C3  UNL d   1       0.318   4.522  -2.619  0.00  0.00     0.006 A 
ATOM      5  C4  UNL d   1       1.150   4.884  -3.678  0.00  0.00    -0.005 A 
ATOM      6  C5  UNL d   1       0.641   5.611  -4.759  0.00  0.00    -0.074 A 
ATOM      7  C6  UNL d   1       1.519   6.000  -5.911  0.00  0.00     0.077 C 
ATOM      8  C7  UNL d   1      -0.716   5.965  -4.765  0.00  0.00    -0.001 A 
ENDROOT
TORSDOF 0
ENDMDL
