MODEL 1
REMARK minimizedAffinity -2.5734787
REMARK minimizedRMSD -1
REMARK  0 active torsions:
REMARK  status: ('A' for Active; 'I' for Inactive)
ROOT
ATOM      1  C   UNL d   1      -0.154   5.994  -2.477  0.00  0.00     0.077 C 
ATOM      2  C1  UNL d   1       0.819   5.985  -3.619  0.00  0.00    -0.074 A 
ATOM      3  C2  UNL d   1       0.372   5.984  -4.944  0.00  0.00    -0.005 A 
ATOM      4  C3  UNL d   1       1.288   5.985  -5.996  0.00  0.00     0.006 A 
ATOM      5  C4  UNL d   1       2.658   5.987  -5.733  0.00  0.00    -0.005 A 
ATOM      6  C5  UNL d   1       3.124   5.988  -4.415  0.00  0.00    -0.074 A 
ATOM      7  C6  UNL d   1       4.594   6.000  -4.115  0.00  0.00     0.077 C 
ATOM      8  C7  UNL d   1       2.197   5.994  -3.363  0.00  0.00    -0.001 A 
ENDROOT
TORSDOF 0
ENDMDL
