MODEL 1
REMARK minimizedAffinity 3.97236562
REMARK minimizedRMSD -1
REMARK  0 active torsions:
REMARK  status: ('A' for Active; 'I' for Inactive)
ROOT
ATOM      1  C   UNL d   1      -0.379   0.118   2.477  0.00  0.00     0.077 C 
ATOM      2  C1  UNL d   1       0.034   0.888   1.258  0.00  0.00    -0.074 A 
ATOM      3  C2  UNL d   1       0.596   2.164   1.370  0.00  0.00    -0.005 A 
ATOM      4  C3  UNL d   1       0.984   2.864   0.228  0.00  0.00     0.006 A 
ATOM      5  C4  UNL d   1       0.814   2.298  -1.036  0.00  0.00    -0.005 A 
ATOM      6  C5  UNL d   1       0.254   1.023  -1.167  0.00  0.00    -0.074 A 
ATOM      7  C6  UNL d   1       0.073   0.395  -2.518  0.00  0.00     0.077 C 
ATOM      8  C7  UNL d   1      -0.127   0.322  -0.015  0.00  0.00    -0.001 A 
ENDROOT
TORSDOF 0
ENDMDL
