MODEL 1
REMARK minimizedAffinity 3.44372439
REMARK minimizedRMSD -1
REMARK  0 active torsions:
REMARK  status: ('A' for Active; 'I' for Inactive)
ROOT
ATOM      1  C   UNL d   1       5.690   2.243  -4.364  0.00  0.00     0.077 C 
ATOM      2  C1  UNL d   1       5.144   3.552  -4.851  0.00  0.00    -0.074 A 
ATOM      3  C2  UNL d   1       5.989   4.643  -5.080  0.00  0.00    -0.005 A 
ATOM      4  C3  UNL d   1       5.468   5.851  -5.543  0.00  0.00     0.006 A 
ATOM      5  C4  UNL d   1       4.099   5.981  -5.781  0.00  0.00    -0.005 A 
ATOM      6  C5  UNL d   1       3.239   4.901  -5.559  0.00  0.00    -0.074 A 
ATOM      7  C6  UNL d   1       1.767   5.021  -5.819  0.00  0.00     0.077 C 
ATOM      8  C7  UNL d   1       3.771   3.688  -5.100  0.00  0.00    -0.001 A 
ENDROOT
TORSDOF 0
ENDMDL
