MODEL 1
REMARK minimizedAffinity -0.379333854
REMARK minimizedRMSD -1
REMARK  0 active torsions:
REMARK  status: ('A' for Active; 'I' for Inactive)
ROOT
ATOM      1  C   UNL d   1       2.462   5.982  -5.051  0.00  0.00     0.077 C 
ATOM      2  C1  UNL d   1       0.972   5.990  -4.879  0.00  0.00    -0.074 A 
ATOM      3  C2  UNL d   1       0.121   5.977  -5.989  0.00  0.00    -0.005 A 
ATOM      4  C3  UNL d   1      -1.263   5.974  -5.813  0.00  0.00     0.006 A 
ATOM      5  C4  UNL d   1      -1.808   5.985  -4.529  0.00  0.00    -0.005 A 
ATOM      6  C5  UNL d   1      -0.972   5.997  -3.408  0.00  0.00    -0.074 A 
ATOM      7  C6  UNL d   1      -1.542   5.998  -2.020  0.00  0.00     0.077 C 
ATOM      8  C7  UNL d   1       0.417   5.992  -3.592  0.00  0.00    -0.001 A 
ENDROOT
TORSDOF 0
ENDMDL
