MODEL 1
REMARK minimizedAffinity 12.277298
REMARK minimizedRMSD -1
REMARK  0 active torsions:
REMARK  status: ('A' for Active; 'I' for Inactive)
ROOT
ATOM      1  C   UNL d   1      -1.889  -0.755  -2.445  0.00  0.00     0.077 C 
ATOM      2  C1  UNL d   1      -0.894  -0.730  -3.567  0.00  0.00    -0.074 A 
ATOM      3  C2  UNL d   1      -1.286  -1.009  -4.881  0.00  0.00    -0.005 A 
ATOM      4  C3  UNL d   1      -0.352  -0.973  -5.916  0.00  0.00     0.006 A 
ATOM      5  C4  UNL d   1       0.981  -0.657  -5.649  0.00  0.00    -0.005 A 
ATOM      6  C5  UNL d   1       1.391  -0.373  -4.342  0.00  0.00    -0.074 A 
ATOM      7  C6  UNL d   1       2.817  -0.022  -4.039  0.00  0.00     0.077 C 
ATOM      8  C7  UNL d   1       0.445  -0.405  -3.308  0.00  0.00    -0.001 A 
ENDROOT
TORSDOF 0
ENDMDL
