MODEL 1
REMARK minimizedAffinity -2.91398954
REMARK minimizedRMSD -1
REMARK  0 active torsions:
REMARK  status: ('A' for Active; 'I' for Inactive)
ROOT
ATOM      1  C   UNL d   1       5.901   6.000  -4.424  0.00  0.00     0.077 C 
ATOM      2  C1  UNL d   1       4.568   5.316  -4.486  0.00  0.00    -0.074 A 
ATOM      3  C2  UNL d   1       4.370   4.070  -3.882  0.00  0.00    -0.005 A 
ATOM      4  C3  UNL d   1       3.122   3.451  -3.940  0.00  0.00     0.006 A 
ATOM      5  C4  UNL d   1       2.060   4.070  -4.601  0.00  0.00    -0.005 A 
ATOM      6  C5  UNL d   1       2.239   5.316  -5.210  0.00  0.00    -0.074 A 
ATOM      7  C6  UNL d   1       1.106   6.000  -5.916  0.00  0.00     0.077 C 
ATOM      8  C7  UNL d   1       3.494   5.935  -5.141  0.00  0.00    -0.001 A 
ENDROOT
TORSDOF 0
ENDMDL
