MODEL 1
REMARK minimizedAffinity 1.31880188
REMARK minimizedRMSD -1
REMARK  0 active torsions:
REMARK  status: ('A' for Active; 'I' for Inactive)
ROOT
ATOM      1  C   UNL d   1      -3.104   5.968  -0.857  0.00  0.00     0.077 C 
ATOM      2  C1  UNL d   1      -2.647   5.972  -2.286  0.00  0.00    -0.074 A 
ATOM      3  C2  UNL d   1      -3.570   5.986  -3.336  0.00  0.00    -0.005 A 
ATOM      4  C3  UNL d   1      -3.130   5.999  -4.660  0.00  0.00     0.006 A 
ATOM      5  C4  UNL d   1      -1.764   5.998  -4.946  0.00  0.00    -0.005 A 
ATOM      6  C5  UNL d   1      -0.826   5.985  -3.908  0.00  0.00    -0.074 A 
ATOM      7  C6  UNL d   1       0.646   5.994  -4.198  0.00  0.00     0.077 C 
ATOM      8  C7  UNL d   1      -1.276   5.979  -2.581  0.00  0.00    -0.001 A 
ENDROOT
TORSDOF 0
ENDMDL
