MODEL 1
REMARK minimizedAffinity 17.5839367
REMARK minimizedRMSD -1
REMARK  0 active torsions:
REMARK  status: ('A' for Active; 'I' for Inactive)
ROOT
ATOM      1  C   UNL d   1      -1.711  -1.131   3.396  0.00  0.00     0.077 C 
ATOM      2  C1  UNL d   1      -2.779  -1.672   4.299  0.00  0.00    -0.074 A 
ATOM      3  C2  UNL d   1      -2.714  -2.982   4.785  0.00  0.00    -0.005 A 
ATOM      4  C3  UNL d   1      -3.711  -3.468   5.632  0.00  0.00     0.006 A 
ATOM      5  C4  UNL d   1      -4.780  -2.651   5.999  0.00  0.00    -0.005 A 
ATOM      6  C5  UNL d   1      -4.862  -1.338   5.523  0.00  0.00    -0.074 A 
ATOM      7  C6  UNL d   1      -6.000  -0.444   5.917  0.00  0.00     0.077 C 
ATOM      8  C7  UNL d   1      -3.853  -0.855   4.679  0.00  0.00    -0.001 A 
ENDROOT
TORSDOF 0
ENDMDL
