MODEL 1
REMARK minimizedAffinity -2.44441009
REMARK minimizedRMSD -1
REMARK  0 active torsions:
REMARK  status: ('A' for Active; 'I' for Inactive)
ROOT
ATOM      1  C   UNL d   1       1.833   5.931  -4.693  0.00  0.00     0.077 C 
ATOM      2  C1  UNL d   1       0.334   5.962  -4.736  0.00  0.00    -0.074 A 
ATOM      3  C2  UNL d   1      -0.350   5.967  -5.956  0.00  0.00    -0.005 A 
ATOM      4  C3  UNL d   1      -1.744   5.986  -5.981  0.00  0.00     0.006 A 
ATOM      5  C4  UNL d   1      -2.468   6.000  -4.787  0.00  0.00    -0.005 A 
ATOM      6  C5  UNL d   1      -1.801   5.994  -3.558  0.00  0.00    -0.074 A 
ATOM      7  C6  UNL d   1      -2.563   5.999  -2.267  0.00  0.00     0.077 C 
ATOM      8  C7  UNL d   1      -0.400   5.968  -3.542  0.00  0.00    -0.001 A 
ENDROOT
TORSDOF 0
ENDMDL
