MODEL 1
REMARK minimizedAffinity 7.80810738
REMARK minimizedRMSD -1
REMARK  0 active torsions:
REMARK  status: ('A' for Active; 'I' for Inactive)
ROOT
ATOM      1  C   UNL d   1      -0.482   4.295  -5.207  0.00  0.00     0.077 C 
ATOM      2  C1  UNL d   1      -1.623   4.898  -4.443  0.00  0.00    -0.074 A 
ATOM      3  C2  UNL d   1      -2.737   5.420  -5.107  0.00  0.00    -0.005 A 
ATOM      4  C3  UNL d   1      -3.795   5.968  -4.382  0.00  0.00     0.006 A 
ATOM      5  C4  UNL d   1      -3.750   6.000  -2.987  0.00  0.00    -0.005 A 
ATOM      6  C5  UNL d   1      -2.644   5.481  -2.306  0.00  0.00    -0.074 A 
ATOM      7  C6  UNL d   1      -2.584   5.498  -0.807  0.00  0.00     0.077 C 
ATOM      8  C7  UNL d   1      -1.588   4.925  -3.041  0.00  0.00    -0.001 A 
ENDROOT
TORSDOF 0
ENDMDL
