MODEL 1
REMARK minimizedAffinity 1.26533449
REMARK minimizedRMSD -1
REMARK  0 active torsions:
REMARK  status: ('A' for Active; 'I' for Inactive)
ROOT
ATOM      1  C   UNL d   1      -3.921  -2.182  -2.692  0.00  0.00     0.077 C 
ATOM      2  C1  UNL d   1      -2.439  -1.966  -2.771  0.00  0.00    -0.074 A 
ATOM      3  C2  UNL d   1      -1.744  -2.178  -3.967  0.00  0.00    -0.005 A 
ATOM      4  C3  UNL d   1      -0.367  -1.964  -4.027  0.00  0.00     0.006 A 
ATOM      5  C4  UNL d   1       0.328  -1.536  -2.896  0.00  0.00    -0.005 A 
ATOM      6  C5  UNL d   1      -0.350  -1.318  -1.692  0.00  0.00    -0.074 A 
ATOM      7  C6  UNL d   1       0.381  -0.848  -0.469  0.00  0.00     0.077 C 
ATOM      8  C7  UNL d   1      -1.734  -1.528  -1.641  0.00  0.00    -0.001 A 
ENDROOT
TORSDOF 0
ENDMDL
