MODEL 1
REMARK minimizedAffinity -0.499719143
REMARK minimizedRMSD -1
REMARK  0 active torsions:
REMARK  status: ('A' for Active; 'I' for Inactive)
ROOT
ATOM      1  C   UNL d   1      -4.531   5.977  -2.263  0.00  0.00     0.077 C 
ATOM      2  C1  UNL d   1      -3.043   5.992  -2.450  0.00  0.00    -0.074 A 
ATOM      3  C2  UNL d   1      -2.180   5.996  -1.350  0.00  0.00    -0.005 A 
ATOM      4  C3  UNL d   1      -0.798   6.000  -1.540  0.00  0.00     0.006 A 
ATOM      5  C4  UNL d   1      -0.266   6.000  -2.830  0.00  0.00    -0.005 A 
ATOM      6  C5  UNL d   1      -1.114   5.995  -3.942  0.00  0.00    -0.074 A 
ATOM      7  C6  UNL d   1      -0.558   5.985  -5.336  0.00  0.00     0.077 C 
ATOM      8  C7  UNL d   1      -2.501   5.984  -3.743  0.00  0.00    -0.001 A 
ENDROOT
TORSDOF 0
ENDMDL
