MODEL 1
REMARK minimizedAffinity 4.90568447
REMARK minimizedRMSD -1
REMARK  0 active torsions:
REMARK  status: ('A' for Active; 'I' for Inactive)
ROOT
ATOM      1  C   UNL d   1       6.000   4.870  -3.000  0.00  0.00     0.077 C 
ATOM      2  C1  UNL d   1       4.720   4.227  -3.447  0.00  0.00    -0.074 A 
ATOM      3  C2  UNL d   1       4.420   4.092  -4.806  0.00  0.00    -0.005 A 
ATOM      4  C3  UNL d   1       3.231   3.483  -5.207  0.00  0.00     0.006 A 
ATOM      5  C4  UNL d   1       2.331   3.005  -4.254  0.00  0.00    -0.005 A 
ATOM      6  C5  UNL d   1       2.614   3.131  -2.890  0.00  0.00    -0.074 A 
ATOM      7  C6  UNL d   1       1.662   2.613  -1.853  0.00  0.00     0.077 C 
ATOM      8  C7  UNL d   1       3.815   3.737  -2.495  0.00  0.00    -0.001 A 
ENDROOT
TORSDOF 0
ENDMDL
