MODEL 1
REMARK minimizedAffinity -4.55551434
REMARK minimizedRMSD -1
REMARK  1 active torsions:
REMARK  status: ('A' for Active; 'I' for Inactive)
REMARK    1  A    between atoms: C1_2  and  C2_3 
ROOT
ATOM      1  C2  UNL d   1       0.398   0.074  -0.073  0.00  0.00    -0.076 A 
ATOM      2  C3  UNL d   1       1.187   0.410   1.041  0.00  0.00     0.004 A 
ATOM      3  C4  UNL d   1       2.134  -0.480   1.544  0.00  0.00    -0.003 A 
ATOM      4  C5  UNL d   1       2.309  -1.721   0.940  0.00  0.00     0.000 A 
ATOM      5  C6  UNL d   1       1.548  -2.064  -0.177  0.00  0.00     0.000 A 
ATOM      6  C7  UNL d   1       0.600  -1.172  -0.706  0.00  0.00    -0.073 A 
ATOM      7  C8  UNL d   1      -0.198  -1.596  -1.909  0.00  0.00     0.078 C 
ENDROOT
BRANCH   1   8
ATOM      8  C1  UNL d   1      -0.633   1.068  -0.557  0.00  0.00     0.053 C 
ATOM      9  C   UNL d   1      -2.002   0.837   0.064  0.00  0.00     0.018 C 
ENDBRANCH   1   8
TORSDOF 1
ENDMDL
