MODEL 1
REMARK minimizedAffinity -2.43374205
REMARK minimizedRMSD -1
REMARK  1 active torsions:
REMARK  status: ('A' for Active; 'I' for Inactive)
REMARK    1  A    between atoms: C1_2  and  C2_3 
ROOT
ATOM      1  C2  UNL d   1       0.097   0.017  -0.095  0.00  0.00    -0.076 A 
ATOM      2  C3  UNL d   1       0.898   0.308   1.023  0.00  0.00     0.004 A 
ATOM      3  C4  UNL d   1       2.003  -0.480   1.338  0.00  0.00    -0.003 A 
ATOM      4  C5  UNL d   1       2.327  -1.571   0.539  0.00  0.00     0.000 A 
ATOM      5  C6  UNL d   1       1.555  -1.864  -0.584  0.00  0.00     0.000 A 
ATOM      6  C7  UNL d   1       0.447  -1.070  -0.925  0.00  0.00    -0.073 A 
ATOM      7  C8  UNL d   1      -0.355  -1.435  -2.145  0.00  0.00     0.078 C 
ENDROOT
BRANCH   1   8
ATOM      8  C1  UNL d   1      -1.105   0.891  -0.372  0.00  0.00     0.053 C 
ATOM      9  C   UNL d   1      -2.124   0.855   0.757  0.00  0.00     0.018 C 
ENDBRANCH   1   8
TORSDOF 1
ENDMDL
