MODEL 1
REMARK minimizedAffinity -4.7787528
REMARK minimizedRMSD -1
REMARK  1 active torsions:
REMARK  status: ('A' for Active; 'I' for Inactive)
REMARK    1  A    between atoms: C1_2  and  C2_3 
ROOT
ATOM      1  C2  UNL d   1       0.079   0.429   0.283  0.00  0.00    -0.076 A 
ATOM      2  C3  UNL d   1       1.084   1.083   1.017  0.00  0.00     0.004 A 
ATOM      3  C4  UNL d   1       2.252   0.417   1.386  0.00  0.00    -0.003 A 
ATOM      4  C5  UNL d   1       2.434  -0.914   1.026  0.00  0.00     0.000 A 
ATOM      5  C6  UNL d   1       1.456  -1.573   0.283  0.00  0.00     0.000 A 
ATOM      6  C7  UNL d   1       0.280  -0.912  -0.111  0.00  0.00    -0.073 A 
ATOM      7  C8  UNL d   1      -0.745  -1.673  -0.907  0.00  0.00     0.078 C 
ENDROOT
BRANCH   1   8
ATOM      8  C1  UNL d   1      -1.177   1.194  -0.065  0.00  0.00     0.053 C 
ATOM      9  C   UNL d   1      -2.185   1.208   1.074  0.00  0.00     0.018 C 
ENDBRANCH   1   8
TORSDOF 1
ENDMDL
