MODEL 1
REMARK minimizedAffinity -5.15560246
REMARK minimizedRMSD -1
REMARK  1 active torsions:
REMARK  status: ('A' for Active; 'I' for Inactive)
REMARK    1  A    between atoms: C1_2  and  C2_3 
ROOT
ATOM      1  C2  UNL d   1       1.079  -0.501  -0.218  0.00  0.00    -0.076 A 
ATOM      2  C3  UNL d   1       1.965  -1.584  -0.088  0.00  0.00     0.004 A 
ATOM      3  C4  UNL d   1       3.329  -1.376   0.114  0.00  0.00    -0.003 A 
ATOM      4  C5  UNL d   1       3.828  -0.080   0.189  0.00  0.00     0.000 A 
ATOM      5  C6  UNL d   1       2.961   1.006   0.080  0.00  0.00     0.000 A 
ATOM      6  C7  UNL d   1       1.581   0.813  -0.107  0.00  0.00    -0.073 A 
ATOM      7  C8  UNL d   1       0.693   2.022  -0.224  0.00  0.00     0.078 C 
ENDROOT
BRANCH   1   8
ATOM      8  C1  UNL d   1      -0.385  -0.788  -0.462  0.00  0.00     0.053 C 
ATOM      9  C   UNL d   1      -0.601  -1.830  -1.549  0.00  0.00     0.018 C 
ENDBRANCH   1   8
TORSDOF 1
ENDMDL
