MODEL 1
REMARK minimizedAffinity -4.66937876
REMARK minimizedRMSD -1
REMARK  1 active torsions:
REMARK  status: ('A' for Active; 'I' for Inactive)
REMARK    1  A    between atoms: C1_2  and  C2_3 
ROOT
ATOM      1  C2  UNL d   1       1.168  -0.504   0.404  0.00  0.00    -0.076 A 
ATOM      2  C3  UNL d   1       0.189  -1.319  -0.191  0.00  0.00     0.004 A 
ATOM      3  C4  UNL d   1      -0.973  -0.768  -0.729  0.00  0.00    -0.003 A 
ATOM      4  C5  UNL d   1      -1.174   0.607  -0.683  0.00  0.00     0.000 A 
ATOM      5  C6  UNL d   1      -0.206   1.432  -0.112  0.00  0.00     0.000 A 
ATOM      6  C7  UNL d   1       0.978   0.895   0.421  0.00  0.00    -0.073 A 
ATOM      7  C8  UNL d   1       1.986   1.831   1.029  0.00  0.00     0.078 C 
ENDROOT
BRANCH   1   8
ATOM      8  C1  UNL d   1       2.395  -1.160   0.996  0.00  0.00     0.053 C 
ATOM      9  C   UNL d   1       3.010  -2.193   0.065  0.00  0.00     0.018 C 
ENDBRANCH   1   8
TORSDOF 1
ENDMDL
