MODEL 1
REMARK minimizedAffinity -5.52615929
REMARK minimizedRMSD -1
REMARK  1 active torsions:
REMARK  status: ('A' for Active; 'I' for Inactive)
REMARK    1  A    between atoms: C1_2  and  C2_3 
ROOT
ATOM      1  C2  UNL d   1       0.090   0.158  -0.003  0.00  0.00    -0.076 A 
ATOM      2  C3  UNL d   1       0.948   1.102   0.586  0.00  0.00     0.004 A 
ATOM      3  C4  UNL d   1       2.146   0.710   1.182  0.00  0.00    -0.003 A 
ATOM      4  C5  UNL d   1       2.505  -0.633   1.197  0.00  0.00     0.000 A 
ATOM      5  C6  UNL d   1       1.674  -1.582   0.602  0.00  0.00     0.000 A 
ATOM      6  C7  UNL d   1       0.471  -1.201  -0.017  0.00  0.00    -0.073 A 
ATOM      7  C8  UNL d   1      -0.390  -2.267  -0.638  0.00  0.00     0.078 C 
ENDROOT
BRANCH   1   8
ATOM      8  C1  UNL d   1      -1.209   0.639  -0.609  0.00  0.00     0.053 C 
ATOM      9  C   UNL d   1      -2.303   0.828   0.430  0.00  0.00     0.018 C 
ENDBRANCH   1   8
TORSDOF 1
ENDMDL
