MODEL 1
REMARK minimizedAffinity -2.74627924
REMARK minimizedRMSD -1
REMARK  1 active torsions:
REMARK  status: ('A' for Active; 'I' for Inactive)
REMARK    1  A    between atoms: C1_2  and  C2_3 
ROOT
ATOM      1  C2  UNL d   1       0.112  -0.093  -0.137  0.00  0.00    -0.076 A 
ATOM      2  C3  UNL d   1       0.721   0.418   1.023  0.00  0.00     0.004 A 
ATOM      3  C4  UNL d   1       1.826  -0.215   1.590  0.00  0.00    -0.003 A 
ATOM      4  C5  UNL d   1       2.340  -1.368   1.007  0.00  0.00     0.000 A 
ATOM      5  C6  UNL d   1       1.759  -1.878  -0.154  0.00  0.00     0.000 A 
ATOM      6  C7  UNL d   1       0.654  -1.244  -0.747  0.00  0.00    -0.073 A 
ATOM      7  C8  UNL d   1       0.063  -1.841  -1.995  0.00  0.00     0.078 C 
ENDROOT
BRANCH   1   8
ATOM      8  C1  UNL d   1      -1.101   0.620  -0.691  0.00  0.00     0.053 C 
ATOM      9  C   UNL d   1      -2.304   0.531   0.235  0.00  0.00     0.018 C 
ENDBRANCH   1   8
TORSDOF 1
ENDMDL
