MODEL 1
REMARK minimizedAffinity -5.09485674
REMARK minimizedRMSD -1
REMARK  1 active torsions:
REMARK  status: ('A' for Active; 'I' for Inactive)
REMARK    1  A    between atoms: C1_2  and  C2_3 
ROOT
ATOM      1  C2  UNL d   1       1.130  -0.193   0.395  0.00  0.00    -0.076 A 
ATOM      2  C3  UNL d   1       0.098  -0.969  -0.162  0.00  0.00     0.004 A 
ATOM      3  C4  UNL d   1      -1.003  -0.368  -0.769  0.00  0.00    -0.003 A 
ATOM      4  C5  UNL d   1      -1.090   1.019  -0.830  0.00  0.00     0.000 A 
ATOM      5  C6  UNL d   1      -0.067   1.803  -0.298  0.00  0.00     0.000 A 
ATOM      6  C7  UNL d   1       1.058   1.213   0.303  0.00  0.00    -0.073 A 
ATOM      7  C8  UNL d   1       2.129   2.107   0.865  0.00  0.00     0.078 C 
ENDROOT
BRANCH   1   8
ATOM      8  C1  UNL d   1       2.287  -0.901   1.064  0.00  0.00     0.053 C 
ATOM      9  C   UNL d   1       3.448  -1.147   0.113  0.00  0.00     0.018 C 
ENDBRANCH   1   8
TORSDOF 1
ENDMDL
