MODEL 1
REMARK minimizedAffinity -4.37162876
REMARK minimizedRMSD -1
REMARK  1 active torsions:
REMARK  status: ('A' for Active; 'I' for Inactive)
REMARK    1  A    between atoms: C1_2  and  C2_3 
ROOT
ATOM      1  C2  UNL d   1       0.194  -0.112  -0.367  0.00  0.00    -0.076 A 
ATOM      2  C3  UNL d   1       1.149   0.361   0.549  0.00  0.00     0.004 A 
ATOM      3  C4  UNL d   1       2.293  -0.379   0.839  0.00  0.00    -0.003 A 
ATOM      4  C5  UNL d   1       2.502  -1.605   0.217  0.00  0.00     0.000 A 
ATOM      5  C6  UNL d   1       1.574  -2.082  -0.708  0.00  0.00     0.000 A 
ATOM      6  C7  UNL d   1       0.422  -1.340  -1.024  0.00  0.00    -0.073 A 
ATOM      7  C8  UNL d   1      -0.548  -1.904  -2.025  0.00  0.00     0.078 C 
ENDROOT
BRANCH   1   8
ATOM      8  C1  UNL d   1      -1.042   0.722  -0.621  0.00  0.00     0.053 C 
ATOM      9  C   UNL d   1      -2.006   0.708   0.554  0.00  0.00     0.018 C 
ENDBRANCH   1   8
TORSDOF 1
ENDMDL
