MODEL 1
REMARK minimizedAffinity 2.21583438
REMARK minimizedRMSD -1
REMARK  0 active torsions:
REMARK  status: ('A' for Active; 'I' for Inactive)
ROOT
ATOM      1  C1  BNZ d   1       4.037   5.070  -1.339  0.00  0.00     0.000 A 
ATOM      2  C2  BNZ d   1       3.989   4.151  -0.325  0.00  0.00     0.000 A 
ATOM      3  C3  BNZ d   1       4.925   4.159   0.672  0.00  0.00     0.000 A 
ATOM      4  C4  BNZ d   1       5.929   5.059   0.632  0.00  0.00     0.000 A 
ATOM      5  C5  BNZ d   1       5.996   5.986  -0.389  0.00  0.00     0.000 A 
ATOM      6  C6  BNZ d   1       5.031   6.000  -1.369  0.00  0.00     0.000 A 
ENDROOT
TORSDOF 0
ENDMDL
