MODEL 1
REMARK minimizedAffinity 4.64626694
REMARK minimizedRMSD -1
REMARK  0 active torsions:
REMARK  status: ('A' for Active; 'I' for Inactive)
ROOT
ATOM      1  C1  BNZ d   1       2.827  -2.281  -0.749  0.00  0.00     0.000 A 
ATOM      2  C2  BNZ d   1       3.203  -1.153  -1.428  0.00  0.00     0.000 A 
ATOM      3  C3  BNZ d   1       2.301  -0.161  -1.692  0.00  0.00     0.000 A 
ATOM      4  C4  BNZ d   1       1.016  -0.316  -1.313  0.00  0.00     0.000 A 
ATOM      5  C5  BNZ d   1       0.619  -1.452  -0.636  0.00  0.00     0.000 A 
ATOM      6  C6  BNZ d   1       1.538  -2.431  -0.338  0.00  0.00     0.000 A 
ENDROOT
TORSDOF 0
ENDMDL
