MODEL 1
REMARK minimizedAffinity 2.77734923
REMARK minimizedRMSD -1
REMARK  0 active torsions:
REMARK  status: ('A' for Active; 'I' for Inactive)
ROOT
ATOM      1  C1  BNZ d   1       3.489   5.978  -3.997  0.00  0.00     0.000 A 
ATOM      2  C2  BNZ d   1       3.429   5.972  -2.629  0.00  0.00     0.000 A 
ATOM      3  C3  BNZ d   1       4.571   5.999  -1.878  0.00  0.00     0.000 A 
ATOM      4  C4  BNZ d   1       5.770   5.990  -2.495  0.00  0.00     0.000 A 
ATOM      5  C5  BNZ d   1       5.848   5.986  -3.873  0.00  0.00     0.000 A 
ATOM      6  C6  BNZ d   1       4.696   5.999  -4.626  0.00  0.00     0.000 A 
ENDROOT
TORSDOF 0
ENDMDL
