MODEL 1
REMARK minimizedAffinity 2.77944088
REMARK minimizedRMSD -1
REMARK  0 active torsions:
REMARK  status: ('A' for Active; 'I' for Inactive)
ROOT
ATOM      1  C1  BNZ d   1      -0.050   0.427  -1.046  0.00  0.00     0.000 A 
ATOM      2  C2  BNZ d   1       1.188   0.652  -1.586  0.00  0.00     0.000 A 
ATOM      3  C3  BNZ d   1       2.098  -0.362  -1.695  0.00  0.00     0.000 A 
ATOM      4  C4  BNZ d   1       1.785  -1.588  -1.228  0.00  0.00     0.000 A 
ATOM      5  C5  BNZ d   1       0.544  -1.828  -0.672  0.00  0.00     0.000 A 
ATOM      6  C6  BNZ d   1      -0.384  -0.814  -0.599  0.00  0.00     0.000 A 
ENDROOT
TORSDOF 0
ENDMDL
