MODEL 1
REMARK minimizedAffinity 2.01491213
REMARK minimizedRMSD -1
REMARK  0 active torsions:
REMARK  status: ('A' for Active; 'I' for Inactive)
ROOT
ATOM      1  C1  BNZ d   1       0.617  -0.965  -1.445  0.00  0.00     0.000 A 
ATOM      2  C2  BNZ d   1       1.334   0.081  -1.961  0.00  0.00     0.000 A 
ATOM      3  C3  BNZ d   1       2.679   0.185  -1.738  0.00  0.00     0.000 A 
ATOM      4  C4  BNZ d   1       3.296  -0.734  -0.968  0.00  0.00     0.000 A 
ATOM      5  C5  BNZ d   1       2.585  -1.789  -0.433  0.00  0.00     0.000 A 
ATOM      6  C6  BNZ d   1       1.239  -1.912  -0.692  0.00  0.00     0.000 A 
ENDROOT
TORSDOF 0
ENDMDL
