MODEL 1
REMARK minimizedAffinity -0.328213781
REMARK minimizedRMSD -1
REMARK  0 active torsions:
REMARK  status: ('A' for Active; 'I' for Inactive)
ROOT
ATOM      1  C1  BNZ d   1       0.561  -2.339  -1.250  0.00  0.00     0.000 A 
ATOM      2  C2  BNZ d   1       1.420  -3.010  -0.422  0.00  0.00     0.000 A 
ATOM      3  C3  BNZ d   1       2.696  -2.560  -0.223  0.00  0.00     0.000 A 
ATOM      4  C4  BNZ d   1       3.123  -1.465  -0.884  0.00  0.00     0.000 A 
ATOM      5  C5  BNZ d   1       2.271  -0.783  -1.731  0.00  0.00     0.000 A 
ATOM      6  C6  BNZ d   1       0.976  -1.216  -1.898  0.00  0.00     0.000 A 
ENDROOT
TORSDOF 0
ENDMDL
