MODEL 1
REMARK minimizedAffinity -0.168481737
REMARK minimizedRMSD -1
REMARK  0 active torsions:
REMARK  status: ('A' for Active; 'I' for Inactive)
ROOT
ATOM      1  C1  BNZ d   1       2.878  -0.930  -1.165  0.00  0.00     0.000 A 
ATOM      2  C2  BNZ d   1       2.858   0.435  -1.272  0.00  0.00     0.000 A 
ATOM      3  C3  BNZ d   1       2.274   1.044  -2.347  0.00  0.00     0.000 A 
ATOM      4  C4  BNZ d   1       1.747   0.289  -3.332  0.00  0.00     0.000 A 
ATOM      5  C5  BNZ d   1       1.768  -1.089  -3.243  0.00  0.00     0.000 A 
ATOM      6  C6  BNZ d   1       2.322  -1.698  -2.141  0.00  0.00     0.000 A 
ENDROOT
TORSDOF 0
ENDMDL
