MODEL 1
REMARK minimizedAffinity 7.09045935
REMARK minimizedRMSD -1
REMARK  0 active torsions:
REMARK  status: ('A' for Active; 'I' for Inactive)
ROOT
ATOM      1  C1  BNZ d   1       0.215   2.503   1.582  0.00  0.00     0.000 A 
ATOM      2  C2  BNZ d   1      -0.637   2.430   0.512  0.00  0.00     0.000 A 
ATOM      3  C3  BNZ d   1      -0.180   2.059  -0.722  0.00  0.00     0.000 A 
ATOM      4  C4  BNZ d   1       1.132   1.799  -0.893  0.00  0.00     0.000 A 
ATOM      5  C5  BNZ d   1       2.005   1.877   0.174  0.00  0.00     0.000 A 
ATOM      6  C6  BNZ d   1       1.535   2.214   1.423  0.00  0.00     0.000 A 
ENDROOT
TORSDOF 0
ENDMDL
