MODEL 1
REMARK minimizedAffinity 0.190075949
REMARK minimizedRMSD -1
REMARK  0 active torsions:
REMARK  status: ('A' for Active; 'I' for Inactive)
ROOT
ATOM      1  C1  BNZ d   1       0.597   1.538  -1.481  0.00  0.00     0.000 A 
ATOM      2  C2  BNZ d   1       0.969   2.340  -2.527  0.00  0.00     0.000 A 
ATOM      3  C3  BNZ d   1       1.959   1.955  -3.386  0.00  0.00     0.000 A 
ATOM      4  C4  BNZ d   1       2.604   0.789  -3.176  0.00  0.00     0.000 A 
ATOM      5  C5  BNZ d   1       2.247  -0.026  -2.120  0.00  0.00     0.000 A 
ATOM      6  C6  BNZ d   1       1.223   0.347  -1.280  0.00  0.00     0.000 A 
ENDROOT
TORSDOF 0
ENDMDL
