MODEL 1
REMARK minimizedAffinity -4.21402311
REMARK minimizedRMSD -1
REMARK  0 active torsions:
REMARK  status: ('A' for Active; 'I' for Inactive)
ROOT
ATOM      1  C1  BNZ d   1       1.141   0.349  -1.414  0.00  0.00     0.000 A 
ATOM      2  C2  BNZ d   1       0.845  -0.646  -0.520  0.00  0.00     0.000 A 
ATOM      3  C3  BNZ d   1       1.596  -1.787  -0.469  0.00  0.00     0.000 A 
ATOM      4  C4  BNZ d   1       2.615  -1.949  -1.336  0.00  0.00     0.000 A 
ATOM      5  C5  BNZ d   1       2.920  -0.959  -2.250  0.00  0.00     0.000 A 
ATOM      6  C6  BNZ d   1       2.187   0.205  -2.272  0.00  0.00     0.000 A 
ENDROOT
TORSDOF 0
ENDMDL
