MODEL 1
REMARK minimizedAffinity -0.327765316
REMARK minimizedRMSD -1
REMARK  0 active torsions:
REMARK  status: ('A' for Active; 'I' for Inactive)
ROOT
ATOM      1  C1  BNZ d   1       2.040   0.001  -2.452  0.00  0.00     0.000 A 
ATOM      2  C2  BNZ d   1       1.131   0.035  -1.428  0.00  0.00     0.000 A 
ATOM      3  C3  BNZ d   1       0.406   1.165  -1.173  0.00  0.00     0.000 A 
ATOM      4  C4  BNZ d   1       0.619   2.271  -1.915  0.00  0.00     0.000 A 
ATOM      5  C5  BNZ d   1       1.539   2.256  -2.945  0.00  0.00     0.000 A 
ATOM      6  C6  BNZ d   1       2.239   1.104  -3.223  0.00  0.00     0.000 A 
ENDROOT
TORSDOF 0
ENDMDL
