MODEL 1
REMARK minimizedAffinity 0.826550186
REMARK minimizedRMSD -1
REMARK  0 active torsions:
REMARK  status: ('A' for Active; 'I' for Inactive)
ROOT
ATOM      1  C1  BNZ d   1       1.577   2.342   1.188  0.00  0.00     0.000 A 
ATOM      2  C2  BNZ d   1       1.770   1.920  -0.100  0.00  0.00     0.000 A 
ATOM      3  C3  BNZ d   1       0.707   1.623  -0.906  0.00  0.00     0.000 A 
ATOM      4  C4  BNZ d   1      -0.545   1.710  -0.411  0.00  0.00     0.000 A 
ATOM      5  C5  BNZ d   1      -0.756   2.125   0.889  0.00  0.00     0.000 A 
ATOM      6  C6  BNZ d   1       0.315   2.461   1.685  0.00  0.00     0.000 A 
ENDROOT
TORSDOF 0
ENDMDL
