MODEL 1
REMARK minimizedAffinity 1.18748188
REMARK minimizedRMSD -1
REMARK  0 active torsions:
REMARK  status: ('A' for Active; 'I' for Inactive)
ROOT
ATOM      1  C1  BNZ d   1       2.355   1.300  -2.261  0.00  0.00     0.000 A 
ATOM      2  C2  BNZ d   1       3.050   0.122  -2.317  0.00  0.00     0.000 A 
ATOM      3  C3  BNZ d   1       2.598  -0.990  -1.663  0.00  0.00     0.000 A 
ATOM      4  C4  BNZ d   1       1.474  -0.911  -0.922  0.00  0.00     0.000 A 
ATOM      5  C5  BNZ d   1       0.767   0.272  -0.847  0.00  0.00     0.000 A 
ATOM      6  C6  BNZ d   1       1.204   1.379  -1.539  0.00  0.00     0.000 A 
ENDROOT
TORSDOF 0
ENDMDL
