MODEL 1
REMARK minimizedAffinity 8.5334816
REMARK minimizedRMSD -1
REMARK  0 active torsions:
REMARK  status: ('A' for Active; 'I' for Inactive)
ROOT
ATOM      1  C1  BNZ d   1       0.369   1.535  -1.444  0.00  0.00     0.000 A 
ATOM      2  C2  BNZ d   1       0.799   0.271  -1.140  0.00  0.00     0.000 A 
ATOM      3  C3  BNZ d   1       1.678  -0.384  -1.957  0.00  0.00     0.000 A 
ATOM      4  C4  BNZ d   1       2.093   0.208  -3.095  0.00  0.00     0.000 A 
ATOM      5  C5  BNZ d   1       1.661   1.478  -3.420  0.00  0.00     0.000 A 
ATOM      6  C6  BNZ d   1       0.807   2.150  -2.576  0.00  0.00     0.000 A 
ENDROOT
TORSDOF 0
ENDMDL
