MODEL 1
REMARK minimizedAffinity -0.0265047625
REMARK minimizedRMSD -1
REMARK  0 active torsions:
REMARK  status: ('A' for Active; 'I' for Inactive)
ROOT
ATOM      1  C   UNL d   1       0.433   2.255  -1.209  0.00  0.00     0.172 C 
ATOM      2  N   UNL d   1       0.342   3.695  -1.151  0.00  0.00    -0.070 N 
ATOM      3  C1  UNL d   1      -0.046   4.512  -2.178  0.00  0.00    -0.004 A 
ATOM      4  C2  UNL d   1      -0.001   5.812  -1.723  0.00  0.00    -0.047 A 
ATOM      5  C3  UNL d   1       0.430   5.775  -0.376  0.00  0.00    -0.047 A 
ATOM      6  C4  UNL d   1       0.636   4.452  -0.047  0.00  0.00    -0.004 A 
ENDROOT
TORSDOF 0
ENDMDL
