MODEL 1
REMARK minimizedAffinity 0.170394659
REMARK minimizedRMSD -1
REMARK  0 active torsions:
REMARK  status: ('A' for Active; 'I' for Inactive)
ROOT
ATOM      1  C   UNL d   1       0.965   3.595   1.351  0.00  0.00     0.172 C 
ATOM      2  N   UNL d   1       0.660   4.006   0.000  0.00  0.00    -0.070 N 
ATOM      3  C1  UNL d   1       0.370   3.168  -1.043  0.00  0.00    -0.004 A 
ATOM      4  C2  UNL d   1       0.138   3.945  -2.157  0.00  0.00    -0.047 A 
ATOM      5  C3  UNL d   1       0.294   5.298  -1.770  0.00  0.00    -0.047 A 
ATOM      6  C4  UNL d   1       0.616   5.306  -0.429  0.00  0.00    -0.004 A 
ENDROOT
TORSDOF 0
ENDMDL
