MODEL 1
REMARK minimizedAffinity -1.9583509
REMARK minimizedRMSD -1
REMARK  0 active torsions:
REMARK  status: ('A' for Active; 'I' for Inactive)
ROOT
ATOM      1  C   UNL d   1       1.077  -0.283   1.152  0.00  0.00     0.172 C 
ATOM      2  N   UNL d   1       0.252  -0.179  -0.029  0.00  0.00    -0.070 N 
ATOM      3  C1  UNL d   1       0.364   0.781  -0.999  0.00  0.00    -0.004 A 
ATOM      4  C2  UNL d   1      -0.600   0.533  -1.951  0.00  0.00    -0.047 A 
ATOM      5  C3  UNL d   1      -1.318  -0.615  -1.539  0.00  0.00    -0.047 A 
ATOM      6  C4  UNL d   1      -0.769  -1.035  -0.345  0.00  0.00    -0.004 A 
ENDROOT
TORSDOF 0
ENDMDL
