MODEL 1
REMARK minimizedAffinity -0.816219032
REMARK minimizedRMSD -1
REMARK  0 active torsions:
REMARK  status: ('A' for Active; 'I' for Inactive)
ROOT
ATOM      1  C   UNL d   1      -5.896  -0.032   5.437  0.00  0.00     0.172 C 
ATOM      2  N   UNL d   1      -5.938  -1.303   4.752  0.00  0.00    -0.070 N 
ATOM      3  C1  UNL d   1      -5.962  -1.476   3.394  0.00  0.00    -0.004 A 
ATOM      4  C2  UNL d   1      -6.000  -2.831   3.142  0.00  0.00    -0.047 A 
ATOM      5  C3  UNL d   1      -6.000  -3.494   4.392  0.00  0.00    -0.047 A 
ATOM      6  C4  UNL d   1      -5.961  -2.524   5.372  0.00  0.00    -0.004 A 
ENDROOT
TORSDOF 0
ENDMDL
