MODEL 1
REMARK minimizedAffinity 0.0592846759
REMARK minimizedRMSD -1
REMARK  0 active torsions:
REMARK  status: ('A' for Active; 'I' for Inactive)
ROOT
ATOM      1  C   UNL d   1       0.051   1.938  -0.932  0.00  0.00     0.172 C 
ATOM      2  N   UNL d   1       0.376   1.429   0.380  0.00  0.00    -0.070 N 
ATOM      3  C1  UNL d   1       0.396   2.160   1.538  0.00  0.00    -0.004 A 
ATOM      4  C2  UNL d   1       0.752   1.314   2.566  0.00  0.00    -0.047 A 
ATOM      5  C3  UNL d   1       0.954   0.030   2.006  0.00  0.00    -0.047 A 
ATOM      6  C4  UNL d   1       0.715   0.130   0.652  0.00  0.00    -0.004 A 
ENDROOT
TORSDOF 0
ENDMDL
