MODEL 1
REMARK minimizedAffinity 2.10625124
REMARK minimizedRMSD -1
REMARK  0 active torsions:
REMARK  status: ('A' for Active; 'I' for Inactive)
ROOT
ATOM      1  C   UNL d   1      -5.997   0.578   4.561  0.00  0.00     0.172 C 
ATOM      2  N   UNL d   1      -5.990  -0.851   4.767  0.00  0.00    -0.070 N 
ATOM      3  C1  UNL d   1      -5.977  -1.483   5.982  0.00  0.00    -0.004 A 
ATOM      4  C2  UNL d   1      -5.975  -2.842   5.751  0.00  0.00    -0.047 A 
ATOM      5  C3  UNL d   1      -5.985  -3.033   4.349  0.00  0.00    -0.047 A 
ATOM      6  C4  UNL d   1      -5.994  -1.785   3.764  0.00  0.00    -0.004 A 
ENDROOT
TORSDOF 0
ENDMDL
