MODEL 1
REMARK minimizedAffinity -4.87212706
REMARK minimizedRMSD -1
REMARK  2 active torsions:
REMARK  status: ('A' for Active; 'I' for Inactive)
REMARK    1  A    between atoms: C2'_3  and  C1'_4 
REMARK    2  A    between atoms: C1'_4  and  C1_5 
ROOT
ATOM      1  C1  I4B d   1      -0.176  -0.124   0.150  0.00  0.00    -0.075 A 
ATOM      2  C2  I4B d   1       1.111   0.320  -0.023  0.00  0.00     0.003 A 
ATOM      3  C3  I4B d   1       2.198  -0.578   0.106  0.00  0.00     0.002 A 
ATOM      4  C4  I4B d   1       1.958  -1.891   0.456  0.00  0.00    -0.004 A 
ATOM      5  C5  I4B d   1       0.651  -2.345   0.609  0.00  0.00     0.002 A 
ATOM      6  C6  I4B d   1      -0.424  -1.459   0.442  0.00  0.00     0.003 A 
ENDROOT
BRANCH   1   7
ATOM      7  C1' I4B d   1      -1.299   0.858   0.038  0.00  0.00     0.060 C 
BRANCH   7   8
ATOM      8  C2' I4B d   1      -1.462   1.217  -1.425  0.00  0.00    -0.013 C 
ATOM      9  C4' I4B d   1      -2.702   0.590  -2.005  0.00  0.00     0.013 C 
ATOM     10  C3' I4B d   1      -1.509   2.712  -1.532  0.00  0.00     0.013 C 
ENDBRANCH   7   8
ENDBRANCH   1   7
TORSDOF 2
ENDMDL
