MODEL 1
REMARK minimizedAffinity -3.89648294
REMARK minimizedRMSD -1
REMARK  2 active torsions:
REMARK  status: ('A' for Active; 'I' for Inactive)
REMARK    1  A    between atoms: C2'_3  and  C1'_4 
REMARK    2  A    between atoms: C1'_4  and  C1_5 
ROOT
ATOM      1  C1  I4B d   1      -0.957   0.877  -0.451  0.00  0.00    -0.075 A 
ATOM      2  C2  I4B d   1      -1.299   0.901   0.878  0.00  0.00     0.003 A 
ATOM      3  C3  I4B d   1      -0.773  -0.067   1.767  0.00  0.00     0.002 A 
ATOM      4  C4  I4B d   1       0.047  -1.063   1.279  0.00  0.00    -0.004 A 
ATOM      5  C5  I4B d   1       0.412  -1.072  -0.064  0.00  0.00     0.002 A 
ATOM      6  C6  I4B d   1      -0.083  -0.089  -0.933  0.00  0.00     0.003 A 
ENDROOT
BRANCH   1   7
ATOM      7  C1' I4B d   1      -1.558   1.894  -1.368  0.00  0.00     0.060 C 
BRANCH   7   8
ATOM      8  C2' I4B d   1      -2.415   1.162  -2.380  0.00  0.00    -0.013 C 
ATOM      9  C4' I4B d   1      -3.792   0.892  -1.834  0.00  0.00     0.013 C 
ATOM     10  C3' I4B d   1      -2.480   1.998  -3.624  0.00  0.00     0.013 C 
ENDBRANCH   7   8
ENDBRANCH   1   7
TORSDOF 2
ENDMDL
