MODEL 1
REMARK minimizedAffinity -5.28324318
REMARK minimizedRMSD -1
REMARK  2 active torsions:
REMARK  status: ('A' for Active; 'I' for Inactive)
REMARK    1  A    between atoms: C2'_3  and  C1'_4 
REMARK    2  A    between atoms: C1'_4  and  C1_5 
ROOT
ATOM      1  C1  I4B d   1      -0.538   0.203   0.270  0.00  0.00    -0.075 A 
ATOM      2  C2  I4B d   1      -1.039  -0.675   1.199  0.00  0.00     0.003 A 
ATOM      3  C3  I4B d   1      -0.304  -1.831   1.556  0.00  0.00     0.002 A 
ATOM      4  C4  I4B d   1       0.895  -2.096   0.926  0.00  0.00    -0.004 A 
ATOM      5  C5  I4B d   1       1.412  -1.193   0.001  0.00  0.00     0.002 A 
ATOM      6  C6  I4B d   1       0.698  -0.030  -0.321  0.00  0.00     0.003 A 
ENDROOT
BRANCH   1   7
ATOM      7  C1' I4B d   1      -1.355   1.397  -0.108  0.00  0.00     0.060 C 
BRANCH   7   8
ATOM      8  C2' I4B d   1      -1.304   1.540  -1.616  0.00  0.00    -0.013 C 
ATOM      9  C4' I4B d   1      -2.617   1.157  -2.245  0.00  0.00     0.013 C 
ATOM     10  C3' I4B d   1      -0.945   2.961  -1.934  0.00  0.00     0.013 C 
ENDBRANCH   7   8
ENDBRANCH   1   7
TORSDOF 2
ENDMDL
