MODEL 1
REMARK minimizedAffinity -5.99078178
REMARK minimizedRMSD -1
REMARK  2 active torsions:
REMARK  status: ('A' for Active; 'I' for Inactive)
REMARK    1  A    between atoms: C2'_3  and  C1'_4 
REMARK    2  A    between atoms: C1'_4  and  C1_5 
ROOT
ATOM      1  C1  I4B d   1      -0.177   0.797  -0.225  0.00  0.00    -0.075 A 
ATOM      2  C2  I4B d   1      -0.609  -0.263   0.531  0.00  0.00     0.003 A 
ATOM      3  C3  I4B d   1       0.275  -1.325   0.842  0.00  0.00     0.002 A 
ATOM      4  C4  I4B d   1       1.558  -1.310   0.336  0.00  0.00    -0.004 A 
ATOM      5  C5  I4B d   1       2.002  -0.223  -0.412  0.00  0.00     0.002 A 
ATOM      6  C6  I4B d   1       1.133   0.844  -0.685  0.00  0.00     0.003 A 
ENDROOT
BRANCH   1   7
ATOM      7  C1' I4B d   1      -1.147   1.886  -0.562  0.00  0.00     0.060 C 
BRANCH   7   8
ATOM      8  C2' I4B d   1      -1.680   1.622  -1.955  0.00  0.00    -0.013 C 
ATOM      9  C4' I4B d   1      -3.006   0.910  -1.906  0.00  0.00     0.013 C 
ATOM     10  C3' I4B d   1      -1.798   2.939  -2.663  0.00  0.00     0.013 C 
ENDBRANCH   7   8
ENDBRANCH   1   7
TORSDOF 2
ENDMDL
