MODEL 1
REMARK minimizedAffinity -4.58608103
REMARK minimizedRMSD -1
REMARK  2 active torsions:
REMARK  status: ('A' for Active; 'I' for Inactive)
REMARK    1  A    between atoms: C2'_3  and  C1'_4 
REMARK    2  A    between atoms: C1'_4  and  C1_5 
ROOT
ATOM      1  C1  I4B d   1      -0.200   0.379   0.122  0.00  0.00    -0.075 A 
ATOM      2  C2  I4B d   1       1.096   0.723  -0.170  0.00  0.00     0.003 A 
ATOM      3  C3  I4B d   1       2.136  -0.227  -0.027  0.00  0.00     0.002 A 
ATOM      4  C4  I4B d   1       1.843  -1.487   0.456  0.00  0.00    -0.004 A 
ATOM      5  C5  I4B d   1       0.525  -1.841   0.729  0.00  0.00     0.002 A 
ATOM      6  C6  I4B d   1      -0.505  -0.906   0.550  0.00  0.00     0.003 A 
ENDROOT
BRANCH   1   7
ATOM      7  C1' I4B d   1      -1.268   1.418  -0.009  0.00  0.00     0.060 C 
BRANCH   7   8
ATOM      8  C2' I4B d   1      -1.560   1.604  -1.484  0.00  0.00    -0.013 C 
ATOM      9  C4' I4B d   1      -3.031   1.453  -1.772  0.00  0.00     0.013 C 
ATOM     10  C3' I4B d   1      -1.067   2.962  -1.886  0.00  0.00     0.013 C 
ENDBRANCH   7   8
ENDBRANCH   1   7
TORSDOF 2
ENDMDL
