MODEL 1
REMARK minimizedAffinity -5.91412067
REMARK minimizedRMSD -1
REMARK  2 active torsions:
REMARK  status: ('A' for Active; 'I' for Inactive)
REMARK    1  A    between atoms: C2'_3  and  C1'_4 
REMARK    2  A    between atoms: C1'_4  and  C1_5 
ROOT
ATOM      1  C1  I4B d   1      -1.202   1.235  -0.426  0.00  0.00    -0.075 A 
ATOM      2  C2  I4B d   1      -0.766   2.234  -1.260  0.00  0.00     0.003 A 
ATOM      3  C3  I4B d   1      -1.642   2.791  -2.223  0.00  0.00     0.002 A 
ATOM      4  C4  I4B d   1      -2.920   2.286  -2.351  0.00  0.00    -0.004 A 
ATOM      5  C5  I4B d   1      -3.367   1.289  -1.490  0.00  0.00     0.002 A 
ATOM      6  C6  I4B d   1      -2.507   0.768  -0.512  0.00  0.00     0.003 A 
ENDROOT
BRANCH   1   7
ATOM      7  C1' I4B d   1      -0.240   0.647   0.558  0.00  0.00     0.060 C 
BRANCH   7   8
ATOM      8  C2' I4B d   1       0.526  -0.457  -0.140  0.00  0.00    -0.013 C 
ATOM      9  C4' I4B d   1       1.955  -0.054  -0.393  0.00  0.00     0.013 C 
ATOM     10  C3' I4B d   1       0.453  -1.685   0.717  0.00  0.00     0.013 C 
ENDBRANCH   7   8
ENDBRANCH   1   7
TORSDOF 2
ENDMDL
