MODEL 1
REMARK minimizedAffinity -4.57143164
REMARK minimizedRMSD -1
REMARK  2 active torsions:
REMARK  status: ('A' for Active; 'I' for Inactive)
REMARK    1  A    between atoms: C2'_3  and  C1'_4 
REMARK    2  A    between atoms: C1'_4  and  C1_5 
ROOT
ATOM      1  C1  I4B d   1      -0.443   0.555  -0.383  0.00  0.00    -0.075 A 
ATOM      2  C2  I4B d   1      -1.126  -0.221   0.520  0.00  0.00     0.003 A 
ATOM      3  C3  I4B d   1      -0.488  -1.324   1.139  0.00  0.00     0.002 A 
ATOM      4  C4  I4B d   1       0.808  -1.642   0.789  0.00  0.00    -0.004 A 
ATOM      5  C5  I4B d   1       1.507  -0.841  -0.109  0.00  0.00     0.002 A 
ATOM      6  C6  I4B d   1       0.881   0.272  -0.690  0.00  0.00     0.003 A 
ENDROOT
BRANCH   1   7
ATOM      7  C1' I4B d   1      -1.158   1.692  -1.041  0.00  0.00     0.060 C 
BRANCH   7   8
ATOM      8  C2' I4B d   1      -1.821   1.162  -2.297  0.00  0.00    -0.013 C 
ATOM      9  C4' I4B d   1      -3.309   1.024  -2.110  0.00  0.00     0.013 C 
ATOM     10  C3' I4B d   1      -1.501   2.102  -3.421  0.00  0.00     0.013 C 
ENDBRANCH   7   8
ENDBRANCH   1   7
TORSDOF 2
ENDMDL
