MODEL 1
REMARK minimizedAffinity -4.26594925
REMARK minimizedRMSD -1
REMARK  2 active torsions:
REMARK  status: ('A' for Active; 'I' for Inactive)
REMARK    1  A    between atoms: C2'_3  and  C1'_4 
REMARK    2  A    between atoms: C1'_4  and  C1_5 
ROOT
ATOM      1  C1  I4B d   1       0.015   0.143  -0.032  0.00  0.00    -0.075 A 
ATOM      2  C2  I4B d   1      -0.421  -0.936   0.696  0.00  0.00     0.003 A 
ATOM      3  C3  I4B d   1       0.437  -2.041   0.915  0.00  0.00     0.002 A 
ATOM      4  C4  I4B d   1       1.695  -2.048   0.348  0.00  0.00    -0.004 A 
ATOM      5  C5  I4B d   1       2.143  -0.943  -0.371  0.00  0.00     0.002 A 
ATOM      6  C6  I4B d   1       1.302   0.165  -0.552  0.00  0.00     0.003 A 
ENDROOT
BRANCH   1   7
ATOM      7  C1' I4B d   1      -0.929   1.279  -0.272  0.00  0.00     0.060 C 
BRANCH   7   8
ATOM      8  C2' I4B d   1      -1.175   1.375  -1.764  0.00  0.00    -0.013 C 
ATOM      9  C4' I4B d   1      -2.573   0.939  -2.114  0.00  0.00     0.013 C 
ATOM     10  C3' I4B d   1      -0.929   2.793  -2.184  0.00  0.00     0.013 C 
ENDBRANCH   7   8
ENDBRANCH   1   7
TORSDOF 2
ENDMDL
