MODEL 1
REMARK minimizedAffinity -6.25526857
REMARK minimizedRMSD -1
REMARK  2 active torsions:
REMARK  status: ('A' for Active; 'I' for Inactive)
REMARK    1  A    between atoms: C2'_3  and  C1'_4 
REMARK    2  A    between atoms: C1'_4  and  C1_5 
ROOT
ATOM      1  C1  I4B d   1      -0.220   0.059  -0.381  0.00  0.00    -0.075 A 
ATOM      2  C2  I4B d   1      -0.895  -0.763   0.487  0.00  0.00     0.003 A 
ATOM      3  C3  I4B d   1      -0.251  -1.897   1.041  0.00  0.00     0.002 A 
ATOM      4  C4  I4B d   1       1.042  -2.196   0.663  0.00  0.00    -0.004 A 
ATOM      5  C5  I4B d   1       1.731  -1.349  -0.200  0.00  0.00     0.002 A 
ATOM      6  C6  I4B d   1       1.101  -0.207  -0.715  0.00  0.00     0.003 A 
ENDROOT
BRANCH   1   7
ATOM      7  C1' I4B d   1      -0.941   1.229  -0.973  0.00  0.00     0.060 C 
BRANCH   7   8
ATOM      8  C2' I4B d   1      -2.010   0.696  -1.905  0.00  0.00    -0.013 C 
ATOM      9  C4' I4B d   1      -3.366   1.246  -1.550  0.00  0.00     0.013 C 
ATOM     10  C3' I4B d   1      -1.626   1.063  -3.307  0.00  0.00     0.013 C 
ENDBRANCH   7   8
ENDBRANCH   1   7
TORSDOF 2
ENDMDL
