MODEL 1
REMARK minimizedAffinity -4.39267349
REMARK minimizedRMSD -1
REMARK  2 active torsions:
REMARK  status: ('A' for Active; 'I' for Inactive)
REMARK    1  A    between atoms: C2'_3  and  C1'_4 
REMARK    2  A    between atoms: C1'_4  and  C1_5 
ROOT
ATOM      1  C1  I4B d   1      -0.475   0.227  -0.129  0.00  0.00    -0.075 A 
ATOM      2  C2  I4B d   1      -0.917  -0.976   0.363  0.00  0.00     0.003 A 
ATOM      3  C3  I4B d   1       0.011  -1.942   0.822  0.00  0.00     0.002 A 
ATOM      4  C4  I4B d   1       1.363  -1.686   0.725  0.00  0.00    -0.004 A 
ATOM      5  C5  I4B d   1       1.809  -0.457   0.247  0.00  0.00     0.002 A 
ATOM      6  C6  I4B d   1       0.884   0.510  -0.171  0.00  0.00     0.003 A 
ENDROOT
BRANCH   1   7
ATOM      7  C1' I4B d   1      -1.480   1.211  -0.637  0.00  0.00     0.060 C 
BRANCH   7   8
ATOM      8  C2' I4B d   1      -1.688   0.947  -2.114  0.00  0.00    -0.013 C 
ATOM      9  C4' I4B d   1      -3.062   0.391  -2.381  0.00  0.00     0.013 C 
ATOM     10  C3' I4B d   1      -1.473   2.236  -2.849  0.00  0.00     0.013 C 
ENDBRANCH   7   8
ENDBRANCH   1   7
TORSDOF 2
ENDMDL
