MODEL 1
REMARK minimizedAffinity -4.42161942
REMARK minimizedRMSD -1
REMARK  2 active torsions:
REMARK  status: ('A' for Active; 'I' for Inactive)
REMARK    1  A    between atoms: C2'_3  and  C1'_4 
REMARK    2  A    between atoms: C1'_4  and  C1_5 
ROOT
ATOM      1  C1  I4B d   1       0.690  -0.253  -0.295  0.00  0.00    -0.075 A 
ATOM      2  C2  I4B d   1       2.008  -0.260   0.088  0.00  0.00     0.003 A 
ATOM      3  C3  I4B d   1       2.480  -1.232   1.003  0.00  0.00     0.002 A 
ATOM      4  C4  I4B d   1       1.594  -2.141   1.545  0.00  0.00    -0.004 A 
ATOM      5  C5  I4B d   1       0.263  -2.147   1.139  0.00  0.00     0.002 A 
ATOM      6  C6  I4B d   1      -0.190  -1.205   0.204  0.00  0.00     0.003 A 
ENDROOT
BRANCH   1   7
ATOM      7  C1' I4B d   1       0.218   0.809  -1.237  0.00  0.00     0.060 C 
BRANCH   7   8
ATOM      8  C2' I4B d   1      -1.202   1.173  -0.858  0.00  0.00    -0.013 C 
ATOM      9  C4' I4B d   1      -1.242   1.927   0.445  0.00  0.00     0.013 C 
ATOM     10  C3' I4B d   1      -1.786   1.987  -1.974  0.00  0.00     0.013 C 
ENDBRANCH   7   8
ENDBRANCH   1   7
TORSDOF 2
ENDMDL
