MODEL 1
REMARK minimizedAffinity -1.9490751
REMARK minimizedRMSD -1
REMARK  2 active torsions:
REMARK  status: ('A' for Active; 'I' for Inactive)
REMARK    1  A    between atoms: C2'_3  and  C1'_4 
REMARK    2  A    between atoms: C1'_4  and  C1_5 
ROOT
ATOM      1  C1  I4B d   1      -0.152   0.030   0.084  0.00  0.00    -0.075 A 
ATOM      2  C2  I4B d   1      -0.522  -1.279   0.272  0.00  0.00     0.003 A 
ATOM      3  C3  I4B d   1       0.463  -2.279   0.458  0.00  0.00     0.002 A 
ATOM      4  C4  I4B d   1       1.798  -1.936   0.398  0.00  0.00    -0.004 A 
ATOM      5  C5  I4B d   1       2.171  -0.606   0.231  0.00  0.00     0.002 A 
ATOM      6  C6  I4B d   1       1.190   0.385   0.085  0.00  0.00     0.003 A 
ENDROOT
BRANCH   1   7
ATOM      7  C1' I4B d   1      -1.218   1.055  -0.142  0.00  0.00     0.060 C 
BRANCH   7   8
ATOM      8  C2' I4B d   1      -1.316   1.305  -1.633  0.00  0.00    -0.013 C 
ATOM      9  C4' I4B d   1      -2.625   0.802  -2.185  0.00  0.00     0.013 C 
ATOM     10  C3' I4B d   1      -1.160   2.777  -1.867  0.00  0.00     0.013 C 
ENDBRANCH   7   8
ENDBRANCH   1   7
TORSDOF 2
ENDMDL
