MODEL 1
REMARK minimizedAffinity -3.41479826
REMARK minimizedRMSD -1
REMARK  2 active torsions:
REMARK  status: ('A' for Active; 'I' for Inactive)
REMARK    1  A    between atoms: C2'_3  and  C1'_4 
REMARK    2  A    between atoms: C1'_4  and  C1_5 
ROOT
ATOM      1  C1  I4B d   1      -0.360   0.509  -0.198  0.00  0.00    -0.075 A 
ATOM      2  C2  I4B d   1      -0.676  -0.411   0.770  0.00  0.00     0.003 A 
ATOM      3  C3  I4B d   1       0.246  -1.430   1.113  0.00  0.00     0.002 A 
ATOM      4  C4  I4B d   1       1.443  -1.520   0.432  0.00  0.00    -0.004 A 
ATOM      5  C5  I4B d   1       1.771  -0.572  -0.533  0.00  0.00     0.002 A 
ATOM      6  C6  I4B d   1       0.870   0.457  -0.841  0.00  0.00     0.003 A 
ENDROOT
BRANCH   1   7
ATOM      7  C1' I4B d   1      -1.370   1.552  -0.558  0.00  0.00     0.060 C 
BRANCH   7   8
ATOM      8  C2' I4B d   1      -1.414   1.657  -2.069  0.00  0.00    -0.013 C 
ATOM      9  C4' I4B d   1      -2.744   1.199  -2.609  0.00  0.00     0.013 C 
ATOM     10  C3' I4B d   1      -1.141   3.083  -2.442  0.00  0.00     0.013 C 
ENDBRANCH   7   8
ENDBRANCH   1   7
TORSDOF 2
ENDMDL
