MODEL 1
REMARK minimizedAffinity 2.1949451
REMARK minimizedRMSD -1
REMARK  1 active torsions:
REMARK  status: ('A' for Active; 'I' for Inactive)
REMARK    1  A    between atoms: C1_2  and  C2_3 
ROOT
ATOM      1  C2  UNL d   1       4.081  -5.893  -3.387  0.00  0.00    -0.077 A 
ATOM      2  C3  UNL d   1       4.937  -5.716  -4.483  0.00  0.00     0.002 A 
ATOM      3  C4  UNL d   1       4.419  -5.647  -5.778  0.00  0.00     0.002 A 
ATOM      4  C5  UNL d   1       3.046  -5.750  -5.988  0.00  0.00    -0.004 A 
ATOM      5  C6  UNL d   1       2.187  -5.928  -4.904  0.00  0.00     0.002 A 
ATOM      6  C7  UNL d   1       2.703  -5.998  -3.609  0.00  0.00     0.002 A 
ENDROOT
BRANCH   1   7
ATOM      7  C1  UNL d   1       4.633  -5.918  -1.985  0.00  0.00     0.055 C 
ATOM      8  C   UNL d   1       3.516  -5.941  -0.951  0.00  0.00     0.019 C 
ENDBRANCH   1   7
TORSDOF 1
ENDMDL
