MODEL 1
REMARK minimizedAffinity -0.579954386
REMARK minimizedRMSD -1
REMARK  1 active torsions:
REMARK  status: ('A' for Active; 'I' for Inactive)
REMARK    1  A    between atoms: C1_2  and  C2_3 
ROOT
ATOM      1  C2  UNL d   1       2.234  -2.027   3.573  0.00  0.00    -0.077 A 
ATOM      2  C3  UNL d   1       3.527  -2.355   4.004  0.00  0.00     0.002 A 
ATOM      3  C4  UNL d   1       3.827  -3.655   4.416  0.00  0.00     0.002 A 
ATOM      4  C5  UNL d   1       2.840  -4.638   4.396  0.00  0.00    -0.004 A 
ATOM      5  C6  UNL d   1       1.550  -4.322   3.970  0.00  0.00     0.002 A 
ATOM      6  C7  UNL d   1       1.249  -3.023   3.560  0.00  0.00     0.002 A 
ENDROOT
BRANCH   1   7
ATOM      7  C1  UNL d   1       1.922  -0.638   3.082  0.00  0.00     0.055 C 
ATOM      8  C   UNL d   1       3.013  -0.119   2.157  0.00  0.00     0.019 C 
ENDBRANCH   1   7
TORSDOF 1
ENDMDL
