MODEL 1
REMARK minimizedAffinity 3.49594545
REMARK minimizedRMSD -1
REMARK  1 active torsions:
REMARK  status: ('A' for Active; 'I' for Inactive)
REMARK    1  A    between atoms: C1_2  and  C2_3 
ROOT
ATOM      1  C2  UNL d   1       1.595  -4.110   3.988  0.00  0.00    -0.077 A 
ATOM      2  C3  UNL d   1       2.655  -4.645   4.734  0.00  0.00     0.002 A 
ATOM      3  C4  UNL d   1       2.409  -5.584   5.737  0.00  0.00     0.002 A 
ATOM      4  C5  UNL d   1       1.106  -6.000   6.000  0.00  0.00    -0.004 A 
ATOM      5  C6  UNL d   1       0.045  -5.472   5.265  0.00  0.00     0.002 A 
ATOM      6  C7  UNL d   1       0.289  -4.532   4.263  0.00  0.00     0.002 A 
ENDROOT
BRANCH   1   7
ATOM      7  C1  UNL d   1       1.863  -3.133   2.873  0.00  0.00     0.055 C 
ATOM      8  C   UNL d   1       2.215  -1.756   3.416  0.00  0.00     0.019 C 
ENDBRANCH   1   7
TORSDOF 1
ENDMDL
