MODEL 1
REMARK minimizedAffinity -2.33653188
REMARK minimizedRMSD -1
REMARK  1 active torsions:
REMARK  status: ('A' for Active; 'I' for Inactive)
REMARK    1  A    between atoms: C1_2  and  C2_3 
ROOT
ATOM      1  C2  UNL d   1       2.976  -6.000  -3.076  0.00  0.00    -0.077 A 
ATOM      2  C3  UNL d   1       4.311  -5.989  -3.505  0.00  0.00     0.002 A 
ATOM      3  C4  UNL d   1       4.614  -5.947  -4.868  0.00  0.00     0.002 A 
ATOM      4  C5  UNL d   1       3.589  -5.913  -5.811  0.00  0.00    -0.004 A 
ATOM      5  C6  UNL d   1       2.259  -5.926  -5.394  0.00  0.00     0.002 A 
ATOM      6  C7  UNL d   1       1.954  -5.968  -4.033  0.00  0.00     0.002 A 
ENDROOT
BRANCH   1   7
ATOM      7  C1  UNL d   1       2.647  -5.994  -1.606  0.00  0.00     0.055 C 
ATOM      8  C   UNL d   1       1.142  -5.997  -1.376  0.00  0.00     0.019 C 
ENDBRANCH   1   7
TORSDOF 1
ENDMDL
