MODEL 1
REMARK minimizedAffinity 11.7516413
REMARK minimizedRMSD -1
REMARK  1 active torsions:
REMARK  status: ('A' for Active; 'I' for Inactive)
REMARK    1  A    between atoms: C1_2  and  C2_3 
ROOT
ATOM      1  C2  UNL d   1      -3.848   1.125  -2.439  0.00  0.00    -0.077 A 
ATOM      2  C3  UNL d   1      -3.358   2.229  -1.727  0.00  0.00     0.002 A 
ATOM      3  C4  UNL d   1      -4.182   2.914  -0.831  0.00  0.00     0.002 A 
ATOM      4  C5  UNL d   1      -5.497   2.499  -0.636  0.00  0.00    -0.004 A 
ATOM      5  C6  UNL d   1      -5.994   1.404  -1.341  0.00  0.00     0.002 A 
ATOM      6  C7  UNL d   1      -5.173   0.719  -2.238  0.00  0.00     0.002 A 
ENDROOT
BRANCH   1   7
ATOM      7  C1  UNL d   1      -2.947   0.356  -3.369  0.00  0.00     0.055 C 
ATOM      8  C   UNL d   1      -2.947  -1.129  -3.037  0.00  0.00     0.019 C 
ENDBRANCH   1   7
TORSDOF 1
ENDMDL
