MODEL 1
REMARK minimizedAffinity 9.46208
REMARK minimizedRMSD -1
REMARK  1 active torsions:
REMARK  status: ('A' for Active; 'I' for Inactive)
REMARK    1  A    between atoms: C1_2  and  C2_3 
ROOT
ATOM      1  C2  UNL d   1      -3.865   3.192  -0.682  0.00  0.00    -0.077 A 
ATOM      2  C3  UNL d   1      -3.455   2.821   0.606  0.00  0.00     0.002 A 
ATOM      3  C4  UNL d   1      -4.308   2.995   1.696  0.00  0.00     0.002 A 
ATOM      4  C5  UNL d   1      -5.578   3.538   1.510  0.00  0.00    -0.004 A 
ATOM      5  C6  UNL d   1      -5.994   3.913   0.233  0.00  0.00     0.002 A 
ATOM      6  C7  UNL d   1      -5.142   3.740  -0.858  0.00  0.00     0.002 A 
ENDROOT
BRANCH   1   7
ATOM      7  C1  UNL d   1      -2.964   2.960  -1.867  0.00  0.00     0.055 C 
ATOM      8  C   UNL d   1      -3.501   1.851  -2.761  0.00  0.00     0.019 C 
ENDBRANCH   1   7
TORSDOF 1
ENDMDL
