MODEL 1
REMARK minimizedAffinity 4.43093395
REMARK minimizedRMSD -1
REMARK  1 active torsions:
REMARK  status: ('A' for Active; 'I' for Inactive)
REMARK    1  A    between atoms: C1_2  and  C2_3 
ROOT
ATOM      1  C2  UNL d   1      -5.183   3.621  -0.306  0.00  0.00    -0.077 A 
ATOM      2  C3  UNL d   1      -5.629   3.303   0.985  0.00  0.00     0.002 A 
ATOM      3  C4  UNL d   1      -4.850   2.506   1.826  0.00  0.00     0.002 A 
ATOM      4  C5  UNL d   1      -3.618   2.025   1.388  0.00  0.00    -0.004 A 
ATOM      5  C6  UNL d   1      -3.166   2.334   0.105  0.00  0.00     0.002 A 
ATOM      6  C7  UNL d   1      -3.944   3.129  -0.737  0.00  0.00     0.002 A 
ENDROOT
BRANCH   1   7
ATOM      7  C1  UNL d   1      -5.999   4.520  -1.196  0.00  0.00     0.055 C 
ATOM      8  C   UNL d   1      -5.696   5.987  -0.929  0.00  0.00     0.019 C 
ENDBRANCH   1   7
TORSDOF 1
ENDMDL
