MODEL 1
REMARK minimizedAffinity 6.00117064
REMARK minimizedRMSD -1
REMARK  1 active torsions:
REMARK  status: ('A' for Active; 'I' for Inactive)
REMARK    1  A    between atoms: C1_2  and  C2_3 
ROOT
ATOM      1  C2  UNL d   1       2.362  -0.106   2.531  0.00  0.00    -0.077 A 
ATOM      2  C3  UNL d   1       2.194   0.936   3.453  0.00  0.00     0.002 A 
ATOM      3  C4  UNL d   1       2.501   2.251   3.097  0.00  0.00     0.002 A 
ATOM      4  C5  UNL d   1       2.973   2.536   1.818  0.00  0.00    -0.004 A 
ATOM      5  C6  UNL d   1       3.145   1.506   0.894  0.00  0.00     0.002 A 
ATOM      6  C7  UNL d   1       2.840   0.192   1.248  0.00  0.00     0.002 A 
ENDROOT
BRANCH   1   7
ATOM      7  C1  UNL d   1       1.985  -1.518   2.897  0.00  0.00     0.055 C 
ATOM      8  C   UNL d   1       2.108  -1.752   4.395  0.00  0.00     0.019 C 
ENDBRANCH   1   7
TORSDOF 1
ENDMDL
