MODEL 1
REMARK minimizedAffinity 0.763790667
REMARK minimizedRMSD -1
REMARK  1 active torsions:
REMARK  status: ('A' for Active; 'I' for Inactive)
REMARK    1  A    between atoms: C1_2  and  C2_3 
ROOT
ATOM      1  C2  UNL d   1       3.969  -5.956  -3.587  0.00  0.00    -0.077 A 
ATOM      2  C3  UNL d   1       4.916  -5.934  -2.553  0.00  0.00     0.002 A 
ATOM      3  C4  UNL d   1       4.505  -5.943  -1.219  0.00  0.00     0.002 A 
ATOM      4  C5  UNL d   1       3.148  -5.978  -0.906  0.00  0.00    -0.004 A 
ATOM      5  C6  UNL d   1       2.199  -5.998  -1.926  0.00  0.00     0.002 A 
ATOM      6  C7  UNL d   1       2.607  -5.988  -3.261  0.00  0.00     0.002 A 
ENDROOT
BRANCH   1   7
ATOM      7  C1  UNL d   1       4.411  -5.996  -5.026  0.00  0.00     0.055 C 
ATOM      8  C   UNL d   1       5.925  -5.912  -5.143  0.00  0.00     0.019 C 
ENDBRANCH   1   7
TORSDOF 1
ENDMDL
