MODEL 1
REMARK minimizedAffinity -4.61433697
REMARK minimizedRMSD -1
REMARK  0 active torsions:
REMARK  status: ('A' for Active; 'I' for Inactive)
ROOT
ATOM      1  C1  BNZ d   1      -0.367  -5.629  -3.646  0.00  0.00     0.000 A 
ATOM      2  C2  BNZ d   1       0.541  -5.234  -2.701  0.00  0.00     0.000 A 
ATOM      3  C3  BNZ d   1       1.877  -5.195  -2.988  0.00  0.00     0.000 A 
ATOM      4  C4  BNZ d   1       2.306  -5.589  -4.204  0.00  0.00     0.000 A 
ATOM      5  C5  BNZ d   1       1.403  -5.999  -5.164  0.00  0.00     0.000 A 
ATOM      6  C6  BNZ d   1       0.056  -6.000  -4.885  0.00  0.00     0.000 A 
ENDROOT
TORSDOF 0
ENDMDL
