MODEL 1
REMARK minimizedAffinity -0.835769951
REMARK minimizedRMSD -1
REMARK  0 active torsions:
REMARK  status: ('A' for Active; 'I' for Inactive)
ROOT
ATOM      1  C1  BNZ d   1      -1.828  -1.032   2.854  0.00  0.00     0.000 A 
ATOM      2  C2  BNZ d   1      -0.816  -0.942   1.935  0.00  0.00     0.000 A 
ATOM      3  C3  BNZ d   1       0.490  -0.906   2.334  0.00  0.00     0.000 A 
ATOM      4  C4  BNZ d   1       0.782  -0.919   3.650  0.00  0.00     0.000 A 
ATOM      5  C5  BNZ d   1      -0.226  -0.999   4.589  0.00  0.00     0.000 A 
ATOM      6  C6  BNZ d   1      -1.539  -1.075   4.183  0.00  0.00     0.000 A 
ENDROOT
TORSDOF 0
ENDMDL
