MODEL 1
REMARK minimizedAffinity -3.21116018
REMARK minimizedRMSD -1
REMARK  0 active torsions:
REMARK  status: ('A' for Active; 'I' for Inactive)
ROOT
ATOM      1  C1  BNZ d   1      -0.870  -0.239   2.360  0.00  0.00     0.000 A 
ATOM      2  C2  BNZ d   1      -0.993  -0.838   3.586  0.00  0.00     0.000 A 
ATOM      3  C3  BNZ d   1       0.083  -1.428   4.188  0.00  0.00     0.000 A 
ATOM      4  C4  BNZ d   1       1.269  -1.453   3.548  0.00  0.00     0.000 A 
ATOM      5  C5  BNZ d   1       1.408  -0.862   2.308  0.00  0.00     0.000 A 
ATOM      6  C6  BNZ d   1       0.332  -0.235   1.722  0.00  0.00     0.000 A 
ENDROOT
TORSDOF 0
ENDMDL
