MODEL 1
REMARK minimizedAffinity 3.07489991
REMARK minimizedRMSD -1
REMARK  0 active torsions:
REMARK  status: ('A' for Active; 'I' for Inactive)
ROOT
ATOM      1  C1  BNZ d   1       0.301  -5.243  -5.517  0.00  0.00     0.000 A 
ATOM      2  C2  BNZ d   1       1.339  -4.507  -5.012  0.00  0.00     0.000 A 
ATOM      3  C3  BNZ d   1       1.628  -4.529  -3.676  0.00  0.00     0.000 A 
ATOM      4  C4  BNZ d   1       0.854  -5.254  -2.842  0.00  0.00     0.000 A 
ATOM      5  C5  BNZ d   1      -0.203  -5.994  -3.335  0.00  0.00     0.000 A 
ATOM      6  C6  BNZ d   1      -0.466  -6.000  -4.686  0.00  0.00     0.000 A 
ENDROOT
TORSDOF 0
ENDMDL
