MODEL 1
REMARK minimizedAffinity 0.600541532
REMARK minimizedRMSD -1
REMARK  0 active torsions:
REMARK  status: ('A' for Active; 'I' for Inactive)
ROOT
ATOM      1  C1  BNZ d   1       1.327  -1.205   3.695  0.00  0.00     0.000 A 
ATOM      2  C2  BNZ d   1       0.378  -0.588   2.923  0.00  0.00     0.000 A 
ATOM      3  C3  BNZ d   1      -0.887  -1.098   2.829  0.00  0.00     0.000 A 
ATOM      4  C4  BNZ d   1      -1.190  -2.243   3.473  0.00  0.00     0.000 A 
ATOM      5  C5  BNZ d   1      -0.242  -2.882   4.248  0.00  0.00     0.000 A 
ATOM      6  C6  BNZ d   1       1.019  -2.345   4.372  0.00  0.00     0.000 A 
ENDROOT
TORSDOF 0
ENDMDL
