MODEL 1
REMARK minimizedAffinity -1.64874756
REMARK minimizedRMSD -1
REMARK  2 active torsions:
REMARK  status: ('A' for Active; 'I' for Inactive)
REMARK    1  A    between atoms: C1_2  and  C2_3 
REMARK    2  A    between atoms: C2_3  and  C3_4 
ROOT
ATOM      1  C3  UNL d   1       3.070  -0.522   0.816  0.00  0.00    -0.075 A 
ATOM      2  C4  UNL d   1       1.886  -0.432   0.070  0.00  0.00     0.002 A 
ATOM      3  C5  UNL d   1       0.991  -1.503   0.030  0.00  0.00     0.002 A 
ATOM      4  C6  UNL d   1       1.273  -2.676   0.725  0.00  0.00    -0.004 A 
ATOM      5  C7  UNL d   1       2.454  -2.782   1.456  0.00  0.00     0.002 A 
ATOM      6  C8  UNL d   1       3.349  -1.711   1.502  0.00  0.00     0.002 A 
ENDROOT
BRANCH   1   7
ATOM      7  C2  UNL d   1       4.027   0.644   0.888  0.00  0.00     0.056 C 
BRANCH   7   8
ATOM      8  C1  UNL d   1       5.505   0.239   0.858  0.00  0.00     0.007 C 
ATOM      9  C   UNL d   1       5.991  -0.156  -0.530  0.00  0.00     0.009 C 
ENDBRANCH   7   8
ENDBRANCH   1   7
TORSDOF 2
ENDMDL
