MODEL 1
REMARK minimizedAffinity 7.33462286
REMARK minimizedRMSD -1
REMARK  2 active torsions:
REMARK  status: ('A' for Active; 'I' for Inactive)
REMARK    1  A    between atoms: C1_2  and  C2_3 
REMARK    2  A    between atoms: C2_3  and  C3_4 
ROOT
ATOM      1  C3  UNL d   1       0.841  -2.597   2.110  0.00  0.00    -0.075 A 
ATOM      2  C4  UNL d   1       1.097  -3.942   1.806  0.00  0.00     0.002 A 
ATOM      3  C5  UNL d   1       1.977  -4.281   0.778  0.00  0.00     0.002 A 
ATOM      4  C6  UNL d   1       2.603  -3.282   0.036  0.00  0.00    -0.004 A 
ATOM      5  C7  UNL d   1       2.344  -1.943   0.319  0.00  0.00     0.002 A 
ATOM      6  C8  UNL d   1       1.467  -1.601   1.350  0.00  0.00     0.002 A 
ENDROOT
BRANCH   1   7
ATOM      7  C2  UNL d   1      -0.088  -2.225   3.241  0.00  0.00     0.056 C 
BRANCH   7   8
ATOM      8  C1  UNL d   1      -1.568  -2.489   2.945  0.00  0.00     0.007 C 
ATOM      9  C   UNL d   1      -2.057  -3.828   3.481  0.00  0.00     0.009 C 
ENDBRANCH   7   8
ENDBRANCH   1   7
TORSDOF 2
ENDMDL
