MODEL 1
REMARK minimizedAffinity 14.9121618
REMARK minimizedRMSD -1
REMARK  2 active torsions:
REMARK  status: ('A' for Active; 'I' for Inactive)
REMARK    1  A    between atoms: C1_2  and  C2_3 
REMARK    2  A    between atoms: C2_3  and  C3_4 
ROOT
ATOM      1  C3  UNL d   1       5.903   1.570   0.340  0.00  0.00    -0.075 A 
ATOM      2  C4  UNL d   1       5.953   0.287   0.905  0.00  0.00     0.002 A 
ATOM      3  C5  UNL d   1       5.910  -0.847   0.094  0.00  0.00     0.002 A 
ATOM      4  C6  UNL d   1       5.807  -0.714  -1.289  0.00  0.00    -0.004 A 
ATOM      5  C7  UNL d   1       5.740   0.555  -1.861  0.00  0.00     0.002 A 
ATOM      6  C8  UNL d   1       5.787   1.691  -1.052  0.00  0.00     0.002 A 
ENDROOT
BRANCH   1   7
ATOM      7  C2  UNL d   1       5.979   2.801   1.210  0.00  0.00     0.056 C 
BRANCH   7   8
ATOM      8  C1  UNL d   1       5.789   2.521   2.704  0.00  0.00     0.007 C 
ATOM      9  C   UNL d   1       6.000   3.751   3.577  0.00  0.00     0.009 C 
ENDBRANCH   7   8
ENDBRANCH   1   7
TORSDOF 2
ENDMDL
