MODEL 1
REMARK minimizedAffinity 1.80079091
REMARK minimizedRMSD -1
REMARK  2 active torsions:
REMARK  status: ('A' for Active; 'I' for Inactive)
REMARK    1  A    between atoms: C1_2  and  C2_3 
REMARK    2  A    between atoms: C2_3  and  C3_4 
ROOT
ATOM      1  C3  UNL d   1       0.641  -1.610   2.226  0.00  0.00    -0.075 A 
ATOM      2  C4  UNL d   1       1.711  -2.391   2.686  0.00  0.00     0.002 A 
ATOM      3  C5  UNL d   1       2.548  -3.047   1.782  0.00  0.00     0.002 A 
ATOM      4  C6  UNL d   1       2.321  -2.939   0.412  0.00  0.00    -0.004 A 
ATOM      5  C7  UNL d   1       1.251  -2.179  -0.055  0.00  0.00     0.002 A 
ATOM      6  C8  UNL d   1       0.414  -1.518   0.847  0.00  0.00     0.002 A 
ENDROOT
BRANCH   1   7
ATOM      7  C2  UNL d   1      -0.250  -0.874   3.197  0.00  0.00     0.056 C 
BRANCH   7   8
ATOM      8  C1  UNL d   1      -1.711  -0.767   2.745  0.00  0.00     0.007 C 
ATOM      9  C   UNL d   1      -2.442   0.422   3.355  0.00  0.00     0.009 C 
ENDBRANCH   7   8
ENDBRANCH   1   7
TORSDOF 2
ENDMDL
