MODEL 1
REMARK minimizedAffinity 4.99070263
REMARK minimizedRMSD -1
REMARK  2 active torsions:
REMARK  status: ('A' for Active; 'I' for Inactive)
REMARK    1  A    between atoms: C1_2  and  C2_3 
REMARK    2  A    between atoms: C2_3  and  C3_4 
ROOT
ATOM      1  C3  UNL d   1       2.019   0.091   1.509  0.00  0.00    -0.075 A 
ATOM      2  C4  UNL d   1       2.268   1.445   1.241  0.00  0.00     0.002 A 
ATOM      3  C5  UNL d   1       1.860   2.432   2.138  0.00  0.00     0.002 A 
ATOM      4  C6  UNL d   1       1.190   2.080   3.308  0.00  0.00    -0.004 A 
ATOM      5  C7  UNL d   1       0.923   0.739   3.577  0.00  0.00     0.002 A 
ATOM      6  C8  UNL d   1       1.334  -0.251   2.682  0.00  0.00     0.002 A 
ENDROOT
BRANCH   1   7
ATOM      7  C2  UNL d   1       2.484  -0.984   0.556  0.00  0.00     0.056 C 
BRANCH   7   8
ATOM      8  C1  UNL d   1       1.348  -1.820  -0.044  0.00  0.00     0.007 C 
ATOM      9  C   UNL d   1       0.948  -1.372  -1.443  0.00  0.00     0.009 C 
ENDBRANCH   7   8
ENDBRANCH   1   7
TORSDOF 2
ENDMDL
