MODEL 1
REMARK minimizedAffinity 3.51503491
REMARK minimizedRMSD -1
REMARK  2 active torsions:
REMARK  status: ('A' for Active; 'I' for Inactive)
REMARK    1  A    between atoms: C1_2  and  C2_3 
REMARK    2  A    between atoms: C2_3  and  C3_4 
ROOT
ATOM      1  C3  UNL d   1       0.468  -1.692   1.985  0.00  0.00    -0.075 A 
ATOM      2  C4  UNL d   1       0.615  -1.145   0.702  0.00  0.00     0.002 A 
ATOM      3  C5  UNL d   1       1.440  -1.760  -0.240  0.00  0.00     0.002 A 
ATOM      4  C6  UNL d   1       2.136  -2.921   0.091  0.00  0.00    -0.004 A 
ATOM      5  C7  UNL d   1       2.011  -3.463   1.368  0.00  0.00     0.002 A 
ATOM      6  C8  UNL d   1       1.182  -2.852   2.311  0.00  0.00     0.002 A 
ENDROOT
BRANCH   1   7
ATOM      7  C2  UNL d   1      -0.446  -1.047   2.999  0.00  0.00     0.056 C 
BRANCH   7   8
ATOM      8  C1  UNL d   1      -1.851  -1.657   3.048  0.00  0.00     0.007 C 
ATOM      9  C   UNL d   1      -1.860  -3.106   3.516  0.00  0.00     0.009 C 
ENDBRANCH   7   8
ENDBRANCH   1   7
TORSDOF 2
ENDMDL
