MODEL 1
REMARK minimizedAffinity -0.686503768
REMARK minimizedRMSD -1
REMARK  2 active torsions:
REMARK  status: ('A' for Active; 'I' for Inactive)
REMARK    1  A    between atoms: C1_2  and  C2_3 
REMARK    2  A    between atoms: C2_3  and  C3_4 
ROOT
ATOM      1  C3  UNL d   1       0.202  -1.918   1.775  0.00  0.00    -0.075 A 
ATOM      2  C4  UNL d   1      -1.183  -1.751   1.632  0.00  0.00     0.002 A 
ATOM      3  C5  UNL d   1      -1.909  -1.017   2.570  0.00  0.00     0.002 A 
ATOM      4  C6  UNL d   1      -1.262  -0.449   3.666  0.00  0.00    -0.004 A 
ATOM      5  C7  UNL d   1       0.111  -0.622   3.827  0.00  0.00     0.002 A 
ATOM      6  C8  UNL d   1       0.840  -1.353   2.887  0.00  0.00     0.002 A 
ENDROOT
BRANCH   1   7
ATOM      7  C2  UNL d   1       0.998  -2.687   0.748  0.00  0.00     0.056 C 
BRANCH   7   8
ATOM      8  C1  UNL d   1       1.418  -1.853  -0.468  0.00  0.00     0.007 C 
ATOM      9  C   UNL d   1       0.280  -1.607  -1.449  0.00  0.00     0.009 C 
ENDBRANCH   7   8
ENDBRANCH   1   7
TORSDOF 2
ENDMDL
