MODEL 1
REMARK minimizedAffinity 10.9633293
REMARK minimizedRMSD -1
REMARK  3 active torsions:
REMARK  status: ('A' for Active; 'I' for Inactive)
REMARK    1  A    between atoms: C3'_2  and  C2'_3 
REMARK    2  A    between atoms: C2'_3  and  C1'_4 
REMARK    3  A    between atoms: C1'_4  and  C1_5 
ROOT
ATOM      1  C1  N4B d   1       5.078   0.993  -4.069  0.00  0.00    -0.075 A 
ATOM      2  C2  N4B d   1       5.810   0.002  -3.379  0.00  0.00     0.002 A 
ATOM      3  C3  N4B d   1       5.852   0.011  -2.006  0.00  0.00     0.002 A 
ATOM      4  C4  N4B d   1       5.188   1.007  -1.306  0.00  0.00    -0.004 A 
ATOM      5  C5  N4B d   1       4.462   1.946  -1.979  0.00  0.00     0.002 A 
ATOM      6  C6  N4B d   1       4.408   1.947  -3.358  0.00  0.00     0.002 A 
ENDROOT
BRANCH   1   7
ATOM      7  C1' N4B d   1       5.073   1.075  -5.571  0.00  0.00     0.057 C 
BRANCH   7   8
ATOM      8  C2' N4B d   1       4.473   2.412  -5.998  0.00  0.00     0.009 C 
BRANCH   8   9
ATOM      9  C3' N4B d   1       5.507   3.525  -5.997  0.00  0.00     0.004 C 
ATOM     10  C4' N4B d   1       4.889   4.891  -5.998  0.00  0.00     0.003 C 
ENDBRANCH   8   9
ENDBRANCH   7   8
ENDBRANCH   1   7
TORSDOF 3
ENDMDL
