MODEL 1
REMARK minimizedAffinity 2.81443429
REMARK minimizedRMSD -1
REMARK  3 active torsions:
REMARK  status: ('A' for Active; 'I' for Inactive)
REMARK    1  A    between atoms: C3'_2  and  C2'_3 
REMARK    2  A    between atoms: C2'_3  and  C1'_4 
REMARK    3  A    between atoms: C1'_4  and  C1_5 
ROOT
ATOM      1  C1  N4B d   1      -2.171   3.178   0.708  0.00  0.00    -0.075 A 
ATOM      2  C2  N4B d   1      -1.580   2.280   1.624  0.00  0.00     0.002 A 
ATOM      3  C3  N4B d   1      -0.229   2.333   1.863  0.00  0.00     0.002 A 
ATOM      4  C4  N4B d   1       0.552   3.258   1.185  0.00  0.00    -0.004 A 
ATOM      5  C5  N4B d   1      -0.030   4.138   0.321  0.00  0.00     0.002 A 
ATOM      6  C6  N4B d   1      -1.388   4.099   0.074  0.00  0.00     0.002 A 
ENDROOT
BRANCH   1   7
ATOM      7  C1' N4B d   1      -3.630   3.101   0.350  0.00  0.00     0.057 C 
BRANCH   7   8
ATOM      8  C2' N4B d   1      -4.096   1.652   0.453  0.00  0.00     0.009 C 
BRANCH   8   9
ATOM      9  C3' N4B d   1      -5.596   1.551   0.667  0.00  0.00     0.004 C 
ATOM     10  C4' N4B d   1      -5.984   0.378   1.517  0.00  0.00     0.003 C 
ENDBRANCH   8   9
ENDBRANCH   7   8
ENDBRANCH   1   7
TORSDOF 3
ENDMDL
