MODEL 1
REMARK minimizedAffinity -0.239868984
REMARK minimizedRMSD -1
REMARK  3 active torsions:
REMARK  status: ('A' for Active; 'I' for Inactive)
REMARK    1  A    between atoms: C3'_2  and  C2'_3 
REMARK    2  A    between atoms: C2'_3  and  C1'_4 
REMARK    3  A    between atoms: C1'_4  and  C1_5 
ROOT
ATOM      1  C1  N4B d   1       5.695   0.914  -5.205  0.00  0.00    -0.075 A 
ATOM      2  C2  N4B d   1       5.801   0.934  -3.797  0.00  0.00     0.002 A 
ATOM      3  C3  N4B d   1       5.962  -0.240  -3.104  0.00  0.00     0.002 A 
ATOM      4  C4  N4B d   1       5.999  -1.443  -3.793  0.00  0.00    -0.004 A 
ATOM      5  C5  N4B d   1       5.922  -1.452  -5.155  0.00  0.00     0.002 A 
ATOM      6  C6  N4B d   1       5.764  -0.278  -5.865  0.00  0.00     0.002 A 
ENDROOT
BRANCH   1   7
ATOM      7  C1' N4B d   1       5.432   2.165  -6.000  0.00  0.00     0.057 C 
BRANCH   7   8
ATOM      8  C2' N4B d   1       4.147   2.817  -5.497  0.00  0.00     0.009 C 
BRANCH   8   9
ATOM      9  C3' N4B d   1       4.248   4.332  -5.480  0.00  0.00     0.004 C 
ATOM     10  C4' N4B d   1       5.617   4.827  -5.840  0.00  0.00     0.003 C 
ENDBRANCH   8   9
ENDBRANCH   7   8
ENDBRANCH   1   7
TORSDOF 3
ENDMDL
