MODEL 1
REMARK minimizedAffinity 10.2110596
REMARK minimizedRMSD -1
REMARK  3 active torsions:
REMARK  status: ('A' for Active; 'I' for Inactive)
REMARK    1  A    between atoms: C3'_2  and  C2'_3 
REMARK    2  A    between atoms: C2'_3  and  C1'_4 
REMARK    3  A    between atoms: C1'_4  and  C1_5 
ROOT
ATOM      1  C1  N4B d   1       2.127  -4.811  -3.649  0.00  0.00    -0.075 A 
ATOM      2  C2  N4B d   1       3.361  -5.495  -3.606  0.00  0.00     0.002 A 
ATOM      3  C3  N4B d   1       3.907  -6.000  -4.761  0.00  0.00     0.002 A 
ATOM      4  C4  N4B d   1       3.231  -5.849  -5.963  0.00  0.00    -0.004 A 
ATOM      5  C5  N4B d   1       2.051  -5.164  -5.999  0.00  0.00     0.002 A 
ATOM      6  C6  N4B d   1       1.493  -4.648  -4.847  0.00  0.00     0.002 A 
ENDROOT
BRANCH   1   7
ATOM      7  C1' N4B d   1       1.449  -4.317  -2.401  0.00  0.00     0.057 C 
BRANCH   7   8
ATOM      8  C2' N4B d   1       0.342  -3.339  -2.785  0.00  0.00     0.009 C 
BRANCH   8   9
ATOM      9  C3' N4B d   1      -0.356  -2.763  -1.565  0.00  0.00     0.004 C 
ATOM     10  C4' N4B d   1      -1.521  -3.594  -1.117  0.00  0.00     0.003 C 
ENDBRANCH   8   9
ENDBRANCH   7   8
ENDBRANCH   1   7
TORSDOF 3
ENDMDL
