MODEL 1
REMARK minimizedAffinity 6.21353436
REMARK minimizedRMSD -1
REMARK  3 active torsions:
REMARK  status: ('A' for Active; 'I' for Inactive)
REMARK    1  A    between atoms: C3'_2  and  C2'_3 
REMARK    2  A    between atoms: C2'_3  and  C1'_4 
REMARK    3  A    between atoms: C1'_4  and  C1_5 
ROOT
ATOM      1  C1  N4B d   1      -0.470  -1.037   0.865  0.00  0.00    -0.075 A 
ATOM      2  C2  N4B d   1       0.113   0.247   0.788  0.00  0.00     0.002 A 
ATOM      3  C3  N4B d   1      -0.333   1.254   1.608  0.00  0.00     0.002 A 
ATOM      4  C4  N4B d   1      -1.370   1.007   2.495  0.00  0.00    -0.004 A 
ATOM      5  C5  N4B d   1      -1.911  -0.243   2.581  0.00  0.00     0.002 A 
ATOM      6  C6  N4B d   1      -1.469  -1.265   1.766  0.00  0.00     0.002 A 
ENDROOT
BRANCH   1   7
ATOM      7  C1' N4B d   1      -0.074  -2.147  -0.070  0.00  0.00     0.057 C 
BRANCH   7   8
ATOM      8  C2' N4B d   1      -1.310  -2.637  -0.818  0.00  0.00     0.009 C 
BRANCH   8   9
ATOM      9  C3' N4B d   1      -0.966  -3.691  -1.856  0.00  0.00     0.004 C 
ATOM     10  C4' N4B d   1       0.017  -3.200  -2.878  0.00  0.00     0.003 C 
ENDBRANCH   8   9
ENDBRANCH   7   8
ENDBRANCH   1   7
TORSDOF 3
ENDMDL
