MODEL 1
REMARK minimizedAffinity 14.8371944
REMARK minimizedRMSD -1
REMARK  3 active torsions:
REMARK  status: ('A' for Active; 'I' for Inactive)
REMARK    1  A    between atoms: C3'_2  and  C2'_3 
REMARK    2  A    between atoms: C2'_3  and  C1'_4 
REMARK    3  A    between atoms: C1'_4  and  C1_5 
ROOT
ATOM      1  C1  N4B d   1      -1.185   1.389   1.745  0.00  0.00    -0.075 A 
ATOM      2  C2  N4B d   1      -1.334   2.755   1.418  0.00  0.00     0.002 A 
ATOM      3  C3  N4B d   1      -0.268   3.461   0.916  0.00  0.00     0.002 A 
ATOM      4  C4  N4B d   1       0.956   2.830   0.751  0.00  0.00    -0.004 A 
ATOM      5  C5  N4B d   1       1.084   1.504   1.046  0.00  0.00     0.002 A 
ATOM      6  C6  N4B d   1       0.021   0.781   1.547  0.00  0.00     0.002 A 
ENDROOT
BRANCH   1   7
ATOM      7  C1' N4B d   1      -2.298   0.598   2.377  0.00  0.00     0.057 C 
BRANCH   7   8
ATOM      8  C2' N4B d   1      -3.123  -0.069   1.281  0.00  0.00     0.009 C 
BRANCH   8   9
ATOM      9  C3' N4B d   1      -4.402   0.696   0.987  0.00  0.00     0.004 C 
ATOM     10  C4' N4B d   1      -5.608  -0.193   0.920  0.00  0.00     0.003 C 
ENDBRANCH   8   9
ENDBRANCH   7   8
ENDBRANCH   1   7
TORSDOF 3
ENDMDL
