MODEL 1
REMARK minimizedAffinity 8.01947594
REMARK minimizedRMSD -1
REMARK  3 active torsions:
REMARK  status: ('A' for Active; 'I' for Inactive)
REMARK    1  A    between atoms: C3'_2  and  C2'_3 
REMARK    2  A    between atoms: C2'_3  and  C1'_4 
REMARK    3  A    between atoms: C1'_4  and  C1_5 
ROOT
ATOM      1  C1  N4B d   1      -1.548  -2.506   0.890  0.00  0.00    -0.075 A 
ATOM      2  C2  N4B d   1      -2.085  -3.453  -0.009  0.00  0.00     0.002 A 
ATOM      3  C3  N4B d   1      -1.522  -3.617  -1.251  0.00  0.00     0.002 A 
ATOM      4  C4  N4B d   1      -0.438  -2.837  -1.622  0.00  0.00    -0.004 A 
ATOM      5  C5  N4B d   1       0.092  -1.942  -0.738  0.00  0.00     0.002 A 
ATOM      6  C6  N4B d   1      -0.461  -1.769   0.515  0.00  0.00     0.002 A 
ENDROOT
BRANCH   1   7
ATOM      7  C1' N4B d   1      -2.182  -2.229   2.225  0.00  0.00     0.057 C 
BRANCH   7   8
ATOM      8  C2' N4B d   1      -1.776  -3.323   3.208  0.00  0.00     0.009 C 
BRANCH   8   9
ATOM      9  C3' N4B d   1      -2.742  -4.495   3.185  0.00  0.00     0.004 C 
ATOM     10  C4' N4B d   1      -2.329  -5.607   4.103  0.00  0.00     0.003 C 
ENDBRANCH   8   9
ENDBRANCH   7   8
ENDBRANCH   1   7
TORSDOF 3
ENDMDL
