MODEL 1
REMARK minimizedAffinity 9.15312862
REMARK minimizedRMSD -1
REMARK  3 active torsions:
REMARK  status: ('A' for Active; 'I' for Inactive)
REMARK    1  A    between atoms: C3'_2  and  C2'_3 
REMARK    2  A    between atoms: C2'_3  and  C1'_4 
REMARK    3  A    between atoms: C1'_4  and  C1_5 
ROOT
ATOM      1  C1  N4B d   1       1.778  -4.777  -3.615  0.00  0.00    -0.075 A 
ATOM      2  C2  N4B d   1       1.337  -4.207  -4.829  0.00  0.00     0.002 A 
ATOM      3  C3  N4B d   1       1.996  -4.490  -6.000  0.00  0.00     0.002 A 
ATOM      4  C4  N4B d   1       3.105  -5.322  -5.978  0.00  0.00    -0.004 A 
ATOM      5  C5  N4B d   1       3.509  -5.889  -4.805  0.00  0.00     0.002 A 
ATOM      6  C6  N4B d   1       2.854  -5.616  -3.621  0.00  0.00     0.002 A 
ENDROOT
BRANCH   1   7
ATOM      7  C1' N4B d   1       1.142  -4.428  -2.297  0.00  0.00     0.057 C 
BRANCH   7   8
ATOM      8  C2' N4B d   1      -0.085  -3.556  -2.548  0.00  0.00     0.009 C 
BRANCH   8   9
ATOM      9  C3' N4B d   1      -0.993  -3.489  -1.332  0.00  0.00     0.004 C 
ATOM     10  C4' N4B d   1      -0.595  -2.411  -0.368  0.00  0.00     0.003 C 
ENDBRANCH   8   9
ENDBRANCH   7   8
ENDBRANCH   1   7
TORSDOF 3
ENDMDL
