MODEL 1
REMARK minimizedAffinity 8.09100533
REMARK minimizedRMSD -1
REMARK  3 active torsions:
REMARK  status: ('A' for Active; 'I' for Inactive)
REMARK    1  A    between atoms: C3'_2  and  C2'_3 
REMARK    2  A    between atoms: C2'_3  and  C1'_4 
REMARK    3  A    between atoms: C1'_4  and  C1_5 
ROOT
ATOM      1  C1  N4B d   1       0.592  -0.052   0.888  0.00  0.00    -0.075 A 
ATOM      2  C2  N4B d   1       1.867  -0.165   1.485  0.00  0.00     0.002 A 
ATOM      3  C3  N4B d   1       2.653   0.951   1.641  0.00  0.00     0.002 A 
ATOM      4  C4  N4B d   1       2.195   2.181   1.193  0.00  0.00    -0.004 A 
ATOM      5  C5  N4B d   1       0.952   2.285   0.641  0.00  0.00     0.002 A 
ATOM      6  C6  N4B d   1       0.150   1.173   0.481  0.00  0.00     0.002 A 
ENDROOT
BRANCH   1   7
ATOM      7  C1' N4B d   1      -0.267  -1.257   0.618  0.00  0.00     0.057 C 
BRANCH   7   8
ATOM      8  C2' N4B d   1      -0.362  -1.477  -0.889  0.00  0.00     0.009 C 
BRANCH   8   9
ATOM      9  C3' N4B d   1      -0.883  -2.863  -1.229  0.00  0.00     0.004 C 
ATOM     10  C4' N4B d   1      -0.766  -3.184  -2.689  0.00  0.00     0.003 C 
ENDBRANCH   8   9
ENDBRANCH   7   8
ENDBRANCH   1   7
TORSDOF 3
ENDMDL
