MODEL 1
REMARK minimizedAffinity 6.42244482
REMARK minimizedRMSD -1
REMARK  3 active torsions:
REMARK  status: ('A' for Active; 'I' for Inactive)
REMARK    1  A    between atoms: C3'_2  and  C2'_3 
REMARK    2  A    between atoms: C2'_3  and  C1'_4 
REMARK    3  A    between atoms: C1'_4  and  C1_5 
ROOT
ATOM      1  C1  N4B d   1      -3.288   3.369  -2.255  0.00  0.00    -0.075 A 
ATOM      2  C2  N4B d   1      -4.455   2.670  -1.874  0.00  0.00     0.002 A 
ATOM      3  C3  N4B d   1      -4.890   2.719  -0.573  0.00  0.00     0.002 A 
ATOM      4  C4  N4B d   1      -4.169   3.443   0.365  0.00  0.00    -0.004 A 
ATOM      5  C5  N4B d   1      -3.057   4.136  -0.016  0.00  0.00     0.002 A 
ATOM      6  C6  N4B d   1      -2.610   4.098  -1.322  0.00  0.00     0.002 A 
ENDROOT
BRANCH   1   7
ATOM      7  C1' N4B d   1      -2.725   3.274  -3.647  0.00  0.00     0.057 C 
BRANCH   7   8
ATOM      8  C2' N4B d   1      -3.688   3.943  -4.623  0.00  0.00     0.009 C 
BRANCH   8   9
ATOM      9  C3' N4B d   1      -3.146   5.264  -5.141  0.00  0.00     0.004 C 
ATOM     10  C4' N4B d   1      -4.131   6.000  -6.000  0.00  0.00     0.003 C 
ENDBRANCH   8   9
ENDBRANCH   7   8
ENDBRANCH   1   7
TORSDOF 3
ENDMDL
