MODEL 1
REMARK minimizedAffinity 3.37848353
REMARK minimizedRMSD -1
REMARK  3 active torsions:
REMARK  status: ('A' for Active; 'I' for Inactive)
REMARK    1  A    between atoms: C3'_2  and  C2'_3 
REMARK    2  A    between atoms: C2'_3  and  C1'_4 
REMARK    3  A    between atoms: C1'_4  and  C1_5 
ROOT
ATOM      1  C1  N4B d   1       3.831   3.231  -5.821  0.00  0.00    -0.075 A 
ATOM      2  C2  N4B d   1       3.279   4.519  -5.999  0.00  0.00     0.002 A 
ATOM      3  C3  N4B d   1       4.095   5.623  -5.984  0.00  0.00     0.002 A 
ATOM      4  C4  N4B d   1       5.457   5.467  -5.774  0.00  0.00    -0.004 A 
ATOM      5  C5  N4B d   1       5.985   4.218  -5.628  0.00  0.00     0.002 A 
ATOM      6  C6  N4B d   1       5.178   3.099  -5.646  0.00  0.00     0.002 A 
ENDROOT
BRANCH   1   7
ATOM      7  C1' N4B d   1       2.968   2.001  -5.744  0.00  0.00     0.057 C 
BRANCH   7   8
ATOM      8  C2' N4B d   1       3.848   0.762  -5.885  0.00  0.00     0.009 C 
BRANCH   8   9
ATOM      9  C3' N4B d   1       5.319   1.084  -5.677  0.00  0.00     0.004 C 
ATOM     10  C4' N4B d   1       5.951   0.242  -4.610  0.00  0.00     0.003 C 
ENDBRANCH   8   9
ENDBRANCH   7   8
ENDBRANCH   1   7
TORSDOF 3
ENDMDL
