MODEL 1
REMARK minimizedAffinity 5.26755857
REMARK minimizedRMSD -1
REMARK  0 active torsions:
REMARK  status: ('A' for Active; 'I' for Inactive)
ROOT
ATOM      1  C   UNL d   1       1.370  -5.928  -5.987  0.00  0.00     0.172 C 
ATOM      2  N   UNL d   1       1.136  -4.503  -5.988  0.00  0.00    -0.070 N 
ATOM      3  C1  UNL d   1       2.105  -3.535  -5.977  0.00  0.00    -0.004 A 
ATOM      4  C2  UNL d   1       1.476  -2.308  -5.983  0.00  0.00    -0.047 A 
ATOM      5  C3  UNL d   1       0.081  -2.548  -5.997  0.00  0.00    -0.047 A 
ATOM      6  C4  UNL d   1      -0.101  -3.915  -6.000  0.00  0.00    -0.004 A 
ENDROOT
TORSDOF 0
ENDMDL
