MODEL 1
REMARK minimizedAffinity -0.972898722
REMARK minimizedRMSD -1
REMARK  0 active torsions:
REMARK  status: ('A' for Active; 'I' for Inactive)
ROOT
ATOM      1  C   UNL d   1       4.133  -0.220   1.484  0.00  0.00     0.172 C 
ATOM      2  N   UNL d   1       4.465   0.973   0.742  0.00  0.00    -0.070 N 
ATOM      3  C1  UNL d   1       5.699   1.280   0.233  0.00  0.00    -0.004 A 
ATOM      4  C2  UNL d   1       5.602   2.497  -0.405  0.00  0.00    -0.047 A 
ATOM      5  C3  UNL d   1       4.264   2.939  -0.274  0.00  0.00    -0.047 A 
ATOM      6  C4  UNL d   1       3.582   1.976   0.440  0.00  0.00    -0.004 A 
ENDROOT
TORSDOF 0
ENDMDL
