MODEL 1
REMARK minimizedAffinity 10.6318665
REMARK minimizedRMSD -1
REMARK  0 active torsions:
REMARK  status: ('A' for Active; 'I' for Inactive)
ROOT
ATOM      1  C   UNL d   1       5.876   5.977   3.949  0.00  0.00     0.172 C 
ATOM      2  N   UNL d   1       5.035   5.367   2.946  0.00  0.00    -0.070 N 
ATOM      3  C1  UNL d   1       5.143   4.081   2.488  0.00  0.00    -0.004 A 
ATOM      4  C2  UNL d   1       4.161   3.886   1.541  0.00  0.00    -0.047 A 
ATOM      5  C3  UNL d   1       3.438   5.097   1.425  0.00  0.00    -0.047 A 
ATOM      6  C4  UNL d   1       4.000   5.997   2.306  0.00  0.00    -0.004 A 
ENDROOT
TORSDOF 0
ENDMDL
