MODEL 1
REMARK minimizedAffinity 2.24329853
REMARK minimizedRMSD -1
REMARK  0 active torsions:
REMARK  status: ('A' for Active; 'I' for Inactive)
ROOT
ATOM      1  C   UNL d   1      -5.328  -3.638  -2.334  0.00  0.00     0.172 C 
ATOM      2  N   UNL d   1      -4.093  -3.125  -1.789  0.00  0.00    -0.070 N 
ATOM      3  C1  UNL d   1      -3.795  -3.007  -0.458  0.00  0.00    -0.004 A 
ATOM      4  C2  UNL d   1      -2.527  -2.478  -0.354  0.00  0.00    -0.047 A 
ATOM      5  C3  UNL d   1      -2.046  -2.270  -1.669  0.00  0.00    -0.047 A 
ATOM      6  C4  UNL d   1      -3.035  -2.679  -2.538  0.00  0.00    -0.004 A 
ENDROOT
TORSDOF 0
ENDMDL
