MODEL 1
REMARK minimizedAffinity 4.5345788
REMARK minimizedRMSD -1
REMARK  0 active torsions:
REMARK  status: ('A' for Active; 'I' for Inactive)
ROOT
ATOM      1  C   UNL d   1       2.441  -1.515  -5.961  0.00  0.00     0.172 C 
ATOM      2  N   UNL d   1       3.885  -1.510  -5.960  0.00  0.00    -0.070 N 
ATOM      3  C1  UNL d   1       4.687  -2.619  -5.919  0.00  0.00    -0.004 A 
ATOM      4  C2  UNL d   1       5.997  -2.193  -5.934  0.00  0.00    -0.047 A 
ATOM      5  C3  UNL d   1       5.982  -0.778  -5.984  0.00  0.00    -0.047 A 
ATOM      6  C4  UNL d   1       4.662  -0.382  -5.999  0.00  0.00    -0.004 A 
ENDROOT
TORSDOF 0
ENDMDL
