MODEL 1
REMARK minimizedAffinity 1.39164686
REMARK minimizedRMSD -1
REMARK  0 active torsions:
REMARK  status: ('A' for Active; 'I' for Inactive)
ROOT
ATOM      1  C   UNL d   1       3.304   2.853  -3.402  0.00  0.00     0.172 C 
ATOM      2  N   UNL d   1       3.010   4.056  -4.145  0.00  0.00    -0.070 N 
ATOM      3  C1  UNL d   1       3.916   5.022  -4.493  0.00  0.00    -0.004 A 
ATOM      4  C2  UNL d   1       3.243   6.000  -5.193  0.00  0.00    -0.047 A 
ATOM      5  C3  UNL d   1       1.885   5.608  -5.268  0.00  0.00    -0.047 A 
ATOM      6  C4  UNL d   1       1.769   4.401  -4.612  0.00  0.00    -0.004 A 
ENDROOT
TORSDOF 0
ENDMDL
