MODEL 1
REMARK minimizedAffinity 7.2786684
REMARK minimizedRMSD -1
REMARK  0 active torsions:
REMARK  status: ('A' for Active; 'I' for Inactive)
ROOT
ATOM      1  C   UNL d   1       3.070   2.929  -4.053  0.00  0.00     0.172 C 
ATOM      2  N   UNL d   1       2.850   4.168  -4.762  0.00  0.00    -0.070 N 
ATOM      3  C1  UNL d   1       3.806   4.887  -5.428  0.00  0.00    -0.004 A 
ATOM      4  C2  UNL d   1       3.198   5.999  -5.968  0.00  0.00    -0.047 A 
ATOM      5  C3  UNL d   1       1.829   5.947  -5.614  0.00  0.00    -0.047 A 
ATOM      6  C4  UNL d   1       1.641   4.803  -4.868  0.00  0.00    -0.004 A 
ENDROOT
TORSDOF 0
ENDMDL
