MODEL 1
REMARK minimizedAffinity -1.2386446
REMARK minimizedRMSD -1
REMARK  0 active torsions:
REMARK  status: ('A' for Active; 'I' for Inactive)
ROOT
ATOM      1  C   UNL d   1       6.000   5.924   5.999  0.00  0.00     0.172 C 
ATOM      2  N   UNL d   1       5.527   5.407   4.736  0.00  0.00    -0.070 N 
ATOM      3  C1  UNL d   1       5.966   4.261   4.129  0.00  0.00    -0.004 A 
ATOM      4  C2  UNL d   1       5.271   4.118   2.947  0.00  0.00    -0.047 A 
ATOM      5  C3  UNL d   1       4.385   5.216   2.841  0.00  0.00    -0.047 A 
ATOM      6  C4  UNL d   1       4.564   5.999   3.962  0.00  0.00    -0.004 A 
ENDROOT
TORSDOF 0
ENDMDL
