MODEL 1
REMARK minimizedAffinity 7.71696043
REMARK minimizedRMSD -1
REMARK  0 active torsions:
REMARK  status: ('A' for Active; 'I' for Inactive)
ROOT
ATOM      1  C   UNL d   1      -5.977   4.947   2.204  0.00  0.00     0.172 C 
ATOM      2  N   UNL d   1      -5.536   5.063   3.574  0.00  0.00    -0.070 N 
ATOM      3  C1  UNL d   1      -4.607   4.262   4.183  0.00  0.00    -0.004 A 
ATOM      4  C2  UNL d   1      -4.465   4.696   5.484  0.00  0.00    -0.047 A 
ATOM      5  C3  UNL d   1      -5.339   5.794   5.662  0.00  0.00    -0.047 A 
ATOM      6  C4  UNL d   1      -5.990   6.000   4.464  0.00  0.00    -0.004 A 
ENDROOT
TORSDOF 0
ENDMDL
