MODEL 1
REMARK minimizedAffinity 8.7864418
REMARK minimizedRMSD -1
REMARK  0 active torsions:
REMARK  status: ('A' for Active; 'I' for Inactive)
ROOT
ATOM      1  C   UNL d   1      -3.110  -2.906  -2.628  0.00  0.00     0.172 C 
ATOM      2  N   UNL d   1      -4.031  -4.012  -2.514  0.00  0.00    -0.070 N 
ATOM      3  C1  UNL d   1      -5.308  -4.042  -3.009  0.00  0.00    -0.004 A 
ATOM      4  C2  UNL d   1      -5.853  -5.268  -2.694  0.00  0.00    -0.047 A 
ATOM      5  C3  UNL d   1      -4.871  -6.000  -1.986  0.00  0.00    -0.047 A 
ATOM      6  C4  UNL d   1      -3.753  -5.199  -1.888  0.00  0.00    -0.004 A 
ENDROOT
TORSDOF 0
ENDMDL
