MODEL 1
REMARK minimizedAffinity 3.38314152
REMARK minimizedRMSD -1
REMARK  0 active torsions:
REMARK  status: ('A' for Active; 'I' for Inactive)
ROOT
ATOM      1  C   UNL d   1      -5.876  -5.622   0.567  0.00  0.00     0.172 C 
ATOM      2  N   UNL d   1      -5.047  -4.650  -0.106  0.00  0.00    -0.070 N 
ATOM      3  C1  UNL d   1      -5.493  -3.508  -0.717  0.00  0.00    -0.004 A 
ATOM      4  C2  UNL d   1      -4.398  -2.853  -1.237  0.00  0.00    -0.047 A 
ATOM      5  C3  UNL d   1      -3.255  -3.628  -0.929  0.00  0.00    -0.047 A 
ATOM      6  C4  UNL d   1      -3.686  -4.735  -0.229  0.00  0.00    -0.004 A 
ENDROOT
TORSDOF 0
ENDMDL
