MODEL 1
REMARK minimizedAffinity 5.41717529
REMARK minimizedRMSD -1
REMARK  0 active torsions:
REMARK  status: ('A' for Active; 'I' for Inactive)
ROOT
ATOM      1  C   UNL d   1      -0.596  -3.503  -6.000  0.00  0.00     0.172 C 
ATOM      2  N   UNL d   1       0.269  -3.782  -4.877  0.00  0.00    -0.070 N 
ATOM      3  C1  UNL d   1      -0.015  -4.632  -3.842  0.00  0.00    -0.004 A 
ATOM      4  C2  UNL d   1       1.060  -4.621  -2.980  0.00  0.00    -0.047 A 
ATOM      5  C3  UNL d   1       2.023  -3.733  -3.515  0.00  0.00    -0.047 A 
ATOM      6  C4  UNL d   1       1.508  -3.228  -4.690  0.00  0.00    -0.004 A 
ENDROOT
TORSDOF 0
ENDMDL
