MODEL 1
REMARK minimizedAffinity 2.41666269
REMARK minimizedRMSD -1
REMARK  0 active torsions:
REMARK  status: ('A' for Active; 'I' for Inactive)
ROOT
ATOM      1  C   UNL d   1      -3.225  -1.884  -2.629  0.00  0.00     0.172 C 
ATOM      2  N   UNL d   1      -3.425  -2.748  -1.490  0.00  0.00    -0.070 N 
ATOM      3  C1  UNL d   1      -4.358  -2.566  -0.504  0.00  0.00    -0.004 A 
ATOM      4  C2  UNL d   1      -4.229  -3.601   0.396  0.00  0.00    -0.047 A 
ATOM      5  C3  UNL d   1      -3.182  -4.435  -0.065  0.00  0.00    -0.047 A 
ATOM      6  C4  UNL d   1      -2.703  -3.883  -1.234  0.00  0.00    -0.004 A 
ENDROOT
TORSDOF 0
ENDMDL
