MODEL 1
REMARK minimizedAffinity 2.36753869
REMARK minimizedRMSD -1
REMARK  0 active torsions:
REMARK  status: ('A' for Active; 'I' for Inactive)
ROOT
ATOM      1  C   UNL d   1      -5.174   5.479   5.968  0.00  0.00     0.172 C 
ATOM      2  N   UNL d   1      -4.995   4.046   5.956  0.00  0.00    -0.070 N 
ATOM      3  C1  UNL d   1      -5.999   3.116   5.985  0.00  0.00    -0.004 A 
ATOM      4  C2  UNL d   1      -5.419   1.867   5.959  0.00  0.00    -0.047 A 
ATOM      5  C3  UNL d   1      -4.017   2.052   5.914  0.00  0.00    -0.047 A 
ATOM      6  C4  UNL d   1      -3.782   3.411   5.913  0.00  0.00    -0.004 A 
ENDROOT
TORSDOF 0
ENDMDL
