MODEL 1
REMARK minimizedAffinity -2.56359744
REMARK minimizedRMSD -1
REMARK  0 active torsions:
REMARK  status: ('A' for Active; 'I' for Inactive)
ROOT
ATOM      1  C   UNL d   1       0.915   1.187   1.853  0.00  0.00     0.172 C 
ATOM      2  N   UNL d   1      -0.481   1.003   2.174  0.00  0.00    -0.070 N 
ATOM      3  C1  UNL d   1      -1.187  -0.161   2.025  0.00  0.00    -0.004 A 
ATOM      4  C2  UNL d   1      -2.480   0.074   2.440  0.00  0.00    -0.047 A 
ATOM      5  C3  UNL d   1      -2.553   1.426   2.852  0.00  0.00    -0.047 A 
ATOM      6  C4  UNL d   1      -1.302   1.977   2.677  0.00  0.00    -0.004 A 
ENDROOT
TORSDOF 0
ENDMDL
