MODEL 1
REMARK minimizedAffinity -1.56295323
REMARK minimizedRMSD -1
REMARK  0 active torsions:
REMARK  status: ('A' for Active; 'I' for Inactive)
ROOT
ATOM      1  C   UNL d   1      -4.507  -3.793  -5.998  0.00  0.00     0.172 C 
ATOM      2  N   UNL d   1      -4.407  -3.255  -4.661  0.00  0.00    -0.070 N 
ATOM      3  C1  UNL d   1      -5.457  -3.025  -3.813  0.00  0.00    -0.004 A 
ATOM      4  C2  UNL d   1      -4.948  -2.512  -2.640  0.00  0.00    -0.047 A 
ATOM      5  C3  UNL d   1      -3.543  -2.429  -2.789  0.00  0.00    -0.047 A 
ATOM      6  C4  UNL d   1      -3.235  -2.896  -4.049  0.00  0.00    -0.004 A 
ENDROOT
TORSDOF 0
ENDMDL
