MODEL 1
REMARK minimizedAffinity 0.278156072
REMARK minimizedRMSD -1
REMARK  0 active torsions:
REMARK  status: ('A' for Active; 'I' for Inactive)
ROOT
ATOM      1  C   UNL d   1       4.214   4.166  -0.872  0.00  0.00     0.023 A 
ATOM      2  C1  UNL d   1       3.782   3.390   0.204  0.00  0.00     0.003 A 
ATOM      3  C2  UNL d   1       4.293   3.619   1.482  0.00  0.00     0.048 A 
ATOM      4  C3  UNL d   1       5.237   4.627   1.679  0.00  0.00     0.023 A 
ATOM      5  C4  UNL d   1       5.672   5.406   0.606  0.00  0.00     0.048 A 
ATOM      6  C5  UNL d   1       5.158   5.173  -0.671  0.00  0.00     0.003 A 
ATOM      7  I   UNL d   1       6.000   4.971   3.581  0.00  0.00    -0.146 I 
ENDROOT
TORSDOF 0
ENDMDL
