MODEL 1
REMARK minimizedAffinity -3.85945487
REMARK minimizedRMSD -1
REMARK  0 active torsions:
REMARK  status: ('A' for Active; 'I' for Inactive)
ROOT
ATOM      1  C   UNL d   1       1.556  -0.502   1.596  0.00  0.00     0.023 A 
ATOM      2  C1  UNL d   1       1.106   0.499   0.735  0.00  0.00     0.003 A 
ATOM      3  C2  UNL d   1      -0.092   0.333   0.037  0.00  0.00     0.048 A 
ATOM      4  C3  UNL d   1      -0.834  -0.835   0.204  0.00  0.00     0.023 A 
ATOM      5  C4  UNL d   1      -0.388  -1.839   1.065  0.00  0.00     0.048 A 
ATOM      6  C5  UNL d   1       0.811  -1.670   1.761  0.00  0.00     0.003 A 
ATOM      7  I   UNL d   1      -2.617  -1.083  -0.835  0.00  0.00    -0.146 I 
ENDROOT
TORSDOF 0
ENDMDL
