MODEL 1
REMARK minimizedAffinity 4.3900919
REMARK minimizedRMSD -1
REMARK  0 active torsions:
REMARK  status: ('A' for Active; 'I' for Inactive)
ROOT
ATOM      1  C   UNL d   1       0.497  -1.931   2.395  0.00  0.00     0.023 A 
ATOM      2  C1  UNL d   1      -0.774  -2.420   2.096  0.00  0.00     0.003 A 
ATOM      3  C2  UNL d   1      -1.406  -2.045   0.909  0.00  0.00     0.048 A 
ATOM      4  C3  UNL d   1      -0.761  -1.181   0.025  0.00  0.00     0.023 A 
ATOM      5  C4  UNL d   1       0.512  -0.690   0.320  0.00  0.00     0.048 A 
ATOM      6  C5  UNL d   1       1.140  -1.067   1.509  0.00  0.00     0.003 A 
ATOM      7  I   UNL d   1      -1.699  -0.621  -1.743  0.00  0.00    -0.146 I 
ENDROOT
TORSDOF 0
ENDMDL
