MODEL 1
REMARK minimizedAffinity 7.93858862
REMARK minimizedRMSD -1
REMARK  0 active torsions:
REMARK  status: ('A' for Active; 'I' for Inactive)
ROOT
ATOM      1  C   UNL d   1      -2.318  -1.436  -0.661  0.00  0.00     0.023 A 
ATOM      2  C1  UNL d   1      -1.210  -1.171  -1.466  0.00  0.00     0.003 A 
ATOM      3  C2  UNL d   1      -1.186  -0.029  -2.269  0.00  0.00     0.048 A 
ATOM      4  C3  UNL d   1      -2.272   0.845  -2.260  0.00  0.00     0.023 A 
ATOM      5  C4  UNL d   1      -3.382   0.585  -1.455  0.00  0.00     0.048 A 
ATOM      6  C5  UNL d   1      -3.402  -0.559  -0.655  0.00  0.00     0.003 A 
ATOM      7  I   UNL d   1      -2.239   2.547  -3.454  0.00  0.00    -0.146 I 
ENDROOT
TORSDOF 0
ENDMDL
