MODEL 1
REMARK minimizedAffinity -2.64691019
REMARK minimizedRMSD -1
REMARK  0 active torsions:
REMARK  status: ('A' for Active; 'I' for Inactive)
ROOT
ATOM      1  C   UNL d   1      -2.729   0.780  -1.879  0.00  0.00     0.023 A 
ATOM      2  C1  UNL d   1      -3.349   0.447  -0.674  0.00  0.00     0.003 A 
ATOM      3  C2  UNL d   1      -2.688  -0.360   0.254  0.00  0.00     0.048 A 
ATOM      4  C3  UNL d   1      -1.406  -0.830  -0.029  0.00  0.00     0.023 A 
ATOM      5  C4  UNL d   1      -0.781  -0.499  -1.232  0.00  0.00     0.048 A 
ATOM      6  C5  UNL d   1      -1.446   0.308  -2.157  0.00  0.00     0.003 A 
ATOM      7  I   UNL d   1      -0.419  -2.031   1.351  0.00  0.00    -0.146 I 
ENDROOT
TORSDOF 0
ENDMDL
