MODEL 1
REMARK minimizedAffinity 4.43630219
REMARK minimizedRMSD -1
REMARK  0 active torsions:
REMARK  status: ('A' for Active; 'I' for Inactive)
ROOT
ATOM      1  C   UNL d   1      -2.441   0.877   4.523  0.00  0.00     0.023 A 
ATOM      2  C1  UNL d   1      -2.664   0.384   5.809  0.00  0.00     0.003 A 
ATOM      3  C2  UNL d   1      -2.946  -0.970   6.000  0.00  0.00     0.048 A 
ATOM      4  C3  UNL d   1      -3.002  -1.826   4.900  0.00  0.00     0.023 A 
ATOM      5  C4  UNL d   1      -2.779  -1.337   3.612  0.00  0.00     0.048 A 
ATOM      6  C5  UNL d   1      -2.498   0.018   3.426  0.00  0.00     0.003 A 
ATOM      7  I   UNL d   1      -3.422  -3.842   5.181  0.00  0.00    -0.146 I 
ENDROOT
TORSDOF 0
ENDMDL
