MODEL 1
REMARK minimizedAffinity 6.12157345
REMARK minimizedRMSD -1
REMARK  0 active torsions:
REMARK  status: ('A' for Active; 'I' for Inactive)
ROOT
ATOM      1  C   UNL d   1      -0.146   0.096  -2.781  0.00  0.00     0.023 A 
ATOM      2  C1  UNL d   1       0.700   0.430  -1.723  0.00  0.00     0.003 A 
ATOM      3  C2  UNL d   1       0.271   0.261  -0.405  0.00  0.00     0.048 A 
ATOM      4  C3  UNL d   1      -1.004  -0.243  -0.151  0.00  0.00     0.023 A 
ATOM      5  C4  UNL d   1      -1.854  -0.579  -1.207  0.00  0.00     0.048 A 
ATOM      6  C5  UNL d   1      -1.421  -0.407  -2.523  0.00  0.00     0.003 A 
ATOM      7  I   UNL d   1      -1.644  -0.495   1.810  0.00  0.00    -0.146 I 
ENDROOT
TORSDOF 0
ENDMDL
