MODEL 1
REMARK minimizedAffinity 7.9447999
REMARK minimizedRMSD -1
REMARK  0 active torsions:
REMARK  status: ('A' for Active; 'I' for Inactive)
ROOT
ATOM      1  C   UNL d   1      -4.153   5.999   4.109  0.00  0.00     0.023 A 
ATOM      2  C1  UNL d   1      -3.251   5.999   3.045  0.00  0.00     0.003 A 
ATOM      3  C2  UNL d   1      -3.721   5.998   1.730  0.00  0.00     0.048 A 
ATOM      4  C3  UNL d   1      -5.094   5.998   1.486  0.00  0.00     0.023 A 
ATOM      5  C4  UNL d   1      -6.000   5.999   2.548  0.00  0.00     0.048 A 
ATOM      6  C5  UNL d   1      -5.525   5.999   3.861  0.00  0.00     0.003 A 
ATOM      7  I   UNL d   1      -5.796   5.997  -0.470  0.00  0.00    -0.146 I 
ENDROOT
TORSDOF 0
ENDMDL
