MODEL 1
REMARK minimizedAffinity 3.92705655
REMARK minimizedRMSD -1
REMARK  0 active torsions:
REMARK  status: ('A' for Active; 'I' for Inactive)
ROOT
ATOM      1  C   UNL d   1      -2.000  -0.059   2.867  0.00  0.00     0.023 A 
ATOM      2  C1  UNL d   1      -2.637  -0.135   1.628  0.00  0.00     0.003 A 
ATOM      3  C2  UNL d   1      -1.899   0.021   0.452  0.00  0.00     0.048 A 
ATOM      4  C3  UNL d   1      -0.526   0.252   0.523  0.00  0.00     0.023 A 
ATOM      5  C4  UNL d   1       0.115   0.328   1.761  0.00  0.00     0.048 A 
ATOM      6  C5  UNL d   1      -0.626   0.172   2.933  0.00  0.00     0.003 A 
ATOM      7  I   UNL d   1       0.573   0.484  -1.225  0.00  0.00    -0.146 I 
ENDROOT
TORSDOF 0
ENDMDL
