MODEL 1
REMARK minimizedAffinity -0.990193427
REMARK minimizedRMSD -1
REMARK  0 active torsions:
REMARK  status: ('A' for Active; 'I' for Inactive)
ROOT
ATOM      1  C   UNL d   1      -2.598  -2.056  -1.779  0.00  0.00     0.023 A 
ATOM      2  C1  UNL d   1      -1.873  -0.865  -1.727  0.00  0.00     0.003 A 
ATOM      3  C2  UNL d   1      -0.956  -0.648  -0.697  0.00  0.00     0.048 A 
ATOM      4  C3  UNL d   1      -0.767  -1.627   0.278  0.00  0.00     0.023 A 
ATOM      5  C4  UNL d   1      -1.489  -2.821   0.230  0.00  0.00     0.048 A 
ATOM      6  C5  UNL d   1      -2.406  -3.033  -0.801  0.00  0.00     0.003 A 
ATOM      7  I   UNL d   1       0.598  -1.307   1.812  0.00  0.00    -0.146 I 
ENDROOT
TORSDOF 0
ENDMDL
