MODEL 1
REMARK minimizedAffinity -3.22281218
REMARK minimizedRMSD -1
REMARK  0 active torsions:
REMARK  status: ('A' for Active; 'I' for Inactive)
ROOT
ATOM      1  C   UNL d   1      -2.387  -2.778   0.475  0.00  0.00     0.023 A 
ATOM      2  C1  UNL d   1      -2.459  -1.618  -0.297  0.00  0.00     0.003 A 
ATOM      3  C2  UNL d   1      -1.446  -0.660  -0.215  0.00  0.00     0.048 A 
ATOM      4  C3  UNL d   1      -0.363  -0.870   0.639  0.00  0.00     0.023 A 
ATOM      5  C4  UNL d   1      -0.287  -2.030   1.411  0.00  0.00     0.048 A 
ATOM      6  C5  UNL d   1      -1.302  -2.984   1.327  0.00  0.00     0.003 A 
ATOM      7  I   UNL d   1       1.146   0.554   0.761  0.00  0.00    -0.146 I 
ENDROOT
TORSDOF 0
ENDMDL
