MODEL 1
REMARK minimizedAffinity -4.32130718
REMARK minimizedRMSD -1
REMARK  0 active torsions:
REMARK  status: ('A' for Active; 'I' for Inactive)
ROOT
ATOM      1  C   UNL d   1       2.820   2.798   1.501  0.00  0.00     0.023 A 
ATOM      2  C1  UNL d   1       2.565   2.119   0.310  0.00  0.00     0.003 A 
ATOM      3  C2  UNL d   1       1.819   0.938   0.323  0.00  0.00     0.048 A 
ATOM      4  C3  UNL d   1       1.331   0.442   1.531  0.00  0.00     0.023 A 
ATOM      5  C4  UNL d   1       1.583   1.118   2.726  0.00  0.00     0.048 A 
ATOM      6  C5  UNL d   1       2.330   2.298   2.708  0.00  0.00     0.003 A 
ATOM      7  I   UNL d   1       0.221  -1.315   1.553  0.00  0.00    -0.146 I 
ENDROOT
TORSDOF 0
ENDMDL
