MODEL 1
REMARK minimizedAffinity 17.3575974
REMARK minimizedRMSD -1
REMARK  2 active torsions:
REMARK  status: ('A' for Active; 'I' for Inactive)
REMARK    1  A    between atoms: C2'_3  and  C1'_4 
REMARK    2  A    between atoms: C1'_4  and  C1_5 
ROOT
ATOM      1  C1  I4B d   1      -0.879   1.733   2.956  0.00  0.00    -0.075 A 
ATOM      2  C2  I4B d   1      -0.708   2.073   4.275  0.00  0.00     0.003 A 
ATOM      3  C3  I4B d   1       0.562   1.937   4.887  0.00  0.00     0.002 A 
ATOM      4  C4  I4B d   1       1.613   1.413   4.162  0.00  0.00    -0.004 A 
ATOM      5  C5  I4B d   1       1.443   1.091   2.819  0.00  0.00     0.002 A 
ATOM      6  C6  I4B d   1       0.193   1.263   2.208  0.00  0.00     0.003 A 
ENDROOT
BRANCH   1   7
ATOM      7  C1' I4B d   1      -2.241   1.858   2.351  0.00  0.00     0.060 C 
BRANCH   7   8
ATOM      8  C2' I4B d   1      -3.245   1.304   3.341  0.00  0.00    -0.013 C 
ATOM      9  C4' I4B d   1      -4.368   2.278   3.581  0.00  0.00     0.013 C 
ATOM     10  C3' I4B d   1      -3.761   0.005   2.799  0.00  0.00     0.013 C 
ENDBRANCH   7   8
ENDBRANCH   1   7
TORSDOF 2
ENDMDL
