MODEL 1
REMARK minimizedAffinity 14.8749418
REMARK minimizedRMSD -1
REMARK  2 active torsions:
REMARK  status: ('A' for Active; 'I' for Inactive)
REMARK    1  A    between atoms: C2'_3  and  C1'_4 
REMARK    2  A    between atoms: C1'_4  and  C1_5 
ROOT
ATOM      1  C1  I4B d   1       2.618  -1.027   0.384  0.00  0.00    -0.075 A 
ATOM      2  C2  I4B d   1       3.925  -1.024   0.803  0.00  0.00     0.003 A 
ATOM      3  C3  I4B d   1       4.616  -2.246   0.994  0.00  0.00     0.002 A 
ATOM      4  C4  I4B d   1       3.950  -3.439   0.805  0.00  0.00    -0.004 A 
ATOM      5  C5  I4B d   1       2.632  -3.441   0.358  0.00  0.00     0.002 A 
ATOM      6  C6  I4B d   1       1.965  -2.227   0.134  0.00  0.00     0.003 A 
ENDROOT
BRANCH   1   7
ATOM      7  C1' I4B d   1       1.910   0.280   0.223  0.00  0.00     0.060 C 
BRANCH   7   8
ATOM      8  C2' I4B d   1       1.970   1.009   1.550  0.00  0.00    -0.013 C 
ATOM      9  C4' I4B d   1       2.791   2.267   1.445  0.00  0.00     0.013 C 
ATOM     10  C3' I4B d   1       0.564   1.315   1.974  0.00  0.00     0.013 C 
ENDBRANCH   7   8
ENDBRANCH   1   7
TORSDOF 2
ENDMDL
