MODEL 1
REMARK minimizedAffinity 14.7563152
REMARK minimizedRMSD -1
REMARK  2 active torsions:
REMARK  status: ('A' for Active; 'I' for Inactive)
REMARK    1  A    between atoms: C2'_3  and  C1'_4 
REMARK    2  A    between atoms: C1'_4  and  C1_5 
ROOT
ATOM      1  C1  I4B d   1       1.012  -2.692  -2.095  0.00  0.00    -0.075 A 
ATOM      2  C2  I4B d   1       0.773  -1.383  -2.434  0.00  0.00     0.003 A 
ATOM      3  C3  I4B d   1       1.282  -0.334  -1.630  0.00  0.00     0.002 A 
ATOM      4  C4  I4B d   1       1.977  -0.638  -0.477  0.00  0.00    -0.004 A 
ATOM      5  C5  I4B d   1       2.237  -1.965  -0.147  0.00  0.00     0.002 A 
ATOM      6  C6  I4B d   1       1.762  -2.998  -0.967  0.00  0.00     0.003 A 
ENDROOT
BRANCH   1   7
ATOM      7  C1' I4B d   1       0.431  -3.775  -2.948  0.00  0.00     0.060 C 
BRANCH   7   8
ATOM      8  C2' I4B d   1      -1.071  -3.768  -2.752  0.00  0.00    -0.013 C 
ATOM      9  C4' I4B d   1      -1.792  -3.643  -4.068  0.00  0.00     0.013 C 
ATOM     10  C3' I4B d   1      -1.451  -5.035  -2.045  0.00  0.00     0.013 C 
ENDBRANCH   7   8
ENDBRANCH   1   7
TORSDOF 2
ENDMDL
