MODEL 1
REMARK minimizedAffinity 11.2499418
REMARK minimizedRMSD -1
REMARK  2 active torsions:
REMARK  status: ('A' for Active; 'I' for Inactive)
REMARK    1  A    between atoms: C2'_3  and  C1'_4 
REMARK    2  A    between atoms: C1'_4  and  C1_5 
ROOT
ATOM      1  C1  I4B d   1       2.817  -0.433   0.085  0.00  0.00    -0.075 A 
ATOM      2  C2  I4B d   1       4.150  -0.546   0.394  0.00  0.00     0.003 A 
ATOM      3  C3  I4B d   1       4.732  -1.823   0.583  0.00  0.00     0.002 A 
ATOM      4  C4  I4B d   1       3.939  -2.950   0.503  0.00  0.00    -0.004 A 
ATOM      5  C5  I4B d   1       2.594  -2.835   0.167  0.00  0.00     0.002 A 
ATOM      6  C6  I4B d   1       2.031  -1.570  -0.056  0.00  0.00     0.003 A 
ENDROOT
BRANCH   1   7
ATOM      7  C1' I4B d   1       2.228   0.932  -0.076  0.00  0.00     0.060 C 
BRANCH   7   8
ATOM      8  C2' I4B d   1       2.090   1.546   1.303  0.00  0.00    -0.013 C 
ATOM      9  C4' I4B d   1       2.861   2.836   1.404  0.00  0.00     0.013 C 
ATOM     10  C3' I4B d   1       0.631   1.765   1.569  0.00  0.00     0.013 C 
ENDBRANCH   7   8
ENDBRANCH   1   7
TORSDOF 2
ENDMDL
