MODEL 1
REMARK minimizedAffinity 11.1216011
REMARK minimizedRMSD -1
REMARK  2 active torsions:
REMARK  status: ('A' for Active; 'I' for Inactive)
REMARK    1  A    between atoms: C2'_3  and  C1'_4 
REMARK    2  A    between atoms: C1'_4  and  C1_5 
ROOT
ATOM      1  C1  I4B d   1      -2.331   0.675   1.957  0.00  0.00    -0.075 A 
ATOM      2  C2  I4B d   1      -1.849   1.488   2.952  0.00  0.00     0.003 A 
ATOM      3  C3  I4B d   1      -0.484   1.867   2.965  0.00  0.00     0.002 A 
ATOM      4  C4  I4B d   1       0.367   1.372   1.998  0.00  0.00    -0.004 A 
ATOM      5  C5  I4B d   1      -0.129   0.567   0.976  0.00  0.00     0.002 A 
ATOM      6  C6  I4B d   1      -1.489   0.226   0.948  0.00  0.00     0.003 A 
ENDROOT
BRANCH   1   7
ATOM      7  C1' I4B d   1      -3.770   0.268   1.992  0.00  0.00     0.060 C 
BRANCH   7   8
ATOM      8  C2' I4B d   1      -3.836  -1.233   1.793  0.00  0.00    -0.013 C 
ATOM      9  C4' I4B d   1      -3.282  -1.966   2.986  0.00  0.00     0.013 C 
ATOM     10  C3' I4B d   1      -5.267  -1.604   1.545  0.00  0.00     0.013 C 
ENDBRANCH   7   8
ENDBRANCH   1   7
TORSDOF 2
ENDMDL
