MODEL 1
REMARK minimizedAffinity 17.5498753
REMARK minimizedRMSD -1
REMARK  2 active torsions:
REMARK  status: ('A' for Active; 'I' for Inactive)
REMARK    1  A    between atoms: C2'_3  and  C1'_4 
REMARK    2  A    between atoms: C1'_4  and  C1_5 
ROOT
ATOM      1  C1  I4B d   1       2.872  -0.052  -0.076  0.00  0.00    -0.075 A 
ATOM      2  C2  I4B d   1       2.352   0.667  -1.124  0.00  0.00     0.003 A 
ATOM      3  C3  I4B d   1       1.726   0.000  -2.204  0.00  0.00     0.002 A 
ATOM      4  C4  I4B d   1       1.686  -1.379  -2.221  0.00  0.00    -0.004 A 
ATOM      5  C5  I4B d   1       2.193  -2.105  -1.147  0.00  0.00     0.002 A 
ATOM      6  C6  I4B d   1       2.779  -1.437  -0.062  0.00  0.00     0.003 A 
ENDROOT
BRANCH   1   7
ATOM      7  C1' I4B d   1       3.556   0.683   1.033  0.00  0.00     0.060 C 
BRANCH   7   8
ATOM      8  C2' I4B d   1       2.589   1.716   1.575  0.00  0.00    -0.013 C 
ATOM      9  C4' I4B d   1       1.615   1.096   2.542  0.00  0.00     0.013 C 
ATOM     10  C3' I4B d   1       3.390   2.799   2.233  0.00  0.00     0.013 C 
ENDBRANCH   7   8
ENDBRANCH   1   7
TORSDOF 2
ENDMDL
