MODEL 1
REMARK minimizedAffinity 17.6817703
REMARK minimizedRMSD -1
REMARK  2 active torsions:
REMARK  status: ('A' for Active; 'I' for Inactive)
REMARK    1  A    between atoms: C2'_3  and  C1'_4 
REMARK    2  A    between atoms: C1'_4  and  C1_5 
ROOT
ATOM      1  C1  I4B d   1       2.362  -0.390  -1.599  0.00  0.00    -0.075 A 
ATOM      2  C2  I4B d   1       2.801   0.864  -1.945  0.00  0.00     0.003 A 
ATOM      3  C3  I4B d   1       3.829   1.491  -1.201  0.00  0.00     0.002 A 
ATOM      4  C4  I4B d   1       4.353   0.853  -0.095  0.00  0.00    -0.004 A 
ATOM      5  C5  I4B d   1       3.923  -0.428   0.241  0.00  0.00     0.002 A 
ATOM      6  C6  I4B d   1       2.931  -1.059  -0.523  0.00  0.00     0.003 A 
ENDROOT
BRANCH   1   7
ATOM      7  C1' I4B d   1       1.252  -1.008  -2.388  0.00  0.00     0.060 C 
BRANCH   7   8
ATOM      8  C2' I4B d   1       1.739  -2.344  -2.912  0.00  0.00    -0.013 C 
ATOM      9  C4' I4B d   1       0.586  -3.271  -3.195  0.00  0.00     0.013 C 
ATOM     10  C3' I4B d   1       2.546  -2.089  -4.149  0.00  0.00     0.013 C 
ENDBRANCH   7   8
ENDBRANCH   1   7
TORSDOF 2
ENDMDL
