MODEL 1
REMARK minimizedAffinity 8.1252985
REMARK minimizedRMSD -1
REMARK  2 active torsions:
REMARK  status: ('A' for Active; 'I' for Inactive)
REMARK    1  A    between atoms: C2'_3  and  C1'_4 
REMARK    2  A    between atoms: C1'_4  and  C1_5 
ROOT
ATOM      1  C1  I4B d   1      -2.658  -3.016  -4.302  0.00  0.00    -0.075 A 
ATOM      2  C2  I4B d   1      -3.236  -3.965  -3.497  0.00  0.00     0.003 A 
ATOM      3  C3  I4B d   1      -2.501  -4.539  -2.431  0.00  0.00     0.002 A 
ATOM      4  C4  I4B d   1      -1.184  -4.174  -2.240  0.00  0.00    -0.004 A 
ATOM      5  C5  I4B d   1      -0.607  -3.194  -3.043  0.00  0.00     0.002 A 
ATOM      6  C6  I4B d   1      -1.352  -2.602  -4.073  0.00  0.00     0.003 A 
ENDROOT
BRANCH   1   7
ATOM      7  C1' I4B d   1      -3.452  -2.454  -5.439  0.00  0.00     0.060 C 
BRANCH   7   8
ATOM      8  C2' I4B d   1      -4.858  -3.011  -5.345  0.00  0.00    -0.013 C 
ATOM      9  C4' I4B d   1      -5.855  -2.086  -5.993  0.00  0.00     0.013 C 
ATOM     10  C3' I4B d   1      -4.866  -4.360  -6.000  0.00  0.00     0.013 C 
ENDBRANCH   7   8
ENDBRANCH   1   7
TORSDOF 2
ENDMDL
