MODEL 1
REMARK minimizedAffinity 9.98516369
REMARK minimizedRMSD -1
REMARK  2 active torsions:
REMARK  status: ('A' for Active; 'I' for Inactive)
REMARK    1  A    between atoms: C2'_3  and  C1'_4 
REMARK    2  A    between atoms: C1'_4  and  C1_5 
ROOT
ATOM      1  C1  I4B d   1       1.933   0.794   0.137  0.00  0.00    -0.075 A 
ATOM      2  C2  I4B d   1       1.638  -0.536   0.313  0.00  0.00     0.003 A 
ATOM      3  C3  I4B d   1       1.878  -1.463  -0.730  0.00  0.00     0.002 A 
ATOM      4  C4  I4B d   1       2.362  -1.013  -1.941  0.00  0.00    -0.004 A 
ATOM      5  C5  I4B d   1       2.681   0.331  -2.110  0.00  0.00     0.002 A 
ATOM      6  C6  I4B d   1       2.477   1.239  -1.060  0.00  0.00     0.003 A 
ENDROOT
BRANCH   1   7
ATOM      7  C1' I4B d   1       1.637   1.750   1.248  0.00  0.00     0.060 C 
BRANCH   7   8
ATOM      8  C2' I4B d   1       0.564   1.133   2.122  0.00  0.00    -0.013 C 
ATOM      9  C4' I4B d   1       0.878   1.321   3.584  0.00  0.00     0.013 C 
ATOM     10  C3' I4B d   1      -0.747   1.767   1.764  0.00  0.00     0.013 C 
ENDBRANCH   7   8
ENDBRANCH   1   7
TORSDOF 2
ENDMDL
