MODEL 1
REMARK minimizedAffinity 12.1181183
REMARK minimizedRMSD -1
REMARK  2 active torsions:
REMARK  status: ('A' for Active; 'I' for Inactive)
REMARK    1  A    between atoms: C2'_3  and  C1'_4 
REMARK    2  A    between atoms: C1'_4  and  C1_5 
ROOT
ATOM      1  C1  I4B d   1      -2.376   1.210   2.894  0.00  0.00    -0.075 A 
ATOM      2  C2  I4B d   1      -1.981   2.382   2.298  0.00  0.00     0.003 A 
ATOM      3  C3  I4B d   1      -0.613   2.612   2.015  0.00  0.00     0.002 A 
ATOM      4  C4  I4B d   1       0.325   1.672   2.389  0.00  0.00    -0.004 A 
ATOM      5  C5  I4B d   1      -0.079   0.475   2.972  0.00  0.00     0.002 A 
ATOM      6  C6  I4B d   1      -1.440   0.237   3.215  0.00  0.00     0.003 A 
ENDROOT
BRANCH   1   7
ATOM      7  C1' I4B d   1      -3.826   1.015   3.209  0.00  0.00     0.060 C 
BRANCH   7   8
ATOM      8  C2' I4B d   1      -4.329   2.270   3.891  0.00  0.00    -0.013 C 
ATOM      9  C4' I4B d   1      -5.825   2.396   3.767  0.00  0.00     0.013 C 
ATOM     10  C3' I4B d   1      -3.908   2.216   5.329  0.00  0.00     0.013 C 
ENDBRANCH   7   8
ENDBRANCH   1   7
TORSDOF 2
ENDMDL
