MODEL 1
REMARK minimizedAffinity 1.93920219
REMARK minimizedRMSD -1
REMARK  1 active torsions:
REMARK  status: ('A' for Active; 'I' for Inactive)
REMARK    1  A    between atoms: C1_2  and  C2_3 
ROOT
ATOM      1  C2  UNL d   1       1.061   0.446   0.336  0.00  0.00    -0.076 A 
ATOM      2  C3  UNL d   1       2.229   0.029  -0.325  0.00  0.00     0.004 A 
ATOM      3  C4  UNL d   1       3.490   0.394   0.146  0.00  0.00    -0.003 A 
ATOM      4  C5  UNL d   1       3.602   1.182   1.286  0.00  0.00     0.000 A 
ATOM      5  C6  UNL d   1       2.454   1.591   1.964  0.00  0.00     0.000 A 
ATOM      6  C7  UNL d   1       1.177   1.218   1.512  0.00  0.00    -0.073 A 
ATOM      7  C8  UNL d   1      -0.027   1.692   2.279  0.00  0.00     0.078 C 
ENDROOT
BRANCH   1   8
ATOM      8  C1  UNL d   1      -0.279   0.042  -0.236  0.00  0.00     0.053 C 
ATOM      9  C   UNL d   1      -0.320  -1.422  -0.645  0.00  0.00     0.018 C 
ENDBRANCH   1   8
TORSDOF 1
ENDMDL
