MODEL 1
REMARK minimizedAffinity -3.72998405
REMARK minimizedRMSD -1
REMARK  1 active torsions:
REMARK  status: ('A' for Active; 'I' for Inactive)
REMARK    1  A    between atoms: C1_2  and  C2_3 
ROOT
ATOM      1  C2  UNL d   1      -0.173  -0.625  -0.537  0.00  0.00    -0.076 A 
ATOM      2  C3  UNL d   1       0.960  -0.118  -1.198  0.00  0.00     0.004 A 
ATOM      3  C4  UNL d   1       1.566   1.065  -0.778  0.00  0.00    -0.003 A 
ATOM      4  C5  UNL d   1       1.051   1.759   0.311  0.00  0.00     0.000 A 
ATOM      5  C6  UNL d   1      -0.061   1.262   0.990  0.00  0.00     0.000 A 
ATOM      6  C7  UNL d   1      -0.675   0.063   0.589  0.00  0.00    -0.073 A 
ATOM      7  C8  UNL d   1      -1.875  -0.424   1.353  0.00  0.00     0.078 C 
ENDROOT
BRANCH   1   8
ATOM      8  C1  UNL d   1      -0.805  -1.897  -1.054  0.00  0.00     0.053 C 
ATOM      9  C   UNL d   1      -1.561  -1.684  -2.356  0.00  0.00     0.018 C 
ENDBRANCH   1   8
TORSDOF 1
ENDMDL
