MODEL 1
REMARK minimizedAffinity -4.35744619
REMARK minimizedRMSD -1
REMARK  1 active torsions:
REMARK  status: ('A' for Active; 'I' for Inactive)
REMARK    1  A    between atoms: C1_2  and  C2_3 
ROOT
ATOM      1  C2  UNL d   1      -0.071   0.701   1.738  0.00  0.00    -0.076 A 
ATOM      2  C3  UNL d   1      -0.871  -0.451   1.642  0.00  0.00     0.004 A 
ATOM      3  C4  UNL d   1      -0.970  -1.158   0.445  0.00  0.00    -0.003 A 
ATOM      4  C5  UNL d   1      -0.271  -0.725  -0.676  0.00  0.00     0.000 A 
ATOM      5  C6  UNL d   1       0.541   0.406  -0.594  0.00  0.00     0.000 A 
ATOM      6  C7  UNL d   1       0.665   1.121   0.610  0.00  0.00    -0.073 A 
ATOM      7  C8  UNL d   1       1.550   2.337   0.639  0.00  0.00     0.078 C 
ENDROOT
BRANCH   1   8
ATOM      8  C1  UNL d   1      -0.023   1.442   3.055  0.00  0.00     0.053 C 
ATOM      9  C   UNL d   1       1.031   0.885   3.999  0.00  0.00     0.018 C 
ENDBRANCH   1   8
TORSDOF 1
ENDMDL
