MODEL 1
REMARK minimizedAffinity -5.45218468
REMARK minimizedRMSD -1
REMARK  1 active torsions:
REMARK  status: ('A' for Active; 'I' for Inactive)
REMARK    1  A    between atoms: C1_2  and  C2_3 
ROOT
ATOM      1  C2  UNL d   1      -0.094  -0.029   0.282  0.00  0.00    -0.076 A 
ATOM      2  C3  UNL d   1       0.864   0.710  -0.434  0.00  0.00     0.004 A 
ATOM      3  C4  UNL d   1       1.501   1.807   0.142  0.00  0.00    -0.003 A 
ATOM      4  C5  UNL d   1       1.191   2.183   1.445  0.00  0.00     0.000 A 
ATOM      5  C6  UNL d   1       0.257   1.451   2.176  0.00  0.00     0.000 A 
ATOM      6  C7  UNL d   1      -0.383   0.333   1.615  0.00  0.00    -0.073 A 
ATOM      7  C8  UNL d   1      -1.388  -0.417   2.448  0.00  0.00     0.078 C 
ENDROOT
BRANCH   1   8
ATOM      8  C1  UNL d   1      -0.773  -1.193  -0.404  0.00  0.00     0.053 C 
ATOM      9  C   UNL d   1      -1.344  -0.816  -1.763  0.00  0.00     0.018 C 
ENDBRANCH   1   8
TORSDOF 1
ENDMDL
