MODEL 1
REMARK minimizedAffinity -3.47096372
REMARK minimizedRMSD -1
REMARK  1 active torsions:
REMARK  status: ('A' for Active; 'I' for Inactive)
REMARK    1  A    between atoms: C1_2  and  C2_3 
ROOT
ATOM      1  C2  UNL d   1      -3.036  -2.183  -1.611  0.00  0.00    -0.076 A 
ATOM      2  C3  UNL d   1      -3.707  -2.004  -2.833  0.00  0.00     0.004 A 
ATOM      3  C4  UNL d   1      -3.106  -1.321  -3.889  0.00  0.00    -0.003 A 
ATOM      4  C5  UNL d   1      -1.823  -0.805  -3.739  0.00  0.00     0.000 A 
ATOM      5  C6  UNL d   1      -1.136  -0.989  -2.540  0.00  0.00     0.000 A 
ATOM      6  C7  UNL d   1      -1.721  -1.690  -1.472  0.00  0.00    -0.073 A 
ATOM      7  C8  UNL d   1      -0.937  -1.853  -0.199  0.00  0.00     0.078 C 
ENDROOT
BRANCH   1   8
ATOM      8  C1  UNL d   1      -3.749  -2.910  -0.493  0.00  0.00     0.053 C 
ATOM      9  C   UNL d   1      -5.222  -3.139  -0.793  0.00  0.00     0.018 C 
ENDBRANCH   1   8
TORSDOF 1
ENDMDL
