MODEL 1
REMARK minimizedAffinity -6.69339514
REMARK minimizedRMSD -1
REMARK  1 active torsions:
REMARK  status: ('A' for Active; 'I' for Inactive)
REMARK    1  A    between atoms: C1_2  and  C2_3 
ROOT
ATOM      1  C2  UNL d   1       0.065   0.501   0.773  0.00  0.00    -0.076 A 
ATOM      2  C3  UNL d   1       1.168   1.232   0.297  0.00  0.00     0.004 A 
ATOM      3  C4  UNL d   1       1.571   2.411   0.921  0.00  0.00    -0.003 A 
ATOM      4  C5  UNL d   1       0.877   2.879   2.032  0.00  0.00     0.000 A 
ATOM      5  C6  UNL d   1      -0.208   2.158   2.528  0.00  0.00     0.000 A 
ATOM      6  C7  UNL d   1      -0.617   0.958   1.921  0.00  0.00    -0.073 A 
ATOM      7  C8  UNL d   1      -1.798   0.224   2.495  0.00  0.00     0.078 C 
ENDROOT
BRANCH   1   8
ATOM      8  C1  UNL d   1      -0.342  -0.757   0.039  0.00  0.00     0.053 C 
ATOM      9  C   UNL d   1      -0.831  -0.475  -1.373  0.00  0.00     0.018 C 
ENDBRANCH   1   8
TORSDOF 1
ENDMDL
