MODEL 1
REMARK minimizedAffinity -4.01380491
REMARK minimizedRMSD -1
REMARK  1 active torsions:
REMARK  status: ('A' for Active; 'I' for Inactive)
REMARK    1  A    between atoms: C1_2  and  C2_3 
ROOT
ATOM      1  C2  UNL d   1      -0.227   0.153   0.053  0.00  0.00    -0.076 A 
ATOM      2  C3  UNL d   1       0.852   0.717  -0.650  0.00  0.00     0.004 A 
ATOM      3  C4  UNL d   1       1.434   1.912  -0.231  0.00  0.00    -0.003 A 
ATOM      4  C5  UNL d   1       0.948   2.562   0.898  0.00  0.00     0.000 A 
ATOM      5  C6  UNL d   1      -0.110   2.007   1.618  0.00  0.00     0.000 A 
ATOM      6  C7  UNL d   1      -0.698   0.794   1.219  0.00  0.00    -0.073 A 
ATOM      7  C8  UNL d   1      -1.840   0.245   2.028  0.00  0.00     0.078 C 
ENDROOT
BRANCH   1   8
ATOM      8  C1  UNL d   1      -0.836  -1.131  -0.464  0.00  0.00     0.053 C 
ATOM      9  C   UNL d   1      -1.517  -0.951  -1.812  0.00  0.00     0.018 C 
ENDBRANCH   1   8
TORSDOF 1
ENDMDL
