MODEL 1
REMARK minimizedAffinity -4.61849928
REMARK minimizedRMSD -1
REMARK  1 active torsions:
REMARK  status: ('A' for Active; 'I' for Inactive)
REMARK    1  A    between atoms: C1_2  and  C2_3 
ROOT
ATOM      1  C2  UNL d   1       0.530  -0.209  -0.223  0.00  0.00    -0.076 A 
ATOM      2  C3  UNL d   1       1.682   0.460  -0.672  0.00  0.00     0.004 A 
ATOM      3  C4  UNL d   1       2.110   1.639  -0.065  0.00  0.00    -0.003 A 
ATOM      4  C5  UNL d   1       1.393   2.168   1.003  0.00  0.00     0.000 A 
ATOM      5  C6  UNL d   1       0.258   1.509   1.473  0.00  0.00     0.000 A 
ATOM      6  C7  UNL d   1      -0.178   0.310   0.882  0.00  0.00    -0.073 A 
ATOM      7  C8  UNL d   1      -1.412  -0.356   1.426  0.00  0.00     0.078 C 
ENDROOT
BRANCH   1   8
ATOM      8  C1  UNL d   1       0.099  -1.469  -0.939  0.00  0.00     0.053 C 
ATOM      9  C   UNL d   1      -0.823  -1.186  -2.114  0.00  0.00     0.018 C 
ENDBRANCH   1   8
TORSDOF 1
ENDMDL
