MODEL 1
REMARK minimizedAffinity -3.49110699
REMARK minimizedRMSD -1
REMARK  1 active torsions:
REMARK  status: ('A' for Active; 'I' for Inactive)
REMARK    1  A    between atoms: C1_2  and  C2_3 
ROOT
ATOM      1  C2  UNL d   1       0.965   0.279   0.040  0.00  0.00    -0.076 A 
ATOM      2  C3  UNL d   1      -0.076   0.954   0.700  0.00  0.00     0.004 A 
ATOM      3  C4  UNL d   1       0.165   2.135   1.400  0.00  0.00    -0.003 A 
ATOM      4  C5  UNL d   1       1.451   2.661   1.450  0.00  0.00     0.000 A 
ATOM      5  C6  UNL d   1       2.493   2.013   0.786  0.00  0.00     0.000 A 
ATOM      6  C7  UNL d   1       2.264   0.830   0.063  0.00  0.00    -0.073 A 
ATOM      7  C8  UNL d   1       3.425   0.171  -0.629  0.00  0.00     0.078 C 
ENDROOT
BRANCH   1   8
ATOM      8  C1  UNL d   1       0.649  -1.013  -0.680  0.00  0.00     0.053 C 
ATOM      9  C   UNL d   1      -0.796  -1.079  -1.150  0.00  0.00     0.018 C 
ENDBRANCH   1   8
TORSDOF 1
ENDMDL
