MODEL 1
REMARK minimizedAffinity -6.23936796
REMARK minimizedRMSD -1
REMARK  1 active torsions:
REMARK  status: ('A' for Active; 'I' for Inactive)
REMARK    1  A    between atoms: C1_2  and  C2_3 
ROOT
ATOM      1  C2  UNL d   1       0.746  -0.129   0.253  0.00  0.00    -0.076 A 
ATOM      2  C3  UNL d   1       1.870   0.386  -0.416  0.00  0.00     0.004 A 
ATOM      3  C4  UNL d   1       2.380   1.644  -0.099  0.00  0.00    -0.003 A 
ATOM      4  C5  UNL d   1       1.773   2.408   0.892  0.00  0.00     0.000 A 
ATOM      5  C6  UNL d   1       0.668   1.905   1.578  0.00  0.00     0.000 A 
ATOM      6  C7  UNL d   1       0.152   0.632   1.282  0.00  0.00    -0.073 A 
ATOM      7  C8  UNL d   1      -1.046   0.142   2.049  0.00  0.00     0.078 C 
ENDROOT
BRANCH   1   8
ATOM      8  C1  UNL d   1       0.222  -1.488  -0.153  0.00  0.00     0.053 C 
ATOM      9  C   UNL d   1      -1.006  -1.397  -1.045  0.00  0.00     0.018 C 
ENDBRANCH   1   8
TORSDOF 1
ENDMDL
