MODEL 1
REMARK minimizedAffinity -0.865741432
REMARK minimizedRMSD -1
REMARK  1 active torsions:
REMARK  status: ('A' for Active; 'I' for Inactive)
REMARK    1  A    between atoms: C1_2  and  C2_3 
ROOT
ATOM      1  C2  UNL d   1       0.712   0.646   0.273  0.00  0.00    -0.076 A 
ATOM      2  C3  UNL d   1       1.113   1.545   1.277  0.00  0.00     0.004 A 
ATOM      3  C4  UNL d   1       0.387   1.669   2.460  0.00  0.00    -0.003 A 
ATOM      4  C5  UNL d   1      -0.751   0.896   2.660  0.00  0.00     0.000 A 
ATOM      5  C6  UNL d   1      -1.153  -0.014   1.683  0.00  0.00     0.000 A 
ATOM      6  C7  UNL d   1      -0.423  -0.164   0.491  0.00  0.00    -0.073 A 
ATOM      7  C8  UNL d   1      -0.906  -1.156  -0.532  0.00  0.00     0.078 C 
ENDROOT
BRANCH   1   8
ATOM      8  C1  UNL d   1       1.523   0.574  -1.001  0.00  0.00     0.053 C 
ATOM      9  C   UNL d   1       3.021   0.536  -0.737  0.00  0.00     0.018 C 
ENDBRANCH   1   8
TORSDOF 1
ENDMDL
