MODEL 1
REMARK minimizedAffinity -3.21699548
REMARK minimizedRMSD -1
REMARK  1 active torsions:
REMARK  status: ('A' for Active; 'I' for Inactive)
REMARK    1  A    between atoms: C1_2  and  C2_3 
ROOT
ATOM      1  C2  UNL d   1       0.156  -0.633  -0.357  0.00  0.00    -0.076 A 
ATOM      2  C3  UNL d   1      -0.435   0.484   0.259  0.00  0.00     0.004 A 
ATOM      3  C4  UNL d   1       0.306   1.636   0.518  0.00  0.00    -0.003 A 
ATOM      4  C5  UNL d   1       1.649   1.690   0.163  0.00  0.00     0.000 A 
ATOM      5  C6  UNL d   1       2.247   0.598  -0.466  0.00  0.00     0.000 A 
ATOM      6  C7  UNL d   1       1.510  -0.565  -0.748  0.00  0.00    -0.073 A 
ATOM      7  C8  UNL d   1       2.206  -1.715  -1.423  0.00  0.00     0.078 C 
ENDROOT
BRANCH   1   8
ATOM      8  C1  UNL d   1      -0.691  -1.864  -0.588  0.00  0.00     0.053 C 
ATOM      9  C   UNL d   1      -1.497  -1.785  -1.875  0.00  0.00     0.018 C 
ENDBRANCH   1   8
TORSDOF 1
ENDMDL
