MODEL 1
REMARK minimizedAffinity -4.99506092
REMARK minimizedRMSD -1
REMARK  1 active torsions:
REMARK  status: ('A' for Active; 'I' for Inactive)
REMARK    1  A    between atoms: C1_2  and  C2_3 
ROOT
ATOM      1  C2  UNL d   1       0.239   0.998  -0.035  0.00  0.00    -0.081 A 
ATOM      2  C3  UNL d   1      -0.675   0.412   0.850  0.00  0.00     0.006 A 
ATOM      3  C4  UNL d   1      -0.806  -0.977   0.915  0.00  0.00     0.002 A 
ATOM      4  C5  UNL d   1      -0.021  -1.803   0.103  0.00  0.00    -0.080 A 
ATOM      5  C6  UNL d   1      -0.131  -3.297   0.185  0.00  0.00     0.076 C 
ATOM      6  C7  UNL d   1       0.879  -1.217  -0.793  0.00  0.00     0.002 A 
ATOM      7  C8  UNL d   1       1.010   0.172  -0.859  0.00  0.00     0.006 A 
ENDROOT
BRANCH   1   8
ATOM      8  C1  UNL d   1       0.429   2.493  -0.061  0.00  0.00     0.054 C 
ATOM      9  C   UNL d   1       1.905   2.863  -0.053  0.00  0.00     0.018 C 
ENDBRANCH   1   8
TORSDOF 1
ENDMDL
