MODEL 1
REMARK minimizedAffinity -6.09092188
REMARK minimizedRMSD -1
REMARK  1 active torsions:
REMARK  status: ('A' for Active; 'I' for Inactive)
REMARK    1  A    between atoms: C1_2  and  C2_3 
ROOT
ATOM      1  C2  UNL d   1      -0.248  -0.445  -0.925  0.00  0.00    -0.081 A 
ATOM      2  C3  UNL d   1      -0.202  -0.981   0.368  0.00  0.00     0.006 A 
ATOM      3  C4  UNL d   1      -0.013  -2.352   0.560  0.00  0.00     0.002 A 
ATOM      4  C5  UNL d   1       0.142  -3.208  -0.536  0.00  0.00    -0.080 A 
ATOM      5  C6  UNL d   1       0.376  -4.676  -0.342  0.00  0.00     0.076 C 
ATOM      6  C7  UNL d   1       0.079  -2.675  -1.828  0.00  0.00     0.002 A 
ATOM      7  C8  UNL d   1      -0.111  -1.305  -2.020  0.00  0.00     0.006 A 
ENDROOT
BRANCH   1   8
ATOM      8  C1  UNL d   1      -0.387   1.041  -1.134  0.00  0.00     0.054 C 
ATOM      9  C   UNL d   1       0.819   1.792  -0.588  0.00  0.00     0.018 C 
ENDBRANCH   1   8
TORSDOF 1
ENDMDL
