MODEL 1
REMARK minimizedAffinity -5.43819284
REMARK minimizedRMSD -1
REMARK  1 active torsions:
REMARK  status: ('A' for Active; 'I' for Inactive)
REMARK    1  A    between atoms: C1_2  and  C2_3 
ROOT
ATOM      1  C2  UNL d   1       0.161  -0.835  -0.947  0.00  0.00    -0.081 A 
ATOM      2  C3  UNL d   1      -0.075  -1.462   0.282  0.00  0.00     0.006 A 
ATOM      3  C4  UNL d   1      -0.027  -2.855   0.388  0.00  0.00     0.002 A 
ATOM      4  C5  UNL d   1       0.264  -3.642  -0.732  0.00  0.00    -0.080 A 
ATOM      5  C6  UNL d   1       0.348  -5.135  -0.625  0.00  0.00     0.076 C 
ATOM      6  C7  UNL d   1       0.482  -3.016  -1.964  0.00  0.00     0.002 A 
ATOM      7  C8  UNL d   1       0.434  -1.624  -2.070  0.00  0.00     0.006 A 
ENDROOT
BRANCH   1   8
ATOM      8  C1  UNL d   1       0.174   0.668  -1.051  0.00  0.00     0.054 C 
ATOM      9  C   UNL d   1      -0.099   1.318   0.298  0.00  0.00     0.018 C 
ENDBRANCH   1   8
TORSDOF 1
ENDMDL
