MODEL 1
REMARK minimizedAffinity -4.17115736
REMARK minimizedRMSD -1
REMARK  1 active torsions:
REMARK  status: ('A' for Active; 'I' for Inactive)
REMARK    1  A    between atoms: C1_2  and  C2_3 
ROOT
ATOM      1  C2  UNL d   1      -0.217  -0.890   0.128  0.00  0.00    -0.081 A 
ATOM      2  C3  UNL d   1       0.035  -1.243  -1.203  0.00  0.00     0.006 A 
ATOM      3  C4  UNL d   1       0.217  -2.582  -1.558  0.00  0.00     0.002 A 
ATOM      4  C5  UNL d   1       0.142  -3.589  -0.591  0.00  0.00    -0.080 A 
ATOM      5  C6  UNL d   1       0.305  -5.033  -0.964  0.00  0.00     0.076 C 
ATOM      6  C7  UNL d   1      -0.093  -3.235   0.742  0.00  0.00     0.002 A 
ATOM      7  C8  UNL d   1      -0.274  -1.897   1.098  0.00  0.00     0.006 A 
ENDROOT
BRANCH   1   8
ATOM      8  C1  UNL d   1      -0.478   0.547   0.504  0.00  0.00     0.054 C 
ATOM      9  C   UNL d   1       0.402   1.496  -0.296  0.00  0.00     0.018 C 
ENDBRANCH   1   8
TORSDOF 1
ENDMDL
