MODEL 1
REMARK minimizedAffinity -2.60058737
REMARK minimizedRMSD -1
REMARK  1 active torsions:
REMARK  status: ('A' for Active; 'I' for Inactive)
REMARK    1  A    between atoms: C1_2  and  C2_3 
ROOT
ATOM      1  C2  UNL d   1       0.249   0.268  -0.006  0.00  0.00    -0.081 A 
ATOM      2  C3  UNL d   1       1.643   0.389   0.055  0.00  0.00     0.006 A 
ATOM      3  C4  UNL d   1       2.244   1.650   0.091  0.00  0.00     0.002 A 
ATOM      4  C5  UNL d   1       1.461   2.809   0.074  0.00  0.00    -0.080 A 
ATOM      5  C6  UNL d   1       2.092   4.168   0.143  0.00  0.00     0.076 C 
ATOM      6  C7  UNL d   1       0.070   2.689  -0.004  0.00  0.00     0.002 A 
ATOM      7  C8  UNL d   1      -0.531   1.428  -0.041  0.00  0.00     0.006 A 
ENDROOT
BRANCH   1   8
ATOM      8  C1  UNL d   1      -0.404  -1.090   0.021  0.00  0.00     0.054 C 
ATOM      9  C   UNL d   1      -0.327  -1.714   1.407  0.00  0.00     0.018 C 
ENDBRANCH   1   8
TORSDOF 1
ENDMDL
