MODEL 1
REMARK minimizedAffinity -3.76405644
REMARK minimizedRMSD -1
REMARK  1 active torsions:
REMARK  status: ('A' for Active; 'I' for Inactive)
REMARK    1  A    between atoms: C1_2  and  C2_3 
ROOT
ATOM      1  C2  UNL d   1      -0.503  -0.039   0.073  0.00  0.00    -0.081 A 
ATOM      2  C3  UNL d   1       0.037  -0.393  -1.170  0.00  0.00     0.006 A 
ATOM      3  C4  UNL d   1       0.127  -1.735  -1.546  0.00  0.00     0.002 A 
ATOM      4  C5  UNL d   1      -0.328  -2.744  -0.690  0.00  0.00    -0.080 A 
ATOM      5  C6  UNL d   1      -0.264  -4.187  -1.094  0.00  0.00     0.076 C 
ATOM      6  C7  UNL d   1      -0.851  -2.392   0.558  0.00  0.00     0.002 A 
ATOM      7  C8  UNL d   1      -0.941  -1.050   0.935  0.00  0.00     0.006 A 
ENDROOT
BRANCH   1   8
ATOM      8  C1  UNL d   1      -0.662   1.411   0.455  0.00  0.00     0.054 C 
ATOM      9  C   UNL d   1       0.306   2.295  -0.319  0.00  0.00     0.018 C 
ENDBRANCH   1   8
TORSDOF 1
ENDMDL
