MODEL 1
REMARK minimizedAffinity -3.96957254
REMARK minimizedRMSD -1
REMARK  1 active torsions:
REMARK  status: ('A' for Active; 'I' for Inactive)
REMARK    1  A    between atoms: C1_2  and  C2_3 
ROOT
ATOM      1  C2  UNL d   1      -0.005   0.066  -0.324  0.00  0.00    -0.081 A 
ATOM      2  C3  UNL d   1       0.342  -0.642  -1.482  0.00  0.00     0.006 A 
ATOM      3  C4  UNL d   1       0.348  -2.039  -1.482  0.00  0.00     0.002 A 
ATOM      4  C5  UNL d   1      -0.000  -2.751  -0.329  0.00  0.00    -0.080 A 
ATOM      5  C6  UNL d   1      -0.027  -4.250  -0.325  0.00  0.00     0.076 C 
ATOM      6  C7  UNL d   1      -0.330  -2.044   0.832  0.00  0.00     0.002 A 
ATOM      7  C8  UNL d   1      -0.335  -0.647   0.834  0.00  0.00     0.006 A 
ENDROOT
BRANCH   1   8
ATOM      8  C1  UNL d   1      -0.075   1.572  -0.339  0.00  0.00     0.054 C 
ATOM      9  C   UNL d   1       1.270   2.192   0.011  0.00  0.00     0.018 C 
ENDBRANCH   1   8
TORSDOF 1
ENDMDL
