MODEL 1
REMARK minimizedAffinity -6.17421055
REMARK minimizedRMSD -1
REMARK  1 active torsions:
REMARK  status: ('A' for Active; 'I' for Inactive)
REMARK    1  A    between atoms: C1_2  and  C2_3 
ROOT
ATOM      1  C2  UNL d   1      -0.122  -0.870  -0.010  0.00  0.00    -0.081 A 
ATOM      2  C3  UNL d   1      -0.263  -1.849   0.982  0.00  0.00     0.006 A 
ATOM      3  C4  UNL d   1      -0.154  -3.204   0.661  0.00  0.00     0.002 A 
ATOM      4  C5  UNL d   1       0.106  -3.602  -0.655  0.00  0.00    -0.080 A 
ATOM      5  C6  UNL d   1       0.256  -5.052  -1.008  0.00  0.00     0.076 C 
ATOM      6  C7  UNL d   1       0.229  -2.626  -1.649  0.00  0.00     0.002 A 
ATOM      7  C8  UNL d   1       0.119  -1.271  -1.328  0.00  0.00     0.006 A 
ENDROOT
BRANCH   1   8
ATOM      8  C1  UNL d   1      -0.176   0.594   0.345  0.00  0.00     0.054 C 
ATOM      9  C   UNL d   1       0.030   1.469  -0.883  0.00  0.00     0.018 C 
ENDBRANCH   1   8
TORSDOF 1
ENDMDL
