MODEL 1
REMARK minimizedAffinity -5.52445745
REMARK minimizedRMSD -1
REMARK  1 active torsions:
REMARK  status: ('A' for Active; 'I' for Inactive)
REMARK    1  A    between atoms: C1_2  and  C2_3 
ROOT
ATOM      1  C2  UNL d   1       0.107   0.583   0.156  0.00  0.00    -0.081 A 
ATOM      2  C3  UNL d   1      -0.634  -0.140   1.099  0.00  0.00     0.006 A 
ATOM      3  C4  UNL d   1      -0.700  -1.533   1.032  0.00  0.00     0.002 A 
ATOM      4  C5  UNL d   1      -0.020  -2.228   0.026  0.00  0.00    -0.080 A 
ATOM      5  C6  UNL d   1      -0.058  -3.726  -0.040  0.00  0.00     0.076 C 
ATOM      6  C7  UNL d   1       0.706  -1.506  -0.927  0.00  0.00     0.002 A 
ATOM      7  C8  UNL d   1       0.772  -0.112  -0.860  0.00  0.00     0.006 A 
ENDROOT
BRANCH   1   8
ATOM      8  C1  UNL d   1       0.234   2.081   0.265  0.00  0.00     0.054 C 
ATOM      9  C   UNL d   1       1.667   2.534   0.029  0.00  0.00     0.018 C 
ENDBRANCH   1   8
TORSDOF 1
ENDMDL
