MODEL 1
REMARK minimizedAffinity -4.86710882
REMARK minimizedRMSD -1
REMARK  1 active torsions:
REMARK  status: ('A' for Active; 'I' for Inactive)
REMARK    1  A    between atoms: C1_2  and  C2_3 
ROOT
ATOM      1  C2  UNL d   1      -0.037   0.466  -0.205  0.00  0.00    -0.081 A 
ATOM      2  C3  UNL d   1      -0.031  -0.746   0.497  0.00  0.00     0.006 A 
ATOM      3  C4  UNL d   1      -0.205  -1.956  -0.179  0.00  0.00     0.002 A 
ATOM      4  C5  UNL d   1      -0.379  -1.975  -1.567  0.00  0.00    -0.080 A 
ATOM      5  C6  UNL d   1      -0.536  -3.270  -2.308  0.00  0.00     0.076 C 
ATOM      6  C7  UNL d   1      -0.402  -0.763  -2.266  0.00  0.00     0.002 A 
ATOM      7  C8  UNL d   1      -0.229   0.447  -1.590  0.00  0.00     0.006 A 
ENDROOT
BRANCH   1   8
ATOM      8  C1  UNL d   1       0.215   1.768   0.513  0.00  0.00     0.054 C 
ATOM      9  C   UNL d   1       1.698   2.106   0.541  0.00  0.00     0.018 C 
ENDBRANCH   1   8
TORSDOF 1
ENDMDL
