MODEL 1
REMARK minimizedAffinity -3.6406014
REMARK minimizedRMSD -1
REMARK  1 active torsions:
REMARK  status: ('A' for Active; 'I' for Inactive)
REMARK    1  A    between atoms: C1_2  and  C2_3 
ROOT
ATOM      1  C2  UNL d   1      -0.302  -1.269  -0.691  0.00  0.00    -0.081 A 
ATOM      2  C3  UNL d   1      -0.344  -0.194  -1.587  0.00  0.00     0.006 A 
ATOM      3  C4  UNL d   1      -0.409   1.119  -1.114  0.00  0.00     0.002 A 
ATOM      4  C5  UNL d   1      -0.426   1.379   0.260  0.00  0.00    -0.080 A 
ATOM      5  C6  UNL d   1      -0.466   2.785   0.781  0.00  0.00     0.076 C 
ATOM      6  C7  UNL d   1      -0.403   0.303   1.155  0.00  0.00     0.002 A 
ATOM      7  C8  UNL d   1      -0.338  -1.010   0.683  0.00  0.00     0.006 A 
ENDROOT
BRANCH   1   8
ATOM      8  C1  UNL d   1      -0.166  -2.683  -1.197  0.00  0.00     0.054 C 
ATOM      9  C   UNL d   1       0.084  -2.712  -2.698  0.00  0.00     0.018 C 
ENDBRANCH   1   8
TORSDOF 1
ENDMDL
