MODEL 1
REMARK minimizedAffinity 1.0460465
REMARK minimizedRMSD -1
REMARK  1 active torsions:
REMARK  status: ('A' for Active; 'I' for Inactive)
REMARK    1  A    between atoms: C1_2  and  C2_3 
ROOT
ATOM      1  C2  UNL d   1       0.985  -2.853   0.587  0.00  0.00    -0.076 A 
ATOM      2  C3  UNL d   1       1.069  -3.929  -0.314  0.00  0.00     0.004 A 
ATOM      3  C4  UNL d   1       2.301  -4.486  -0.653  0.00  0.00    -0.003 A 
ATOM      4  C5  UNL d   1       3.469  -3.978  -0.095  0.00  0.00     0.000 A 
ATOM      5  C6  UNL d   1       3.402  -2.923   0.815  0.00  0.00     0.000 A 
ATOM      6  C7  UNL d   1       2.167  -2.360   1.179  0.00  0.00    -0.073 A 
ATOM      7  C8  UNL d   1       2.154  -1.220   2.160  0.00  0.00     0.078 C 
ENDROOT
BRANCH   1   8
ATOM      8  C1  UNL d   1      -0.377  -2.272   0.895  0.00  0.00     0.053 C 
ATOM      9  C   UNL d   1      -1.318  -3.292   1.517  0.00  0.00     0.018 C 
ENDBRANCH   1   8
TORSDOF 1
ENDMDL
