MODEL 1
REMARK minimizedAffinity 15.2224493
REMARK minimizedRMSD -1
REMARK  1 active torsions:
REMARK  status: ('A' for Active; 'I' for Inactive)
REMARK    1  A    between atoms: C1_2  and  C2_3 
ROOT
ATOM      1  C2  UNL d   1      -2.563   1.992  -2.796  0.00  0.00    -0.076 A 
ATOM      2  C3  UNL d   1      -3.505   1.215  -2.100  0.00  0.00     0.004 A 
ATOM      3  C4  UNL d   1      -3.164  -0.035  -1.586  0.00  0.00    -0.003 A 
ATOM      4  C5  UNL d   1      -1.875  -0.528  -1.759  0.00  0.00     0.000 A 
ATOM      5  C6  UNL d   1      -0.923   0.238  -2.431  0.00  0.00     0.000 A 
ATOM      6  C7  UNL d   1      -1.246   1.507  -2.942  0.00  0.00    -0.073 A 
ATOM      7  C8  UNL d   1      -0.181   2.287  -3.664  0.00  0.00     0.078 C 
ENDROOT
BRANCH   1   8
ATOM      8  C1  UNL d   1      -2.998   3.328  -3.355  0.00  0.00     0.053 C 
ATOM      9  C   UNL d   1      -4.101   3.194  -4.394  0.00  0.00     0.018 C 
ENDBRANCH   1   8
TORSDOF 1
ENDMDL
