MODEL 1
REMARK minimizedAffinity 9.85052013
REMARK minimizedRMSD -1
REMARK  1 active torsions:
REMARK  status: ('A' for Active; 'I' for Inactive)
REMARK    1  A    between atoms: C1_2  and  C2_3 
ROOT
ATOM      1  C2  UNL d   1       0.480  -1.386   2.283  0.00  0.00    -0.076 A 
ATOM      2  C3  UNL d   1       0.620  -2.329   1.250  0.00  0.00     0.004 A 
ATOM      3  C4  UNL d   1       1.807  -2.428   0.525  0.00  0.00    -0.003 A 
ATOM      4  C5  UNL d   1       2.873  -1.587   0.823  0.00  0.00     0.000 A 
ATOM      5  C6  UNL d   1       2.758  -0.658   1.856  0.00  0.00     0.000 A 
ATOM      6  C7  UNL d   1       1.575  -0.556   2.607  0.00  0.00    -0.073 A 
ATOM      7  C8  UNL d   1       1.504   0.468   3.707  0.00  0.00     0.078 C 
ENDROOT
BRANCH   1   8
ATOM      8  C1  UNL d   1      -0.840  -1.305   3.016  0.00  0.00     0.053 C 
ATOM      9  C   UNL d   1      -1.582  -2.632   3.027  0.00  0.00     0.018 C 
ENDBRANCH   1   8
TORSDOF 1
ENDMDL
