MODEL 1
REMARK minimizedAffinity 10.3267698
REMARK minimizedRMSD -1
REMARK  1 active torsions:
REMARK  status: ('A' for Active; 'I' for Inactive)
REMARK    1  A    between atoms: C1_2  and  C2_3 
ROOT
ATOM      1  C2  UNL d   1      -3.692   1.009   3.623  0.00  0.00    -0.076 A 
ATOM      2  C3  UNL d   1      -3.945   0.989   2.240  0.00  0.00     0.004 A 
ATOM      3  C4  UNL d   1      -5.090   1.583   1.712  0.00  0.00    -0.003 A 
ATOM      4  C5  UNL d   1      -6.000   2.208   2.558  0.00  0.00     0.000 A 
ATOM      5  C6  UNL d   1      -5.755   2.253   3.930  0.00  0.00     0.000 A 
ATOM      6  C7  UNL d   1      -4.598   1.673   4.477  0.00  0.00    -0.073 A 
ATOM      7  C8  UNL d   1      -4.388   1.746   5.964  0.00  0.00     0.078 C 
ENDROOT
BRANCH   1   8
ATOM      8  C1  UNL d   1      -2.447   0.324   4.141  0.00  0.00     0.053 C 
ATOM      9  C   UNL d   1      -1.711  -0.445   3.055  0.00  0.00     0.018 C 
ENDBRANCH   1   8
TORSDOF 1
ENDMDL
