MODEL 1
REMARK minimizedAffinity 12.2341871
REMARK minimizedRMSD -1
REMARK  1 active torsions:
REMARK  status: ('A' for Active; 'I' for Inactive)
REMARK    1  A    between atoms: C1_2  and  C2_3 
ROOT
ATOM      1  C2  UNL d   1       2.057  -2.571   0.546  0.00  0.00    -0.076 A 
ATOM      2  C3  UNL d   1       0.801  -2.097   0.129  0.00  0.00     0.004 A 
ATOM      3  C4  UNL d   1       0.014  -1.313   0.972  0.00  0.00    -0.003 A 
ATOM      4  C5  UNL d   1       0.471  -0.989   2.245  0.00  0.00     0.000 A 
ATOM      5  C6  UNL d   1       1.722  -1.437   2.668  0.00  0.00     0.000 A 
ATOM      6  C7  UNL d   1       2.535  -2.215   1.826  0.00  0.00    -0.073 A 
ATOM      7  C8  UNL d   1       3.872  -2.675   2.336  0.00  0.00     0.078 C 
ENDROOT
BRANCH   1   8
ATOM      8  C1  UNL d   1       2.853  -3.440  -0.400  0.00  0.00     0.053 C 
ATOM      9  C   UNL d   1       2.400  -4.892  -0.380  0.00  0.00     0.018 C 
ENDBRANCH   1   8
TORSDOF 1
ENDMDL
