MODEL 1
REMARK minimizedAffinity -1.72791719
REMARK minimizedRMSD -1
REMARK  0 active torsions:
REMARK  status: ('A' for Active; 'I' for Inactive)
ROOT
ATOM      1  C   UNL d   1       0.305   1.818   1.670  0.00  0.00     0.020 A 
ATOM      2  C1  UNL d   1      -0.970   1.302   1.441  0.00  0.00     0.020 A 
ATOM      3  C2  UNL d   1      -1.162   0.324   0.463  0.00  0.00     0.034 A 
ATOM      4  C3  UNL d   1      -0.078  -0.142  -0.289  0.00  0.00     0.017 A 
ATOM      5  C4  UNL d   1       1.201   0.376  -0.059  0.00  0.00     0.017 A 
ATOM      6  C5  UNL d   1       1.389   1.355   0.922  0.00  0.00     0.034 A 
ATOM      7 Cl   UNL d   1       2.588  -0.149  -0.947  0.00  0.00    -0.070 Cl
ATOM      8 Cl1  UNL d   1      -0.389  -1.353  -1.482  0.00  0.00    -0.070 Cl
ENDROOT
TORSDOF 0
ENDMDL
