MODEL 1
REMARK minimizedAffinity -2.66549969
REMARK minimizedRMSD -1
REMARK  0 active torsions:
REMARK  status: ('A' for Active; 'I' for Inactive)
ROOT
ATOM      1  C   UNL d   1       1.345   2.224   1.187  0.00  0.00     0.020 A 
ATOM      2  C1  UNL d   1       1.643   1.950  -0.147  0.00  0.00     0.020 A 
ATOM      3  C2  UNL d   1       0.982   0.916  -0.812  0.00  0.00     0.034 A 
ATOM      4  C3  UNL d   1       0.020   0.151  -0.143  0.00  0.00     0.017 A 
ATOM      5  C4  UNL d   1      -0.279   0.427   1.197  0.00  0.00     0.017 A 
ATOM      6  C5  UNL d   1       0.386   1.464   1.858  0.00  0.00     0.034 A 
ATOM      7 Cl   UNL d   1      -1.455  -0.473   2.088  0.00  0.00    -0.070 Cl
ATOM      8 Cl1  UNL d   1      -0.759  -1.113  -1.027  0.00  0.00    -0.070 Cl
ENDROOT
TORSDOF 0
ENDMDL
