MODEL 1
REMARK minimizedAffinity -1.81154037
REMARK minimizedRMSD -1
REMARK  0 active torsions:
REMARK  status: ('A' for Active; 'I' for Inactive)
ROOT
ATOM      1  C   UNL d   1      -0.541   1.686   1.608  0.00  0.00     0.020 A 
ATOM      2  C1  UNL d   1       0.636   2.424   1.493  0.00  0.00     0.020 A 
ATOM      3  C2  UNL d   1       1.662   1.975   0.658  0.00  0.00     0.034 A 
ATOM      4  C3  UNL d   1       1.513   0.785  -0.064  0.00  0.00     0.017 A 
ATOM      5  C4  UNL d   1       0.330   0.046   0.052  0.00  0.00     0.017 A 
ATOM      6  C5  UNL d   1      -0.694   0.500   0.889  0.00  0.00     0.034 A 
ATOM      7 Cl   UNL d   1       0.072  -1.431  -0.808  0.00  0.00    -0.070 Cl
ATOM      8 Cl1  UNL d   1       2.822   0.290  -1.077  0.00  0.00    -0.070 Cl
ENDROOT
TORSDOF 0
ENDMDL
