MODEL 1
REMARK minimizedAffinity -4.14322805
REMARK minimizedRMSD -1
REMARK  0 active torsions:
REMARK  status: ('A' for Active; 'I' for Inactive)
ROOT
ATOM      1  C   UNL d   1      -0.276  -0.988  -0.318  0.00  0.00     0.020 A 
ATOM      2  C1  UNL d   1       0.771  -0.343  -0.975  0.00  0.00     0.020 A 
ATOM      3  C2  UNL d   1       1.182   0.925  -0.558  0.00  0.00     0.034 A 
ATOM      4  C3  UNL d   1       0.546   1.552   0.519  0.00  0.00     0.017 A 
ATOM      5  C4  UNL d   1      -0.505   0.904   1.179  0.00  0.00     0.017 A 
ATOM      6  C5  UNL d   1      -0.913  -0.365   0.757  0.00  0.00     0.034 A 
ATOM      7 Cl   UNL d   1      -1.338   1.614   2.516  0.00  0.00    -0.070 Cl
ATOM      8 Cl1  UNL d   1       1.107   3.120   0.981  0.00  0.00    -0.070 Cl
ENDROOT
TORSDOF 0
ENDMDL
