MODEL 1
REMARK minimizedAffinity -5.45790195
REMARK minimizedRMSD -1
REMARK  0 active torsions:
REMARK  status: ('A' for Active; 'I' for Inactive)
ROOT
ATOM      1  C   UNL d   1      -0.998  -0.380   0.835  0.00  0.00     0.020 A 
ATOM      2  C1  UNL d   1      -0.425  -1.203  -0.133  0.00  0.00     0.020 A 
ATOM      3  C2  UNL d   1       0.795  -0.852  -0.716  0.00  0.00     0.034 A 
ATOM      4  C3  UNL d   1       1.445   0.326  -0.331  0.00  0.00     0.017 A 
ATOM      5  C4  UNL d   1       0.869   1.152   0.641  0.00  0.00     0.017 A 
ATOM      6  C5  UNL d   1      -0.352   0.796   1.221  0.00  0.00     0.034 A 
ATOM      7 Cl   UNL d   1       1.612   2.622   1.167  0.00  0.00    -0.070 Cl
ATOM      8 Cl1  UNL d   1       2.950   0.699  -1.093  0.00  0.00    -0.070 Cl
ENDROOT
TORSDOF 0
ENDMDL
