MODEL 1
REMARK minimizedAffinity -4.00661802
REMARK minimizedRMSD -1
REMARK  0 active torsions:
REMARK  status: ('A' for Active; 'I' for Inactive)
ROOT
ATOM      1  C   UNL d   1       1.264   2.413  -0.094  0.00  0.00     0.020 A 
ATOM      2  C1  UNL d   1       0.783   2.736   1.174  0.00  0.00     0.020 A 
ATOM      3  C2  UNL d   1      -0.129   1.891   1.810  0.00  0.00     0.034 A 
ATOM      4  C3  UNL d   1      -0.564   0.721   1.178  0.00  0.00     0.017 A 
ATOM      5  C4  UNL d   1      -0.081   0.398  -0.095  0.00  0.00     0.017 A 
ATOM      6  C5  UNL d   1       0.833   1.247  -0.727  0.00  0.00     0.034 A 
ATOM      7 Cl   UNL d   1      -0.571  -1.029  -0.938  0.00  0.00    -0.070 Cl
ATOM      8 Cl1  UNL d   1      -1.694  -0.277   2.024  0.00  0.00    -0.070 Cl
ENDROOT
TORSDOF 0
ENDMDL
