MODEL 1
REMARK minimizedAffinity -4.1871314
REMARK minimizedRMSD -1
REMARK  0 active torsions:
REMARK  status: ('A' for Active; 'I' for Inactive)
ROOT
ATOM      1  C   UNL d   1      -0.635   2.167   1.419  0.00  0.00     0.020 A 
ATOM      2  C1  UNL d   1       0.603   2.730   1.108  0.00  0.00     0.020 A 
ATOM      3  C2  UNL d   1       1.551   1.986   0.403  0.00  0.00     0.034 A 
ATOM      4  C3  UNL d   1       1.263   0.675   0.005  0.00  0.00     0.017 A 
ATOM      5  C4  UNL d   1       0.021   0.111   0.317  0.00  0.00     0.017 A 
ATOM      6  C5  UNL d   1      -0.925   0.860   1.024  0.00  0.00     0.034 A 
ATOM      7 Cl   UNL d   1      -0.407  -1.500  -0.140  0.00  0.00    -0.070 Cl
ATOM      8 Cl1  UNL d   1       2.482  -0.186  -0.865  0.00  0.00    -0.070 Cl
ENDROOT
TORSDOF 0
ENDMDL
