MODEL 1
REMARK minimizedAffinity -5.12616062
REMARK minimizedRMSD -1
REMARK  0 active torsions:
REMARK  status: ('A' for Active; 'I' for Inactive)
ROOT
ATOM      1  C   UNL d   1       0.864   2.565   1.102  0.00  0.00     0.020 A 
ATOM      2  C1  UNL d   1       1.345   1.980  -0.068  0.00  0.00     0.020 A 
ATOM      3  C2  UNL d   1       0.746   0.821  -0.567  0.00  0.00     0.034 A 
ATOM      4  C3  UNL d   1      -0.337   0.243   0.106  0.00  0.00     0.017 A 
ATOM      5  C4  UNL d   1      -0.819   0.831   1.281  0.00  0.00     0.017 A 
ATOM      6  C5  UNL d   1      -0.216   1.991   1.776  0.00  0.00     0.034 A 
ATOM      7 Cl   UNL d   1      -2.151   0.175   2.166  0.00  0.00    -0.070 Cl
ATOM      8 Cl1  UNL d   1      -1.028  -1.190  -0.567  0.00  0.00    -0.070 Cl
ENDROOT
TORSDOF 0
ENDMDL
