MODEL 1
REMARK minimizedAffinity -3.18108845
REMARK minimizedRMSD -1
REMARK  0 active torsions:
REMARK  status: ('A' for Active; 'I' for Inactive)
ROOT
ATOM      1  C   UNL d   1      -1.113  -0.334   0.399  0.00  0.00     0.020 A 
ATOM      2  C1  UNL d   1      -0.335  -1.220  -0.346  0.00  0.00     0.020 A 
ATOM      3  C2  UNL d   1       0.983  -0.890  -0.668  0.00  0.00     0.034 A 
ATOM      4  C3  UNL d   1       1.527   0.328  -0.246  0.00  0.00     0.017 A 
ATOM      5  C4  UNL d   1       0.746   1.217   0.500  0.00  0.00     0.017 A 
ATOM      6  C5  UNL d   1      -0.574   0.882   0.821  0.00  0.00     0.034 A 
ATOM      7 Cl   UNL d   1       1.347   2.739   1.056  0.00  0.00    -0.070 Cl
ATOM      8 Cl1  UNL d   1       3.164   0.671  -0.681  0.00  0.00    -0.070 Cl
ENDROOT
TORSDOF 0
ENDMDL
