MODEL 1
REMARK minimizedAffinity -4.51194477
REMARK minimizedRMSD -1
REMARK  0 active torsions:
REMARK  status: ('A' for Active; 'I' for Inactive)
ROOT
ATOM      1  C   UNL d   1       0.240   2.094   1.630  0.00  0.00     0.020 A 
ATOM      2  C1  UNL d   1      -1.038   1.539   1.676  0.00  0.00     0.020 A 
ATOM      3  C2  UNL d   1      -1.334   0.404   0.918  0.00  0.00     0.034 A 
ATOM      4  C3  UNL d   1      -0.351  -0.179   0.111  0.00  0.00     0.017 A 
ATOM      5  C4  UNL d   1       0.932   0.378   0.066  0.00  0.00     0.017 A 
ATOM      6  C5  UNL d   1       1.223   1.514   0.827  0.00  0.00     0.034 A 
ATOM      7 Cl   UNL d   1       2.197  -0.286  -0.907  0.00  0.00    -0.070 Cl
ATOM      8 Cl1  UNL d   1      -0.787  -1.581  -0.800  0.00  0.00    -0.070 Cl
ENDROOT
TORSDOF 0
ENDMDL
