MODEL 1
REMARK minimizedAffinity -2.4710474
REMARK minimizedRMSD -1
REMARK  0 active torsions:
REMARK  status: ('A' for Active; 'I' for Inactive)
ROOT
ATOM      1  C   UNL d   1      -1.190   0.654   1.968  0.00  0.00     0.020 A 
ATOM      2  C1  UNL d   1      -0.956  -0.355   1.034  0.00  0.00     0.020 A 
ATOM      3  C2  UNL d   1       0.133  -0.263   0.165  0.00  0.00     0.034 A 
ATOM      4  C3  UNL d   1       0.992   0.841   0.227  0.00  0.00     0.017 A 
ATOM      5  C4  UNL d   1       0.755   1.853   1.164  0.00  0.00     0.017 A 
ATOM      6  C5  UNL d   1      -0.337   1.756   2.032  0.00  0.00     0.034 A 
ATOM      7 Cl   UNL d   1       1.770   3.246   1.300  0.00  0.00    -0.070 Cl
ATOM      8 Cl1  UNL d   1       2.319   0.890  -0.879  0.00  0.00    -0.070 Cl
ENDROOT
TORSDOF 0
ENDMDL
