MODEL 1
REMARK minimizedAffinity -2.0347898
REMARK minimizedRMSD -1
REMARK  0 active torsions:
REMARK  status: ('A' for Active; 'I' for Inactive)
ROOT
ATOM      1  C   UNL d   1      -0.846  -1.247  -0.633  0.00  0.00     0.020 A 
ATOM      2  C1  UNL d   1      -1.451  -0.373   0.269  0.00  0.00     0.020 A 
ATOM      3  C2  UNL d   1      -0.692   0.613   0.902  0.00  0.00     0.034 A 
ATOM      4  C3  UNL d   1       0.677   0.728   0.634  0.00  0.00     0.017 A 
ATOM      5  C4  UNL d   1       1.284  -0.150  -0.271  0.00  0.00     0.017 A 
ATOM      6  C5  UNL d   1       0.519  -1.135  -0.902  0.00  0.00     0.034 A 
ATOM      7 Cl   UNL d   1       2.967  -0.070  -0.653  0.00  0.00    -0.070 Cl
ATOM      8 Cl1  UNL d   1       1.554   1.972   1.453  0.00  0.00    -0.070 Cl
ENDROOT
TORSDOF 0
ENDMDL
