MODEL 1
REMARK minimizedAffinity -4.80141354
REMARK minimizedRMSD -1
REMARK  0 active torsions:
REMARK  status: ('A' for Active; 'I' for Inactive)
ROOT
ATOM      1  C   UNL d   1      -0.054   2.379   1.729  0.00  0.00     0.020 A 
ATOM      2  C1  UNL d   1      -1.206   1.598   1.807  0.00  0.00     0.020 A 
ATOM      3  C2  UNL d   1      -1.333   0.460   1.007  0.00  0.00     0.034 A 
ATOM      4  C3  UNL d   1      -0.306   0.101   0.126  0.00  0.00     0.017 A 
ATOM      5  C4  UNL d   1       0.850   0.886   0.049  0.00  0.00     0.017 A 
ATOM      6  C5  UNL d   1       0.972   2.024   0.852  0.00  0.00     0.034 A 
ATOM      7 Cl   UNL d   1       2.159   0.506  -1.013  0.00  0.00    -0.070 Cl
ATOM      8 Cl1  UNL d   1      -0.530  -1.319  -0.833  0.00  0.00    -0.070 Cl
ENDROOT
TORSDOF 0
ENDMDL
