MODEL 1
REMARK minimizedAffinity -6.2130208
REMARK minimizedRMSD -1
REMARK  0 active torsions:
REMARK  status: ('A' for Active; 'I' for Inactive)
ROOT
ATOM      1  C   UNL d   1       3.055   2.168   0.594  0.00  0.00     0.020 A 
ATOM      2  C1  UNL d   1       2.260   3.037   1.341  0.00  0.00     0.020 A 
ATOM      3  C2  UNL d   1       0.919   2.727   1.578  0.00  0.00     0.034 A 
ATOM      4  C3  UNL d   1       0.369   1.545   1.068  0.00  0.00     0.017 A 
ATOM      5  C4  UNL d   1       1.168   0.673   0.319  0.00  0.00     0.017 A 
ATOM      6  C5  UNL d   1       2.510   0.989   0.084  0.00  0.00     0.034 A 
ATOM      7 Cl   UNL d   1       0.560  -0.803  -0.343  0.00  0.00    -0.070 Cl
ATOM      8 Cl1  UNL d   1      -1.296   1.225   1.400  0.00  0.00    -0.070 Cl
ENDROOT
TORSDOF 0
ENDMDL
