MODEL 1
REMARK minimizedAffinity -5.04744291
REMARK minimizedRMSD -1
REMARK  0 active torsions:
REMARK  status: ('A' for Active; 'I' for Inactive)
ROOT
ATOM      1  C   UNL d   1       2.129   1.556   0.148  0.00  0.00     0.020 A 
ATOM      2  C1  UNL d   1       1.615   2.226   1.258  0.00  0.00     0.020 A 
ATOM      3  C2  UNL d   1       0.341   1.910   1.736  0.00  0.00     0.034 A 
ATOM      4  C3  UNL d   1      -0.423   0.922   1.104  0.00  0.00     0.017 A 
ATOM      5  C4  UNL d   1       0.094   0.251  -0.010  0.00  0.00     0.017 A 
ATOM      6  C5  UNL d   1       1.370   0.571  -0.484  0.00  0.00     0.034 A 
ATOM      7 Cl   UNL d   1      -0.788  -0.980  -0.843  0.00  0.00    -0.070 Cl
ATOM      8 Cl1  UNL d   1      -1.989   0.582   1.748  0.00  0.00    -0.070 Cl
ENDROOT
TORSDOF 0
ENDMDL
