MODEL 1
REMARK minimizedAffinity -5.52185106
REMARK minimizedRMSD -1
REMARK  3 active torsions:
REMARK  status: ('A' for Active; 'I' for Inactive)
REMARK    1  A    between atoms: C3'_2  and  C2'_3 
REMARK    2  A    between atoms: C2'_3  and  C1'_4 
REMARK    3  A    between atoms: C1'_4  and  C1_5 
ROOT
ATOM      1  C1  N4B d   1      -0.054  -0.471   0.328  0.00  0.00    -0.075 A 
ATOM      2  C2  N4B d   1      -1.400  -0.363  -0.085  0.00  0.00     0.002 A 
ATOM      3  C3  N4B d   1      -2.013   0.866  -0.112  0.00  0.00     0.002 A 
ATOM      4  C4  N4B d   1      -1.309   1.993   0.285  0.00  0.00    -0.004 A 
ATOM      5  C5  N4B d   1      -0.001   1.883   0.658  0.00  0.00     0.002 A 
ATOM      6  C6  N4B d   1       0.629   0.655   0.686  0.00  0.00     0.002 A 
ENDROOT
BRANCH   1   7
ATOM      7  C1' N4B d   1       0.633  -1.803   0.456  0.00  0.00     0.057 C 
BRANCH   7   8
ATOM      8  C2' N4B d   1      -0.249  -2.883  -0.164  0.00  0.00     0.009 C 
BRANCH   8   9
ATOM      9  C3' N4B d   1       0.234  -3.287  -1.546  0.00  0.00     0.004 C 
ATOM     10  C4' N4B d   1      -0.763  -2.980  -2.623  0.00  0.00     0.003 C 
ENDBRANCH   8   9
ENDBRANCH   7   8
ENDBRANCH   1   7
TORSDOF 3
ENDMDL
