MODEL 1
REMARK minimizedAffinity -5.39100122
REMARK minimizedRMSD -1
REMARK  3 active torsions:
REMARK  status: ('A' for Active; 'I' for Inactive)
REMARK    1  A    between atoms: C3'_2  and  C2'_3 
REMARK    2  A    between atoms: C2'_3  and  C1'_4 
REMARK    3  A    between atoms: C1'_4  and  C1_5 
ROOT
ATOM      1  C1  N4B d   1      -0.139   1.413   0.258  0.00  0.00    -0.075 A 
ATOM      2  C2  N4B d   1       1.185   1.321  -0.225  0.00  0.00     0.002 A 
ATOM      3  C3  N4B d   1       2.047   2.379  -0.069  0.00  0.00     0.002 A 
ATOM      4  C4  N4B d   1       1.605   3.540   0.546  0.00  0.00    -0.004 A 
ATOM      5  C5  N4B d   1       0.332   3.611   1.033  0.00  0.00     0.002 A 
ATOM      6  C6  N4B d   1      -0.544   2.555   0.887  0.00  0.00     0.002 A 
ENDROOT
BRANCH   1   7
ATOM      7  C1' N4B d   1      -1.144   0.316   0.036  0.00  0.00     0.057 C 
BRANCH   7   8
ATOM      8  C2' N4B d   1      -0.447  -1.035   0.168  0.00  0.00     0.009 C 
BRANCH   8   9
ATOM      9  C3' N4B d   1      -0.788  -1.965  -0.984  0.00  0.00     0.004 C 
ATOM     10  C4' N4B d   1      -0.783  -3.410  -0.585  0.00  0.00     0.003 C 
ENDBRANCH   8   9
ENDBRANCH   7   8
ENDBRANCH   1   7
TORSDOF 3
ENDMDL
