MODEL 1
REMARK minimizedAffinity -5.00623417
REMARK minimizedRMSD -1
REMARK  3 active torsions:
REMARK  status: ('A' for Active; 'I' for Inactive)
REMARK    1  A    between atoms: C3'_2  and  C2'_3 
REMARK    2  A    between atoms: C2'_3  and  C1'_4 
REMARK    3  A    between atoms: C1'_4  and  C1_5 
ROOT
ATOM      1  C1  N4B d   1       0.520   0.945  -0.290  0.00  0.00    -0.075 A 
ATOM      2  C2  N4B d   1       1.776   1.222   0.294  0.00  0.00     0.002 A 
ATOM      3  C3  N4B d   1       2.107   2.511   0.631  0.00  0.00     0.002 A 
ATOM      4  C4  N4B d   1       1.210   3.538   0.379  0.00  0.00    -0.004 A 
ATOM      5  C5  N4B d   1      -0.011   3.259  -0.161  0.00  0.00     0.002 A 
ATOM      6  C6  N4B d   1      -0.359   1.968  -0.502  0.00  0.00     0.002 A 
ENDROOT
BRANCH   1   7
ATOM      7  C1' N4B d   1       0.148  -0.436  -0.755  0.00  0.00     0.057 C 
BRANCH   7   8
ATOM      8  C2' N4B d   1       0.358  -1.423   0.389  0.00  0.00     0.009 C 
BRANCH   8   9
ATOM      9  C3' N4B d   1      -0.165  -2.808   0.048  0.00  0.00     0.004 C 
ATOM     10  C4' N4B d   1      -0.227  -3.058  -1.429  0.00  0.00     0.003 C 
ENDBRANCH   8   9
ENDBRANCH   7   8
ENDBRANCH   1   7
TORSDOF 3
ENDMDL
