MODEL 1
REMARK minimizedAffinity -5.50127983
REMARK minimizedRMSD -1
REMARK  3 active torsions:
REMARK  status: ('A' for Active; 'I' for Inactive)
REMARK    1  A    between atoms: C3'_2  and  C2'_3 
REMARK    2  A    between atoms: C2'_3  and  C1'_4 
REMARK    3  A    between atoms: C1'_4  and  C1_5 
ROOT
ATOM      1  C1  N4B d   1       0.601  -0.246   0.167  0.00  0.00    -0.075 A 
ATOM      2  C2  N4B d   1       1.563   0.773  -0.007  0.00  0.00     0.002 A 
ATOM      3  C3  N4B d   1       1.194   2.091   0.102  0.00  0.00     0.002 A 
ATOM      4  C4  N4B d   1      -0.129   2.414   0.365  0.00  0.00    -0.004 A 
ATOM      5  C5  N4B d   1      -1.047   1.423   0.557  0.00  0.00     0.002 A 
ATOM      6  C6  N4B d   1      -0.690   0.094   0.454  0.00  0.00     0.002 A 
ENDROOT
BRANCH   1   7
ATOM      7  C1' N4B d   1       0.939  -1.699  -0.028  0.00  0.00     0.057 C 
BRANCH   7   8
ATOM      8  C2' N4B d   1      -0.263  -2.415  -0.638  0.00  0.00     0.009 C 
BRANCH   8   9
ATOM      9  C3' N4B d   1       0.112  -3.189  -1.890  0.00  0.00     0.004 C 
ATOM     10  C4' N4B d   1      -1.060  -3.441  -2.790  0.00  0.00     0.003 C 
ENDBRANCH   8   9
ENDBRANCH   7   8
ENDBRANCH   1   7
TORSDOF 3
ENDMDL
