MODEL 1
REMARK minimizedAffinity 2.64369488
REMARK minimizedRMSD -1
REMARK  3 active torsions:
REMARK  status: ('A' for Active; 'I' for Inactive)
REMARK    1  A    between atoms: C3'_2  and  C2'_3 
REMARK    2  A    between atoms: C2'_3  and  C1'_4 
REMARK    3  A    between atoms: C1'_4  and  C1_5 
ROOT
ATOM      1  C1  N4B d   1       0.082  -0.567  -0.179  0.00  0.00    -0.075 A 
ATOM      2  C2  N4B d   1       1.310  -0.152   0.381  0.00  0.00     0.002 A 
ATOM      3  C3  N4B d   1       1.365   0.985   1.149  0.00  0.00     0.002 A 
ATOM      4  C4  N4B d   1       0.214   1.731   1.353  0.00  0.00    -0.004 A 
ATOM      5  C5  N4B d   1      -0.973   1.309   0.830  0.00  0.00     0.002 A 
ATOM      6  C6  N4B d   1      -1.044   0.166   0.060  0.00  0.00     0.002 A 
ENDROOT
BRANCH   1   7
ATOM      7  C1' N4B d   1      -0.011  -1.756  -1.096  0.00  0.00     0.057 C 
BRANCH   7   8
ATOM      8  C2' N4B d   1      -1.081  -2.710  -0.572  0.00  0.00     0.009 C 
BRANCH   8   9
ATOM      9  C3' N4B d   1      -1.892  -3.328  -1.698  0.00  0.00     0.004 C 
ATOM     10  C4' N4B d   1      -1.064  -3.633  -2.911  0.00  0.00     0.003 C 
ENDBRANCH   8   9
ENDBRANCH   7   8
ENDBRANCH   1   7
TORSDOF 3
ENDMDL
