MODEL 1
REMARK minimizedAffinity -5.76959133
REMARK minimizedRMSD -1
REMARK  3 active torsions:
REMARK  status: ('A' for Active; 'I' for Inactive)
REMARK    1  A    between atoms: C3'_2  and  C2'_3 
REMARK    2  A    between atoms: C2'_3  and  C1'_4 
REMARK    3  A    between atoms: C1'_4  and  C1_5 
ROOT
ATOM      1  C1  N4B d   1       0.232   0.218   0.308  0.00  0.00    -0.075 A 
ATOM      2  C2  N4B d   1       1.586   0.617   0.326  0.00  0.00     0.002 A 
ATOM      3  C3  N4B d   1       1.909   1.952   0.316  0.00  0.00     0.002 A 
ATOM      4  C4  N4B d   1       0.899   2.901   0.269  0.00  0.00    -0.004 A 
ATOM      5  C5  N4B d   1      -0.407   2.508   0.278  0.00  0.00     0.002 A 
ATOM      6  C6  N4B d   1      -0.746   1.170   0.292  0.00  0.00     0.002 A 
ENDROOT
BRANCH   1   7
ATOM      7  C1' N4B d   1      -0.169  -1.230   0.232  0.00  0.00     0.057 C 
BRANCH   7   8
ATOM      8  C2' N4B d   1      -0.099  -1.693  -1.220  0.00  0.00     0.009 C 
BRANCH   8   9
ATOM      9  C3' N4B d   1      -0.794  -3.028  -1.425  0.00  0.00     0.004 C 
ATOM     10  C4' N4B d   1      -0.587  -3.585  -2.802  0.00  0.00     0.003 C 
ENDBRANCH   8   9
ENDBRANCH   7   8
ENDBRANCH   1   7
TORSDOF 3
ENDMDL
