MODEL 1
REMARK minimizedAffinity -4.23910809
REMARK minimizedRMSD -1
REMARK  3 active torsions:
REMARK  status: ('A' for Active; 'I' for Inactive)
REMARK    1  A    between atoms: C3'_2  and  C2'_3 
REMARK    2  A    between atoms: C2'_3  and  C1'_4 
REMARK    3  A    between atoms: C1'_4  and  C1_5 
ROOT
ATOM      1  C1  N4B d   1      -0.513  -1.984  -1.239  0.00  0.00    -0.075 A 
ATOM      2  C2  N4B d   1       0.370  -2.993  -1.682  0.00  0.00     0.002 A 
ATOM      3  C3  N4B d   1      -0.124  -4.115  -2.301  0.00  0.00     0.002 A 
ATOM      4  C4  N4B d   1      -1.493  -4.259  -2.469  0.00  0.00    -0.004 A 
ATOM      5  C5  N4B d   1      -2.337  -3.269  -2.061  0.00  0.00     0.002 A 
ATOM      6  C6  N4B d   1      -1.855  -2.134  -1.441  0.00  0.00     0.002 A 
ENDROOT
BRANCH   1   7
ATOM      7  C1' N4B d   1      -0.027  -0.780  -0.480  0.00  0.00     0.057 C 
BRANCH   7   8
ATOM      8  C2' N4B d   1      -1.174   0.216  -0.333  0.00  0.00     0.009 C 
BRANCH   8   9
ATOM      9  C3' N4B d   1      -1.176   0.881   1.033  0.00  0.00     0.004 C 
ATOM     10  C4' N4B d   1      -0.525   2.232   1.022  0.00  0.00     0.003 C 
ENDBRANCH   8   9
ENDBRANCH   7   8
ENDBRANCH   1   7
TORSDOF 3
ENDMDL
