MODEL 1
REMARK minimizedAffinity -4.55394506
REMARK minimizedRMSD -1
REMARK  3 active torsions:
REMARK  status: ('A' for Active; 'I' for Inactive)
REMARK    1  A    between atoms: C3'_2  and  C2'_3 
REMARK    2  A    between atoms: C2'_3  and  C1'_4 
REMARK    3  A    between atoms: C1'_4  and  C1_5 
ROOT
ATOM      1  C1  N4B d   1      -0.094  -0.171   0.194  0.00  0.00    -0.075 A 
ATOM      2  C2  N4B d   1      -1.195   0.482   0.791  0.00  0.00     0.002 A 
ATOM      3  C3  N4B d   1      -1.213   1.852   0.883  0.00  0.00     0.002 A 
ATOM      4  C4  N4B d   1      -0.137   2.586   0.405  0.00  0.00    -0.004 A 
ATOM      5  C5  N4B d   1       0.911   1.949  -0.193  0.00  0.00     0.002 A 
ATOM      6  C6  N4B d   1       0.940   0.573  -0.296  0.00  0.00     0.002 A 
ENDROOT
BRANCH   1   7
ATOM      7  C1' N4B d   1       0.010  -1.671   0.148  0.00  0.00     0.057 C 
BRANCH   7   8
ATOM      8  C2' N4B d   1      -0.288  -2.150  -1.270  0.00  0.00     0.009 C 
BRANCH   8   9
ATOM      9  C3' N4B d   1      -0.836  -3.567  -1.288  0.00  0.00     0.004 C 
ATOM     10  C4' N4B d   1      -1.905  -3.763  -2.321  0.00  0.00     0.003 C 
ENDBRANCH   8   9
ENDBRANCH   7   8
ENDBRANCH   1   7
TORSDOF 3
ENDMDL
