MODEL 1
REMARK minimizedAffinity -4.61526775
REMARK minimizedRMSD -1
REMARK  3 active torsions:
REMARK  status: ('A' for Active; 'I' for Inactive)
REMARK    1  A    between atoms: C3'_2  and  C2'_3 
REMARK    2  A    between atoms: C2'_3  and  C1'_4 
REMARK    3  A    between atoms: C1'_4  and  C1_5 
ROOT
ATOM      1  C1  N4B d   1      -0.095  -0.446   0.597  0.00  0.00    -0.075 A 
ATOM      2  C2  N4B d   1       1.270  -0.124   0.766  0.00  0.00     0.002 A 
ATOM      3  C3  N4B d   1       1.652   1.185   0.925  0.00  0.00     0.002 A 
ATOM      4  C4  N4B d   1       0.693   2.187   0.899  0.00  0.00    -0.004 A 
ATOM      5  C5  N4B d   1      -0.626   1.865   0.761  0.00  0.00     0.002 A 
ATOM      6  C6  N4B d   1      -1.024   0.553   0.604  0.00  0.00     0.002 A 
ENDROOT
BRANCH   1   7
ATOM      7  C1' N4B d   1      -0.551  -1.855   0.334  0.00  0.00     0.057 C 
BRANCH   7   8
ATOM      8  C2' N4B d   1      -0.406  -2.159  -1.155  0.00  0.00     0.009 C 
BRANCH   8   9
ATOM      9  C3' N4B d   1      -1.185  -3.399  -1.560  0.00  0.00     0.004 C 
ATOM     10  C4' N4B d   1      -0.816  -3.895  -2.926  0.00  0.00     0.003 C 
ENDBRANCH   8   9
ENDBRANCH   7   8
ENDBRANCH   1   7
TORSDOF 3
ENDMDL
