MODEL 1
REMARK minimizedAffinity 13.0318022
REMARK minimizedRMSD -1
REMARK  0 active torsions:
REMARK  status: ('A' for Active; 'I' for Inactive)
ROOT
ATOM      1  C2' OXE d   1       2.081  -1.505   1.287  0.00  0.00     0.078 C 
ATOM      2  C1' OXE d   1       3.908   0.334   0.209  0.00  0.00     0.078 C 
ATOM      3  C1  OXE d   1       3.173   0.727   1.467  0.00  0.00    -0.078 A 
ATOM      4  C2  OXE d   1       2.247  -0.160   1.961  0.00  0.00    -0.078 A 
ATOM      5  C3  OXE d   1       1.581   0.129   3.148  0.00  0.00     0.003 A 
ATOM      6  C4  OXE d   1       1.733   1.379   3.760  0.00  0.00    -0.002 A 
ATOM      7  C5  OXE d   1       2.642   2.313   3.251  0.00  0.00    -0.002 A 
ATOM      8  C6  OXE d   1       3.400   1.986   2.132  0.00  0.00     0.003 A 
ENDROOT
TORSDOF 0
ENDMDL
