MODEL 1
REMARK minimizedAffinity 8.20649719
REMARK minimizedRMSD -1
REMARK  0 active torsions:
REMARK  status: ('A' for Active; 'I' for Inactive)
ROOT
ATOM      1  C2' OXE d   1       1.898  -5.930  -3.251  0.00  0.00     0.078 C 
ATOM      2  C1' OXE d   1      -0.311  -5.994  -1.520  0.00  0.00     0.078 C 
ATOM      3  C1  OXE d   1       1.066  -5.972  -0.903  0.00  0.00    -0.078 A 
ATOM      4  C2  OXE d   1       2.142  -5.987  -1.758  0.00  0.00    -0.078 A 
ATOM      5  C3  OXE d   1       3.433  -5.912  -1.243  0.00  0.00     0.003 A 
ATOM      6  C4  OXE d   1       3.649  -5.975   0.139  0.00  0.00    -0.002 A 
ATOM      7  C5  OXE d   1       2.568  -6.000   1.026  0.00  0.00    -0.002 A 
ATOM      8  C6  OXE d   1       1.273  -5.955   0.524  0.00  0.00     0.003 A 
ENDROOT
TORSDOF 0
ENDMDL
