MODEL 1
REMARK minimizedAffinity 2.46393156
REMARK minimizedRMSD -1
REMARK  0 active torsions:
REMARK  status: ('A' for Active; 'I' for Inactive)
ROOT
ATOM      1  C2' OXE d   1       1.771   1.573   3.664  0.00  0.00     0.078 C 
ATOM      2  C1' OXE d   1       0.778   2.391   1.170  0.00  0.00     0.078 C 
ATOM      3  C1  OXE d   1       1.894   1.377   1.184  0.00  0.00    -0.078 A 
ATOM      4  C2  OXE d   1       2.406   1.017   2.407  0.00  0.00    -0.078 A 
ATOM      5  C3  OXE d   1       3.399   0.045   2.480  0.00  0.00     0.003 A 
ATOM      6  C4  OXE d   1       3.987  -0.457   1.313  0.00  0.00    -0.002 A 
ATOM      7  C5  OXE d   1       3.508  -0.073   0.056  0.00  0.00    -0.002 A 
ATOM      8  C6  OXE d   1       2.436   0.808  -0.025  0.00  0.00     0.003 A 
ENDROOT
TORSDOF 0
ENDMDL
