MODEL 1
REMARK minimizedAffinity 11.7698965
REMARK minimizedRMSD -1
REMARK  0 active torsions:
REMARK  status: ('A' for Active; 'I' for Inactive)
ROOT
ATOM      1  C2' OXE d   1      -2.235  -0.701  -3.739  0.00  0.00     0.078 C 
ATOM      2  C1' OXE d   1      -3.246   1.912  -3.919  0.00  0.00     0.078 C 
ATOM      3  C1  OXE d   1      -2.721   1.451  -2.582  0.00  0.00    -0.078 A 
ATOM      4  C2  OXE d   1      -2.271   0.156  -2.492  0.00  0.00    -0.078 A 
ATOM      5  C3  OXE d   1      -1.726  -0.303  -1.296  0.00  0.00     0.003 A 
ATOM      6  C4  OXE d   1      -1.773   0.492  -0.145  0.00  0.00    -0.002 A 
ATOM      7  C5  OXE d   1      -2.263   1.800  -0.205  0.00  0.00    -0.002 A 
ATOM      8  C6  OXE d   1      -2.701   2.309  -1.423  0.00  0.00     0.003 A 
ENDROOT
TORSDOF 0
ENDMDL
