MODEL 1
REMARK minimizedAffinity 0.0653983057
REMARK minimizedRMSD -1
REMARK  0 active torsions:
REMARK  status: ('A' for Active; 'I' for Inactive)
ROOT
ATOM      1  C2' OXE d   1       3.293  -5.974  -1.521  0.00  0.00     0.078 C 
ATOM      2  C1' OXE d   1       0.834  -5.997  -2.876  0.00  0.00     0.078 C 
ATOM      3  C1  OXE d   1       2.094  -5.979  -3.705  0.00  0.00    -0.078 A 
ATOM      4  C2  OXE d   1       3.292  -5.921  -3.034  0.00  0.00    -0.078 A 
ATOM      5  C3  OXE d   1       4.485  -5.957  -3.749  0.00  0.00     0.003 A 
ATOM      6  C4  OXE d   1       4.475  -5.898  -5.148  0.00  0.00    -0.002 A 
ATOM      7  C5  OXE d   1       3.266  -5.916  -5.851  0.00  0.00    -0.002 A 
ATOM      8  C6  OXE d   1       2.070  -6.000  -5.147  0.00  0.00     0.003 A 
ENDROOT
TORSDOF 0
ENDMDL
