MODEL 1
REMARK minimizedAffinity 3.51640248
REMARK minimizedRMSD -1
REMARK  0 active torsions:
REMARK  status: ('A' for Active; 'I' for Inactive)
ROOT
ATOM      1  C2' OXE d   1       6.000  -2.222   2.999  0.00  0.00     0.078 C 
ATOM      2  C1' OXE d   1       3.342  -2.670   3.782  0.00  0.00     0.078 C 
ATOM      3  C1  OXE d   1       4.022  -3.736   2.959  0.00  0.00    -0.078 A 
ATOM      4  C2  OXE d   1       5.307  -3.487   2.541  0.00  0.00    -0.078 A 
ATOM      5  C3  OXE d   1       6.000  -4.460   1.826  0.00  0.00     0.003 A 
ATOM      6  C4  OXE d   1       5.349  -5.624   1.399  0.00  0.00    -0.002 A 
ATOM      7  C5  OXE d   1       4.027  -5.879   1.780  0.00  0.00    -0.002 A 
ATOM      8  C6  OXE d   1       3.365  -4.966   2.594  0.00  0.00     0.003 A 
ENDROOT
TORSDOF 0
ENDMDL
