MODEL 1
REMARK minimizedAffinity 12.9863186
REMARK minimizedRMSD -1
REMARK  0 active torsions:
REMARK  status: ('A' for Active; 'I' for Inactive)
ROOT
ATOM      1  C2' OXE d   1      -2.904  -1.019  -3.164  0.00  0.00     0.078 C 
ATOM      2  C1' OXE d   1      -3.803   1.458  -4.133  0.00  0.00     0.078 C 
ATOM      3  C1  OXE d   1      -3.138   1.431  -2.780  0.00  0.00    -0.078 A 
ATOM      4  C2  OXE d   1      -2.743   0.208  -2.293  0.00  0.00    -0.078 A 
ATOM      5  C3  OXE d   1      -2.075   0.135  -1.074  0.00  0.00     0.003 A 
ATOM      6  C4  OXE d   1      -1.940   1.273  -0.270  0.00  0.00    -0.002 A 
ATOM      7  C5  OXE d   1      -2.371   2.522  -0.730  0.00  0.00    -0.002 A 
ATOM      8  C6  OXE d   1      -2.933   2.625  -1.997  0.00  0.00     0.003 A 
ENDROOT
TORSDOF 0
ENDMDL
