MODEL 1
REMARK minimizedAffinity 5.9612484
REMARK minimizedRMSD -1
REMARK  0 active torsions:
REMARK  status: ('A' for Active; 'I' for Inactive)
ROOT
ATOM      1  C2' OXE d   1       2.674   2.202   1.747  0.00  0.00     0.078 C 
ATOM      2  C1' OXE d   1       1.873   2.573   4.412  0.00  0.00     0.078 C 
ATOM      3  C1  OXE d   1       1.919   1.162   3.881  0.00  0.00    -0.078 A 
ATOM      4  C2  OXE d   1       2.267   0.994   2.562  0.00  0.00    -0.078 A 
ATOM      5  C3  OXE d   1       2.378  -0.291   2.037  0.00  0.00     0.003 A 
ATOM      6  C4  OXE d   1       1.990  -1.402   2.795  0.00  0.00    -0.002 A 
ATOM      7  C5  OXE d   1       1.594  -1.250   4.128  0.00  0.00    -0.002 A 
ATOM      8  C6  OXE d   1       1.594   0.019   4.698  0.00  0.00     0.003 A 
ENDROOT
TORSDOF 0
ENDMDL
