MODEL 1
REMARK minimizedAffinity -3.99191213
REMARK minimizedRMSD -1
REMARK  0 active torsions:
REMARK  status: ('A' for Active; 'I' for Inactive)
ROOT
ATOM      1  C2' OXE d   1       1.819  -5.859  -5.435  0.00  0.00     0.078 C 
ATOM      2  C1' OXE d   1       4.620  -5.750  -5.279  0.00  0.00     0.078 C 
ATOM      3  C1  OXE d   1       3.847  -5.847  -3.988  0.00  0.00    -0.078 A 
ATOM      4  C2  OXE d   1       2.475  -5.853  -4.071  0.00  0.00    -0.078 A 
ATOM      5  C3  OXE d   1       1.715  -5.996  -2.914  0.00  0.00     0.003 A 
ATOM      6  C4  OXE d   1       2.329  -5.980  -1.656  0.00  0.00    -0.002 A 
ATOM      7  C5  OXE d   1       3.723  -5.935  -1.546  0.00  0.00    -0.002 A 
ATOM      8  C6  OXE d   1       4.496  -5.911  -2.702  0.00  0.00     0.003 A 
ENDROOT
TORSDOF 0
ENDMDL
