MODEL 1
REMARK minimizedAffinity 4.02378702
REMARK minimizedRMSD -1
REMARK  0 active torsions:
REMARK  status: ('A' for Active; 'I' for Inactive)
ROOT
ATOM      1  C2' OXE d   1       2.249  -5.970   1.821  0.00  0.00     0.078 C 
ATOM      2  C1' OXE d   1       0.272  -5.949  -0.171  0.00  0.00     0.078 C 
ATOM      3  C1  OXE d   1       1.714  -5.967  -0.612  0.00  0.00    -0.078 A 
ATOM      4  C2  OXE d   1       2.675  -5.930   0.369  0.00  0.00    -0.078 A 
ATOM      5  C3  OXE d   1       4.021  -6.000   0.019  0.00  0.00     0.003 A 
ATOM      6  C4  OXE d   1       4.407  -5.952  -1.326  0.00  0.00    -0.002 A 
ATOM      7  C5  OXE d   1       3.444  -5.950  -2.341  0.00  0.00    -0.002 A 
ATOM      8  C6  OXE d   1       2.096  -6.000  -2.002  0.00  0.00     0.003 A 
ENDROOT
TORSDOF 0
ENDMDL
