MODEL 1
REMARK minimizedAffinity 4.1632762
REMARK minimizedRMSD -1
REMARK  0 active torsions:
REMARK  status: ('A' for Active; 'I' for Inactive)
ROOT
ATOM      1  C2' OXE d   1       1.421  -2.550   5.340  0.00  0.00     0.078 C 
ATOM      2  C1' OXE d   1       2.684  -4.098   3.368  0.00  0.00     0.078 C 
ATOM      3  C1  OXE d   1       2.436  -2.641   3.066  0.00  0.00    -0.078 A 
ATOM      4  C2  OXE d   1       1.775  -1.902   4.018  0.00  0.00    -0.078 A 
ATOM      5  C3  OXE d   1       1.569  -0.541   3.813  0.00  0.00     0.003 A 
ATOM      6  C4  OXE d   1       1.891   0.048   2.584  0.00  0.00    -0.002 A 
ATOM      7  C5  OXE d   1       2.528  -0.696   1.586  0.00  0.00    -0.002 A 
ATOM      8  C6  OXE d   1       2.846  -2.029   1.827  0.00  0.00     0.003 A 
ENDROOT
TORSDOF 0
ENDMDL
