MODEL 1
REMARK minimizedAffinity 9.47493649
REMARK minimizedRMSD -1
REMARK  0 active torsions:
REMARK  status: ('A' for Active; 'I' for Inactive)
ROOT
ATOM      1  C2' OXE d   1       1.571   0.096   4.339  0.00  0.00     0.078 C 
ATOM      2  C1' OXE d   1       2.869   0.922   1.991  0.00  0.00     0.078 C 
ATOM      3  C1  OXE d   1       2.127  -0.391   1.961  0.00  0.00    -0.078 A 
ATOM      4  C2  OXE d   1       1.535  -0.810   3.127  0.00  0.00    -0.078 A 
ATOM      5  C3  OXE d   1       0.792  -1.987   3.140  0.00  0.00     0.003 A 
ATOM      6  C4  OXE d   1       0.772  -2.824   2.018  0.00  0.00    -0.002 A 
ATOM      7  C5  OXE d   1       1.402  -2.436   0.831  0.00  0.00    -0.002 A 
ATOM      8  C6  OXE d   1       2.047  -1.205   0.773  0.00  0.00     0.003 A 
ENDROOT
TORSDOF 0
ENDMDL
