MODEL 1
REMARK minimizedAffinity 5.39474487
REMARK minimizedRMSD -1
REMARK  0 active torsions:
REMARK  status: ('A' for Active; 'I' for Inactive)
ROOT
ATOM      1  C2' OXE d   1       2.637  -0.406   2.867  0.00  0.00     0.078 C 
ATOM      2  C1' OXE d   1       4.640  -2.081   3.897  0.00  0.00     0.078 C 
ATOM      3  C1  OXE d   1       3.207  -2.416   4.223  0.00  0.00    -0.078 A 
ATOM      4  C2  OXE d   1       2.236  -1.565   3.754  0.00  0.00    -0.078 A 
ATOM      5  C3  OXE d   1       0.894  -1.858   3.980  0.00  0.00     0.003 A 
ATOM      6  C4  OXE d   1       0.532  -2.926   4.810  0.00  0.00    -0.002 A 
ATOM      7  C5  OXE d   1       1.507  -3.783   5.331  0.00  0.00    -0.002 A 
ATOM      8  C6  OXE d   1       2.844  -3.567   5.013  0.00  0.00     0.003 A 
ENDROOT
TORSDOF 0
ENDMDL
