MODEL 1
REMARK minimizedAffinity -2.61017227
REMARK minimizedRMSD -1
REMARK  0 active torsions:
REMARK  status: ('A' for Active; 'I' for Inactive)
ROOT
ATOM      1  C1  BNZ d   1       0.787  -0.130  -1.589  0.00  0.00     0.000 A 
ATOM      2  C2  BNZ d   1       0.434  -1.277  -0.929  0.00  0.00     0.000 A 
ATOM      3  C3  BNZ d   1      -0.380  -1.231   0.168  0.00  0.00     0.000 A 
ATOM      4  C4  BNZ d   1      -0.807  -0.038   0.628  0.00  0.00     0.000 A 
ATOM      5  C5  BNZ d   1      -0.451   1.129  -0.021  0.00  0.00     0.000 A 
ATOM      6  C6  BNZ d   1       0.336   1.076  -1.148  0.00  0.00     0.000 A 
ENDROOT
TORSDOF 0
ENDMDL
