MODEL 1
REMARK minimizedAffinity -3.3452909
REMARK minimizedRMSD -1
REMARK  0 active torsions:
REMARK  status: ('A' for Active; 'I' for Inactive)
ROOT
ATOM      1  C1  BNZ d   1       4.804   5.694  -2.137  0.00  0.00     0.000 A 
ATOM      2  C2  BNZ d   1       3.630   5.814  -2.832  0.00  0.00     0.000 A 
ATOM      3  C3  BNZ d   1       3.632   5.944  -4.192  0.00  0.00     0.000 A 
ATOM      4  C4  BNZ d   1       4.807   5.995  -4.852  0.00  0.00     0.000 A 
ATOM      5  C5  BNZ d   1       6.000   5.885  -4.164  0.00  0.00     0.000 A 
ATOM      6  C6  BNZ d   1       5.992   5.714  -2.799  0.00  0.00     0.000 A 
ENDROOT
TORSDOF 0
ENDMDL
