MODEL 1
REMARK minimizedAffinity -4.68742609
REMARK minimizedRMSD -1
REMARK  0 active torsions:
REMARK  status: ('A' for Active; 'I' for Inactive)
ROOT
ATOM      1  C1  BNZ d   1       1.465   1.109  -2.514  0.00  0.00     0.000 A 
ATOM      2  C2  BNZ d   1       2.261  -0.004  -2.461  0.00  0.00     0.000 A 
ATOM      3  C3  BNZ d   1       2.049  -0.973  -1.521  0.00  0.00     0.000 A 
ATOM      4  C4  BNZ d   1       1.068  -0.809  -0.610  0.00  0.00     0.000 A 
ATOM      5  C5  BNZ d   1       0.263   0.312  -0.644  0.00  0.00     0.000 A 
ATOM      6  C6  BNZ d   1       0.454   1.266  -1.617  0.00  0.00     0.000 A 
ENDROOT
TORSDOF 0
ENDMDL
