MODEL 1
REMARK minimizedAffinity -4.02124262
REMARK minimizedRMSD -1
REMARK  0 active torsions:
REMARK  status: ('A' for Active; 'I' for Inactive)
ROOT
ATOM      1  C1  BNZ d   1       0.257  -1.865   0.756  0.00  0.00     0.000 A 
ATOM      2  C2  BNZ d   1       0.026  -1.397   2.022  0.00  0.00     0.000 A 
ATOM      3  C3  BNZ d   1      -0.691  -0.251   2.225  0.00  0.00     0.000 A 
ATOM      4  C4  BNZ d   1      -1.143   0.445   1.161  0.00  0.00     0.000 A 
ATOM      5  C5  BNZ d   1      -0.911  -0.009  -0.121  0.00  0.00     0.000 A 
ATOM      6  C6  BNZ d   1      -0.221  -1.184  -0.320  0.00  0.00     0.000 A 
ENDROOT
TORSDOF 0
ENDMDL
