MODEL 1
REMARK minimizedAffinity -2.82662344
REMARK minimizedRMSD -1
REMARK  0 active torsions:
REMARK  status: ('A' for Active; 'I' for Inactive)
ROOT
ATOM      1  C1  BNZ d   1       1.234  -1.744  -0.569  0.00  0.00     0.000 A 
ATOM      2  C2  BNZ d   1       0.084  -1.410   0.096  0.00  0.00     0.000 A 
ATOM      3  C3  BNZ d   1      -0.453  -0.158  -0.021  0.00  0.00     0.000 A 
ATOM      4  C4  BNZ d   1       0.180   0.768  -0.769  0.00  0.00     0.000 A 
ATOM      5  C5  BNZ d   1       1.345   0.449  -1.438  0.00  0.00     0.000 A 
ATOM      6  C6  BNZ d   1       1.863  -0.823  -1.349  0.00  0.00     0.000 A 
ENDROOT
TORSDOF 0
ENDMDL
