MODEL 1
REMARK minimizedAffinity -2.43493986
REMARK minimizedRMSD -1
REMARK  0 active torsions:
REMARK  status: ('A' for Active; 'I' for Inactive)
ROOT
ATOM      1  C1  BNZ d   1       1.191  -1.938  -0.795  0.00  0.00     0.000 A 
ATOM      2  C2  BNZ d   1       0.064  -1.960  -0.018  0.00  0.00     0.000 A 
ATOM      3  C3  BNZ d   1      -0.623  -0.810   0.253  0.00  0.00     0.000 A 
ATOM      4  C4  BNZ d   1      -0.160   0.365  -0.219  0.00  0.00     0.000 A 
ATOM      5  C5  BNZ d   1       0.980   0.406  -0.997  0.00  0.00     0.000 A 
ATOM      6  C6  BNZ d   1       1.647  -0.759  -1.300  0.00  0.00     0.000 A 
ENDROOT
TORSDOF 0
ENDMDL
