MODEL 1
REMARK minimizedAffinity -0.846130669
REMARK minimizedRMSD -1
REMARK  0 active torsions:
REMARK  status: ('A' for Active; 'I' for Inactive)
ROOT
ATOM      1  C1  BNZ d   1       0.298  -0.052  -0.238  0.00  0.00     0.000 A 
ATOM      2  C2  BNZ d   1       1.170  -0.209  -1.282  0.00  0.00     0.000 A 
ATOM      3  C3  BNZ d   1       1.695  -1.436  -1.578  0.00  0.00     0.000 A 
ATOM      4  C4  BNZ d   1       1.379  -2.495  -0.805  0.00  0.00     0.000 A 
ATOM      5  C5  BNZ d   1       0.509  -2.352   0.257  0.00  0.00     0.000 A 
ATOM      6  C6  BNZ d   1      -0.048  -1.123   0.527  0.00  0.00     0.000 A 
ENDROOT
TORSDOF 0
ENDMDL
