MODEL 1
REMARK minimizedAffinity -2.78695297
REMARK minimizedRMSD -1
REMARK  0 active torsions:
REMARK  status: ('A' for Active; 'I' for Inactive)
ROOT
ATOM      1  C1  BNZ d   1       1.462  -1.535  -0.730  0.00  0.00     0.000 A 
ATOM      2  C2  BNZ d   1       0.445  -1.365   0.171  0.00  0.00     0.000 A 
ATOM      3  C3  BNZ d   1      -0.306  -0.223   0.171  0.00  0.00     0.000 A 
ATOM      4  C4  BNZ d   1      -0.014   0.763  -0.702  0.00  0.00     0.000 A 
ATOM      5  C5  BNZ d   1       1.014   0.610  -1.611  0.00  0.00     0.000 A 
ATOM      6  C6  BNZ d   1       1.743  -0.557  -1.634  0.00  0.00     0.000 A 
ENDROOT
TORSDOF 0
ENDMDL
