MODEL 1
REMARK minimizedAffinity -3.45431805
REMARK minimizedRMSD -1
REMARK  0 active torsions:
REMARK  status: ('A' for Active; 'I' for Inactive)
ROOT
ATOM      1  C1  BNZ d   1       1.834  -1.589  -0.818  0.00  0.00     0.000 A 
ATOM      2  C2  BNZ d   1       0.783  -1.844   0.023  0.00  0.00     0.000 A 
ATOM      3  C3  BNZ d   1      -0.265  -0.973   0.118  0.00  0.00     0.000 A 
ATOM      4  C4  BNZ d   1      -0.244   0.171  -0.597  0.00  0.00     0.000 A 
ATOM      5  C5  BNZ d   1       0.812   0.447  -1.442  0.00  0.00     0.000 A 
ATOM      6  C6  BNZ d   1       1.848  -0.451  -1.564  0.00  0.00     0.000 A 
ENDROOT
TORSDOF 0
ENDMDL
