MODEL 1
REMARK minimizedAffinity -3.04385805
REMARK minimizedRMSD -1
REMARK  0 active torsions:
REMARK  status: ('A' for Active; 'I' for Inactive)
ROOT
ATOM      1  C1  BNZ d   1      -1.795   0.412   0.808  0.00  0.00     0.000 A 
ATOM      2  C2  BNZ d   1      -2.727   1.039   1.591  0.00  0.00     0.000 A 
ATOM      3  C3  BNZ d   1      -2.400   1.500   2.836  0.00  0.00     0.000 A 
ATOM      4  C4  BNZ d   1      -1.153   1.299   3.310  0.00  0.00     0.000 A 
ATOM      5  C5  BNZ d   1      -0.205   0.661   2.536  0.00  0.00     0.000 A 
ATOM      6  C6  BNZ d   1      -0.528   0.233   1.268  0.00  0.00     0.000 A 
ENDROOT
TORSDOF 0
ENDMDL
