MODEL 1
REMARK minimizedAffinity -2.40966654
REMARK minimizedRMSD -1
REMARK  0 active torsions:
REMARK  status: ('A' for Active; 'I' for Inactive)
ROOT
ATOM      1  C1  BNZ d   1       2.086   0.138  -3.253  0.00  0.00     0.000 A 
ATOM      2  C2  BNZ d   1       1.398   1.299  -3.022  0.00  0.00     0.000 A 
ATOM      3  C3  BNZ d   1       0.633   1.447  -1.898  0.00  0.00     0.000 A 
ATOM      4  C4  BNZ d   1       0.526   0.421  -1.029  0.00  0.00     0.000 A 
ATOM      5  C5  BNZ d   1       1.207  -0.759  -1.254  0.00  0.00     0.000 A 
ATOM      6  C6  BNZ d   1       2.006  -0.890  -2.366  0.00  0.00     0.000 A 
ENDROOT
TORSDOF 0
ENDMDL
