MODEL 1
REMARK minimizedAffinity -3.03323579
REMARK minimizedRMSD -1
REMARK  0 active torsions:
REMARK  status: ('A' for Active; 'I' for Inactive)
ROOT
ATOM      1  C1  BNZ d   1       1.804  -1.135  -1.884  0.00  0.00     0.000 A 
ATOM      2  C2  BNZ d   1       1.803  -1.891  -0.742  0.00  0.00     0.000 A 
ATOM      3  C3  BNZ d   1       1.058  -1.519   0.342  0.00  0.00     0.000 A 
ATOM      4  C4  BNZ d   1       0.349  -0.374   0.298  0.00  0.00     0.000 A 
ATOM      5  C5  BNZ d   1       0.347   0.404  -0.843  0.00  0.00     0.000 A 
ATOM      6  C6  BNZ d   1       1.067   0.007  -1.946  0.00  0.00     0.000 A 
ENDROOT
TORSDOF 0
ENDMDL
