MODEL 1
REMARK minimizedAffinity -3.32505202
REMARK minimizedRMSD -1
REMARK  0 active torsions:
REMARK  status: ('A' for Active; 'I' for Inactive)
ROOT
ATOM      1  C1  BNZ d   1       0.387  -0.316  -1.064  0.00  0.00     0.000 A 
ATOM      2  C2  BNZ d   1      -0.436   0.468  -0.300  0.00  0.00     0.000 A 
ATOM      3  C3  BNZ d   1      -1.015  -0.024   0.836  0.00  0.00     0.000 A 
ATOM      4  C4  BNZ d   1      -0.804  -1.309   1.184  0.00  0.00     0.000 A 
ATOM      5  C5  BNZ d   1       0.015  -2.115   0.420  0.00  0.00     0.000 A 
ATOM      6  C6  BNZ d   1       0.628  -1.605  -0.702  0.00  0.00     0.000 A 
ENDROOT
TORSDOF 0
ENDMDL
