MODEL 1
REMARK minimizedAffinity -4.19274187
REMARK minimizedRMSD -1
REMARK  0 active torsions:
REMARK  status: ('A' for Active; 'I' for Inactive)
ROOT
ATOM      1  C1  BNZ d   1      -0.699  -0.646  -0.237  0.00  0.00     0.000 A 
ATOM      2  C2  BNZ d   1       0.090  -1.760  -0.340  0.00  0.00     0.000 A 
ATOM      3  C3  BNZ d   1       1.354  -1.677  -0.854  0.00  0.00     0.000 A 
ATOM      4  C4  BNZ d   1       1.812  -0.489  -1.299  0.00  0.00     0.000 A 
ATOM      5  C5  BNZ d   1       1.025   0.642  -1.210  0.00  0.00     0.000 A 
ATOM      6  C6  BNZ d   1      -0.233   0.561  -0.657  0.00  0.00     0.000 A 
ENDROOT
TORSDOF 0
ENDMDL
