MODEL 1
REMARK minimizedAffinity -0.143407792
REMARK minimizedRMSD -1
REMARK  0 active torsions:
REMARK  status: ('A' for Active; 'I' for Inactive)
ROOT
ATOM      1  C1  BNZ d   1      -2.303  -0.216   3.481  0.00  0.00     0.000 A 
ATOM      2  C2  BNZ d   1      -1.815   0.949   4.011  0.00  0.00     0.000 A 
ATOM      3  C3  BNZ d   1      -1.464   1.993   3.201  0.00  0.00     0.000 A 
ATOM      4  C4  BNZ d   1      -1.564   1.857   1.863  0.00  0.00     0.000 A 
ATOM      5  C5  BNZ d   1      -2.046   0.685   1.313  0.00  0.00     0.000 A 
ATOM      6  C6  BNZ d   1      -2.434  -0.349   2.133  0.00  0.00     0.000 A 
ENDROOT
TORSDOF 0
ENDMDL
