MODEL 1
REMARK minimizedAffinity -3.30404091
REMARK minimizedRMSD -1
REMARK  0 active torsions:
REMARK  status: ('A' for Active; 'I' for Inactive)
ROOT
ATOM      1  C1  BNZ d   1      -0.101  -0.589   0.072  0.00  0.00     0.000 A 
ATOM      2  C2  BNZ d   1       0.724  -1.641   0.369  0.00  0.00     0.000 A 
ATOM      3  C3  BNZ d   1       1.870  -1.854  -0.344  0.00  0.00     0.000 A 
ATOM      4  C4  BNZ d   1       2.170  -1.040  -1.377  0.00  0.00     0.000 A 
ATOM      5  C5  BNZ d   1       1.344   0.019  -1.694  0.00  0.00     0.000 A 
ATOM      6  C6  BNZ d   1       0.211   0.254  -0.950  0.00  0.00     0.000 A 
ENDROOT
TORSDOF 0
ENDMDL
