MODEL 1
REMARK minimizedAffinity 10.1201944
REMARK minimizedRMSD -1
REMARK  1 active torsions:
REMARK  status: ('A' for Active; 'I' for Inactive)
REMARK    1  A    between atoms: C1_2  and  C2_3 
ROOT
ATOM      1  C2  UNL d   1      -0.540   1.736   2.351  0.00  0.00    -0.076 A 
ATOM      2  C3  UNL d   1       0.834   1.443   2.395  0.00  0.00     0.004 A 
ATOM      3  C4  UNL d   1       1.343   0.525   3.312  0.00  0.00    -0.003 A 
ATOM      4  C5  UNL d   1       0.486  -0.118   4.198  0.00  0.00     0.000 A 
ATOM      5  C6  UNL d   1      -0.882   0.147   4.157  0.00  0.00     0.000 A 
ATOM      6  C7  UNL d   1      -1.414   1.059   3.228  0.00  0.00    -0.073 A 
ATOM      7  C8  UNL d   1      -2.897   1.311   3.232  0.00  0.00     0.078 C 
ENDROOT
BRANCH   1   8
ATOM      8  C1  UNL d   1      -1.030   2.761   1.354  0.00  0.00     0.053 C 
ATOM      9  C   UNL d   1      -0.093   2.915   0.167  0.00  0.00     0.018 C 
ENDBRANCH   1   8
TORSDOF 1
ENDMDL
