MODEL 1
REMARK minimizedAffinity 6.2620635
REMARK minimizedRMSD -1
REMARK  1 active torsions:
REMARK  status: ('A' for Active; 'I' for Inactive)
REMARK    1  A    between atoms: C1_2  and  C2_3 
ROOT
ATOM      1  C2  UNL d   1      -0.047   4.137  -0.769  0.00  0.00    -0.076 A 
ATOM      2  C3  UNL d   1      -1.233   4.123  -1.525  0.00  0.00     0.004 A 
ATOM      3  C4  UNL d   1      -1.397   4.972  -2.617  0.00  0.00    -0.003 A 
ATOM      4  C5  UNL d   1      -0.379   5.850  -2.973  0.00  0.00     0.000 A 
ATOM      5  C6  UNL d   1       0.811   5.865  -2.245  0.00  0.00     0.000 A 
ATOM      6  C7  UNL d   1       0.999   5.004  -1.151  0.00  0.00    -0.073 A 
ATOM      7  C8  UNL d   1       2.300   5.067  -0.398  0.00  0.00     0.078 C 
ENDROOT
BRANCH   1   8
ATOM      8  C1  UNL d   1       0.063   3.212   0.422  0.00  0.00     0.053 C 
ATOM      9  C   UNL d   1      -0.910   3.575   1.534  0.00  0.00     0.018 C 
ENDBRANCH   1   8
TORSDOF 1
ENDMDL
