MODEL 1
REMARK minimizedAffinity 12.2179804
REMARK minimizedRMSD -1
REMARK  1 active torsions:
REMARK  status: ('A' for Active; 'I' for Inactive)
REMARK    1  A    between atoms: C1_2  and  C2_3 
ROOT
ATOM      1  C2  UNL d   1       2.839  -4.686  -0.695  0.00  0.00    -0.076 A 
ATOM      2  C3  UNL d   1       3.498  -5.926  -0.760  0.00  0.00     0.004 A 
ATOM      3  C4  UNL d   1       4.889  -6.000  -0.753  0.00  0.00    -0.003 A 
ATOM      4  C5  UNL d   1       5.645  -4.835  -0.682  0.00  0.00     0.000 A 
ATOM      5  C6  UNL d   1       5.008  -3.597  -0.599  0.00  0.00     0.000 A 
ATOM      6  C7  UNL d   1       3.606  -3.506  -0.588  0.00  0.00    -0.073 A 
ATOM      7  C8  UNL d   1       2.972  -2.144  -0.503  0.00  0.00     0.078 C 
ENDROOT
BRANCH   1   8
ATOM      8  C1  UNL d   1       1.327  -4.666  -0.733  0.00  0.00     0.053 C 
ATOM      9  C   UNL d   1       0.738  -6.000  -1.162  0.00  0.00     0.018 C 
ENDBRANCH   1   8
TORSDOF 1
ENDMDL
