MODEL 1
REMARK minimizedAffinity 6.2237587
REMARK minimizedRMSD -1
REMARK  1 active torsions:
REMARK  status: ('A' for Active; 'I' for Inactive)
REMARK    1  A    between atoms: C1_2  and  C2_3 
ROOT
ATOM      1  C2  UNL d   1      -0.290   4.826  -1.368  0.00  0.00    -0.076 A 
ATOM      2  C3  UNL d   1      -0.745   3.918  -0.397  0.00  0.00     0.004 A 
ATOM      3  C4  UNL d   1       0.153   3.195   0.386  0.00  0.00    -0.003 A 
ATOM      4  C5  UNL d   1       1.522   3.369   0.211  0.00  0.00     0.000 A 
ATOM      5  C6  UNL d   1       1.991   4.280  -0.735  0.00  0.00     0.000 A 
ATOM      6  C7  UNL d   1       1.098   5.029  -1.521  0.00  0.00    -0.073 A 
ATOM      7  C8  UNL d   1       1.659   5.992  -2.531  0.00  0.00     0.078 C 
ENDROOT
BRANCH   1   8
ATOM      8  C1  UNL d   1      -1.311   5.562  -2.206  0.00  0.00     0.053 C 
ATOM      9  C   UNL d   1      -2.633   4.816  -2.303  0.00  0.00     0.018 C 
ENDBRANCH   1   8
TORSDOF 1
ENDMDL
