MODEL 1
REMARK minimizedAffinity 7.2011652
REMARK minimizedRMSD -1
REMARK  1 active torsions:
REMARK  status: ('A' for Active; 'I' for Inactive)
REMARK    1  A    between atoms: C1_2  and  C2_3 
ROOT
ATOM      1  C2  UNL d   1       0.051   3.652  -1.022  0.00  0.00    -0.076 A 
ATOM      2  C3  UNL d   1      -1.054   3.624  -1.891  0.00  0.00     0.004 A 
ATOM      3  C4  UNL d   1      -1.340   4.706  -2.722  0.00  0.00    -0.003 A 
ATOM      4  C5  UNL d   1      -0.526   5.833  -2.698  0.00  0.00     0.000 A 
ATOM      5  C6  UNL d   1       0.584   5.871  -1.856  0.00  0.00     0.000 A 
ATOM      6  C7  UNL d   1       0.897   4.782  -1.023  0.00  0.00    -0.073 A 
ATOM      7  C8  UNL d   1       2.103   4.880  -0.130  0.00  0.00     0.078 C 
ENDROOT
BRANCH   1   8
ATOM      8  C1  UNL d   1       0.297   2.461  -0.125  0.00  0.00     0.053 C 
ATOM      9  C   UNL d   1       0.292   2.832   1.350  0.00  0.00     0.018 C 
ENDBRANCH   1   8
TORSDOF 1
ENDMDL
