MODEL 1
REMARK minimizedAffinity 4.27658463
REMARK minimizedRMSD -1
REMARK  1 active torsions:
REMARK  status: ('A' for Active; 'I' for Inactive)
REMARK    1  A    between atoms: C1_2  and  C2_3 
ROOT
ATOM      1  C2  UNL d   1      -4.385   2.788  -3.434  0.00  0.00    -0.076 A 
ATOM      2  C3  UNL d   1      -3.930   3.106  -4.726  0.00  0.00     0.004 A 
ATOM      3  C4  UNL d   1      -4.495   2.509  -5.852  0.00  0.00    -0.003 A 
ATOM      4  C5  UNL d   1      -5.524   1.586  -5.705  0.00  0.00     0.000 A 
ATOM      5  C6  UNL d   1      -6.000   1.273  -4.432  0.00  0.00     0.000 A 
ATOM      6  C7  UNL d   1      -5.453   1.877  -3.287  0.00  0.00    -0.073 A 
ATOM      7  C8  UNL d   1      -6.000   1.497  -1.938  0.00  0.00     0.078 C 
ENDROOT
BRANCH   1   8
ATOM      8  C1  UNL d   1      -3.716   3.447  -2.249  0.00  0.00     0.053 C 
ATOM      9  C   UNL d   1      -2.399   4.112  -2.618  0.00  0.00     0.018 C 
ENDBRANCH   1   8
TORSDOF 1
ENDMDL
