MODEL 1
REMARK minimizedAffinity 13.1821003
REMARK minimizedRMSD -1
REMARK  1 active torsions:
REMARK  status: ('A' for Active; 'I' for Inactive)
REMARK    1  A    between atoms: C1_2  and  C2_3 
ROOT
ATOM      1  C2  UNL d   1      -0.074   4.101  -0.702  0.00  0.00    -0.076 A 
ATOM      2  C3  UNL d   1      -0.176   3.499  -1.968  0.00  0.00     0.004 A 
ATOM      3  C4  UNL d   1      -1.003   4.036  -2.953  0.00  0.00    -0.003 A 
ATOM      4  C5  UNL d   1      -1.741   5.185  -2.689  0.00  0.00     0.000 A 
ATOM      5  C6  UNL d   1      -1.638   5.805  -1.444  0.00  0.00     0.000 A 
ATOM      6  C7  UNL d   1      -0.797   5.286  -0.445  0.00  0.00    -0.073 A 
ATOM      7  C8  UNL d   1      -0.730   5.993   0.881  0.00  0.00     0.078 C 
ENDROOT
BRANCH   1   8
ATOM      8  C1  UNL d   1       0.818   3.459   0.336  0.00  0.00     0.053 C 
ATOM      9  C   UNL d   1       0.140   2.299   1.049  0.00  0.00     0.018 C 
ENDBRANCH   1   8
TORSDOF 1
ENDMDL
