MODEL 1
REMARK minimizedAffinity 4.51499939
REMARK minimizedRMSD -1
REMARK  1 active torsions:
REMARK  status: ('A' for Active; 'I' for Inactive)
REMARK    1  A    between atoms: C1_2  and  C2_3 
ROOT
ATOM      1  C2  UNL d   1       0.787   0.260   3.636  0.00  0.00    -0.076 A 
ATOM      2  C3  UNL d   1       2.141   0.316   3.260  0.00  0.00     0.004 A 
ATOM      3  C4  UNL d   1       2.584   1.233   2.308  0.00  0.00    -0.003 A 
ATOM      4  C5  UNL d   1       1.680   2.110   1.718  0.00  0.00     0.000 A 
ATOM      5  C6  UNL d   1       0.337   2.081   2.092  0.00  0.00     0.000 A 
ATOM      6  C7  UNL d   1      -0.123   1.174   3.062  0.00  0.00    -0.073 A 
ATOM      7  C8  UNL d   1      -1.583   1.182   3.423  0.00  0.00     0.078 C 
ENDROOT
BRANCH   1   8
ATOM      8  C1  UNL d   1       0.360  -0.774   4.653  0.00  0.00     0.053 C 
ATOM      9  C   UNL d   1       1.310  -1.961   4.711  0.00  0.00     0.018 C 
ENDBRANCH   1   8
TORSDOF 1
ENDMDL
