MODEL 1
REMARK minimizedAffinity 7.06532001
REMARK minimizedRMSD -1
REMARK  1 active torsions:
REMARK  status: ('A' for Active; 'I' for Inactive)
REMARK    1  A    between atoms: C1_2  and  C2_3 
ROOT
ATOM      1  C2  UNL d   1       0.966  -1.486   4.204  0.00  0.00    -0.076 A 
ATOM      2  C3  UNL d   1       1.658  -0.705   3.262  0.00  0.00     0.004 A 
ATOM      3  C4  UNL d   1       1.102   0.468   2.754  0.00  0.00    -0.003 A 
ATOM      4  C5  UNL d   1      -0.156   0.879   3.181  0.00  0.00     0.000 A 
ATOM      5  C6  UNL d   1      -0.850   0.126   4.128  0.00  0.00     0.000 A 
ATOM      6  C7  UNL d   1      -0.296  -1.050   4.662  0.00  0.00    -0.073 A 
ATOM      7  C8  UNL d   1      -1.090  -1.826   5.676  0.00  0.00     0.078 C 
ENDROOT
BRANCH   1   8
ATOM      8  C1  UNL d   1       1.608  -2.762   4.699  0.00  0.00     0.053 C 
ATOM      9  C   UNL d   1       2.371  -2.564   5.999  0.00  0.00     0.018 C 
ENDBRANCH   1   8
TORSDOF 1
ENDMDL
