MODEL 1
REMARK minimizedAffinity 16.0139389
REMARK minimizedRMSD -1
REMARK  1 active torsions:
REMARK  status: ('A' for Active; 'I' for Inactive)
REMARK    1  A    between atoms: C1_2  and  C2_3 
ROOT
ATOM      1  C2  UNL d   1      -0.263   3.845  -0.730  0.00  0.00    -0.076 A 
ATOM      2  C3  UNL d   1      -1.292   3.223  -1.459  0.00  0.00     0.004 A 
ATOM      3  C4  UNL d   1      -2.242   3.978  -2.145  0.00  0.00    -0.003 A 
ATOM      4  C5  UNL d   1      -2.179   5.367  -2.113  0.00  0.00     0.000 A 
ATOM      5  C6  UNL d   1      -1.155   6.000  -1.409  0.00  0.00     0.000 A 
ATOM      6  C7  UNL d   1      -0.179   5.254  -0.726  0.00  0.00    -0.073 A 
ATOM      7  C8  UNL d   1       0.900   5.988   0.022  0.00  0.00     0.078 C 
ENDROOT
BRANCH   1   8
ATOM      8  C1  UNL d   1       0.723   2.975   0.017  0.00  0.00     0.053 C 
ATOM      9  C   UNL d   1       0.074   2.204   1.156  0.00  0.00     0.018 C 
ENDBRANCH   1   8
TORSDOF 1
ENDMDL
