MODEL 1
REMARK minimizedAffinity 6.00651646
REMARK minimizedRMSD -1
REMARK  1 active torsions:
REMARK  status: ('A' for Active; 'I' for Inactive)
REMARK    1  A    between atoms: C1_2  and  C2_3 
ROOT
ATOM      1  C2  UNL d   1       0.371   4.021  -1.525  0.00  0.00    -0.076 A 
ATOM      2  C3  UNL d   1       1.569   3.695  -0.867  0.00  0.00     0.004 A 
ATOM      3  C4  UNL d   1       1.624   3.610   0.523  0.00  0.00    -0.003 A 
ATOM      4  C5  UNL d   1       0.481   3.850   1.278  0.00  0.00     0.000 A 
ATOM      5  C6  UNL d   1      -0.721   4.157   0.641  0.00  0.00     0.000 A 
ATOM      6  C7  UNL d   1      -0.797   4.230  -0.761  0.00  0.00    -0.073 A 
ATOM      7  C8  UNL d   1      -2.118   4.572  -1.395  0.00  0.00     0.078 C 
ENDROOT
BRANCH   1   8
ATOM      8  C1  UNL d   1       0.378   4.125  -3.034  0.00  0.00     0.053 C 
ATOM      9  C   UNL d   1       0.848   5.486  -3.522  0.00  0.00     0.018 C 
ENDBRANCH   1   8
TORSDOF 1
ENDMDL
