MODEL 1
REMARK minimizedAffinity -3.91514254
REMARK minimizedRMSD -1
REMARK  0 active torsions:
REMARK  status: ('A' for Active; 'I' for Inactive)
ROOT
ATOM      1  C   UNL d   1      -1.202  -0.755  -3.942  0.00  0.00     0.077 C 
ATOM      2  C1  UNL d   1      -1.193  -0.474  -2.469  0.00  0.00    -0.074 A 
ATOM      3  C2  UNL d   1      -2.381  -0.210  -1.779  0.00  0.00    -0.005 A 
ATOM      4  C3  UNL d   1      -2.357   0.040  -0.407  0.00  0.00     0.006 A 
ATOM      5  C4  UNL d   1      -1.147   0.029   0.288  0.00  0.00    -0.005 A 
ATOM      6  C5  UNL d   1       0.051  -0.233  -0.384  0.00  0.00    -0.074 A 
ATOM      7  C6  UNL d   1       1.359  -0.259   0.350  0.00  0.00     0.077 C 
ATOM      8  C7  UNL d   1       0.018  -0.491  -1.762  0.00  0.00    -0.001 A 
ENDROOT
TORSDOF 0
ENDMDL
