MODEL 1
REMARK minimizedAffinity -4.71912336
REMARK minimizedRMSD -1
REMARK  0 active torsions:
REMARK  status: ('A' for Active; 'I' for Inactive)
ROOT
ATOM      1  C   UNL d   1       3.713  -1.237   1.155  0.00  0.00     0.077 C 
ATOM      2  C1  UNL d   1       2.571  -0.295   0.917  0.00  0.00    -0.074 A 
ATOM      3  C2  UNL d   1       2.717   1.080   1.126  0.00  0.00    -0.005 A 
ATOM      4  C3  UNL d   1       1.648   1.944   0.891  0.00  0.00     0.006 A 
ATOM      5  C4  UNL d   1       0.425   1.444   0.444  0.00  0.00    -0.005 A 
ATOM      6  C5  UNL d   1       0.260   0.072   0.229  0.00  0.00    -0.074 A 
ATOM      7  C6  UNL d   1      -1.045  -0.481  -0.261  0.00  0.00     0.077 C 
ATOM      8  C7  UNL d   1       1.341  -0.790   0.461  0.00  0.00    -0.001 A 
ENDROOT
TORSDOF 0
ENDMDL
