MODEL 1
REMARK minimizedAffinity -5.5078907
REMARK minimizedRMSD -1
REMARK  0 active torsions:
REMARK  status: ('A' for Active; 'I' for Inactive)
ROOT
ATOM      1  C   UNL d   1       1.887  -3.319   1.620  0.00  0.00     0.077 C 
ATOM      2  C1  UNL d   1       1.801  -1.892   1.168  0.00  0.00    -0.074 A 
ATOM      3  C2  UNL d   1       2.952  -1.107   1.042  0.00  0.00    -0.005 A 
ATOM      4  C3  UNL d   1       2.857   0.217   0.611  0.00  0.00     0.006 A 
ATOM      5  C4  UNL d   1       1.612   0.768   0.303  0.00  0.00    -0.005 A 
ATOM      6  C5  UNL d   1       0.451  -0.002   0.422  0.00  0.00    -0.074 A 
ATOM      7  C6  UNL d   1      -0.893   0.571   0.085  0.00  0.00     0.077 C 
ATOM      8  C7  UNL d   1       0.555  -1.333   0.849  0.00  0.00    -0.001 A 
ENDROOT
TORSDOF 0
ENDMDL
