MODEL 1
REMARK minimizedAffinity -6.12799692
REMARK minimizedRMSD -1
REMARK  0 active torsions:
REMARK  status: ('A' for Active; 'I' for Inactive)
ROOT
ATOM      1  C   UNL d   1       3.146  -1.484   1.532  0.00  0.00     0.077 C 
ATOM      2  C1  UNL d   1       2.051  -0.532   1.150  0.00  0.00    -0.074 A 
ATOM      3  C2  UNL d   1       2.323   0.819   0.914  0.00  0.00    -0.005 A 
ATOM      4  C3  UNL d   1       1.296   1.690   0.550  0.00  0.00     0.006 A 
ATOM      5  C4  UNL d   1      -0.011   1.219   0.420  0.00  0.00    -0.005 A 
ATOM      6  C5  UNL d   1      -0.302  -0.129   0.652  0.00  0.00    -0.074 A 
ATOM      7  C6  UNL d   1      -1.700  -0.653   0.506  0.00  0.00     0.077 C 
ATOM      8  C7  UNL d   1       0.736  -0.999   1.010  0.00  0.00    -0.001 A 
ENDROOT
TORSDOF 0
ENDMDL
