MODEL 1
REMARK minimizedAffinity -5.36429977
REMARK minimizedRMSD -1
REMARK  0 active torsions:
REMARK  status: ('A' for Active; 'I' for Inactive)
ROOT
ATOM      1  C   UNL d   1       3.358  -0.415   1.101  0.00  0.00     0.077 C 
ATOM      2  C1  UNL d   1       1.991   0.022   0.664  0.00  0.00    -0.074 A 
ATOM      3  C2  UNL d   1       1.013  -0.916   0.318  0.00  0.00    -0.005 A 
ATOM      4  C3  UNL d   1      -0.257  -0.495  -0.077  0.00  0.00     0.006 A 
ATOM      5  C4  UNL d   1      -0.561   0.866  -0.130  0.00  0.00    -0.005 A 
ATOM      6  C5  UNL d   1       0.404   1.819   0.213  0.00  0.00    -0.074 A 
ATOM      7  C6  UNL d   1       0.091   3.285   0.171  0.00  0.00     0.077 C 
ATOM      8  C7  UNL d   1       1.675   1.387   0.616  0.00  0.00    -0.001 A 
ENDROOT
TORSDOF 0
ENDMDL
