MODEL 1
REMARK minimizedAffinity -6.36745071
REMARK minimizedRMSD -1
REMARK  0 active torsions:
REMARK  status: ('A' for Active; 'I' for Inactive)
ROOT
ATOM      1  C   UNL d   1       0.600  -2.769   1.458  0.00  0.00     0.077 C 
ATOM      2  C1  UNL d   1       1.396  -1.509   1.288  0.00  0.00    -0.074 A 
ATOM      3  C2  UNL d   1       2.716  -1.426   1.744  0.00  0.00    -0.005 A 
ATOM      4  C3  UNL d   1       3.447  -0.251   1.571  0.00  0.00     0.006 A 
ATOM      5  C4  UNL d   1       2.867   0.851   0.941  0.00  0.00    -0.005 A 
ATOM      6  C5  UNL d   1       1.549   0.787   0.478  0.00  0.00    -0.074 A 
ATOM      7  C6  UNL d   1       0.914   1.959  -0.209  0.00  0.00     0.077 C 
ATOM      8  C7  UNL d   1       0.823  -0.400   0.650  0.00  0.00    -0.001 A 
ENDROOT
TORSDOF 0
ENDMDL
