MODEL 1
REMARK minimizedAffinity -5.96931314
REMARK minimizedRMSD -1
REMARK  0 active torsions:
REMARK  status: ('A' for Active; 'I' for Inactive)
ROOT
ATOM      1  C   UNL d   1       3.208  -1.133   1.437  0.00  0.00     0.077 C 
ATOM      2  C1  UNL d   1       2.134  -0.221   0.921  0.00  0.00    -0.074 A 
ATOM      3  C2  UNL d   1       2.438   1.071   0.482  0.00  0.00    -0.005 A 
ATOM      4  C3  UNL d   1       1.431   1.904  -0.005  0.00  0.00     0.006 A 
ATOM      5  C4  UNL d   1       0.111   1.454  -0.056  0.00  0.00    -0.005 A 
ATOM      6  C5  UNL d   1      -0.212   0.164   0.378  0.00  0.00    -0.074 A 
ATOM      7  C6  UNL d   1      -1.624  -0.339   0.319  0.00  0.00     0.077 C 
ATOM      8  C7  UNL d   1       0.807  -0.669   0.858  0.00  0.00    -0.001 A 
ENDROOT
TORSDOF 0
ENDMDL
