MODEL 1
REMARK minimizedAffinity -3.5999558
REMARK minimizedRMSD -1
REMARK  0 active torsions:
REMARK  status: ('A' for Active; 'I' for Inactive)
ROOT
ATOM      1  C   UNL d   1       1.157  -2.847   0.777  0.00  0.00     0.077 C 
ATOM      2  C1  UNL d   1       1.241  -1.389   0.438  0.00  0.00    -0.074 A 
ATOM      3  C2  UNL d   1       2.467  -0.715   0.461  0.00  0.00    -0.005 A 
ATOM      4  C3  UNL d   1       2.531   0.640   0.134  0.00  0.00     0.006 A 
ATOM      5  C4  UNL d   1       1.372   1.333  -0.218  0.00  0.00    -0.005 A 
ATOM      6  C5  UNL d   1       0.138   0.676  -0.247  0.00  0.00    -0.074 A 
ATOM      7  C6  UNL d   1      -1.115   1.404  -0.633  0.00  0.00     0.077 C 
ATOM      8  C7  UNL d   1       0.083  -0.687   0.076  0.00  0.00    -0.001 A 
ENDROOT
TORSDOF 0
ENDMDL
