MODEL 1
REMARK minimizedAffinity -4.27939558
REMARK minimizedRMSD -1
REMARK  0 active torsions:
REMARK  status: ('A' for Active; 'I' for Inactive)
ROOT
ATOM      1  C   UNL d   1      -1.342   0.335  -0.379  0.00  0.00     0.077 C 
ATOM      2  C1  UNL d   1       0.055   0.449   0.153  0.00  0.00    -0.074 A 
ATOM      3  C2  UNL d   1       0.791   1.627  -0.009  0.00  0.00    -0.005 A 
ATOM      4  C3  UNL d   1       2.086   1.723   0.500  0.00  0.00     0.006 A 
ATOM      5  C4  UNL d   1       2.658   0.643   1.175  0.00  0.00    -0.005 A 
ATOM      6  C5  UNL d   1       1.936  -0.542   1.347  0.00  0.00    -0.074 A 
ATOM      7  C6  UNL d   1       2.531  -1.709   2.079  0.00  0.00     0.077 C 
ATOM      8  C7  UNL d   1       0.633  -0.628   0.839  0.00  0.00    -0.001 A 
ENDROOT
TORSDOF 0
ENDMDL
