MODEL 1
REMARK minimizedAffinity -5.3898077
REMARK minimizedRMSD -1
REMARK  0 active torsions:
REMARK  status: ('A' for Active; 'I' for Inactive)
ROOT
ATOM      1  C   UNL d   1       3.324  -0.296   0.857  0.00  0.00     0.077 C 
ATOM      2  C1  UNL d   1       1.907   0.155   0.664  0.00  0.00    -0.074 A 
ATOM      3  C2  UNL d   1       0.886  -0.768   0.419  0.00  0.00    -0.005 A 
ATOM      4  C3  UNL d   1      -0.429  -0.335   0.251  0.00  0.00     0.006 A 
ATOM      5  C4  UNL d   1      -0.736   1.024   0.326  0.00  0.00    -0.005 A 
ATOM      6  C5  UNL d   1       0.272   1.962   0.571  0.00  0.00    -0.074 A 
ATOM      7  C6  UNL d   1      -0.042   3.426   0.665  0.00  0.00     0.077 C 
ATOM      8  C7  UNL d   1       1.590   1.518   0.746  0.00  0.00    -0.001 A 
ENDROOT
TORSDOF 0
ENDMDL
