MODEL 1
REMARK minimizedAffinity -2.66020131
REMARK minimizedRMSD -1
REMARK  1 active torsions:
REMARK  status: ('A' for Active; 'I' for Inactive)
REMARK    1  A    between atoms: C1_2  and  C2_3 
ROOT
ATOM      1  C2  UNL d   1      -3.454   0.135   2.182  0.00  0.00    -0.081 A 
ATOM      2  C3  UNL d   1      -2.875   0.343   3.440  0.00  0.00     0.006 A 
ATOM      3  C4  UNL d   1      -3.585   1.001   4.447  0.00  0.00     0.002 A 
ATOM      4  C5  UNL d   1      -4.888   1.454   4.216  0.00  0.00    -0.080 A 
ATOM      5  C6  UNL d   1      -5.673   2.135   5.298  0.00  0.00     0.076 C 
ATOM      6  C7  UNL d   1      -5.461   1.262   2.954  0.00  0.00     0.002 A 
ATOM      7  C8  UNL d   1      -4.751   0.605   1.947  0.00  0.00     0.006 A 
ENDROOT
BRANCH   1   8
ATOM      8  C1  UNL d   1      -2.715  -0.631   1.115  0.00  0.00     0.054 C 
ATOM      9  C   UNL d   1      -1.369  -1.128   1.622  0.00  0.00     0.018 C 
ENDBRANCH   1   8
TORSDOF 1
ENDMDL
