MODEL 1
REMARK minimizedAffinity 9.1108799
REMARK minimizedRMSD -1
REMARK  1 active torsions:
REMARK  status: ('A' for Active; 'I' for Inactive)
REMARK    1  A    between atoms: C1_2  and  C2_3 
ROOT
ATOM      1  C2  UNL d   1       4.014   4.712  -2.743  0.00  0.00    -0.081 A 
ATOM      2  C3  UNL d   1       3.256   3.536  -2.800  0.00  0.00     0.006 A 
ATOM      3  C4  UNL d   1       1.860   3.592  -2.791  0.00  0.00     0.002 A 
ATOM      4  C5  UNL d   1       1.200   4.825  -2.733  0.00  0.00    -0.080 A 
ATOM      5  C6  UNL d   1      -0.298   4.901  -2.753  0.00  0.00     0.076 C 
ATOM      6  C7  UNL d   1       1.957   5.998  -2.658  0.00  0.00     0.002 A 
ATOM      7  C8  UNL d   1       3.353   5.942  -2.667  0.00  0.00     0.006 A 
ENDROOT
BRANCH   1   8
ATOM      8  C1  UNL d   1       5.518   4.658  -2.818  0.00  0.00     0.054 C 
ATOM      9  C   UNL d   1       5.995   4.468  -4.251  0.00  0.00     0.018 C 
ENDBRANCH   1   8
TORSDOF 1
ENDMDL
