MODEL 1
REMARK minimizedAffinity 3.88046551
REMARK minimizedRMSD -1
REMARK  1 active torsions:
REMARK  status: ('A' for Active; 'I' for Inactive)
REMARK    1  A    between atoms: C1_2  and  C2_3 
ROOT
ATOM      1  C2  UNL d   1      -3.540   1.562   2.956  0.00  0.00    -0.081 A 
ATOM      2  C3  UNL d   1      -3.776   1.218   1.619  0.00  0.00     0.006 A 
ATOM      3  C4  UNL d   1      -3.004   0.235   0.994  0.00  0.00     0.002 A 
ATOM      4  C5  UNL d   1      -1.989  -0.424   1.696  0.00  0.00    -0.080 A 
ATOM      5  C6  UNL d   1      -1.174  -1.502   1.046  0.00  0.00     0.076 C 
ATOM      6  C7  UNL d   1      -1.742  -0.068   3.026  0.00  0.00     0.002 A 
ATOM      7  C8  UNL d   1      -2.513   0.915   3.652  0.00  0.00     0.006 A 
ENDROOT
BRANCH   1   8
ATOM      8  C1  UNL d   1      -4.412   2.575   3.652  0.00  0.00     0.054 C 
ATOM      9  C   UNL d   1      -5.886   2.323   3.368  0.00  0.00     0.018 C 
ENDBRANCH   1   8
TORSDOF 1
ENDMDL
