MODEL 1
REMARK minimizedAffinity -1.87896895
REMARK minimizedRMSD -1
REMARK  1 active torsions:
REMARK  status: ('A' for Active; 'I' for Inactive)
REMARK    1  A    between atoms: C1_2  and  C2_3 
ROOT
ATOM      1  C2  UNL d   1       0.403  -5.285  -4.839  0.00  0.00    -0.081 A 
ATOM      2  C3  UNL d   1      -0.390  -4.553  -3.947  0.00  0.00     0.006 A 
ATOM      3  C4  UNL d   1      -1.780  -4.544  -4.078  0.00  0.00     0.002 A 
ATOM      4  C5  UNL d   1      -2.402  -5.272  -5.097  0.00  0.00    -0.080 A 
ATOM      5  C6  UNL d   1      -3.896  -5.295  -5.230  0.00  0.00     0.076 C 
ATOM      6  C7  UNL d   1      -1.610  -5.990  -6.000  0.00  0.00     0.002 A 
ATOM      7  C8  UNL d   1      -0.219  -5.999  -5.870  0.00  0.00     0.006 A 
ENDROOT
BRANCH   1   8
ATOM      8  C1  UNL d   1       1.898  -5.349  -4.662  0.00  0.00     0.054 C 
ATOM      9  C   UNL d   1       2.571  -5.998  -5.863  0.00  0.00     0.018 C 
ENDBRANCH   1   8
TORSDOF 1
ENDMDL
