MODEL 1
REMARK minimizedAffinity 4.31271935
REMARK minimizedRMSD -1
REMARK  1 active torsions:
REMARK  status: ('A' for Active; 'I' for Inactive)
REMARK    1  A    between atoms: C1_2  and  C2_3 
ROOT
ATOM      1  C2  UNL d   1      -3.340   0.215   1.760  0.00  0.00    -0.081 A 
ATOM      2  C3  UNL d   1      -2.650   0.697   2.879  0.00  0.00     0.006 A 
ATOM      3  C4  UNL d   1      -1.460   0.093   3.291  0.00  0.00     0.002 A 
ATOM      4  C5  UNL d   1      -0.936  -0.997   2.588  0.00  0.00    -0.080 A 
ATOM      5  C6  UNL d   1       0.356  -1.635   3.002  0.00  0.00     0.076 C 
ATOM      6  C7  UNL d   1      -1.634  -1.489   1.480  0.00  0.00     0.002 A 
ATOM      7  C8  UNL d   1      -2.825  -0.886   1.068  0.00  0.00     0.006 A 
ENDROOT
BRANCH   1   8
ATOM      8  C1  UNL d   1      -4.589   0.905   1.274  0.00  0.00     0.054 C 
ATOM      9  C   UNL d   1      -5.080   0.303  -0.036  0.00  0.00     0.018 C 
ENDBRANCH   1   8
TORSDOF 1
ENDMDL
