MODEL 1
REMARK minimizedAffinity 5.47117281
REMARK minimizedRMSD -1
REMARK  1 active torsions:
REMARK  status: ('A' for Active; 'I' for Inactive)
REMARK    1  A    between atoms: C1_2  and  C2_3 
ROOT
ATOM      1  C2  UNL d   1      -2.533   0.667   3.276  0.00  0.00    -0.081 A 
ATOM      2  C3  UNL d   1      -1.496   0.275   4.132  0.00  0.00     0.006 A 
ATOM      3  C4  UNL d   1      -0.604  -0.730   3.750  0.00  0.00     0.002 A 
ATOM      4  C5  UNL d   1      -0.730  -1.354   2.504  0.00  0.00    -0.080 A 
ATOM      5  C6  UNL d   1       0.239  -2.414   2.069  0.00  0.00     0.076 C 
ATOM      6  C7  UNL d   1      -1.776  -0.975   1.656  0.00  0.00     0.002 A 
ATOM      7  C8  UNL d   1      -2.668   0.030   2.038  0.00  0.00     0.006 A 
ENDROOT
BRANCH   1   8
ATOM      8  C1  UNL d   1      -3.456   1.796   3.658  0.00  0.00     0.054 C 
ATOM      9  C   UNL d   1      -4.252   1.459   4.911  0.00  0.00     0.018 C 
ENDBRANCH   1   8
TORSDOF 1
ENDMDL
