MODEL 1
REMARK minimizedAffinity 5.51421165
REMARK minimizedRMSD -1
REMARK  1 active torsions:
REMARK  status: ('A' for Active; 'I' for Inactive)
REMARK    1  A    between atoms: C1_2  and  C2_3 
ROOT
ATOM      1  C2  UNL d   1      -3.827   0.300   0.913  0.00  0.00    -0.081 A 
ATOM      2  C3  UNL d   1      -2.889  -0.737   0.990  0.00  0.00     0.006 A 
ATOM      3  C4  UNL d   1      -1.973  -0.786   2.044  0.00  0.00     0.002 A 
ATOM      4  C5  UNL d   1      -1.985   0.195   3.041  0.00  0.00    -0.080 A 
ATOM      5  C6  UNL d   1      -1.028   0.138   4.194  0.00  0.00     0.076 C 
ATOM      6  C7  UNL d   1      -2.912   1.240   2.955  0.00  0.00     0.002 A 
ATOM      7  C8  UNL d   1      -3.827   1.290   1.901  0.00  0.00     0.006 A 
ENDROOT
BRANCH   1   8
ATOM      8  C1  UNL d   1      -4.858   0.320  -0.187  0.00  0.00     0.054 C 
ATOM      9  C   UNL d   1      -4.320  -0.313  -1.462  0.00  0.00     0.018 C 
ENDBRANCH   1   8
TORSDOF 1
ENDMDL
