MODEL 1
REMARK minimizedAffinity 5.43473196
REMARK minimizedRMSD -1
REMARK  1 active torsions:
REMARK  status: ('A' for Active; 'I' for Inactive)
REMARK    1  A    between atoms: C1_2  and  C2_3 
ROOT
ATOM      1  C2  UNL d   1       2.958   3.183  -2.988  0.00  0.00    -0.081 A 
ATOM      2  C3  UNL d   1       3.181   4.345  -2.239  0.00  0.00     0.006 A 
ATOM      3  C4  UNL d   1       4.173   5.253  -2.617  0.00  0.00     0.002 A 
ATOM      4  C5  UNL d   1       4.952   5.018  -3.755  0.00  0.00    -0.080 A 
ATOM      5  C6  UNL d   1       6.000   6.000  -4.190  0.00  0.00     0.076 C 
ATOM      6  C7  UNL d   1       4.742   3.849  -4.494  0.00  0.00     0.002 A 
ATOM      7  C8  UNL d   1       3.751   2.941  -4.116  0.00  0.00     0.006 A 
ENDROOT
BRANCH   1   8
ATOM      8  C1  UNL d   1       1.846   2.234  -2.620  0.00  0.00     0.054 C 
ATOM      9  C   UNL d   1       2.240   1.350  -1.446  0.00  0.00     0.018 C 
ENDBRANCH   1   8
TORSDOF 1
ENDMDL
