MODEL 1
REMARK minimizedAffinity 9.14565754
REMARK minimizedRMSD -1
REMARK  1 active torsions:
REMARK  status: ('A' for Active; 'I' for Inactive)
REMARK    1  A    between atoms: C1_2  and  C2_3 
ROOT
ATOM      1  C2  UNL d   1      -0.748  -1.348   2.202  0.00  0.00    -0.081 A 
ATOM      2  C3  UNL d   1      -1.698  -0.882   1.284  0.00  0.00     0.006 A 
ATOM      3  C4  UNL d   1      -2.562   0.161   1.626  0.00  0.00     0.002 A 
ATOM      4  C5  UNL d   1      -2.486   0.760   2.888  0.00  0.00    -0.080 A 
ATOM      5  C6  UNL d   1      -3.387   1.901   3.258  0.00  0.00     0.076 C 
ATOM      6  C7  UNL d   1      -1.549   0.283   3.811  0.00  0.00     0.002 A 
ATOM      7  C8  UNL d   1      -0.685  -0.760   3.470  0.00  0.00     0.006 A 
ENDROOT
BRANCH   1   8
ATOM      8  C1  UNL d   1       0.228  -2.429   1.813  0.00  0.00     0.054 C 
ATOM      9  C   UNL d   1       1.653  -1.897   1.767  0.00  0.00     0.018 C 
ENDBRANCH   1   8
TORSDOF 1
ENDMDL
