MODEL 1
REMARK minimizedAffinity 9.81168747
REMARK minimizedRMSD -1
REMARK  1 active torsions:
REMARK  status: ('A' for Active; 'I' for Inactive)
REMARK    1  A    between atoms: C1_2  and  C2_3 
ROOT
ATOM      1  C2  UNL d   1      -2.874  -0.322   2.147  0.00  0.00    -0.081 A 
ATOM      2  C3  UNL d   1      -1.885   0.427   2.796  0.00  0.00     0.006 A 
ATOM      3  C4  UNL d   1      -0.562  -0.022   2.827  0.00  0.00     0.002 A 
ATOM      4  C5  UNL d   1      -0.205  -1.222   2.202  0.00  0.00    -0.080 A 
ATOM      5  C6  UNL d   1       1.216  -1.700   2.201  0.00  0.00     0.076 C 
ATOM      6  C7  UNL d   1      -1.197  -1.979   1.568  0.00  0.00     0.002 A 
ATOM      7  C8  UNL d   1      -2.519  -1.531   1.538  0.00  0.00     0.006 A 
ENDROOT
BRANCH   1   8
ATOM      8  C1  UNL d   1      -4.288   0.191   2.057  0.00  0.00     0.054 C 
ATOM      9  C   UNL d   1      -4.486   1.054   0.818  0.00  0.00     0.018 C 
ENDBRANCH   1   8
TORSDOF 1
ENDMDL
