MODEL 1
REMARK minimizedAffinity 8.71156693
REMARK minimizedRMSD -1
REMARK  1 active torsions:
REMARK  status: ('A' for Active; 'I' for Inactive)
REMARK    1  A    between atoms: C1_2  and  C2_3 
ROOT
ATOM      1  C2  UNL d   1       3.421   1.666   0.749  0.00  0.00    -0.081 A 
ATOM      2  C3  UNL d   1       3.773   1.537  -0.601  0.00  0.00     0.006 A 
ATOM      3  C4  UNL d   1       2.786   1.495  -1.588  0.00  0.00     0.002 A 
ATOM      4  C5  UNL d   1       1.433   1.589  -1.245  0.00  0.00    -0.080 A 
ATOM      5  C6  UNL d   1       0.365   1.576  -2.298  0.00  0.00     0.076 C 
ATOM      6  C7  UNL d   1       1.081   1.701   0.105  0.00  0.00     0.002 A 
ATOM      7  C8  UNL d   1       2.067   1.743   1.093  0.00  0.00     0.006 A 
ENDROOT
BRANCH   1   8
ATOM      8  C1  UNL d   1       4.486   1.777   1.810  0.00  0.00     0.054 C 
ATOM      9  C   UNL d   1       5.278   3.069   1.667  0.00  0.00     0.018 C 
ENDBRANCH   1   8
TORSDOF 1
ENDMDL
