MODEL 1
REMARK minimizedAffinity 8.37386036
REMARK minimizedRMSD -1
REMARK  1 active torsions:
REMARK  status: ('A' for Active; 'I' for Inactive)
REMARK    1  A    between atoms: C1_2  and  C2_3 
ROOT
ATOM      1  C2  UNL d   1       1.934  -5.021  -3.401  0.00  0.00    -0.081 A 
ATOM      2  C3  UNL d   1       0.965  -4.018  -3.269  0.00  0.00     0.006 A 
ATOM      3  C4  UNL d   1      -0.151  -3.997  -4.109  0.00  0.00     0.002 A 
ATOM      4  C5  UNL d   1      -0.321  -4.981  -5.088  0.00  0.00    -0.080 A 
ATOM      5  C6  UNL d   1      -1.530  -4.988  -5.976  0.00  0.00     0.076 C 
ATOM      6  C7  UNL d   1       0.655  -5.973  -5.232  0.00  0.00     0.002 A 
ATOM      7  C8  UNL d   1       1.772  -5.994  -4.393  0.00  0.00     0.006 A 
ENDROOT
BRANCH   1   8
ATOM      8  C1  UNL d   1       3.106  -5.083  -2.455  0.00  0.00     0.054 C 
ATOM      9  C   UNL d   1       2.787  -4.400  -1.133  0.00  0.00     0.018 C 
ENDBRANCH   1   8
TORSDOF 1
ENDMDL
