MODEL 1
REMARK minimizedAffinity 7.48206949
REMARK minimizedRMSD -1
REMARK  1 active torsions:
REMARK  status: ('A' for Active; 'I' for Inactive)
REMARK    1  A    between atoms: C1_2  and  C2_3 
ROOT
ATOM      1  C2  UNL d   1      -4.075   0.566   5.342  0.00  0.00    -0.081 A 
ATOM      2  C3  UNL d   1      -3.620   0.291   4.047  0.00  0.00     0.006 A 
ATOM      3  C4  UNL d   1      -3.960  -0.909   3.417  0.00  0.00     0.002 A 
ATOM      4  C5  UNL d   1      -4.768  -1.848   4.067  0.00  0.00    -0.080 A 
ATOM      5  C6  UNL d   1      -5.166  -3.126   3.390  0.00  0.00     0.076 C 
ATOM      6  C7  UNL d   1      -5.208  -1.580   5.368  0.00  0.00     0.002 A 
ATOM      7  C8  UNL d   1      -4.867  -0.382   5.999  0.00  0.00     0.006 A 
ENDROOT
BRANCH   1   8
ATOM      8  C1  UNL d   1      -3.763   1.886   6.000  0.00  0.00     0.054 C 
ATOM      9  C   UNL d   1      -4.848   2.915   5.717  0.00  0.00     0.018 C 
ENDBRANCH   1   8
TORSDOF 1
ENDMDL
