MODEL 1
REMARK minimizedAffinity 5.86805248
REMARK minimizedRMSD -1
REMARK  1 active torsions:
REMARK  status: ('A' for Active; 'I' for Inactive)
REMARK    1  A    between atoms: C1_2  and  C2_3 
ROOT
ATOM      1  C2  UNL d   1      -4.065   5.479  -4.344  0.00  0.00    -0.081 A 
ATOM      2  C3  UNL d   1      -3.397   5.539  -3.115  0.00  0.00     0.006 A 
ATOM      3  C4  UNL d   1      -4.024   5.100  -1.947  0.00  0.00     0.002 A 
ATOM      4  C5  UNL d   1      -5.325   4.586  -1.989  0.00  0.00    -0.080 A 
ATOM      5  C6  UNL d   1      -5.998   4.083  -0.747  0.00  0.00     0.076 C 
ATOM      6  C7  UNL d   1      -5.998   4.543  -3.214  0.00  0.00     0.002 A 
ATOM      7  C8  UNL d   1      -5.372   4.983  -4.383  0.00  0.00     0.006 A 
ENDROOT
BRANCH   1   8
ATOM      8  C1  UNL d   1      -3.368   5.893  -5.616  0.00  0.00     0.054 C 
ATOM      9  C   UNL d   1      -1.886   5.550  -5.571  0.00  0.00     0.018 C 
ENDBRANCH   1   8
TORSDOF 1
ENDMDL
