MODEL 1
REMARK minimizedAffinity 6.15802193
REMARK minimizedRMSD -1
REMARK  1 active torsions:
REMARK  status: ('A' for Active; 'I' for Inactive)
REMARK    1  A    between atoms: C1_2  and  C2_3 
ROOT
ATOM      1  C2  UNL d   1      -2.356   0.052   3.051  0.00  0.00    -0.081 A 
ATOM      2  C3  UNL d   1      -1.776   0.434   4.267  0.00  0.00     0.006 A 
ATOM      3  C4  UNL d   1      -2.523   1.132   5.219  0.00  0.00     0.002 A 
ATOM      4  C5  UNL d   1      -3.863   1.453   4.974  0.00  0.00    -0.080 A 
ATOM      5  C6  UNL d   1      -4.684   2.176   6.000  0.00  0.00     0.076 C 
ATOM      6  C7  UNL d   1      -4.436   1.087   3.752  0.00  0.00     0.002 A 
ATOM      7  C8  UNL d   1      -3.690   0.390   2.799  0.00  0.00     0.006 A 
ENDROOT
BRANCH   1   8
ATOM      8  C1  UNL d   1      -1.572  -0.757   2.049  0.00  0.00     0.054 C 
ATOM      9  C   UNL d   1      -2.487  -1.645   1.218  0.00  0.00     0.018 C 
ENDBRANCH   1   8
TORSDOF 1
ENDMDL
