MODEL 1
REMARK minimizedAffinity 1.94878447
REMARK minimizedRMSD -1
REMARK  0 active torsions:
REMARK  status: ('A' for Active; 'I' for Inactive)
ROOT
ATOM      1  C   UNL d   1       1.595  -1.537  -0.023  0.00  0.00    -0.002 A 
ATOM      2  C1  UNL d   1       1.617  -0.537  -0.984  0.00  0.00     0.010 A 
ATOM      3  C2  UNL d   1       0.652   0.472  -0.982  0.00  0.00     0.041 A 
ATOM      4  C3  UNL d   1      -0.344   0.460   0.015  0.00  0.00    -0.075 A 
ATOM      5  S   UNL d   1      -1.627   1.594   0.216  0.00  0.00     0.015 SA
ATOM      6  C4  UNL d   1      -2.234   0.778   1.583  0.00  0.00     0.022 A 
ATOM      7  C5  UNL d   1      -1.489  -0.335   1.893  0.00  0.00     0.026 A 
ATOM      8  C6  UNL d   1      -0.387  -0.536   0.994  0.00  0.00    -0.082 A 
ATOM      9  C7  UNL d   1       0.605  -1.546   0.964  0.00  0.00     0.045 A 
ENDROOT
TORSDOF 0
ENDMDL
