MODEL 1
REMARK minimizedAffinity 1.85643256
REMARK minimizedRMSD -1
REMARK  0 active torsions:
REMARK  status: ('A' for Active; 'I' for Inactive)
ROOT
ATOM      1  C   UNL d   1      -0.443   0.074  -0.459  0.00  0.00    -0.002 A 
ATOM      2  C1  UNL d   1       0.346  -0.732   0.350  0.00  0.00     0.010 A 
ATOM      3  C2  UNL d   1       0.138  -0.772   1.730  0.00  0.00     0.041 A 
ATOM      4  C3  UNL d   1      -0.887   0.016   2.288  0.00  0.00    -0.075 A 
ATOM      5  S   UNL d   1      -1.325   0.126   3.952  0.00  0.00     0.015 SA
ATOM      6  C4  UNL d   1      -2.570   1.244   3.628  0.00  0.00     0.022 A 
ATOM      7  C5  UNL d   1      -2.663   1.537   2.288  0.00  0.00     0.026 A 
ATOM      8  C6  UNL d   1      -1.695   0.834   1.494  0.00  0.00    -0.082 A 
ATOM      9  C7  UNL d   1      -1.459   0.854   0.098  0.00  0.00     0.045 A 
ENDROOT
TORSDOF 0
ENDMDL
