MODEL 1
REMARK minimizedAffinity -3.43439841
REMARK minimizedRMSD -1
REMARK  0 active torsions:
REMARK  status: ('A' for Active; 'I' for Inactive)
ROOT
ATOM      1  C   UNL d   1       2.999  -0.507  -1.917  0.00  0.00    -0.002 A 
ATOM      2  C1  UNL d   1       2.584   0.817  -1.917  0.00  0.00     0.010 A 
ATOM      3  C2  UNL d   1       1.425   1.198  -1.239  0.00  0.00     0.041 A 
ATOM      4  C3  UNL d   1       0.683   0.216  -0.552  0.00  0.00    -0.075 A 
ATOM      5  S   UNL d   1      -0.768   0.450   0.348  0.00  0.00     0.015 SA
ATOM      6  C4  UNL d   1      -0.871  -1.202   0.754  0.00  0.00     0.022 A 
ATOM      7  C5  UNL d   1       0.168  -1.929   0.224  0.00  0.00     0.026 A 
ATOM      8  C6  UNL d   1       1.082  -1.123  -0.537  0.00  0.00    -0.082 A 
ATOM      9  C7  UNL d   1       2.261  -1.478  -1.235  0.00  0.00     0.045 A 
ENDROOT
TORSDOF 0
ENDMDL
