MODEL 1
REMARK minimizedAffinity -3.05543137
REMARK minimizedRMSD -1
REMARK  0 active torsions:
REMARK  status: ('A' for Active; 'I' for Inactive)
ROOT
ATOM      1  C   UNL d   1       2.680  -0.823  -2.160  0.00  0.00    -0.002 A 
ATOM      2  C1  UNL d   1       2.798   0.507  -1.782  0.00  0.00     0.010 A 
ATOM      3  C2  UNL d   1       1.892   1.073  -0.883  0.00  0.00     0.041 A 
ATOM      4  C3  UNL d   1       0.856   0.271  -0.364  0.00  0.00    -0.075 A 
ATOM      5  S   UNL d   1      -0.369   0.749   0.752  0.00  0.00     0.015 SA
ATOM      6  C4  UNL d   1      -1.077  -0.802   0.753  0.00  0.00     0.022 A 
ATOM      7  C5  UNL d   1      -0.408  -1.675  -0.072  0.00  0.00     0.026 A 
ATOM      8  C6  UNL d   1       0.717  -1.071  -0.729  0.00  0.00    -0.082 A 
ATOM      9  C7  UNL d   1       1.651  -1.615  -1.643  0.00  0.00     0.045 A 
ENDROOT
TORSDOF 0
ENDMDL
