MODEL 1
REMARK minimizedAffinity -4.82934523
REMARK minimizedRMSD -1
REMARK  0 active torsions:
REMARK  status: ('A' for Active; 'I' for Inactive)
ROOT
ATOM      1  C   UNL d   1       2.115   1.247  -3.039  0.00  0.00    -0.002 A 
ATOM      2  C1  UNL d   1       2.770   0.104  -2.605  0.00  0.00     0.010 A 
ATOM      3  C2  UNL d   1       2.216  -0.694  -1.602  0.00  0.00     0.041 A 
ATOM      4  C3  UNL d   1       0.980  -0.321  -1.039  0.00  0.00    -0.075 A 
ATOM      5  S   UNL d   1       0.110  -1.146   0.201  0.00  0.00     0.015 SA
ATOM      6  C4  UNL d   1      -1.151   0.000   0.182  0.00  0.00     0.022 A 
ATOM      7  C5  UNL d   1      -0.931   0.995  -0.741  0.00  0.00     0.026 A 
ATOM      8  C6  UNL d   1       0.301   0.826  -1.461  0.00  0.00    -0.082 A 
ATOM      9  C7  UNL d   1       0.889   1.614  -2.478  0.00  0.00     0.045 A 
ENDROOT
TORSDOF 0
ENDMDL
