MODEL 1
REMARK minimizedAffinity -5.6982584
REMARK minimizedRMSD -1
REMARK  0 active torsions:
REMARK  status: ('A' for Active; 'I' for Inactive)
ROOT
ATOM      1  C   UNL d   1       1.935   1.071  -3.104  0.00  0.00    -0.002 A 
ATOM      2  C1  UNL d   1       0.810   1.730  -2.631  0.00  0.00     0.010 A 
ATOM      3  C2  UNL d   1       0.132   1.261  -1.504  0.00  0.00     0.041 A 
ATOM      4  C3  UNL d   1       0.611   0.108  -0.853  0.00  0.00    -0.075 A 
ATOM      5  S   UNL d   1      -0.056  -0.649   0.546  0.00  0.00     0.015 SA
ATOM      6  C4  UNL d   1       1.137  -1.865   0.549  0.00  0.00     0.022 A 
ATOM      7  C5  UNL d   1       2.031  -1.713  -0.484  0.00  0.00     0.026 A 
ATOM      8  C6  UNL d   1       1.743  -0.574  -1.309  0.00  0.00    -0.082 A 
ATOM      9  C7  UNL d   1       2.407  -0.074  -2.455  0.00  0.00     0.045 A 
ENDROOT
TORSDOF 0
ENDMDL
