MODEL 1
REMARK minimizedAffinity -1.44177449
REMARK minimizedRMSD -1
REMARK  0 active torsions:
REMARK  status: ('A' for Active; 'I' for Inactive)
ROOT
ATOM      1  C   UNL d   1       2.760  -1.105  -2.715  0.00  0.00    -0.002 A 
ATOM      2  C1  UNL d   1       2.570   0.127  -3.324  0.00  0.00     0.010 A 
ATOM      3  C2  UNL d   1       1.543   0.975  -2.904  0.00  0.00     0.041 A 
ATOM      4  C3  UNL d   1       0.704   0.561  -1.851  0.00  0.00    -0.075 A 
ATOM      5  S   UNL d   1      -0.617   1.434  -1.169  0.00  0.00     0.015 SA
ATOM      6  C4  UNL d   1      -0.959   0.192  -0.053  0.00  0.00     0.022 A 
ATOM      7  C5  UNL d   1      -0.096  -0.870  -0.184  0.00  0.00     0.026 A 
ATOM      8  C6  UNL d   1       0.877  -0.675  -1.221  0.00  0.00    -0.082 A 
ATOM      9  C7  UNL d   1       1.927  -1.512  -1.670  0.00  0.00     0.045 A 
ENDROOT
TORSDOF 0
ENDMDL
