MODEL 1
REMARK minimizedAffinity -2.40529251
REMARK minimizedRMSD -1
REMARK  0 active torsions:
REMARK  status: ('A' for Active; 'I' for Inactive)
ROOT
ATOM      1  C   UNL d   1       3.081  -1.120  -0.997  0.00  0.00    -0.002 A 
ATOM      2  C1  UNL d   1       3.286  -0.036  -0.155  0.00  0.00     0.010 A 
ATOM      3  C2  UNL d   1       2.223   0.518   0.561  0.00  0.00     0.041 A 
ATOM      4  C3  UNL d   1       0.938  -0.043   0.417  0.00  0.00    -0.075 A 
ATOM      5  S   UNL d   1      -0.512   0.469   1.195  0.00  0.00     0.015 SA
ATOM      6  C4  UNL d   1      -1.438  -0.741   0.430  0.00  0.00     0.022 A 
ATOM      7  C5  UNL d   1      -0.675  -1.525  -0.403  0.00  0.00     0.026 A 
ATOM      8  C6  UNL d   1       0.708  -1.136  -0.423  0.00  0.00    -0.082 A 
ATOM      9  C7  UNL d   1       1.806  -1.674  -1.137  0.00  0.00     0.045 A 
ENDROOT
TORSDOF 0
ENDMDL
