MODEL 1
REMARK minimizedAffinity -3.75595236
REMARK minimizedRMSD -1
REMARK  0 active torsions:
REMARK  status: ('A' for Active; 'I' for Inactive)
ROOT
ATOM      1  C   UNL d   1       2.641   1.389  -2.828  0.00  0.00    -0.002 A 
ATOM      2  C1  UNL d   1       1.510   2.064  -2.391  0.00  0.00     0.010 A 
ATOM      3  C2  UNL d   1       0.648   1.479  -1.462  0.00  0.00     0.041 A 
ATOM      4  C3  UNL d   1       0.944   0.192  -0.973  0.00  0.00    -0.075 A 
ATOM      5  S   UNL d   1       0.032  -0.722   0.170  0.00  0.00     0.015 SA
ATOM      6  C4  UNL d   1       1.123  -2.030   0.106  0.00  0.00     0.022 A 
ATOM      7  C5  UNL d   1       2.163  -1.793  -0.761  0.00  0.00     0.026 A 
ATOM      8  C6  UNL d   1       2.077  -0.508  -1.397  0.00  0.00    -0.082 A 
ATOM      9  C7  UNL d   1       2.932   0.111  -2.340  0.00  0.00     0.045 A 
ENDROOT
TORSDOF 0
ENDMDL
