MODEL 1
REMARK minimizedAffinity -2.08844543
REMARK minimizedRMSD -1
REMARK  0 active torsions:
REMARK  status: ('A' for Active; 'I' for Inactive)
ROOT
ATOM      1  C   UNL d   1       2.804  -0.990  -0.202  0.00  0.00    -0.002 A 
ATOM      2  C1  UNL d   1       2.363  -0.482  -1.416  0.00  0.00     0.010 A 
ATOM      3  C2  UNL d   1       1.084   0.066  -1.533  0.00  0.00     0.041 A 
ATOM      4  C3  UNL d   1       0.248   0.096  -0.400  0.00  0.00    -0.075 A 
ATOM      5  S   UNL d   1      -1.357   0.719  -0.308  0.00  0.00     0.015 SA
ATOM      6  C4  UNL d   1      -1.495   0.326   1.345  0.00  0.00     0.022 A 
ATOM      7  C5  UNL d   1      -0.353  -0.267   1.831  0.00  0.00     0.026 A 
ATOM      8  C6  UNL d   1       0.670  -0.409   0.833  0.00  0.00    -0.082 A 
ATOM      9  C7  UNL d   1       1.972  -0.958   0.921  0.00  0.00     0.045 A 
ENDROOT
TORSDOF 0
ENDMDL
