MODEL 1
REMARK minimizedAffinity -3.92594242
REMARK minimizedRMSD -1
REMARK  1 active torsions:
REMARK  status: ('A' for Active; 'I' for Inactive)
REMARK    1  A    between atoms: C3_4  and  O_7 
ROOT
ATOM      1  C   UNL d   1      -1.823   0.358   2.658  0.00  0.00    -0.033 A 
ATOM      2  C1  UNL d   1      -1.888   0.830   1.345  0.00  0.00     0.039 A 
ATOM      3  C2  UNL d   1      -1.140   0.211   0.342  0.00  0.00    -0.080 A 
ATOM      4  C3  UNL d   1      -0.334  -0.878   0.663  0.00  0.00     0.150 A 
ATOM      5  C4  UNL d   1      -0.268  -1.355   1.968  0.00  0.00    -0.007 A 
ATOM      6  C5  UNL d   1      -1.015  -0.735   2.969  0.00  0.00     0.039 A 
ENDROOT
BRANCH   4   7
ATOM      7  O   UNL d   1       0.418  -1.511  -0.281  0.00  0.00    -0.526 OA
ATOM      8  H5  UNL d   1       0.294  -1.055  -1.130  0.00  0.00     0.418 HD
ENDBRANCH   4   7
TORSDOF 1
ENDMDL
