MODEL 1
REMARK minimizedAffinity -3.95574617
REMARK minimizedRMSD -1
REMARK  1 active torsions:
REMARK  status: ('A' for Active; 'I' for Inactive)
REMARK    1  A    between atoms: C3_4  and  O_7 
ROOT
ATOM      1  C   UNL d   1      -0.544  -0.359   3.187  0.00  0.00    -0.033 A 
ATOM      2  C1  UNL d   1       0.542   0.402   2.751  0.00  0.00     0.039 A 
ATOM      3  C2  UNL d   1       0.810   0.522   1.386  0.00  0.00    -0.080 A 
ATOM      4  C3  UNL d   1      -0.016  -0.122   0.469  0.00  0.00     0.150 A 
ATOM      5  C4  UNL d   1      -1.102  -0.879   0.896  0.00  0.00    -0.007 A 
ATOM      6  C5  UNL d   1      -1.367  -0.998   2.259  0.00  0.00     0.039 A 
ENDROOT
BRANCH   4   7
ATOM      7  O   UNL d   1       0.209  -0.038  -0.874  0.00  0.00    -0.526 OA
ATOM      8  H5  UNL d   1       1.009   0.493  -1.019  0.00  0.00     0.418 HD
ENDBRANCH   4   7
TORSDOF 1
ENDMDL
