MODEL 1
REMARK minimizedAffinity -4.76672029
REMARK minimizedRMSD -1
REMARK  1 active torsions:
REMARK  status: ('A' for Active; 'I' for Inactive)
REMARK    1  A    between atoms: C3_4  and  O_7 
ROOT
ATOM      1  C   UNL d   1       0.353   0.736   0.247  0.00  0.00    -0.033 A 
ATOM      2  C1  UNL d   1       1.116   0.849   1.412  0.00  0.00     0.039 A 
ATOM      3  C2  UNL d   1       0.728   0.173   2.570  0.00  0.00    -0.080 A 
ATOM      4  C3  UNL d   1      -0.422  -0.612   2.551  0.00  0.00     0.150 A 
ATOM      5  C4  UNL d   1      -1.184  -0.731   1.394  0.00  0.00    -0.007 A 
ATOM      6  C5  UNL d   1      -0.796  -0.055   0.238  0.00  0.00     0.039 A 
ENDROOT
BRANCH   4   7
ATOM      7  O   UNL d   1      -0.843  -1.286   3.658  0.00  0.00    -0.526 OA
ATOM      8  H5  UNL d   1      -0.235  -1.087   4.390  0.00  0.00     0.418 HD
ENDBRANCH   4   7
TORSDOF 1
ENDMDL
