MODEL 1
REMARK minimizedAffinity -1.83851743
REMARK minimizedRMSD -1
REMARK  1 active torsions:
REMARK  status: ('A' for Active; 'I' for Inactive)
REMARK    1  A    between atoms: C3_4  and  O_7 
ROOT
ATOM      1  C   UNL d   1      -3.750  -4.682   0.855  0.00  0.00    -0.033 A 
ATOM      2  C1  UNL d   1      -3.084  -3.722   1.621  0.00  0.00     0.039 A 
ATOM      3  C2  UNL d   1      -2.946  -3.898   2.999  0.00  0.00    -0.080 A 
ATOM      4  C3  UNL d   1      -3.475  -5.038   3.598  0.00  0.00     0.150 A 
ATOM      5  C4  UNL d   1      -4.136  -6.000   2.841  0.00  0.00    -0.007 A 
ATOM      6  C5  UNL d   1      -4.274  -5.821   1.466  0.00  0.00     0.039 A 
ENDROOT
BRANCH   4   7
ATOM      7  O   UNL d   1      -3.369  -5.252   4.940  0.00  0.00    -0.526 OA
ATOM      8  H5  UNL d   1      -2.914  -4.491   5.338  0.00  0.00     0.418 HD
ENDBRANCH   4   7
TORSDOF 1
ENDMDL
