MODEL 1
REMARK minimizedAffinity -1.43246305
REMARK minimizedRMSD -1
REMARK  1 active torsions:
REMARK  status: ('A' for Active; 'I' for Inactive)
REMARK    1  A    between atoms: C3_4  and  O_7 
ROOT
ATOM      1  C   UNL d   1      -2.135   2.571   4.137  0.00  0.00    -0.033 A 
ATOM      2  C1  UNL d   1      -3.178   3.078   4.914  0.00  0.00     0.039 A 
ATOM      3  C2  UNL d   1      -4.479   3.108   4.407  0.00  0.00    -0.080 A 
ATOM      4  C3  UNL d   1      -4.723   2.628   3.123  0.00  0.00     0.150 A 
ATOM      5  C4  UNL d   1      -3.689   2.118   2.345  0.00  0.00    -0.007 A 
ATOM      6  C5  UNL d   1      -2.391   2.090   2.853  0.00  0.00     0.039 A 
ENDROOT
BRANCH   4   7
ATOM      7  O   UNL d   1      -5.974   2.641   2.584  0.00  0.00    -0.526 OA
ATOM      8  H5  UNL d   1      -6.582   3.047   3.224  0.00  0.00     0.418 HD
ENDBRANCH   4   7
TORSDOF 1
ENDMDL
