MODEL 1
REMARK minimizedAffinity -4.71767378
REMARK minimizedRMSD -1
REMARK  1 active torsions:
REMARK  status: ('A' for Active; 'I' for Inactive)
REMARK    1  A    between atoms: C3_4  and  O_7 
ROOT
ATOM      1  C   UNL d   1       1.181  -0.187   2.988  0.00  0.00    -0.033 A 
ATOM      2  C1  UNL d   1       2.177  -0.169   2.009  0.00  0.00     0.039 A 
ATOM      3  C2  UNL d   1       1.834  -0.004   0.665  0.00  0.00    -0.080 A 
ATOM      4  C3  UNL d   1       0.495   0.142   0.314  0.00  0.00     0.150 A 
ATOM      5  C4  UNL d   1      -0.502   0.128   1.285  0.00  0.00    -0.007 A 
ATOM      6  C5  UNL d   1      -0.158  -0.037   2.626  0.00  0.00     0.039 A 
ENDROOT
BRANCH   4   7
ATOM      7  O   UNL d   1       0.111   0.300  -0.984  0.00  0.00    -0.526 OA
ATOM      8  H5  UNL d   1       0.903   0.261  -1.546  0.00  0.00     0.418 HD
ENDBRANCH   4   7
TORSDOF 1
ENDMDL
