MODEL 1
REMARK minimizedAffinity -4.66845942
REMARK minimizedRMSD -1
REMARK  1 active torsions:
REMARK  status: ('A' for Active; 'I' for Inactive)
REMARK    1  A    between atoms: C3_4  and  O_7 
ROOT
ATOM      1  C   UNL d   1      -0.219  -0.312   2.974  0.00  0.00    -0.033 A 
ATOM      2  C1  UNL d   1       0.682   0.738   2.787  0.00  0.00     0.039 A 
ATOM      3  C2  UNL d   1       0.992   1.172   1.497  0.00  0.00    -0.080 A 
ATOM      4  C3  UNL d   1       0.396   0.549   0.404  0.00  0.00     0.150 A 
ATOM      5  C4  UNL d   1      -0.506  -0.495   0.583  0.00  0.00    -0.007 A 
ATOM      6  C5  UNL d   1      -0.814  -0.928   1.872  0.00  0.00     0.039 A 
ENDROOT
BRANCH   4   7
ATOM      7  O   UNL d   1       0.671   0.934  -0.874  0.00  0.00    -0.526 OA
ATOM      8  H5  UNL d   1       1.332   1.646  -0.845  0.00  0.00     0.418 HD
ENDBRANCH   4   7
TORSDOF 1
ENDMDL
