MODEL 1
REMARK minimizedAffinity -4.45697737
REMARK minimizedRMSD -1
REMARK  1 active torsions:
REMARK  status: ('A' for Active; 'I' for Inactive)
REMARK    1  A    between atoms: C3_4  and  O_7 
ROOT
ATOM      1  C   UNL d   1       0.143  -0.060   3.084  0.00  0.00    -0.033 A 
ATOM      2  C1  UNL d   1      -1.042  -0.074   2.345  0.00  0.00     0.039 A 
ATOM      3  C2  UNL d   1      -1.026   0.257   0.989  0.00  0.00    -0.080 A 
ATOM      4  C3  UNL d   1       0.180   0.600   0.384  0.00  0.00     0.150 A 
ATOM      5  C4  UNL d   1       1.365   0.612   1.113  0.00  0.00    -0.007 A 
ATOM      6  C5  UNL d   1       1.346   0.282   2.467  0.00  0.00     0.039 A 
ENDROOT
BRANCH   4   7
ATOM      7  O   UNL d   1       0.245   0.935  -0.936  0.00  0.00    -0.526 OA
ATOM      8  H5  UNL d   1      -0.654   0.911  -1.304  0.00  0.00     0.418 HD
ENDBRANCH   4   7
TORSDOF 1
ENDMDL
