MODEL 1
REMARK minimizedAffinity -4.29465342
REMARK minimizedRMSD -1
REMARK  1 active torsions:
REMARK  status: ('A' for Active; 'I' for Inactive)
REMARK    1  A    between atoms: C3_4  and  O_7 
ROOT
ATOM      1  C   UNL d   1      -0.261   0.150   3.327  0.00  0.00    -0.033 A 
ATOM      2  C1  UNL d   1       1.019   0.395   2.826  0.00  0.00     0.039 A 
ATOM      3  C2  UNL d   1       1.294   0.180   1.474  0.00  0.00    -0.080 A 
ATOM      4  C3  UNL d   1       0.282  -0.277   0.635  0.00  0.00     0.150 A 
ATOM      5  C4  UNL d   1      -0.996  -0.520   1.126  0.00  0.00    -0.007 A 
ATOM      6  C5  UNL d   1      -1.269  -0.306   2.477  0.00  0.00     0.039 A 
ENDROOT
BRANCH   4   7
ATOM      7  O   UNL d   1       0.504  -0.506  -0.691  0.00  0.00    -0.526 OA
ATOM      8  H5  UNL d   1       1.439  -0.323  -0.882  0.00  0.00     0.418 HD
ENDBRANCH   4   7
TORSDOF 1
ENDMDL
