MODEL 1
REMARK minimizedAffinity -4.66172791
REMARK minimizedRMSD -1
REMARK  1 active torsions:
REMARK  status: ('A' for Active; 'I' for Inactive)
REMARK    1  A    between atoms: C3_4  and  O_7 
ROOT
ATOM      1  C   UNL d   1      -0.687  -0.700   2.839  0.00  0.00    -0.033 A 
ATOM      2  C1  UNL d   1      -1.301  -0.941   1.608  0.00  0.00     0.039 A 
ATOM      3  C2  UNL d   1      -0.737  -0.439   0.434  0.00  0.00    -0.080 A 
ATOM      4  C3  UNL d   1       0.441   0.301   0.503  0.00  0.00     0.150 A 
ATOM      5  C4  UNL d   1       1.060   0.541   1.725  0.00  0.00    -0.007 A 
ATOM      6  C5  UNL d   1       0.495   0.040   2.897  0.00  0.00     0.039 A 
ENDROOT
BRANCH   4   7
ATOM      7  O   UNL d   1       1.026   0.815  -0.615  0.00  0.00    -0.526 OA
ATOM      8  H5  UNL d   1       0.472   0.594  -1.382  0.00  0.00     0.418 HD
ENDBRANCH   4   7
TORSDOF 1
ENDMDL
