MODEL 1
REMARK minimizedAffinity 5.08842134
REMARK minimizedRMSD -1
REMARK  1 active torsions:
REMARK  status: ('A' for Active; 'I' for Inactive)
REMARK    1  A    between atoms: C3_4  and  O_7 
ROOT
ATOM      1  C   UNL d   1      -0.021  -5.995   0.203  0.00  0.00    -0.033 A 
ATOM      2  C1  UNL d   1      -0.571  -5.999   1.486  0.00  0.00     0.039 A 
ATOM      3  C2  UNL d   1      -1.958  -5.999   1.653  0.00  0.00    -0.080 A 
ATOM      4  C3  UNL d   1      -2.781  -5.998   0.530  0.00  0.00     0.150 A 
ATOM      5  C4  UNL d   1      -2.239  -5.998  -0.751  0.00  0.00    -0.007 A 
ATOM      6  C5  UNL d   1      -0.855  -5.997  -0.916  0.00  0.00     0.039 A 
ENDROOT
BRANCH   4   7
ATOM      7  O   UNL d   1      -4.139  -5.993   0.642  0.00  0.00    -0.526 OA
ATOM      8  H5  UNL d   1      -4.370  -5.964   1.586  0.00  0.00     0.418 HD
ENDBRANCH   4   7
TORSDOF 1
ENDMDL
