MODEL 1
REMARK minimizedAffinity -0.613033295
REMARK minimizedRMSD -1
REMARK  1 active torsions:
REMARK  status: ('A' for Active; 'I' for Inactive)
REMARK    1  A    between atoms: C3_4  and  O_7 
ROOT
ATOM      1  C   UNL d   1       4.121  -0.727   2.565  0.00  0.00    -0.033 A 
ATOM      2  C1  UNL d   1       4.136  -1.008   3.933  0.00  0.00     0.039 A 
ATOM      3  C2  UNL d   1       3.258  -1.956   4.462  0.00  0.00    -0.080 A 
ATOM      4  C3  UNL d   1       2.373  -2.616   3.614  0.00  0.00     0.150 A 
ATOM      5  C4  UNL d   1       2.355  -2.344   2.250  0.00  0.00    -0.007 A 
ATOM      6  C5  UNL d   1       3.232  -1.396   1.724  0.00  0.00     0.039 A 
ENDROOT
BRANCH   4   7
ATOM      7  O   UNL d   1       1.494  -3.546   4.085  0.00  0.00    -0.526 OA
ATOM      8  H5  UNL d   1       1.600  -3.609   5.049  0.00  0.00     0.418 HD
ENDBRANCH   4   7
TORSDOF 1
ENDMDL
