MODEL 1
REMARK minimizedAffinity -3.31352592
REMARK minimizedRMSD -1
REMARK  1 active torsions:
REMARK  status: ('A' for Active; 'I' for Inactive)
REMARK    1  A    between atoms: C3_4  and  O_7 
ROOT
ATOM      1  C   UNL d   1       2.041  -0.833  -2.323  0.00  0.00    -0.033 A 
ATOM      2  C1  UNL d   1       2.821  -1.365  -3.351  0.00  0.00     0.039 A 
ATOM      3  C2  UNL d   1       3.903  -0.642  -3.855  0.00  0.00    -0.080 A 
ATOM      4  C3  UNL d   1       4.195   0.611  -3.323  0.00  0.00     0.150 A 
ATOM      5  C4  UNL d   1       3.424   1.146  -2.296  0.00  0.00    -0.007 A 
ATOM      6  C5  UNL d   1       2.343   0.422  -1.795  0.00  0.00     0.039 A 
ENDROOT
BRANCH   4   7
ATOM      7  O   UNL d   1       5.238   1.357  -3.786  0.00  0.00    -0.526 OA
ATOM      8  H5  UNL d   1       5.663   0.873  -4.514  0.00  0.00     0.418 HD
ENDBRANCH   4   7
TORSDOF 1
ENDMDL
