MODEL 1
REMARK minimizedAffinity 7.59588671
REMARK minimizedRMSD -1
REMARK  2 active torsions:
REMARK  status: ('A' for Active; 'I' for Inactive)
REMARK    1  A    between atoms: C1_2  and  C2_3 
REMARK    2  A    between atoms: C2_3  and  C3_4 
ROOT
ATOM      1  C3  UNL d   1      -5.989   0.822   4.427  0.00  0.00    -0.075 A 
ATOM      2  C4  UNL d   1      -5.982   0.342   5.745  0.00  0.00     0.002 A 
ATOM      3  C5  UNL d   1      -5.958  -1.030   5.999  0.00  0.00     0.002 A 
ATOM      4  C6  UNL d   1      -5.950  -1.937   4.941  0.00  0.00    -0.004 A 
ATOM      5  C7  UNL d   1      -5.973  -1.471   3.628  0.00  0.00     0.002 A 
ATOM      6  C8  UNL d   1      -5.993  -0.099   3.372  0.00  0.00     0.002 A 
ENDROOT
BRANCH   1   7
ATOM      7  C2  UNL d   1      -5.986   2.306   4.146  0.00  0.00     0.056 C 
BRANCH   7   8
ATOM      8  C1  UNL d   1      -5.074   2.719   2.986  0.00  0.00     0.007 C 
ATOM      9  C   UNL d   1      -3.692   2.082   3.053  0.00  0.00     0.009 C 
ENDBRANCH   7   8
ENDBRANCH   1   7
TORSDOF 2
ENDMDL
