MODEL 1
REMARK minimizedAffinity 5.36775017
REMARK minimizedRMSD -1
REMARK  2 active torsions:
REMARK  status: ('A' for Active; 'I' for Inactive)
REMARK    1  A    between atoms: C1_2  and  C2_3 
REMARK    2  A    between atoms: C2_3  and  C3_4 
ROOT
ATOM      1  C3  UNL d   1      -0.342  -1.763  -3.689  0.00  0.00    -0.075 A 
ATOM      2  C4  UNL d   1      -1.036  -0.670  -3.150  0.00  0.00     0.002 A 
ATOM      3  C5  UNL d   1      -2.414  -0.740  -2.940  0.00  0.00     0.002 A 
ATOM      4  C6  UNL d   1      -3.115  -1.895  -3.277  0.00  0.00    -0.004 A 
ATOM      5  C7  UNL d   1      -2.438  -2.981  -3.829  0.00  0.00     0.002 A 
ATOM      6  C8  UNL d   1      -1.059  -2.916  -4.035  0.00  0.00     0.002 A 
ENDROOT
BRANCH   1   7
ATOM      7  C2  UNL d   1       1.153  -1.705  -3.891  0.00  0.00     0.056 C 
BRANCH   7   8
ATOM      8  C1  UNL d   1       1.908  -0.993  -2.763  0.00  0.00     0.007 C 
ATOM      9  C   UNL d   1       3.233  -0.392  -3.213  0.00  0.00     0.009 C 
ENDBRANCH   7   8
ENDBRANCH   1   7
TORSDOF 2
ENDMDL
