MODEL 1
REMARK minimizedAffinity 10.7536469
REMARK minimizedRMSD -1
REMARK  2 active torsions:
REMARK  status: ('A' for Active; 'I' for Inactive)
REMARK    1  A    between atoms: C1_2  and  C2_3 
REMARK    2  A    between atoms: C2_3  and  C3_4 
ROOT
ATOM      1  C3  UNL d   1      -0.043  -5.989   1.670  0.00  0.00    -0.075 A 
ATOM      2  C4  UNL d   1      -0.421  -6.000   3.021  0.00  0.00     0.002 A 
ATOM      3  C5  UNL d   1       0.546  -5.996   4.026  0.00  0.00     0.002 A 
ATOM      4  C6  UNL d   1       1.900  -5.992   3.696  0.00  0.00    -0.004 A 
ATOM      5  C7  UNL d   1       2.286  -5.998   2.357  0.00  0.00     0.002 A 
ATOM      6  C8  UNL d   1       1.321  -5.997   1.349  0.00  0.00     0.002 A 
ENDROOT
BRANCH   1   7
ATOM      7  C2  UNL d   1      -1.085  -5.964   0.577  0.00  0.00     0.056 C 
BRANCH   7   8
ATOM      8  C1  UNL d   1      -2.300  -5.086   0.894  0.00  0.00     0.007 C 
ATOM      9  C   UNL d   1      -1.978  -3.598   0.912  0.00  0.00     0.009 C 
ENDBRANCH   7   8
ENDBRANCH   1   7
TORSDOF 2
ENDMDL
