MODEL 1
REMARK minimizedAffinity 2.9132719
REMARK minimizedRMSD -1
REMARK  2 active torsions:
REMARK  status: ('A' for Active; 'I' for Inactive)
REMARK    1  A    between atoms: C1_2  and  C2_3 
REMARK    2  A    between atoms: C2_3  and  C3_4 
ROOT
ATOM      1  C3  UNL d   1      -1.805  -5.964   2.179  0.00  0.00    -0.075 A 
ATOM      2  C4  UNL d   1      -1.783  -5.992   3.581  0.00  0.00     0.002 A 
ATOM      3  C5  UNL d   1      -0.571  -5.998   4.271  0.00  0.00     0.002 A 
ATOM      4  C6  UNL d   1       0.633  -5.987   3.569  0.00  0.00    -0.004 A 
ATOM      5  C7  UNL d   1       0.624  -5.975   2.176  0.00  0.00     0.002 A 
ATOM      6  C8  UNL d   1      -0.588  -5.965   1.484  0.00  0.00     0.002 A 
ENDROOT
BRANCH   1   7
ATOM      7  C2  UNL d   1      -3.114  -5.927   1.427  0.00  0.00     0.056 C 
BRANCH   7   8
ATOM      8  C1  UNL d   1      -4.352  -5.975   2.327  0.00  0.00     0.007 C 
ATOM      9  C   UNL d   1      -5.661  -5.866   1.556  0.00  0.00     0.009 C 
ENDBRANCH   7   8
ENDBRANCH   1   7
TORSDOF 2
ENDMDL
