MODEL 1
REMARK minimizedAffinity 1.36511624
REMARK minimizedRMSD -1
REMARK  2 active torsions:
REMARK  status: ('A' for Active; 'I' for Inactive)
REMARK    1  A    between atoms: C1_2  and  C2_3 
REMARK    2  A    between atoms: C2_3  and  C3_4 
ROOT
ATOM      1  C3  UNL d   1      -1.472  -5.984   2.203  0.00  0.00    -0.075 A 
ATOM      2  C4  UNL d   1      -1.335  -5.999   3.599  0.00  0.00     0.002 A 
ATOM      3  C5  UNL d   1      -0.069  -5.999   4.185  0.00  0.00     0.002 A 
ATOM      4  C6  UNL d   1       1.072  -5.996   3.387  0.00  0.00    -0.004 A 
ATOM      5  C7  UNL d   1       0.948  -5.998   1.999  0.00  0.00     0.002 A 
ATOM      6  C8  UNL d   1      -0.318  -5.993   1.409  0.00  0.00     0.002 A 
ENDROOT
BRANCH   1   7
ATOM      7  C2  UNL d   1      -2.839  -5.954   1.562  0.00  0.00     0.056 C 
BRANCH   7   8
ATOM      8  C1  UNL d   1      -3.993  -5.806   2.559  0.00  0.00     0.007 C 
ATOM      9  C   UNL d   1      -5.364  -5.999   1.924  0.00  0.00     0.009 C 
ENDBRANCH   7   8
ENDBRANCH   1   7
TORSDOF 2
ENDMDL
