MODEL 1
REMARK minimizedAffinity 5.3712759
REMARK minimizedRMSD -1
REMARK  2 active torsions:
REMARK  status: ('A' for Active; 'I' for Inactive)
REMARK    1  A    between atoms: C1_2  and  C2_3 
REMARK    2  A    between atoms: C2_3  and  C3_4 
ROOT
ATOM      1  C3  UNL d   1      -1.063  -2.054   1.997  0.00  0.00    -0.075 A 
ATOM      2  C4  UNL d   1      -0.460  -1.408   0.908  0.00  0.00     0.002 A 
ATOM      3  C5  UNL d   1      -0.097  -0.064   0.993  0.00  0.00     0.002 A 
ATOM      4  C6  UNL d   1      -0.340   0.653   2.162  0.00  0.00    -0.004 A 
ATOM      5  C7  UNL d   1      -0.954   0.027   3.245  0.00  0.00     0.002 A 
ATOM      6  C8  UNL d   1      -1.315  -1.319   3.164  0.00  0.00     0.002 A 
ENDROOT
BRANCH   1   7
ATOM      7  C2  UNL d   1      -1.433  -3.516   1.921  0.00  0.00     0.056 C 
BRANCH   7   8
ATOM      8  C1  UNL d   1      -0.450  -4.445   2.641  0.00  0.00     0.007 C 
ATOM      9  C   UNL d   1      -0.362  -5.829   2.011  0.00  0.00     0.009 C 
ENDBRANCH   7   8
ENDBRANCH   1   7
TORSDOF 2
ENDMDL
