MODEL 1
REMARK minimizedAffinity 12.2080431
REMARK minimizedRMSD -1
REMARK  2 active torsions:
REMARK  status: ('A' for Active; 'I' for Inactive)
REMARK    1  A    between atoms: C1_2  and  C2_3 
REMARK    2  A    between atoms: C2_3  and  C3_4 
ROOT
ATOM      1  C3  UNL d   1       5.161   2.758   2.296  0.00  0.00    -0.075 A 
ATOM      2  C4  UNL d   1       4.418   1.819   1.566  0.00  0.00     0.002 A 
ATOM      3  C5  UNL d   1       3.667   2.217   0.460  0.00  0.00     0.002 A 
ATOM      4  C6  UNL d   1       3.641   3.556   0.076  0.00  0.00    -0.004 A 
ATOM      5  C7  UNL d   1       4.362   4.499   0.804  0.00  0.00     0.002 A 
ATOM      6  C8  UNL d   1       5.118   4.104   1.909  0.00  0.00     0.002 A 
ENDROOT
BRANCH   1   7
ATOM      7  C2  UNL d   1       6.000   2.330   3.477  0.00  0.00     0.056 C 
BRANCH   7   8
ATOM      8  C1  UNL d   1       5.603   0.972   4.064  0.00  0.00     0.007 C 
ATOM      9  C   UNL d   1       5.945   0.833   5.542  0.00  0.00     0.009 C 
ENDBRANCH   7   8
ENDBRANCH   1   7
TORSDOF 2
ENDMDL
