MODEL 1
REMARK minimizedAffinity 4.58770323
REMARK minimizedRMSD -1
REMARK  2 active torsions:
REMARK  status: ('A' for Active; 'I' for Inactive)
REMARK    1  A    between atoms: C1_2  and  C2_3 
REMARK    2  A    between atoms: C2_3  and  C3_4 
ROOT
ATOM      1  C3  UNL d   1       0.218  -5.704   2.842  0.00  0.00    -0.075 A 
ATOM      2  C4  UNL d   1       0.211  -5.125   4.119  0.00  0.00     0.002 A 
ATOM      3  C5  UNL d   1       1.410  -4.829   4.769  0.00  0.00     0.002 A 
ATOM      4  C6  UNL d   1       2.627  -5.115   4.157  0.00  0.00    -0.004 A 
ATOM      5  C7  UNL d   1       2.646  -5.705   2.894  0.00  0.00     0.002 A 
ATOM      6  C8  UNL d   1       1.449  -5.999   2.240  0.00  0.00     0.002 A 
ENDROOT
BRANCH   1   7
ATOM      7  C2  UNL d   1      -1.075  -6.000   2.120  0.00  0.00     0.056 C 
BRANCH   7   8
ATOM      8  C1  UNL d   1      -1.669  -4.794   1.384  0.00  0.00     0.007 C 
ATOM      9  C   UNL d   1      -1.167  -3.459   1.917  0.00  0.00     0.009 C 
ENDBRANCH   7   8
ENDBRANCH   1   7
TORSDOF 2
ENDMDL
