MODEL 1
REMARK minimizedAffinity 2.8085146
REMARK minimizedRMSD -1
REMARK  2 active torsions:
REMARK  status: ('A' for Active; 'I' for Inactive)
REMARK    1  A    between atoms: C1_2  and  C2_3 
REMARK    2  A    between atoms: C2_3  and  C3_4 
ROOT
ATOM      1  C3  UNL d   1      -0.346  -4.524   2.588  0.00  0.00    -0.075 A 
ATOM      2  C4  UNL d   1       1.017  -4.203   2.509  0.00  0.00     0.002 A 
ATOM      3  C5  UNL d   1       1.934  -4.785   3.384  0.00  0.00     0.002 A 
ATOM      4  C6  UNL d   1       1.501  -5.686   4.354  0.00  0.00    -0.004 A 
ATOM      5  C7  UNL d   1       0.147  -6.000   4.453  0.00  0.00     0.002 A 
ATOM      6  C8  UNL d   1      -0.773  -5.422   3.576  0.00  0.00     0.002 A 
ENDROOT
BRANCH   1   7
ATOM      7  C2  UNL d   1      -1.340  -3.920   1.625  0.00  0.00     0.056 C 
BRANCH   7   8
ATOM      8  C1  UNL d   1      -2.168  -2.775   2.219  0.00  0.00     0.007 C 
ATOM      9  C   UNL d   1      -3.486  -2.547   1.491  0.00  0.00     0.009 C 
ENDBRANCH   7   8
ENDBRANCH   1   7
TORSDOF 2
ENDMDL
