MODEL 1
REMARK minimizedAffinity 6.36914492
REMARK minimizedRMSD -1
REMARK  2 active torsions:
REMARK  status: ('A' for Active; 'I' for Inactive)
REMARK    1  A    between atoms: C1_2  and  C2_3 
REMARK    2  A    between atoms: C2_3  and  C3_4 
ROOT
ATOM      1  C3  UNL d   1      -1.565  -0.941  -3.047  0.00  0.00    -0.075 A 
ATOM      2  C4  UNL d   1      -2.586  -1.893  -2.918  0.00  0.00     0.002 A 
ATOM      3  C5  UNL d   1      -2.664  -2.972  -3.799  0.00  0.00     0.002 A 
ATOM      4  C6  UNL d   1      -1.731  -3.107  -4.825  0.00  0.00    -0.004 A 
ATOM      5  C7  UNL d   1      -0.722  -2.157  -4.973  0.00  0.00     0.002 A 
ATOM      6  C8  UNL d   1      -0.639  -1.079  -4.090  0.00  0.00     0.002 A 
ENDROOT
BRANCH   1   7
ATOM      7  C2  UNL d   1      -1.458   0.213  -2.079  0.00  0.00     0.056 C 
BRANCH   7   8
ATOM      8  C1  UNL d   1      -0.128   0.269  -1.320  0.00  0.00     0.007 C 
ATOM      9  C   UNL d   1      -0.188   1.132  -0.067  0.00  0.00     0.009 C 
ENDBRANCH   7   8
ENDBRANCH   1   7
TORSDOF 2
ENDMDL
