MODEL 1
REMARK minimizedAffinity 6.36027098
REMARK minimizedRMSD -1
REMARK  2 active torsions:
REMARK  status: ('A' for Active; 'I' for Inactive)
REMARK    1  A    between atoms: C1_2  and  C2_3 
REMARK    2  A    between atoms: C2_3  and  C3_4 
ROOT
ATOM      1  C3  UNL d   1      -0.246  -5.981   2.194  0.00  0.00    -0.075 A 
ATOM      2  C4  UNL d   1       1.045  -5.965   1.644  0.00  0.00     0.002 A 
ATOM      3  C5  UNL d   1       2.167  -5.980   2.472  0.00  0.00     0.002 A 
ATOM      4  C6  UNL d   1       2.016  -6.000   3.857  0.00  0.00    -0.004 A 
ATOM      5  C7  UNL d   1       0.739  -5.999   4.414  0.00  0.00     0.002 A 
ATOM      6  C8  UNL d   1      -0.387  -5.989   3.588  0.00  0.00     0.002 A 
ENDROOT
BRANCH   1   7
ATOM      7  C2  UNL d   1      -1.465  -5.995   1.303  0.00  0.00     0.056 C 
BRANCH   7   8
ATOM      8  C1  UNL d   1      -2.794  -5.993   2.065  0.00  0.00     0.007 C 
ATOM      9  C   UNL d   1      -4.008  -5.870   1.154  0.00  0.00     0.009 C 
ENDBRANCH   7   8
ENDBRANCH   1   7
TORSDOF 2
ENDMDL
