MODEL 1
REMARK minimizedAffinity 0.803256869
REMARK minimizedRMSD -1
REMARK  2 active torsions:
REMARK  status: ('A' for Active; 'I' for Inactive)
REMARK    1  A    between atoms: C1_2  and  C2_3 
REMARK    2  A    between atoms: C2_3  and  C3_4 
ROOT
ATOM      1  C3  UNL d   1      -2.589  -5.977   2.156  0.00  0.00    -0.075 A 
ATOM      2  C4  UNL d   1      -3.883  -5.984   2.695  0.00  0.00     0.002 A 
ATOM      3  C5  UNL d   1      -4.999  -5.996   1.858  0.00  0.00     0.002 A 
ATOM      4  C6  UNL d   1      -4.836  -5.992   0.474  0.00  0.00    -0.004 A 
ATOM      5  C7  UNL d   1      -3.555  -5.969  -0.072  0.00  0.00     0.002 A 
ATOM      6  C8  UNL d   1      -2.436  -5.961   0.763  0.00  0.00     0.002 A 
ENDROOT
BRANCH   1   7
ATOM      7  C2  UNL d   1      -1.377  -5.994   3.056  0.00  0.00     0.056 C 
BRANCH   7   8
ATOM      8  C1  UNL d   1      -0.070  -5.617   2.350  0.00  0.00     0.007 C 
ATOM      9  C   UNL d   1       1.173  -5.998   3.144  0.00  0.00     0.009 C 
ENDBRANCH   7   8
ENDBRANCH   1   7
TORSDOF 2
ENDMDL
