MODEL 1
REMARK minimizedAffinity 1.9306283
REMARK minimizedRMSD -1
REMARK  2 active torsions:
REMARK  status: ('A' for Active; 'I' for Inactive)
REMARK    1  A    between atoms: C1_2  and  C2_3 
REMARK    2  A    between atoms: C2_3  and  C3_4 
ROOT
ATOM      1  C3  UNL d   1       1.133  -5.983   2.488  0.00  0.00    -0.075 A 
ATOM      2  C4  UNL d   1       0.642  -5.971   3.802  0.00  0.00     0.002 A 
ATOM      3  C5  UNL d   1      -0.732  -5.984   4.044  0.00  0.00     0.002 A 
ATOM      4  C6  UNL d   1      -1.630  -6.000   2.979  0.00  0.00    -0.004 A 
ATOM      5  C7  UNL d   1      -1.153  -5.995   1.670  0.00  0.00     0.002 A 
ATOM      6  C8  UNL d   1       0.221  -5.986   1.425  0.00  0.00     0.002 A 
ENDROOT
BRANCH   1   7
ATOM      7  C2  UNL d   1       2.619  -5.998   2.220  0.00  0.00     0.056 C 
BRANCH   7   8
ATOM      8  C1  UNL d   1       3.482  -5.997   3.486  0.00  0.00     0.007 C 
ATOM      9  C   UNL d   1       4.975  -5.911   3.196  0.00  0.00     0.009 C 
ENDBRANCH   7   8
ENDBRANCH   1   7
TORSDOF 2
ENDMDL
