MODEL 1
REMARK minimizedAffinity 11.0265751
REMARK minimizedRMSD -1
REMARK  2 active torsions:
REMARK  status: ('A' for Active; 'I' for Inactive)
REMARK    1  A    between atoms: C1_2  and  C2_3 
REMARK    2  A    between atoms: C2_3  and  C3_4 
ROOT
ATOM      1  C3  UNL d   1      -2.075  -2.113  -2.806  0.00  0.00    -0.075 A 
ATOM      2  C4  UNL d   1      -1.612  -3.437  -2.816  0.00  0.00     0.002 A 
ATOM      3  C5  UNL d   1      -1.269  -4.059  -4.017  0.00  0.00     0.002 A 
ATOM      4  C6  UNL d   1      -1.396  -3.371  -5.222  0.00  0.00    -0.004 A 
ATOM      5  C7  UNL d   1      -1.871  -2.061  -5.225  0.00  0.00     0.002 A 
ATOM      6  C8  UNL d   1      -2.210  -1.435  -4.025  0.00  0.00     0.002 A 
ENDROOT
BRANCH   1   7
ATOM      7  C2  UNL d   1      -2.420  -1.425  -1.507  0.00  0.00     0.056 C 
BRANCH   7   8
ATOM      8  C1  UNL d   1      -1.453  -1.738  -0.360  0.00  0.00     0.007 C 
ATOM      9  C   UNL d   1      -2.147  -2.295   0.875  0.00  0.00     0.009 C 
ENDBRANCH   7   8
ENDBRANCH   1   7
TORSDOF 2
ENDMDL
