MODEL 1
REMARK minimizedAffinity 4.51004219
REMARK minimizedRMSD -1
REMARK  0 active torsions:
REMARK  status: ('A' for Active; 'I' for Inactive)
ROOT
ATOM      1  C   UNL d   1       4.246   2.568  -0.079  0.00  0.00     0.020 A 
ATOM      2  C1  UNL d   1       4.065   3.880   0.354  0.00  0.00     0.020 A 
ATOM      3  C2  UNL d   1       2.776   4.379   0.553  0.00  0.00     0.034 A 
ATOM      4  C3  UNL d   1       1.663   3.565   0.317  0.00  0.00     0.017 A 
ATOM      5  C4  UNL d   1       1.845   2.247  -0.118  0.00  0.00     0.017 A 
ATOM      6  C5  UNL d   1       3.138   1.753  -0.315  0.00  0.00     0.034 A 
ATOM      7 Cl   UNL d   1       0.519   1.183  -0.429  0.00  0.00    -0.070 Cl
ATOM      8 Cl1  UNL d   1       0.098   4.247   0.583  0.00  0.00    -0.070 Cl
ENDROOT
TORSDOF 0
ENDMDL
