MODEL 1
REMARK minimizedAffinity -2.65859795
REMARK minimizedRMSD -1
REMARK  0 active torsions:
REMARK  status: ('A' for Active; 'I' for Inactive)
ROOT
ATOM      1  C   UNL d   1      -0.721   4.193  -3.882  0.00  0.00     0.020 A 
ATOM      2  C1  UNL d   1      -1.764   3.836  -4.737  0.00  0.00     0.020 A 
ATOM      3  C2  UNL d   1      -2.567   2.735  -4.437  0.00  0.00     0.034 A 
ATOM      4  C3  UNL d   1      -2.331   1.986  -3.278  0.00  0.00     0.017 A 
ATOM      5  C4  UNL d   1      -1.284   2.345  -2.421  0.00  0.00     0.017 A 
ATOM      6  C5  UNL d   1      -0.482   3.449  -2.727  0.00  0.00     0.034 A 
ATOM      7 Cl   UNL d   1      -0.931   1.469  -0.973  0.00  0.00    -0.070 Cl
ATOM      8 Cl1  UNL d   1      -3.364   0.636  -2.969  0.00  0.00    -0.070 Cl
ENDROOT
TORSDOF 0
ENDMDL
