MODEL 1
REMARK minimizedAffinity -0.0717831701
REMARK minimizedRMSD -1
REMARK  0 active torsions:
REMARK  status: ('A' for Active; 'I' for Inactive)
ROOT
ATOM      1  C   UNL d   1      -2.006   2.165  -3.172  0.00  0.00     0.020 A 
ATOM      2  C1  UNL d   1      -1.377   3.409  -3.213  0.00  0.00     0.020 A 
ATOM      3  C2  UNL d   1      -0.445   3.752  -2.232  0.00  0.00     0.034 A 
ATOM      4  C3  UNL d   1      -0.139   2.852  -1.205  0.00  0.00     0.017 A 
ATOM      5  C4  UNL d   1      -0.771   1.604  -1.164  0.00  0.00     0.017 A 
ATOM      6  C5  UNL d   1      -1.704   1.264  -2.150  0.00  0.00     0.034 A 
ATOM      7 Cl   UNL d   1      -0.446   0.439   0.071  0.00  0.00    -0.070 Cl
ATOM      8 Cl1  UNL d   1       1.023   3.343  -0.025  0.00  0.00    -0.070 Cl
ENDROOT
TORSDOF 0
ENDMDL
