MODEL 1
REMARK minimizedAffinity -3.35675573
REMARK minimizedRMSD -1
REMARK  0 active torsions:
REMARK  status: ('A' for Active; 'I' for Inactive)
ROOT
ATOM      1  C   UNL d   1      -2.010   2.198  -3.225  0.00  0.00     0.020 A 
ATOM      2  C1  UNL d   1      -1.304   3.394  -3.346  0.00  0.00     0.020 A 
ATOM      3  C2  UNL d   1      -0.432   3.796  -2.332  0.00  0.00     0.034 A 
ATOM      4  C3  UNL d   1      -0.265   3.001  -1.192  0.00  0.00     0.017 A 
ATOM      5  C4  UNL d   1      -0.974   1.800  -1.072  0.00  0.00     0.017 A 
ATOM      6  C5  UNL d   1      -1.846   1.403  -2.090  0.00  0.00     0.034 A 
ATOM      7 Cl   UNL d   1      -0.820   0.766   0.305  0.00  0.00    -0.070 Cl
ATOM      8 Cl1  UNL d   1       0.830   3.558   0.023  0.00  0.00    -0.070 Cl
ENDROOT
TORSDOF 0
ENDMDL
