MODEL 1
REMARK minimizedAffinity -4.45953417
REMARK minimizedRMSD -1
REMARK  0 active torsions:
REMARK  status: ('A' for Active; 'I' for Inactive)
ROOT
ATOM      1  C   UNL d   1      -2.533   1.176  -1.524  0.00  0.00     0.020 A 
ATOM      2  C1  UNL d   1      -2.658   1.335  -2.904  0.00  0.00     0.020 A 
ATOM      3  C2  UNL d   1      -1.896   2.300  -3.567  0.00  0.00     0.034 A 
ATOM      4  C3  UNL d   1      -1.007   3.109  -2.850  0.00  0.00     0.017 A 
ATOM      5  C4  UNL d   1      -0.882   2.948  -1.466  0.00  0.00     0.017 A 
ATOM      6  C5  UNL d   1      -1.647   1.981  -0.807  0.00  0.00     0.034 A 
ATOM      7 Cl   UNL d   1       0.194   3.909  -0.514  0.00  0.00    -0.070 Cl
ATOM      8 Cl1  UNL d   1      -0.097   4.281  -3.735  0.00  0.00    -0.070 Cl
ENDROOT
TORSDOF 0
ENDMDL
