MODEL 1
REMARK minimizedAffinity -2.51761985
REMARK minimizedRMSD -1
REMARK  0 active torsions:
REMARK  status: ('A' for Active; 'I' for Inactive)
ROOT
ATOM      1  C   UNL d   1      -2.264   2.261  -4.242  0.00  0.00     0.020 A 
ATOM      2  C1  UNL d   1      -1.506   3.422  -4.388  0.00  0.00     0.020 A 
ATOM      3  C2  UNL d   1      -0.726   3.884  -3.325  0.00  0.00     0.034 A 
ATOM      4  C3  UNL d   1      -0.702   3.185  -2.113  0.00  0.00     0.017 A 
ATOM      5  C4  UNL d   1      -1.464   2.020  -1.968  0.00  0.00     0.017 A 
ATOM      6  C5  UNL d   1      -2.243   1.562  -3.035  0.00  0.00     0.034 A 
ATOM      7 Cl   UNL d   1      -1.486   1.103  -0.503  0.00  0.00    -0.070 Cl
ATOM      8 Cl1  UNL d   1       0.285   3.813  -0.842  0.00  0.00    -0.070 Cl
ENDROOT
TORSDOF 0
ENDMDL
