MODEL 1
REMARK minimizedAffinity 0.230384439
REMARK minimizedRMSD -1
REMARK  0 active torsions:
REMARK  status: ('A' for Active; 'I' for Inactive)
ROOT
ATOM      1  C   UNL d   1      -2.731   1.511  -3.344  0.00  0.00     0.020 A 
ATOM      2  C1  UNL d   1      -2.205   2.775  -3.608  0.00  0.00     0.020 A 
ATOM      3  C2  UNL d   1      -1.208   3.303  -2.785  0.00  0.00     0.034 A 
ATOM      4  C3  UNL d   1      -0.735   2.566  -1.693  0.00  0.00     0.017 A 
ATOM      5  C4  UNL d   1      -1.264   1.298  -1.428  0.00  0.00     0.017 A 
ATOM      6  C5  UNL d   1      -2.262   0.774  -2.256  0.00  0.00     0.034 A 
ATOM      7 Cl   UNL d   1      -0.730   0.329  -0.100  0.00  0.00    -0.070 Cl
ATOM      8 Cl1  UNL d   1       0.499   3.280  -0.716  0.00  0.00    -0.070 Cl
ENDROOT
TORSDOF 0
ENDMDL
