MODEL 1
REMARK minimizedAffinity -2.97014856
REMARK minimizedRMSD -1
REMARK  0 active torsions:
REMARK  status: ('A' for Active; 'I' for Inactive)
ROOT
ATOM      1  C   UNL d   1       0.289  -2.444   1.317  0.00  0.00     0.020 A 
ATOM      2  C1  UNL d   1       1.683  -2.441   1.287  0.00  0.00     0.020 A 
ATOM      3  C2  UNL d   1       2.365  -1.404   0.647  0.00  0.00     0.034 A 
ATOM      4  C3  UNL d   1       1.654  -0.366   0.033  0.00  0.00     0.017 A 
ATOM      5  C4  UNL d   1       0.254  -0.370   0.064  0.00  0.00     0.017 A 
ATOM      6  C5  UNL d   1      -0.424  -1.411   0.706  0.00  0.00     0.034 A 
ATOM      7 Cl   UNL d   1      -0.692   0.876  -0.670  0.00  0.00    -0.070 Cl
ATOM      8 Cl1  UNL d   1       2.562   0.884  -0.740  0.00  0.00    -0.070 Cl
ENDROOT
TORSDOF 0
ENDMDL
