MODEL 1
REMARK minimizedAffinity -3.55476379
REMARK minimizedRMSD -1
REMARK  0 active torsions:
REMARK  status: ('A' for Active; 'I' for Inactive)
ROOT
ATOM      1  C   UNL d   1       1.951   3.406   0.322  0.00  0.00     0.020 A 
ATOM      2  C1  UNL d   1       0.866   4.142  -0.153  0.00  0.00     0.020 A 
ATOM      3  C2  UNL d   1      -0.243   3.484  -0.689  0.00  0.00     0.034 A 
ATOM      4  C3  UNL d   1      -0.270   2.086  -0.751  0.00  0.00     0.017 A 
ATOM      5  C4  UNL d   1       0.820   1.348  -0.274  0.00  0.00     0.017 A 
ATOM      6  C5  UNL d   1       1.927   2.012   0.261  0.00  0.00     0.034 A 
ATOM      7 Cl   UNL d   1       0.859  -0.379  -0.318  0.00  0.00    -0.070 Cl
ATOM      8 Cl1  UNL d   1      -1.674   1.339  -1.426  0.00  0.00    -0.070 Cl
ENDROOT
TORSDOF 0
ENDMDL
