MODEL 1
REMARK minimizedAffinity -5.03239965
REMARK minimizedRMSD -1
REMARK  0 active torsions:
REMARK  status: ('A' for Active; 'I' for Inactive)
ROOT
ATOM      1  C   UNL d   1      -3.639   1.856  -2.220  0.00  0.00     0.020 A 
ATOM      2  C1  UNL d   1      -3.890   1.784  -3.589  0.00  0.00     0.020 A 
ATOM      3  C2  UNL d   1      -3.043   2.434  -4.489  0.00  0.00     0.034 A 
ATOM      4  C3  UNL d   1      -1.940   3.158  -4.021  0.00  0.00     0.017 A 
ATOM      5  C4  UNL d   1      -1.689   3.229  -2.646  0.00  0.00     0.017 A 
ATOM      6  C5  UNL d   1      -2.541   2.577  -1.749  0.00  0.00     0.034 A 
ATOM      7 Cl   UNL d   1      -0.349   4.103  -1.992  0.00  0.00    -0.070 Cl
ATOM      8 Cl1  UNL d   1      -0.934   3.936  -5.190  0.00  0.00    -0.070 Cl
ENDROOT
TORSDOF 0
ENDMDL
