MODEL 1
REMARK minimizedAffinity -1.46798289
REMARK minimizedRMSD -1
REMARK  0 active torsions:
REMARK  status: ('A' for Active; 'I' for Inactive)
ROOT
ATOM      1  C   UNL d   1      -0.279  -0.493  -0.144  0.00  0.00     0.020 A 
ATOM      2  C1  UNL d   1       0.605   0.569   0.043  0.00  0.00     0.020 A 
ATOM      3  C2  UNL d   1       1.773   0.383   0.786  0.00  0.00     0.034 A 
ATOM      4  C3  UNL d   1       2.059  -0.868   1.345  0.00  0.00     0.017 A 
ATOM      5  C4  UNL d   1       1.171  -1.933   1.157  0.00  0.00     0.017 A 
ATOM      6  C5  UNL d   1       0.004  -1.741   0.411  0.00  0.00     0.034 A 
ATOM      7 Cl   UNL d   1       1.456  -3.505   1.815  0.00  0.00    -0.070 Cl
ATOM      8 Cl1  UNL d   1       3.521  -1.027   2.253  0.00  0.00    -0.070 Cl
ENDROOT
TORSDOF 0
ENDMDL
