MODEL 1
REMARK minimizedAffinity -5.29436684
REMARK minimizedRMSD -1
REMARK  0 active torsions:
REMARK  status: ('A' for Active; 'I' for Inactive)
ROOT
ATOM      1  C   UNL d   1       1.682  -2.728   0.895  0.00  0.00     0.020 A 
ATOM      2  C1  UNL d   1       0.302  -2.716   1.092  0.00  0.00     0.020 A 
ATOM      3  C2  UNL d   1      -0.438  -1.571   0.789  0.00  0.00     0.034 A 
ATOM      4  C3  UNL d   1       0.203  -0.432   0.287  0.00  0.00     0.017 A 
ATOM      5  C4  UNL d   1       1.588  -0.445   0.089  0.00  0.00     0.017 A 
ATOM      6  C5  UNL d   1       2.324  -1.594   0.394  0.00  0.00     0.034 A 
ATOM      7 Cl   UNL d   1       2.449   0.921  -0.528  0.00  0.00    -0.070 Cl
ATOM      8 Cl1  UNL d   1      -0.774   0.949  -0.066  0.00  0.00    -0.070 Cl
ENDROOT
TORSDOF 0
ENDMDL
