MODEL 1
REMARK minimizedAffinity -3.54438329
REMARK minimizedRMSD -1
REMARK  0 active torsions:
REMARK  status: ('A' for Active; 'I' for Inactive)
ROOT
ATOM      1  C   UNL d   1       0.211  -1.451   0.553  0.00  0.00     0.020 A 
ATOM      2  C1  UNL d   1      -0.814  -0.534   0.781  0.00  0.00     0.020 A 
ATOM      3  C2  UNL d   1      -0.579   0.832   0.610  0.00  0.00     0.034 A 
ATOM      4  C3  UNL d   1       0.684   1.284   0.210  0.00  0.00     0.017 A 
ATOM      5  C4  UNL d   1       1.712   0.362  -0.019  0.00  0.00     0.017 A 
ATOM      6  C5  UNL d   1       1.471  -1.004   0.154  0.00  0.00     0.034 A 
ATOM      7 Cl   UNL d   1       3.296   0.845  -0.514  0.00  0.00    -0.070 Cl
ATOM      8 Cl1  UNL d   1       0.904   2.987   0.017  0.00  0.00    -0.070 Cl
ENDROOT
TORSDOF 0
ENDMDL
