MODEL 1
REMARK minimizedAffinity -4.46545076
REMARK minimizedRMSD -1
REMARK  0 active torsions:
REMARK  status: ('A' for Active; 'I' for Inactive)
ROOT
ATOM      1  C   UNL d   1       2.573   3.178   0.303  0.00  0.00     0.020 A 
ATOM      2  C1  UNL d   1       1.312   3.771   0.361  0.00  0.00     0.020 A 
ATOM      3  C2  UNL d   1       0.169   3.006   0.115  0.00  0.00     0.034 A 
ATOM      4  C3  UNL d   1       0.285   1.645  -0.189  0.00  0.00     0.017 A 
ATOM      5  C4  UNL d   1       1.551   1.051  -0.248  0.00  0.00     0.017 A 
ATOM      6  C5  UNL d   1       2.692   1.822  -0.001  0.00  0.00     0.034 A 
ATOM      7 Cl   UNL d   1       1.774  -0.622  -0.617  0.00  0.00    -0.070 Cl
ATOM      8 Cl1  UNL d   1      -1.170   0.760  -0.481  0.00  0.00    -0.070 Cl
ENDROOT
TORSDOF 0
ENDMDL
