MODEL 1
REMARK minimizedAffinity 16.6036491
REMARK minimizedRMSD -1
REMARK  0 active torsions:
REMARK  status: ('A' for Active; 'I' for Inactive)
ROOT
ATOM      1  C4' PXY d   1       1.668  -5.332   0.517  0.00  0.00     0.077 C 
ATOM      2  C1' PXY d   1      -3.082  -2.248  -0.640  0.00  0.00     0.077 C 
ATOM      3  C1  PXY d   1      -1.832  -3.047  -0.329  0.00  0.00    -0.082 A 
ATOM      4  C2  PXY d   1      -1.443  -4.002  -1.158  0.00  0.00     0.003 A 
ATOM      5  C3  PXY d   1      -0.333  -4.756  -0.876  0.00  0.00     0.003 A 
ATOM      6  C4  PXY d   1       0.418  -4.494   0.239  0.00  0.00    -0.082 A 
ATOM      7  C5  PXY d   1       0.034  -3.514   1.084  0.00  0.00     0.003 A 
ATOM      8  C6  PXY d   1      -1.120  -2.788   0.801  0.00  0.00     0.003 A 
ENDROOT
TORSDOF 0
ENDMDL
