MODEL 1
REMARK minimizedAffinity 5.48829031
REMARK minimizedRMSD -1
REMARK  0 active torsions:
REMARK  status: ('A' for Active; 'I' for Inactive)
ROOT
ATOM      1  C4' PXY d   1       4.514  -2.997   3.377  0.00  0.00     0.077 C 
ATOM      2  C1' PXY d   1      -0.491  -1.762   5.992  0.00  0.00     0.077 C 
ATOM      3  C1  PXY d   1       0.815  -2.087   5.295  0.00  0.00    -0.082 A 
ATOM      4  C2  PXY d   1       1.833  -2.555   5.999  0.00  0.00     0.003 A 
ATOM      5  C3  PXY d   1       3.032  -2.825   5.390  0.00  0.00     0.003 A 
ATOM      6  C4  PXY d   1       3.173  -2.663   4.037  0.00  0.00    -0.082 A 
ATOM      7  C5  PXY d   1       2.136  -2.196   3.311  0.00  0.00     0.003 A 
ATOM      8  C6  PXY d   1       0.941  -1.890   3.954  0.00  0.00     0.003 A 
ENDROOT
TORSDOF 0
ENDMDL
