MODEL 1
REMARK minimizedAffinity 2.65054893
REMARK minimizedRMSD -1
REMARK  0 active torsions:
REMARK  status: ('A' for Active; 'I' for Inactive)
ROOT
ATOM      1  C4' PXY d   1      -4.313   1.021  -0.443  0.00  0.00     0.077 C 
ATOM      2  C1' PXY d   1      -0.960  -1.439  -4.458  0.00  0.00     0.077 C 
ATOM      3  C1  PXY d   1      -1.850  -0.796  -3.412  0.00  0.00    -0.082 A 
ATOM      4  C2  PXY d   1      -1.328   0.052  -2.541  0.00  0.00     0.003 A 
ATOM      5  C3  PXY d   1      -2.112   0.618  -1.569  0.00  0.00     0.003 A 
ATOM      6  C4  PXY d   1      -3.454   0.355  -1.521  0.00  0.00    -0.082 A 
ATOM      7  C5  PXY d   1      -3.997  -0.501  -2.414  0.00  0.00     0.003 A 
ATOM      8  C6  PXY d   1      -3.176  -1.097  -3.367  0.00  0.00     0.003 A 
ENDROOT
TORSDOF 0
ENDMDL
