MODEL 1
REMARK minimizedAffinity 12.8049078
REMARK minimizedRMSD -1
REMARK  0 active torsions:
REMARK  status: ('A' for Active; 'I' for Inactive)
ROOT
ATOM      1  C4' PXY d   1      -0.326  -3.189   0.399  0.00  0.00     0.077 C 
ATOM      2  C1' PXY d   1       0.799  -0.865   5.570  0.00  0.00     0.077 C 
ATOM      3  C1  PXY d   1       0.512  -1.466   4.209  0.00  0.00    -0.082 A 
ATOM      4  C2  PXY d   1      -0.625  -2.111   4.005  0.00  0.00     0.003 A 
ATOM      5  C3  PXY d   1      -0.886  -2.689   2.789  0.00  0.00     0.003 A 
ATOM      6  C4  PXY d   1       0.001  -2.558   1.755  0.00  0.00    -0.082 A 
ATOM      7  C5  PXY d   1       1.159  -1.892   1.952  0.00  0.00     0.003 A 
ATOM      8  C6  PXY d   1       1.424  -1.348   3.205  0.00  0.00     0.003 A 
ENDROOT
TORSDOF 0
ENDMDL
