MODEL 1
REMARK minimizedAffinity -4.04167366
REMARK minimizedRMSD -1
REMARK  0 active torsions:
REMARK  status: ('A' for Active; 'I' for Inactive)
ROOT
ATOM      1  C4' PXY d   1      -3.006  -1.158  -2.291  0.00  0.00     0.077 C 
ATOM      2  C1' PXY d   1       1.402  -1.587   1.424  0.00  0.00     0.077 C 
ATOM      3  C1  PXY d   1       0.243  -1.487   0.452  0.00  0.00    -0.082 A 
ATOM      4  C2  PXY d   1       0.251  -0.548  -0.480  0.00  0.00     0.003 A 
ATOM      5  C3  PXY d   1      -0.804  -0.424  -1.347  0.00  0.00     0.003 A 
ATOM      6  C4  PXY d   1      -1.853  -1.302  -1.294  0.00  0.00    -0.082 A 
ATOM      7  C5  PXY d   1      -1.863  -2.270  -0.352  0.00  0.00     0.003 A 
ATOM      8  C6  PXY d   1      -0.802  -2.354   0.545  0.00  0.00     0.003 A 
ENDROOT
TORSDOF 0
ENDMDL
