MODEL 1
REMARK minimizedAffinity 8.84687042
REMARK minimizedRMSD -1
REMARK  0 active torsions:
REMARK  status: ('A' for Active; 'I' for Inactive)
ROOT
ATOM      1  C4' PXY d   1      -3.797  -2.248  -0.008  0.00  0.00     0.077 C 
ATOM      2  C1' PXY d   1       1.001  -5.402   0.661  0.00  0.00     0.077 C 
ATOM      3  C1  PXY d   1      -0.261  -4.580   0.497  0.00  0.00    -0.082 A 
ATOM      4  C2  PXY d   1      -0.655  -4.221  -0.714  0.00  0.00     0.003 A 
ATOM      5  C3  PXY d   1      -1.777  -3.450  -0.878  0.00  0.00     0.003 A 
ATOM      6  C4  PXY d   1      -2.533  -3.087   0.204  0.00  0.00    -0.082 A 
ATOM      7  C5  PXY d   1      -2.144  -3.458   1.442  0.00  0.00     0.003 A 
ATOM      8  C6  PXY d   1      -0.979  -4.206   1.591  0.00  0.00     0.003 A 
ENDROOT
TORSDOF 0
ENDMDL
