MODEL 1
REMARK minimizedAffinity 8.6226778
REMARK minimizedRMSD -1
REMARK  0 active torsions:
REMARK  status: ('A' for Active; 'I' for Inactive)
ROOT
ATOM      1  C4' PXY d   1      -3.283  -2.727   0.097  0.00  0.00     0.077 C 
ATOM      2  C1' PXY d   1       1.725  -5.601   0.372  0.00  0.00     0.077 C 
ATOM      3  C1  PXY d   1       0.418  -4.836   0.303  0.00  0.00    -0.082 A 
ATOM      4  C2  PXY d   1      -0.727  -5.484   0.447  0.00  0.00     0.003 A 
ATOM      5  C3  PXY d   1      -1.919  -4.813   0.356  0.00  0.00     0.003 A 
ATOM      6  C4  PXY d   1      -1.938  -3.456   0.169  0.00  0.00    -0.082 A 
ATOM      7  C5  PXY d   1      -0.774  -2.787   0.032  0.00  0.00     0.003 A 
ATOM      8  C6  PXY d   1       0.424  -3.493   0.086  0.00  0.00     0.003 A 
ENDROOT
TORSDOF 0
ENDMDL
