MODEL 1
REMARK minimizedAffinity 8.01941872
REMARK minimizedRMSD -1
REMARK  0 active torsions:
REMARK  status: ('A' for Active; 'I' for Inactive)
ROOT
ATOM      1  C4' PXY d   1       1.487  -6.000   0.538  0.00  0.00     0.077 C 
ATOM      2  C1' PXY d   1      -3.030  -2.449  -0.097  0.00  0.00     0.077 C 
ATOM      3  C1  PXY d   1      -1.842  -3.377   0.057  0.00  0.00    -0.082 A 
ATOM      4  C2  PXY d   1      -1.886  -4.353   0.949  0.00  0.00     0.003 A 
ATOM      5  C3  PXY d   1      -0.808  -5.182   1.124  0.00  0.00     0.003 A 
ATOM      6  C4  PXY d   1       0.307  -5.044   0.341  0.00  0.00    -0.082 A 
ATOM      7  C5  PXY d   1       0.355  -4.057  -0.579  0.00  0.00     0.003 A 
ATOM      8  C6  PXY d   1      -0.734  -3.201  -0.712  0.00  0.00     0.003 A 
ENDROOT
TORSDOF 0
ENDMDL
