MODEL 1
REMARK minimizedAffinity -0.107640915
REMARK minimizedRMSD -1
REMARK  0 active torsions:
REMARK  status: ('A' for Active; 'I' for Inactive)
ROOT
ATOM      1  C4' PXY d   1      -3.716  -2.548   0.202  0.00  0.00     0.077 C 
ATOM      2  C1' PXY d   1       1.873  -4.023   0.156  0.00  0.00     0.077 C 
ATOM      3  C1  PXY d   1       0.409  -3.630   0.180  0.00  0.00    -0.082 A 
ATOM      4  C2  PXY d   1      -0.464  -4.317  -0.540  0.00  0.00     0.003 A 
ATOM      5  C3  PXY d   1      -1.787  -3.956  -0.555  0.00  0.00     0.003 A 
ATOM      6  C4  PXY d   1      -2.230  -2.915   0.216  0.00  0.00    -0.082 A 
ATOM      7  C5  PXY d   1      -1.347  -2.216   0.961  0.00  0.00     0.003 A 
ATOM      8  C6  PXY d   1      -0.002  -2.573   0.931  0.00  0.00     0.003 A 
ENDROOT
TORSDOF 0
ENDMDL
