MODEL 1
REMARK minimizedAffinity -0.576980472
REMARK minimizedRMSD -1
REMARK  0 active torsions:
REMARK  status: ('A' for Active; 'I' for Inactive)
ROOT
ATOM      1  C4' PXY d   1      -5.974  -0.786   5.311  0.00  0.00     0.077 C 
ATOM      2  C1' PXY d   1      -5.999   1.431  -0.028  0.00  0.00     0.077 C 
ATOM      3  C1  PXY d   1      -5.998   0.838   1.368  0.00  0.00    -0.082 A 
ATOM      4  C2  PXY d   1      -5.994   1.642   2.419  0.00  0.00     0.003 A 
ATOM      5  C3  PXY d   1      -5.961   1.123   3.688  0.00  0.00     0.003 A 
ATOM      6  C4  PXY d   1      -5.985  -0.232   3.883  0.00  0.00    -0.082 A 
ATOM      7  C5  PXY d   1      -5.999  -1.058   2.816  0.00  0.00     0.003 A 
ATOM      8  C6  PXY d   1      -5.992  -0.512   1.536  0.00  0.00     0.003 A 
ENDROOT
TORSDOF 0
ENDMDL
