MODEL 1
REMARK minimizedAffinity 6.885252
REMARK minimizedRMSD -1
REMARK  0 active torsions:
REMARK  status: ('A' for Active; 'I' for Inactive)
ROOT
ATOM      1  C4' PXY d   1      -3.161  -1.844   0.055  0.00  0.00     0.077 C 
ATOM      2  C1' PXY d   1       0.913  -5.845   0.953  0.00  0.00     0.077 C 
ATOM      3  C1  PXY d   1      -0.161  -4.799   0.729  0.00  0.00    -0.082 A 
ATOM      4  C2  PXY d   1      -0.413  -4.373  -0.498  0.00  0.00     0.003 A 
ATOM      5  C3  PXY d   1      -1.359  -3.405  -0.716  0.00  0.00     0.003 A 
ATOM      6  C4  PXY d   1      -2.092  -2.905   0.328  0.00  0.00    -0.082 A 
ATOM      7  C5  PXY d   1      -1.848  -3.343   1.581  0.00  0.00     0.003 A 
ATOM      8  C6  PXY d   1      -0.855  -4.296   1.786  0.00  0.00     0.003 A 
ENDROOT
TORSDOF 0
ENDMDL
