MODEL 1
REMARK minimizedAffinity 6.0678215
REMARK minimizedRMSD -1
REMARK  0 active torsions:
REMARK  status: ('A' for Active; 'I' for Inactive)
ROOT
ATOM      1  C4' PXY d   1       0.903   1.426   1.472  0.00  0.00     0.077 C 
ATOM      2  C1' PXY d   1      -2.982   3.650  -2.185  0.00  0.00     0.077 C 
ATOM      3  C1  PXY d   1      -1.955   3.067  -1.236  0.00  0.00    -0.082 A 
ATOM      4  C2  PXY d   1      -2.356   2.365  -0.188  0.00  0.00     0.003 A 
ATOM      5  C3  PXY d   1      -1.441   1.857   0.698  0.00  0.00     0.003 A 
ATOM      6  C4  PXY d   1      -0.099   2.025   0.481  0.00  0.00    -0.082 A 
ATOM      7  C5  PXY d   1       0.318   2.731  -0.591  0.00  0.00     0.003 A 
ATOM      8  C6  PXY d   1      -0.628   3.273  -1.456  0.00  0.00     0.003 A 
ENDROOT
TORSDOF 0
ENDMDL
