MODEL 1
REMARK minimizedAffinity 0.155854642
REMARK minimizedRMSD -1
REMARK  0 active torsions:
REMARK  status: ('A' for Active; 'I' for Inactive)
ROOT
ATOM      1  C   UNL d   1       2.631  -0.608   4.407  0.00  0.00     0.172 C 
ATOM      2  N   UNL d   1       3.886  -1.206   4.799  0.00  0.00    -0.070 N 
ATOM      3  C1  UNL d   1       5.029  -1.229   4.045  0.00  0.00    -0.004 A 
ATOM      4  C2  UNL d   1       5.999  -1.888   4.769  0.00  0.00    -0.047 A 
ATOM      5  C3  UNL d   1       5.419  -2.275   6.000  0.00  0.00    -0.047 A 
ATOM      6  C4  UNL d   1       4.110  -1.840   5.992  0.00  0.00    -0.004 A 
ENDROOT
TORSDOF 0
ENDMDL
