MODEL 1
REMARK minimizedAffinity 1.56568372
REMARK minimizedRMSD -1
REMARK  0 active torsions:
REMARK  status: ('A' for Active; 'I' for Inactive)
ROOT
ATOM      1  C   UNL d   1       4.601  -1.542   1.732  0.00  0.00     0.172 C 
ATOM      2  N   UNL d   1       3.343  -1.256   2.379  0.00  0.00    -0.070 N 
ATOM      3  C1  UNL d   1       3.017  -1.578   3.669  0.00  0.00    -0.004 A 
ATOM      4  C2  UNL d   1       1.733  -1.136   3.904  0.00  0.00    -0.047 A 
ATOM      5  C3  UNL d   1       1.271  -0.526   2.713  0.00  0.00    -0.047 A 
ATOM      6  C4  UNL d   1       2.287  -0.615   1.786  0.00  0.00    -0.004 A 
ENDROOT
TORSDOF 0
ENDMDL
