MODEL 1
REMARK minimizedAffinity 0.348284066
REMARK minimizedRMSD -1
REMARK  0 active torsions:
REMARK  status: ('A' for Active; 'I' for Inactive)
ROOT
ATOM      1  C   UNL d   1       2.857  -0.027   1.542  0.00  0.00     0.172 C 
ATOM      2  N   UNL d   1       2.606  -1.079   2.498  0.00  0.00    -0.070 N 
ATOM      3  C1  UNL d   1       1.775  -0.991   3.583  0.00  0.00    -0.004 A 
ATOM      4  C2  UNL d   1       1.810  -2.202   4.241  0.00  0.00    -0.047 A 
ATOM      5  C3  UNL d   1       2.693  -3.046   3.528  0.00  0.00    -0.047 A 
ATOM      6  C4  UNL d   1       3.173  -2.326   2.454  0.00  0.00    -0.004 A 
ENDROOT
TORSDOF 0
ENDMDL
