MODEL 1
REMARK minimizedAffinity -0.282353044
REMARK minimizedRMSD -1
REMARK  0 active torsions:
REMARK  status: ('A' for Active; 'I' for Inactive)
ROOT
ATOM      1  C   UNL d   1       2.814   1.490   0.828  0.00  0.00     0.172 C 
ATOM      2  N   UNL d   1       2.037   2.586   0.299  0.00  0.00    -0.070 N 
ATOM      3  C1  UNL d   1       2.415   3.411  -0.726  0.00  0.00    -0.004 A 
ATOM      4  C2  UNL d   1       1.403   4.324  -0.929  0.00  0.00    -0.047 A 
ATOM      5  C3  UNL d   1       0.381   4.038   0.008  0.00  0.00    -0.047 A 
ATOM      6  C4  UNL d   1       0.800   2.958   0.755  0.00  0.00    -0.004 A 
ENDROOT
TORSDOF 0
ENDMDL
