MODEL 1
REMARK minimizedAffinity 3.26098919
REMARK minimizedRMSD -1
REMARK  0 active torsions:
REMARK  status: ('A' for Active; 'I' for Inactive)
ROOT
ATOM      1  C   UNL d   1       2.548  -1.123   1.482  0.00  0.00     0.172 C 
ATOM      2  N   UNL d   1       2.335  -2.016   2.597  0.00  0.00    -0.070 N 
ATOM      3  C1  UNL d   1       1.672  -1.704   3.754  0.00  0.00    -0.004 A 
ATOM      4  C2  UNL d   1       1.685  -2.820   4.561  0.00  0.00    -0.047 A 
ATOM      5  C3  UNL d   1       2.380  -3.838   3.866  0.00  0.00    -0.047 A 
ATOM      6  C4  UNL d   1       2.771  -3.313   2.653  0.00  0.00    -0.004 A 
ENDROOT
TORSDOF 0
ENDMDL
