MODEL 1
REMARK minimizedAffinity -4.62935209
REMARK minimizedRMSD -1
REMARK  1 active torsions:
REMARK  status: ('A' for Active; 'I' for Inactive)
REMARK    1  A    between atoms: C3_4  and  O_7 
ROOT
ATOM      1  C   UNL d   1       1.656  -1.647   2.218  0.00  0.00    -0.033 A 
ATOM      2  C1  UNL d   1       2.225  -1.829   0.956  0.00  0.00     0.039 A 
ATOM      3  C2  UNL d   1       1.730  -1.126  -0.143  0.00  0.00    -0.080 A 
ATOM      4  C3  UNL d   1       0.667  -0.244   0.032  0.00  0.00     0.150 A 
ATOM      5  C4  UNL d   1       0.097  -0.056   1.287  0.00  0.00    -0.007 A 
ATOM      6  C5  UNL d   1       0.592  -0.760   2.383  0.00  0.00     0.039 A 
ENDROOT
BRANCH   4   7
ATOM      7  O   UNL d   1       0.146   0.461  -1.012  0.00  0.00    -0.526 OA
ATOM      8  H5  UNL d   1       0.620   0.207  -1.822  0.00  0.00     0.418 HD
ENDBRANCH   4   7
TORSDOF 1
ENDMDL
