MODEL 1
REMARK minimizedAffinity -5.34906387
REMARK minimizedRMSD -1
REMARK  1 active torsions:
REMARK  status: ('A' for Active; 'I' for Inactive)
REMARK    1  A    between atoms: C3_4  and  O_7 
ROOT
ATOM      1  C   UNL d   1       0.688  -0.900   2.824  0.00  0.00    -0.033 A 
ATOM      2  C1  UNL d   1      -0.641  -0.649   2.477  0.00  0.00     0.039 A 
ATOM      3  C2  UNL d   1      -0.970  -0.320   1.161  0.00  0.00    -0.080 A 
ATOM      4  C3  UNL d   1       0.036  -0.248   0.202  0.00  0.00     0.150 A 
ATOM      5  C4  UNL d   1       1.362  -0.500   0.540  0.00  0.00    -0.007 A 
ATOM      6  C5  UNL d   1       1.689  -0.827   1.855  0.00  0.00     0.039 A 
ENDROOT
BRANCH   4   7
ATOM      7  O   UNL d   1      -0.236   0.074  -1.094  0.00  0.00    -0.526 OA
ATOM      8  H5  UNL d   1      -1.188   0.250  -1.174  0.00  0.00     0.418 HD
ENDBRANCH   4   7
TORSDOF 1
ENDMDL
