MODEL 1
REMARK minimizedAffinity -2.90868092
REMARK minimizedRMSD -1
REMARK  1 active torsions:
REMARK  status: ('A' for Active; 'I' for Inactive)
REMARK    1  A    between atoms: C3_4  and  O_7 
ROOT
ATOM      1  C   UNL d   1       0.625  -0.404  -1.095  0.00  0.00    -0.033 A 
ATOM      2  C1  UNL d   1      -0.317   0.035  -0.163  0.00  0.00     0.039 A 
ATOM      3  C2  UNL d   1      -0.082  -0.134   1.203  0.00  0.00    -0.080 A 
ATOM      4  C3  UNL d   1       1.098  -0.742   1.623  0.00  0.00     0.150 A 
ATOM      5  C4  UNL d   1       2.043  -1.177   0.700  0.00  0.00    -0.007 A 
ATOM      6  C5  UNL d   1       1.806  -1.008  -0.663  0.00  0.00     0.039 A 
ENDROOT
BRANCH   4   7
ATOM      7  O   UNL d   1       1.370  -0.933   2.945  0.00  0.00    -0.526 OA
ATOM      8  H5  UNL d   1       0.615  -0.609   3.465  0.00  0.00     0.418 HD
ENDBRANCH   4   7
TORSDOF 1
ENDMDL
