MODEL 1
REMARK minimizedAffinity -5.01578283
REMARK minimizedRMSD -1
REMARK  1 active torsions:
REMARK  status: ('A' for Active; 'I' for Inactive)
REMARK    1  A    between atoms: C3_4  and  O_7 
ROOT
ATOM      1  C   UNL d   1      -0.978  -0.080   0.056  0.00  0.00    -0.033 A 
ATOM      2  C1  UNL d   1       0.378   0.251   0.033  0.00  0.00     0.039 A 
ATOM      3  C2  UNL d   1       1.165   0.057   1.170  0.00  0.00    -0.080 A 
ATOM      4  C3  UNL d   1       0.585  -0.470   2.321  0.00  0.00     0.150 A 
ATOM      5  C4  UNL d   1      -0.765  -0.805   2.349  0.00  0.00    -0.007 A 
ATOM      6  C5  UNL d   1      -1.549  -0.609   1.213  0.00  0.00     0.039 A 
ENDROOT
BRANCH   4   7
ATOM      7  O   UNL d   1       1.311  -0.673   3.456  0.00  0.00    -0.526 OA
ATOM      8  H5  UNL d   1       2.221  -0.369   3.298  0.00  0.00     0.418 HD
ENDBRANCH   4   7
TORSDOF 1
ENDMDL
