MODEL 1
REMARK minimizedAffinity -3.5792923
REMARK minimizedRMSD -1
REMARK  1 active torsions:
REMARK  status: ('A' for Active; 'I' for Inactive)
REMARK    1  A    between atoms: C3_4  and  O_7 
ROOT
ATOM      1  C   UNL d   1       1.100  -3.156   2.048  0.00  0.00    -0.033 A 
ATOM      2  C1  UNL d   1       0.190  -2.815   3.051  0.00  0.00     0.039 A 
ATOM      3  C2  UNL d   1      -0.815  -1.881   2.796  0.00  0.00    -0.080 A 
ATOM      4  C3  UNL d   1      -0.901  -1.297   1.535  0.00  0.00     0.150 A 
ATOM      5  C4  UNL d   1      -0.001  -1.636   0.530  0.00  0.00    -0.007 A 
ATOM      6  C5  UNL d   1       1.003  -2.568   0.787  0.00  0.00     0.039 A 
ENDROOT
BRANCH   4   7
ATOM      7  O   UNL d   1      -1.863  -0.377   1.239  0.00  0.00    -0.526 OA
ATOM      8  H5  UNL d   1      -2.395  -0.220   2.038  0.00  0.00     0.418 HD
ENDBRANCH   4   7
TORSDOF 1
ENDMDL
