MODEL 1
REMARK minimizedAffinity -4.91892338
REMARK minimizedRMSD -1
REMARK  1 active torsions:
REMARK  status: ('A' for Active; 'I' for Inactive)
REMARK    1  A    between atoms: C3_4  and  O_7 
ROOT
ATOM      1  C   UNL d   1       1.141  -1.733   2.637  0.00  0.00    -0.033 A 
ATOM      2  C1  UNL d   1       1.903  -1.354   1.530  0.00  0.00     0.039 A 
ATOM      3  C2  UNL d   1       1.290  -0.740   0.436  0.00  0.00    -0.080 A 
ATOM      4  C3  UNL d   1      -0.083  -0.509   0.463  0.00  0.00     0.150 A 
ATOM      5  C4  UNL d   1      -0.847  -0.880   1.564  0.00  0.00    -0.007 A 
ATOM      6  C5  UNL d   1      -0.233  -1.494   2.655  0.00  0.00     0.039 A 
ENDROOT
BRANCH   4   7
ATOM      7  O   UNL d   1      -0.726   0.084  -0.583  0.00  0.00    -0.526 OA
ATOM      8  H5  UNL d   1      -0.077   0.259  -1.284  0.00  0.00     0.418 HD
ENDBRANCH   4   7
TORSDOF 1
ENDMDL
