MODEL 1
REMARK minimizedAffinity -2.82123494
REMARK minimizedRMSD -1
REMARK  0 active torsions:
REMARK  status: ('A' for Active; 'I' for Inactive)
ROOT
ATOM      1  O1  BZF d   1      -0.007   0.515   2.190  0.00  0.00    -0.204 OA
ATOM      2  C2  BZF d   1      -1.225   0.945   1.701  0.00  0.00     0.174 A 
ATOM      3  C3  BZF d   1      -1.334   0.674   0.384  0.00  0.00    -0.012 A 
ATOM      4  C3A BZF d   1      -0.145  -0.047   0.049  0.00  0.00    -0.107 A 
ATOM      5  C4  BZF d   1       0.321  -0.603  -1.108  0.00  0.00     0.055 A 
ATOM      6  C5  BZF d   1       1.555  -1.174  -1.117  0.00  0.00    -0.016 A 
ATOM      7  C6  BZF d   1       2.350  -1.202   0.010  0.00  0.00     0.022 A 
ATOM      8  C7  BZF d   1       1.929  -0.667   1.182  0.00  0.00     0.029 A 
ATOM      9  C7A BZF d   1       0.669  -0.119   1.203  0.00  0.00     0.058 A 
ENDROOT
TORSDOF 0
ENDMDL
