MODEL 1
REMARK minimizedAffinity -4.06432915
REMARK minimizedRMSD -1
REMARK  0 active torsions:
REMARK  status: ('A' for Active; 'I' for Inactive)
ROOT
ATOM      1  O1  BZF d   1       0.889   0.015  -0.808  0.00  0.00    -0.204 OA
ATOM      2  C2  BZF d   1      -0.030  -0.853  -1.366  0.00  0.00     0.174 A 
ATOM      3  C3  BZF d   1      -1.092  -1.014  -0.551  0.00  0.00    -0.012 A 
ATOM      4  C3A BZF d   1      -0.864  -0.123   0.546  0.00  0.00    -0.107 A 
ATOM      5  C4  BZF d   1      -1.574   0.181   1.672  0.00  0.00     0.055 A 
ATOM      6  C5  BZF d   1      -1.038   1.040   2.579  0.00  0.00    -0.016 A 
ATOM      7  C6  BZF d   1       0.206   1.607   2.394  0.00  0.00     0.022 A 
ATOM      8  C7  BZF d   1       0.946   1.339   1.291  0.00  0.00     0.029 A 
ATOM      9  C7A BZF d   1       0.392   0.498   0.357  0.00  0.00     0.058 A 
ENDROOT
TORSDOF 0
ENDMDL
