MODEL 1
REMARK minimizedAffinity -4.63149786
REMARK minimizedRMSD -1
REMARK  0 active torsions:
REMARK  status: ('A' for Active; 'I' for Inactive)
ROOT
ATOM      1  O1  BZF d   1      -0.646   0.150  -1.456  0.00  0.00    -0.204 OA
ATOM      2  C2  BZF d   1       0.673  -0.162  -1.725  0.00  0.00     0.174 A 
ATOM      3  C3  BZF d   1       1.449   0.066  -0.646  0.00  0.00    -0.012 A 
ATOM      4  C3A BZF d   1       0.545   0.464   0.390  0.00  0.00    -0.107 A 
ATOM      5  C4  BZF d   1       0.712   0.809   1.700  0.00  0.00     0.055 A 
ATOM      6  C5  BZF d   1      -0.367   1.217   2.419  0.00  0.00    -0.016 A 
ATOM      7  C6  BZF d   1      -1.625   1.296   1.858  0.00  0.00     0.022 A 
ATOM      8  C7  BZF d   1      -1.841   0.958   0.564  0.00  0.00     0.029 A 
ATOM      9  C7A BZF d   1      -0.758   0.515  -0.156  0.00  0.00     0.058 A 
ENDROOT
TORSDOF 0
ENDMDL
