MODEL 1
REMARK minimizedAffinity -2.04653502
REMARK minimizedRMSD -1
REMARK  0 active torsions:
REMARK  status: ('A' for Active; 'I' for Inactive)
ROOT
ATOM      1  O1  BZF d   1       1.135   0.730  -0.423  0.00  0.00    -0.204 OA
ATOM      2  C2  BZF d   1       0.533  -0.104  -1.345  0.00  0.00     0.174 A 
ATOM      3  C3  BZF d   1      -0.637  -0.578  -0.870  0.00  0.00    -0.012 A 
ATOM      4  C3A BZF d   1      -0.820   0.069   0.393  0.00  0.00    -0.107 A 
ATOM      5  C4  BZF d   1      -1.804   0.022   1.338  0.00  0.00     0.055 A 
ATOM      6  C5  BZF d   1      -1.645   0.720   2.493  0.00  0.00    -0.016 A 
ATOM      7  C6  BZF d   1      -0.514   1.470   2.738  0.00  0.00     0.022 A 
ATOM      8  C7  BZF d   1       0.487   1.552   1.828  0.00  0.00     0.029 A 
ATOM      9  C7A BZF d   1       0.315   0.874   0.646  0.00  0.00     0.058 A 
ENDROOT
TORSDOF 0
ENDMDL
