MODEL 1
REMARK minimizedAffinity -2.45413446
REMARK minimizedRMSD -1
REMARK  0 active torsions:
REMARK  status: ('A' for Active; 'I' for Inactive)
ROOT
ATOM      1  O1  BZF d   1       1.092   0.733  -0.077  0.00  0.00    -0.204 OA
ATOM      2  C2  BZF d   1       0.476   0.494  -1.290  0.00  0.00     0.174 A 
ATOM      3  C3  BZF d   1      -0.802   0.101  -1.108  0.00  0.00    -0.012 A 
ATOM      4  C3A BZF d   1      -1.024   0.184   0.303  0.00  0.00    -0.107 A 
ATOM      5  C4  BZF d   1      -2.105  -0.063   1.099  0.00  0.00     0.055 A 
ATOM      6  C5  BZF d   1      -1.971   0.044   2.447  0.00  0.00    -0.016 A 
ATOM      7  C6  BZF d   1      -0.771   0.389   3.032  0.00  0.00     0.022 A 
ATOM      8  C7  BZF d   1       0.329   0.648   2.283  0.00  0.00     0.029 A 
ATOM      9  C7A BZF d   1       0.188   0.573   0.919  0.00  0.00     0.058 A 
ENDROOT
TORSDOF 0
ENDMDL
