MODEL 1
REMARK minimizedAffinity -5.85519457
REMARK minimizedRMSD -1
REMARK  0 active torsions:
REMARK  status: ('A' for Active; 'I' for Inactive)
ROOT
ATOM      1  O1  BZF d   1       0.965  -0.691  -0.106  0.00  0.00    -0.204 OA
ATOM      2  C2  BZF d   1      -0.206  -1.067  -0.735  0.00  0.00     0.174 A 
ATOM      3  C3  BZF d   1      -1.277  -0.758   0.024  0.00  0.00    -0.012 A 
ATOM      4  C3A BZF d   1      -0.747  -0.067   1.160  0.00  0.00    -0.107 A 
ATOM      5  C4  BZF d   1      -1.317   0.503   2.262  0.00  0.00     0.055 A 
ATOM      6  C5  BZF d   1      -0.514   1.033   3.221  0.00  0.00    -0.016 A 
ATOM      7  C6  BZF d   1       0.861   1.005   3.114  0.00  0.00     0.022 A 
ATOM      8  C7  BZF d   1       1.472   0.454   2.037  0.00  0.00     0.029 A 
ATOM      9  C7A BZF d   1       0.662  -0.053   1.050  0.00  0.00     0.058 A 
ENDROOT
TORSDOF 0
ENDMDL
