MODEL 1
REMARK minimizedAffinity -3.61919117
REMARK minimizedRMSD -1
REMARK  0 active torsions:
REMARK  status: ('A' for Active; 'I' for Inactive)
ROOT
ATOM      1  O1  BZF d   1       1.018   0.847  -0.341  0.00  0.00    -0.204 OA
ATOM      2  C2  BZF d   1       0.614  -0.052  -1.309  0.00  0.00     0.174 A 
ATOM      3  C3  BZF d   1      -0.532  -0.664  -0.946  0.00  0.00    -0.012 A 
ATOM      4  C3A BZF d   1      -0.914  -0.046   0.287  0.00  0.00    -0.107 A 
ATOM      5  C4  BZF d   1      -1.974  -0.213   1.132  0.00  0.00     0.055 A 
ATOM      6  C5  BZF d   1      -2.014   0.497   2.290  0.00  0.00    -0.016 A 
ATOM      7  C6  BZF d   1      -1.010   1.377   2.636  0.00  0.00     0.022 A 
ATOM      8  C7  BZF d   1       0.058   1.581   1.828  0.00  0.00     0.029 A 
ATOM      9  C7A BZF d   1       0.085   0.890   0.641  0.00  0.00     0.058 A 
ENDROOT
TORSDOF 0
ENDMDL
