MODEL 1
REMARK minimizedAffinity -4.40726137
REMARK minimizedRMSD -1
REMARK  0 active torsions:
REMARK  status: ('A' for Active; 'I' for Inactive)
ROOT
ATOM      1  O1  BZF d   1       0.372  -0.512  -0.805  0.00  0.00    -0.204 OA
ATOM      2  C2  BZF d   1      -0.827  -1.080  -1.190  0.00  0.00     0.174 A 
ATOM      3  C3  BZF d   1      -1.766  -0.908  -0.238  0.00  0.00    -0.012 A 
ATOM      4  C3A BZF d   1      -1.139  -0.106   0.768  0.00  0.00    -0.107 A 
ATOM      5  C4  BZF d   1      -1.566   0.412   1.957  0.00  0.00     0.055 A 
ATOM      6  C5  BZF d   1      -0.684   1.089   2.738  0.00  0.00    -0.016 A 
ATOM      7  C6  BZF d   1       0.633   1.262   2.364  0.00  0.00     0.022 A 
ATOM      8  C7  BZF d   1       1.102   0.771   1.191  0.00  0.00     0.029 A 
ATOM      9  C7A BZF d   1       0.204   0.114   0.385  0.00  0.00     0.058 A 
ENDROOT
TORSDOF 0
ENDMDL
