MODEL 1
REMARK minimizedAffinity 1.35017574
REMARK minimizedRMSD -1
REMARK  0 active torsions:
REMARK  status: ('A' for Active; 'I' for Inactive)
ROOT
ATOM      1  C   UNL d   1      -0.514  -0.222   2.595  0.00  0.00     0.020 A 
ATOM      2  C1  UNL d   1       0.394  -1.279   2.635  0.00  0.00     0.020 A 
ATOM      3  C2  UNL d   1       1.156  -1.588   1.507  0.00  0.00     0.034 A 
ATOM      4  C3  UNL d   1       1.011  -0.839   0.333  0.00  0.00     0.017 A 
ATOM      5  C4  UNL d   1       0.099   0.222   0.294  0.00  0.00     0.017 A 
ATOM      6  C5  UNL d   1      -0.661   0.527   1.427  0.00  0.00     0.034 A 
ATOM      7 Cl   UNL d   1      -0.135   1.191  -1.118  0.00  0.00    -0.070 Cl
ATOM      8 Cl1  UNL d   1       1.986  -1.277  -1.025  0.00  0.00    -0.070 Cl
ENDROOT
TORSDOF 0
ENDMDL
