MODEL 1
REMARK minimizedAffinity -3.07379651
REMARK minimizedRMSD -1
REMARK  0 active torsions:
REMARK  status: ('A' for Active; 'I' for Inactive)
ROOT
ATOM      1  C   UNL d   1      -1.259  -0.915   0.100  0.00  0.00     0.020 A 
ATOM      2  C1  UNL d   1      -0.621  -0.185   1.102  0.00  0.00     0.020 A 
ATOM      3  C2  UNL d   1      -0.215   1.129   0.858  0.00  0.00     0.034 A 
ATOM      4  C3  UNL d   1      -0.445   1.716  -0.392  0.00  0.00     0.017 A 
ATOM      5  C4  UNL d   1      -1.085   0.982  -1.397  0.00  0.00     0.017 A 
ATOM      6  C5  UNL d   1      -1.490  -0.333  -1.147  0.00  0.00     0.034 A 
ATOM      7 Cl   UNL d   1      -1.403   1.638  -2.964  0.00  0.00    -0.070 Cl
ATOM      8 Cl1  UNL d   1       0.084   3.344  -0.624  0.00  0.00    -0.070 Cl
ENDROOT
TORSDOF 0
ENDMDL
