MODEL 1
REMARK minimizedAffinity -3.23792195
REMARK minimizedRMSD -1
REMARK  0 active torsions:
REMARK  status: ('A' for Active; 'I' for Inactive)
ROOT
ATOM      1  C   UNL d   1      -0.522  -0.196   2.092  0.00  0.00     0.020 A 
ATOM      2  C1  UNL d   1      -1.499   0.658   1.582  0.00  0.00     0.020 A 
ATOM      3  C2  UNL d   1      -1.518   0.964   0.220  0.00  0.00     0.034 A 
ATOM      4  C3  UNL d   1      -0.558   0.415  -0.638  0.00  0.00     0.017 A 
ATOM      5  C4  UNL d   1       0.423  -0.442  -0.126  0.00  0.00     0.017 A 
ATOM      6  C5  UNL d   1       0.437  -0.745   1.239  0.00  0.00     0.034 A 
ATOM      7 Cl   UNL d   1       1.641  -1.157  -1.122  0.00  0.00    -0.070 Cl
ATOM      8 Cl1  UNL d   1      -0.641   0.836  -2.312  0.00  0.00    -0.070 Cl
ENDROOT
TORSDOF 0
ENDMDL
