MODEL 1
REMARK minimizedAffinity -4.49959803
REMARK minimizedRMSD -1
REMARK  0 active torsions:
REMARK  status: ('A' for Active; 'I' for Inactive)
ROOT
ATOM      1  C   UNL d   1       2.531  -1.840   2.365  0.00  0.00     0.020 A 
ATOM      2  C1  UNL d   1       1.611  -0.918   2.861  0.00  0.00     0.020 A 
ATOM      3  C2  UNL d   1       0.766  -0.233   1.985  0.00  0.00     0.034 A 
ATOM      4  C3  UNL d   1       0.839  -0.470   0.607  0.00  0.00     0.017 A 
ATOM      5  C4  UNL d   1       1.763  -1.396   0.110  0.00  0.00     0.017 A 
ATOM      6  C5  UNL d   1       2.607  -2.079   0.992  0.00  0.00     0.034 A 
ATOM      7 Cl   UNL d   1       1.912  -1.742  -1.577  0.00  0.00    -0.070 Cl
ATOM      8 Cl1  UNL d   1      -0.236   0.412  -0.418  0.00  0.00    -0.070 Cl
ENDROOT
TORSDOF 0
ENDMDL
