MODEL 1
REMARK minimizedAffinity -2.06128335
REMARK minimizedRMSD -1
REMARK  0 active torsions:
REMARK  status: ('A' for Active; 'I' for Inactive)
ROOT
ATOM      1  C   UNL d   1      -1.110  -0.115   2.134  0.00  0.00     0.020 A 
ATOM      2  C1  UNL d   1      -0.148  -1.102   2.343  0.00  0.00     0.020 A 
ATOM      3  C2  UNL d   1       0.623  -1.564   1.275  0.00  0.00     0.034 A 
ATOM      4  C3  UNL d   1       0.434  -1.038  -0.009  0.00  0.00     0.017 A 
ATOM      5  C4  UNL d   1      -0.532  -0.047  -0.218  0.00  0.00     0.017 A 
ATOM      6  C5  UNL d   1      -1.301   0.411   0.856  0.00  0.00     0.034 A 
ATOM      7 Cl   UNL d   1      -0.822   0.650  -1.773  0.00  0.00    -0.070 Cl
ATOM      8 Cl1  UNL d   1       1.424  -1.655  -1.284  0.00  0.00    -0.070 Cl
ENDROOT
TORSDOF 0
ENDMDL
