MODEL 1
REMARK minimizedAffinity -4.04773045
REMARK minimizedRMSD -1
REMARK  0 active torsions:
REMARK  status: ('A' for Active; 'I' for Inactive)
ROOT
ATOM      1  C   UNL d   1       1.227  -0.249   2.719  0.00  0.00     0.020 A 
ATOM      2  C1  UNL d   1       0.014   0.307   2.317  0.00  0.00     0.020 A 
ATOM      3  C2  UNL d   1      -0.311   0.366   0.960  0.00  0.00     0.034 A 
ATOM      4  C3  UNL d   1       0.577  -0.133   0.001  0.00  0.00     0.017 A 
ATOM      5  C4  UNL d   1       1.795  -0.692   0.406  0.00  0.00     0.017 A 
ATOM      6  C5  UNL d   1       2.116  -0.748   1.766  0.00  0.00     0.034 A 
ATOM      7 Cl   UNL d   1       2.942  -1.329  -0.719  0.00  0.00    -0.070 Cl
ATOM      8 Cl1  UNL d   1       0.110  -0.029  -1.659  0.00  0.00    -0.070 Cl
ENDROOT
TORSDOF 0
ENDMDL
