MODEL 1
REMARK minimizedAffinity -4.47670031
REMARK minimizedRMSD -1
REMARK  0 active torsions:
REMARK  status: ('A' for Active; 'I' for Inactive)
ROOT
ATOM      1  C   UNL d   1       0.885  -1.755   2.461  0.00  0.00     0.020 A 
ATOM      2  C1  UNL d   1       1.796  -1.536   1.428  0.00  0.00     0.020 A 
ATOM      3  C2  UNL d   1       1.367  -0.970   0.226  0.00  0.00     0.034 A 
ATOM      4  C3  UNL d   1       0.022  -0.621   0.054  0.00  0.00     0.017 A 
ATOM      5  C4  UNL d   1      -0.891  -0.841   1.091  0.00  0.00     0.017 A 
ATOM      6  C5  UNL d   1      -0.456  -1.408   2.292  0.00  0.00     0.034 A 
ATOM      7 Cl   UNL d   1      -2.566  -0.436   0.952  0.00  0.00    -0.070 Cl
ATOM      8 Cl1  UNL d   1      -0.439   0.076  -1.459  0.00  0.00    -0.070 Cl
ENDROOT
TORSDOF 0
ENDMDL
