MODEL 1
REMARK minimizedAffinity -4.58142471
REMARK minimizedRMSD -1
REMARK  0 active torsions:
REMARK  status: ('A' for Active; 'I' for Inactive)
ROOT
ATOM      1  C   UNL d   1      -0.795  -0.352  -0.742  0.00  0.00     0.020 A 
ATOM      2  C1  UNL d   1      -1.399  -0.418   0.512  0.00  0.00     0.020 A 
ATOM      3  C2  UNL d   1      -0.646  -0.776   1.632  0.00  0.00     0.034 A 
ATOM      4  C3  UNL d   1       0.716  -1.070   1.500  0.00  0.00     0.017 A 
ATOM      5  C4  UNL d   1       1.322  -1.004   0.240  0.00  0.00     0.017 A 
ATOM      6  C5  UNL d   1       0.563  -0.644  -0.878  0.00  0.00     0.034 A 
ATOM      7 Cl   UNL d   1       2.997  -1.352  -0.002  0.00  0.00    -0.070 Cl
ATOM      8 Cl1  UNL d   1       1.586  -1.506   2.927  0.00  0.00    -0.070 Cl
ENDROOT
TORSDOF 0
ENDMDL
