MODEL 1
REMARK minimizedAffinity -5.54159498
REMARK minimizedRMSD -1
REMARK  0 active torsions:
REMARK  status: ('A' for Active; 'I' for Inactive)
ROOT
ATOM      1  C   UNL d   1       0.760  -1.301   2.779  0.00  0.00     0.020 A 
ATOM      2  C1  UNL d   1      -0.338  -0.549   2.364  0.00  0.00     0.020 A 
ATOM      3  C2  UNL d   1      -0.569  -0.345   1.002  0.00  0.00     0.034 A 
ATOM      4  C3  UNL d   1       0.299  -0.893   0.050  0.00  0.00     0.017 A 
ATOM      5  C4  UNL d   1       1.401  -1.648   0.468  0.00  0.00     0.017 A 
ATOM      6  C5  UNL d   1       1.628  -1.849   1.833  0.00  0.00     0.034 A 
ATOM      7 Cl   UNL d   1       2.516  -2.356  -0.647  0.00  0.00    -0.070 Cl
ATOM      8 Cl1  UNL d   1      -0.048  -0.600  -1.617  0.00  0.00    -0.070 Cl
ENDROOT
TORSDOF 0
ENDMDL
