MODEL 1
REMARK minimizedAffinity -3.80933237
REMARK minimizedRMSD -1
REMARK  0 active torsions:
REMARK  status: ('A' for Active; 'I' for Inactive)
ROOT
ATOM      1  C   UNL d   1       2.410  -1.211   1.843  0.00  0.00     0.020 A 
ATOM      2  C1  UNL d   1       1.359  -1.625   2.661  0.00  0.00     0.020 A 
ATOM      3  C2  UNL d   1       0.048  -1.258   2.352  0.00  0.00     0.034 A 
ATOM      4  C3  UNL d   1      -0.216  -0.474   1.223  0.00  0.00     0.017 A 
ATOM      5  C4  UNL d   1       0.839  -0.059   0.403  0.00  0.00     0.017 A 
ATOM      6  C5  UNL d   1       2.151  -0.430   0.717  0.00  0.00     0.034 A 
ATOM      7 Cl   UNL d   1       0.592   0.909  -1.007  0.00  0.00    -0.070 Cl
ATOM      8 Cl1  UNL d   1      -1.862  -0.057   0.901  0.00  0.00    -0.070 Cl
ENDROOT
TORSDOF 0
ENDMDL
