MODEL 1
REMARK minimizedAffinity 0.536459208
REMARK minimizedRMSD -1
REMARK  0 active torsions:
REMARK  status: ('A' for Active; 'I' for Inactive)
ROOT
ATOM      1  C4' PXY d   1      -3.871   4.405   5.256  0.00  0.00     0.077 C 
ATOM      2  C1' PXY d   1      -5.981  -0.831   4.010  0.00  0.00     0.077 C 
ATOM      3  C1  PXY d   1      -5.434   0.542   4.348  0.00  0.00    -0.082 A 
ATOM      4  C2  PXY d   1      -5.021   1.339   3.376  0.00  0.00     0.003 A 
ATOM      5  C3  PXY d   1      -4.494   2.571   3.666  0.00  0.00     0.003 A 
ATOM      6  C4  PXY d   1      -4.439   3.014   4.960  0.00  0.00    -0.082 A 
ATOM      7  C5  PXY d   1      -4.869   2.211   5.957  0.00  0.00     0.003 A 
ATOM      8  C6  PXY d   1      -5.362   0.948   5.645  0.00  0.00     0.003 A 
ENDROOT
TORSDOF 0
ENDMDL
