MODEL 1
REMARK minimizedAffinity -3.61455417
REMARK minimizedRMSD -1
REMARK  0 active torsions:
REMARK  status: ('A' for Active; 'I' for Inactive)
ROOT
ATOM      1  C4' PXY d   1       5.740  -0.710   4.674  0.00  0.00     0.077 C 
ATOM      2  C1' PXY d   1       3.811  -5.996   5.998  0.00  0.00     0.077 C 
ATOM      3  C1  PXY d   1       4.308  -4.609   5.641  0.00  0.00    -0.082 A 
ATOM      4  C2  PXY d   1       5.527  -4.239   5.999  0.00  0.00     0.003 A 
ATOM      5  C3  PXY d   1       5.981  -2.977   5.712  0.00  0.00     0.003 A 
ATOM      6  C4  PXY d   1       5.200  -2.104   5.005  0.00  0.00    -0.082 A 
ATOM      7  C5  PXY d   1       3.959  -2.478   4.626  0.00  0.00     0.003 A 
ATOM      8  C6  PXY d   1       3.501  -3.748   4.963  0.00  0.00     0.003 A 
ENDROOT
TORSDOF 0
ENDMDL
