MODEL 1
REMARK minimizedAffinity 3.55814385
REMARK minimizedRMSD -1
REMARK  0 active torsions:
REMARK  status: ('A' for Active; 'I' for Inactive)
ROOT
ATOM      1  C4' PXY d   1       0.489   1.128  -3.104  0.00  0.00     0.077 C 
ATOM      2  C1' PXY d   1       3.350   3.608   1.265  0.00  0.00     0.077 C 
ATOM      3  C1  PXY d   1       2.608   2.948   0.119  0.00  0.00    -0.082 A 
ATOM      4  C2  PXY d   1       1.832   3.678  -0.665  0.00  0.00     0.003 A 
ATOM      5  C3  PXY d   1       1.129   3.092  -1.686  0.00  0.00     0.003 A 
ATOM      6  C4  PXY d   1       1.264   1.753  -1.941  0.00  0.00    -0.082 A 
ATOM      7  C5  PXY d   1       2.063   1.003  -1.152  0.00  0.00     0.003 A 
ATOM      8  C6  PXY d   1       2.735   1.610  -0.095  0.00  0.00     0.003 A 
ENDROOT
TORSDOF 0
ENDMDL
