MODEL 1
REMARK minimizedAffinity 4.73505354
REMARK minimizedRMSD -1
REMARK  0 active torsions:
REMARK  status: ('A' for Active; 'I' for Inactive)
ROOT
ATOM      1  C4' PXY d   1       1.001   4.184  -5.635  0.00  0.00     0.077 C 
ATOM      2  C1' PXY d   1       1.128  -0.142  -1.802  0.00  0.00     0.077 C 
ATOM      3  C1  PXY d   1       1.093   1.001  -2.798  0.00  0.00    -0.082 A 
ATOM      4  C2  PXY d   1       0.732   0.768  -4.049  0.00  0.00     0.003 A 
ATOM      5  C3  PXY d   1       0.726   1.784  -4.970  0.00  0.00     0.003 A 
ATOM      6  C4  PXY d   1       1.041   3.062  -4.594  0.00  0.00    -0.082 A 
ATOM      7  C5  PXY d   1       1.401   3.310  -3.316  0.00  0.00     0.003 A 
ATOM      8  C6  PXY d   1       1.441   2.257  -2.407  0.00  0.00     0.003 A 
ENDROOT
TORSDOF 0
ENDMDL
