MODEL 1
REMARK minimizedAffinity -1.83330584
REMARK minimizedRMSD -1
REMARK  0 active torsions:
REMARK  status: ('A' for Active; 'I' for Inactive)
ROOT
ATOM      1  C4' PXY d   1      -2.270   5.999   6.000  0.00  0.00     0.077 C 
ATOM      2  C1' PXY d   1      -5.615   5.786   1.290  0.00  0.00     0.077 C 
ATOM      3  C1  PXY d   1      -4.728   5.837   2.518  0.00  0.00    -0.082 A 
ATOM      4  C2  PXY d   1      -5.274   5.785   3.722  0.00  0.00     0.003 A 
ATOM      5  C3  PXY d   1      -4.489   5.863   4.844  0.00  0.00     0.003 A 
ATOM      6  C4  PXY d   1      -3.127   5.941   4.732  0.00  0.00    -0.082 A 
ATOM      7  C5  PXY d   1      -2.561   5.983   3.507  0.00  0.00     0.003 A 
ATOM      8  C6  PXY d   1      -3.379   5.945   2.381  0.00  0.00     0.003 A 
ENDROOT
TORSDOF 0
ENDMDL
