MODEL 1
REMARK minimizedAffinity 0.219193071
REMARK minimizedRMSD -1
REMARK  0 active torsions:
REMARK  status: ('A' for Active; 'I' for Inactive)
ROOT
ATOM      1  C4' PXY d   1      -2.418   5.999   0.771  0.00  0.00     0.077 C 
ATOM      2  C1' PXY d   1      -4.882   5.952   5.999  0.00  0.00     0.077 C 
ATOM      3  C1  PXY d   1      -4.247   5.959   4.623  0.00  0.00    -0.082 A 
ATOM      4  C2  PXY d   1      -2.928   5.961   4.511  0.00  0.00     0.003 A 
ATOM      5  C3  PXY d   1      -2.337   5.999   3.275  0.00  0.00     0.003 A 
ATOM      6  C4  PXY d   1      -3.103   5.982   2.140  0.00  0.00    -0.082 A 
ATOM      7  C5  PXY d   1      -4.449   5.970   2.245  0.00  0.00     0.003 A 
ATOM      8  C6  PXY d   1      -5.030   5.972   3.510  0.00  0.00     0.003 A 
ENDROOT
TORSDOF 0
ENDMDL
