MODEL 1
REMARK minimizedAffinity 0.0865683481
REMARK minimizedRMSD -1
REMARK  0 active torsions:
REMARK  status: ('A' for Active; 'I' for Inactive)
ROOT
ATOM      1  C4' PXY d   1      -1.661   5.980   5.974  0.00  0.00     0.077 C 
ATOM      2  C1' PXY d   1      -5.995   5.999   2.150  0.00  0.00     0.077 C 
ATOM      3  C1  PXY d   1      -4.851   5.988   3.143  0.00  0.00    -0.082 A 
ATOM      4  C2  PXY d   1      -5.111   5.977   4.441  0.00  0.00     0.003 A 
ATOM      5  C3  PXY d   1      -4.088   6.000   5.354  0.00  0.00     0.003 A 
ATOM      6  C4  PXY d   1      -2.785   5.981   4.934  0.00  0.00    -0.082 A 
ATOM      7  C5  PXY d   1      -2.511   5.982   3.612  0.00  0.00     0.003 A 
ATOM      8  C6  PXY d   1      -3.564   6.000   2.702  0.00  0.00     0.003 A 
ENDROOT
TORSDOF 0
ENDMDL
