MODEL 1
REMARK minimizedAffinity 6.24122
REMARK minimizedRMSD -1
REMARK  0 active torsions:
REMARK  status: ('A' for Active; 'I' for Inactive)
ROOT
ATOM      1  C4' PXY d   1       0.671   1.868  -3.027  0.00  0.00     0.077 C 
ATOM      2  C1' PXY d   1       5.999   0.754  -4.973  0.00  0.00     0.077 C 
ATOM      3  C1  PXY d   1       4.603   1.036  -4.454  0.00  0.00    -0.082 A 
ATOM      4  C2  PXY d   1       3.715   1.614  -5.246  0.00  0.00     0.003 A 
ATOM      5  C3  PXY d   1       2.458   1.906  -4.783  0.00  0.00     0.003 A 
ATOM      6  C4  PXY d   1       2.089   1.555  -3.512  0.00  0.00    -0.082 A 
ATOM      7  C5  PXY d   1       2.986   0.955  -2.701  0.00  0.00     0.003 A 
ATOM      8  C6  PXY d   1       4.270   0.705  -3.177  0.00  0.00     0.003 A 
ENDROOT
TORSDOF 0
ENDMDL
