MODEL 1
REMARK minimizedAffinity 4.4320879
REMARK minimizedRMSD -1
REMARK  0 active torsions:
REMARK  status: ('A' for Active; 'I' for Inactive)
ROOT
ATOM      1  C4' PXY d   1       2.007   3.629  -1.870  0.00  0.00     0.077 C 
ATOM      2  C1' PXY d   1       0.889  -2.014  -2.439  0.00  0.00     0.077 C 
ATOM      3  C1  PXY d   1       1.177  -0.531  -2.301  0.00  0.00    -0.082 A 
ATOM      4  C2  PXY d   1       2.148  -0.126  -1.500  0.00  0.00     0.003 A 
ATOM      5  C3  PXY d   1       2.401   1.212  -1.339  0.00  0.00     0.003 A 
ATOM      6  C4  PXY d   1       1.687   2.142  -2.047  0.00  0.00    -0.082 A 
ATOM      7  C5  PXY d   1       0.701   1.736  -2.874  0.00  0.00     0.003 A 
ATOM      8  C6  PXY d   1       0.433   0.375  -2.992  0.00  0.00     0.003 A 
ENDROOT
TORSDOF 0
ENDMDL
