MODEL 1
REMARK minimizedAffinity 12.5669718
REMARK minimizedRMSD -1
REMARK  0 active torsions:
REMARK  status: ('A' for Active; 'I' for Inactive)
ROOT
ATOM      1  C4' PXY d   1       0.765   4.675  -4.795  0.00  0.00     0.077 C 
ATOM      2  C1' PXY d   1       2.171   0.249  -1.354  0.00  0.00     0.077 C 
ATOM      3  C1  PXY d   1       1.805   1.418  -2.247  0.00  0.00    -0.082 A 
ATOM      4  C2  PXY d   1       0.987   1.229  -3.270  0.00  0.00     0.003 A 
ATOM      5  C3  PXY d   1       0.671   2.269  -4.106  0.00  0.00     0.003 A 
ATOM      6  C4  PXY d   1       1.154   3.526  -3.862  0.00  0.00    -0.082 A 
ATOM      7  C5  PXY d   1       1.981   3.729  -2.814  0.00  0.00     0.003 A 
ATOM      8  C6  PXY d   1       2.323   2.652  -2.002  0.00  0.00     0.003 A 
ENDROOT
TORSDOF 0
ENDMDL
