MODEL 1
REMARK minimizedAffinity 8.36023521
REMARK minimizedRMSD -1
REMARK  0 active torsions:
REMARK  status: ('A' for Active; 'I' for Inactive)
ROOT
ATOM      1  C4' PXY d   1      -2.974   5.904   5.994  0.00  0.00     0.077 C 
ATOM      2  C1' PXY d   1      -5.147   3.476   1.220  0.00  0.00     0.077 C 
ATOM      3  C1  PXY d   1      -4.581   4.102   2.479  0.00  0.00    -0.082 A 
ATOM      4  C2  PXY d   1      -4.478   5.418   2.566  0.00  0.00     0.003 A 
ATOM      5  C3  PXY d   1      -3.939   6.000   3.684  0.00  0.00     0.003 A 
ATOM      6  C4  PXY d   1      -3.549   5.229   4.746  0.00  0.00    -0.082 A 
ATOM      7  C5  PXY d   1      -3.661   3.885   4.670  0.00  0.00     0.003 A 
ATOM      8  C6  PXY d   1      -4.173   3.313   3.509  0.00  0.00     0.003 A 
ENDROOT
TORSDOF 0
ENDMDL
