MODEL 1
REMARK minimizedAffinity -1.11627209
REMARK minimizedRMSD -1
REMARK  0 active torsions:
REMARK  status: ('A' for Active; 'I' for Inactive)
ROOT
ATOM      1  C4' PXY d   1      -4.509   6.000   5.653  0.00  0.00     0.077 C 
ATOM      2  C1' PXY d   1      -2.318   5.159   0.370  0.00  0.00     0.077 C 
ATOM      3  C1  PXY d   1      -2.901   5.387   1.750  0.00  0.00    -0.082 A 
ATOM      4  C2  PXY d   1      -2.142   5.207   2.819  0.00  0.00     0.003 A 
ATOM      5  C3  PXY d   1      -2.663   5.379   4.076  0.00  0.00     0.003 A 
ATOM      6  C4  PXY d   1      -3.959   5.790   4.239  0.00  0.00    -0.082 A 
ATOM      7  C5  PXY d   1      -4.736   5.986   3.153  0.00  0.00     0.003 A 
ATOM      8  C6  PXY d   1      -4.201   5.767   1.887  0.00  0.00     0.003 A 
ENDROOT
TORSDOF 0
ENDMDL
