MODEL 1
REMARK minimizedAffinity 3.68544221
REMARK minimizedRMSD -1
REMARK  0 active torsions:
REMARK  status: ('A' for Active; 'I' for Inactive)
ROOT
ATOM      1  C4' PXY d   1      -5.661   5.507   1.335  0.00  0.00     0.077 C 
ATOM      2  C1' PXY d   1      -2.283   6.000   6.000  0.00  0.00     0.077 C 
ATOM      3  C1  PXY d   1      -3.158   5.874   4.769  0.00  0.00    -0.082 A 
ATOM      4  C2  PXY d   1      -4.472   5.977   4.888  0.00  0.00     0.003 A 
ATOM      5  C3  PXY d   1      -5.281   5.834   3.790  0.00  0.00     0.003 A 
ATOM      6  C4  PXY d   1      -4.737   5.637   2.549  0.00  0.00    -0.082 A 
ATOM      7  C5  PXY d   1      -3.397   5.541   2.418  0.00  0.00     0.003 A 
ATOM      8  C6  PXY d   1      -2.595   5.648   3.551  0.00  0.00     0.003 A 
ENDROOT
TORSDOF 0
ENDMDL
