MODEL 1
REMARK minimizedAffinity 10.0265703
REMARK minimizedRMSD -1
REMARK  0 active torsions:
REMARK  status: ('A' for Active; 'I' for Inactive)
ROOT
ATOM      1  C4' PXY d   1       0.066  -1.052  -1.781  0.00  0.00     0.077 C 
ATOM      2  C1' PXY d   1       3.445   2.865  -4.360  0.00  0.00     0.077 C 
ATOM      3  C1  PXY d   1       2.570   1.831  -3.680  0.00  0.00    -0.082 A 
ATOM      4  C2  PXY d   1       1.313   1.683  -4.066  0.00  0.00     0.003 A 
ATOM      5  C3  PXY d   1       0.497   0.775  -3.440  0.00  0.00     0.003 A 
ATOM      6  C4  PXY d   1       0.989  -0.027  -2.446  0.00  0.00    -0.082 A 
ATOM      7  C5  PXY d   1       2.273   0.111  -2.054  0.00  0.00     0.003 A 
ATOM      8  C6  PXY d   1       3.073   1.067  -2.673  0.00  0.00     0.003 A 
ENDROOT
TORSDOF 0
ENDMDL
