MODEL 1
REMARK minimizedAffinity 1.20697153
REMARK minimizedRMSD -1
REMARK  0 active torsions:
REMARK  status: ('A' for Active; 'I' for Inactive)
ROOT
ATOM      1  C4' PXY d   1      -2.241   5.981   5.968  0.00  0.00     0.077 C 
ATOM      2  C1' PXY d   1      -5.412   5.988   1.134  0.00  0.00     0.077 C 
ATOM      3  C1  PXY d   1      -4.570   5.981   2.395  0.00  0.00    -0.082 A 
ATOM      4  C2  PXY d   1      -5.164   5.965   3.577  0.00  0.00     0.003 A 
ATOM      5  C3  PXY d   1      -4.418   5.991   4.728  0.00  0.00     0.003 A 
ATOM      6  C4  PXY d   1      -3.051   5.979   4.668  0.00  0.00    -0.082 A 
ATOM      7  C5  PXY d   1      -2.438   5.985   3.465  0.00  0.00     0.003 A 
ATOM      8  C6  PXY d   1      -3.212   6.000   2.309  0.00  0.00     0.003 A 
ENDROOT
TORSDOF 0
ENDMDL
