MODEL 1
REMARK minimizedAffinity 3.50854826
REMARK minimizedRMSD -1
REMARK  0 active torsions:
REMARK  status: ('A' for Active; 'I' for Inactive)
ROOT
ATOM      1  C4' PXY d   1      -2.237   6.000   5.993  0.00  0.00     0.077 C 
ATOM      2  C1' PXY d   1      -5.994   5.317   1.654  0.00  0.00     0.077 C 
ATOM      3  C1  PXY d   1      -5.019   5.499   2.800  0.00  0.00    -0.082 A 
ATOM      4  C2  PXY d   1      -3.745   5.747   2.541  0.00  0.00     0.003 A 
ATOM      5  C3  PXY d   1      -2.843   5.883   3.565  0.00  0.00     0.003 A 
ATOM      6  C4  PXY d   1      -3.259   5.818   4.868  0.00  0.00    -0.082 A 
ATOM      7  C5  PXY d   1      -4.559   5.576   5.140  0.00  0.00     0.003 A 
ATOM      8  C6  PXY d   1      -5.451   5.400   4.086  0.00  0.00     0.003 A 
ENDROOT
TORSDOF 0
ENDMDL
