MODEL 1
REMARK minimizedAffinity -2.02932286
REMARK minimizedRMSD -1
REMARK  0 active torsions:
REMARK  status: ('A' for Active; 'I' for Inactive)
ROOT
ATOM      1  C4' PXY d   1      -5.975   5.938   2.595  0.00  0.00     0.077 C 
ATOM      2  C1' PXY d   1      -1.303   5.992   5.999  0.00  0.00     0.077 C 
ATOM      3  C1  PXY d   1      -2.522   5.983   5.097  0.00  0.00    -0.082 A 
ATOM      4  C2  PXY d   1      -3.731   5.958   5.632  0.00  0.00     0.003 A 
ATOM      5  C3  PXY d   1      -4.843   5.918   4.831  0.00  0.00     0.003 A 
ATOM      6  C4  PXY d   1      -4.717   5.957   3.468  0.00  0.00    -0.082 A 
ATOM      7  C5  PXY d   1      -3.486   5.993   2.915  0.00  0.00     0.003 A 
ATOM      8  C6  PXY d   1      -2.369   5.992   3.745  0.00  0.00     0.003 A 
ENDROOT
TORSDOF 0
ENDMDL
