MODEL 1
REMARK minimizedAffinity 7.93160152
REMARK minimizedRMSD -1
REMARK  0 active torsions:
REMARK  status: ('A' for Active; 'I' for Inactive)
ROOT
ATOM      1  C4' PXY d   1       1.235  -0.041  -1.481  0.00  0.00     0.077 C 
ATOM      2  C1' PXY d   1       3.005   3.490  -5.702  0.00  0.00     0.077 C 
ATOM      3  C1  PXY d   1       2.529   2.571  -4.594  0.00  0.00    -0.082 A 
ATOM      4  C2  PXY d   1       3.416   1.930  -3.850  0.00  0.00     0.003 A 
ATOM      5  C3  PXY d   1       3.003   1.070  -2.865  0.00  0.00     0.003 A 
ATOM      6  C4  PXY d   1       1.669   0.905  -2.604  0.00  0.00    -0.082 A 
ATOM      7  C5  PXY d   1       0.758   1.563  -3.352  0.00  0.00     0.003 A 
ATOM      8  C6  PXY d   1       1.197   2.400  -4.374  0.00  0.00     0.003 A 
ENDROOT
TORSDOF 0
ENDMDL
