MODEL 1
REMARK minimizedAffinity -1.96266127
REMARK minimizedRMSD -1
REMARK  0 active torsions:
REMARK  status: ('A' for Active; 'I' for Inactive)
ROOT
ATOM      1  C4' PXY d   1       0.798   3.847  -5.791  0.00  0.00     0.077 C 
ATOM      2  C1' PXY d   1       2.502  -0.194  -2.024  0.00  0.00     0.077 C 
ATOM      3  C1  PXY d   1       2.068   0.868  -3.015  0.00  0.00    -0.082 A 
ATOM      4  C2  PXY d   1       0.901   1.471  -2.858  0.00  0.00     0.003 A 
ATOM      5  C3  PXY d   1       0.478   2.411  -3.763  0.00  0.00     0.003 A 
ATOM      6  C4  PXY d   1       1.282   2.775  -4.810  0.00  0.00    -0.082 A 
ATOM      7  C5  PXY d   1       2.479   2.172  -4.971  0.00  0.00     0.003 A 
ATOM      8  C6  PXY d   1       2.871   1.191  -4.065  0.00  0.00     0.003 A 
ENDROOT
TORSDOF 0
ENDMDL
