MODEL 1
REMARK minimizedAffinity 7.54649878
REMARK minimizedRMSD -1
REMARK  0 active torsions:
REMARK  status: ('A' for Active; 'I' for Inactive)
ROOT
ATOM      1  C4' PXY d   1      -1.673   5.990   5.092  0.00  0.00     0.077 C 
ATOM      2  C1' PXY d   1      -5.999   4.882   1.422  0.00  0.00     0.077 C 
ATOM      3  C1  PXY d   1      -4.872   5.182   2.390  0.00  0.00    -0.082 A 
ATOM      4  C2  PXY d   1      -3.624   4.913   2.044  0.00  0.00     0.003 A 
ATOM      5  C3  PXY d   1      -2.595   5.148   2.920  0.00  0.00     0.003 A 
ATOM      6  C4  PXY d   1      -2.842   5.713   4.142  0.00  0.00    -0.082 A 
ATOM      7  C5  PXY d   1      -4.111   6.000   4.499  0.00  0.00     0.003 A 
ATOM      8  C6  PXY d   1      -5.146   5.716   3.612  0.00  0.00     0.003 A 
ENDROOT
TORSDOF 0
ENDMDL
