MODEL 1
REMARK minimizedAffinity 2.62286997
REMARK minimizedRMSD -1
REMARK  0 active torsions:
REMARK  status: ('A' for Active; 'I' for Inactive)
ROOT
ATOM      1  O1  BZF d   1       0.666  -2.275   0.338  0.00  0.00    -0.204 OA
ATOM      2  C2  BZF d   1      -0.048  -1.793   1.418  0.00  0.00     0.174 A 
ATOM      3  C3  BZF d   1      -1.257  -1.340   1.028  0.00  0.00    -0.012 A 
ATOM      4  C3A BZF d   1      -1.338  -1.637  -0.369  0.00  0.00    -0.107 A 
ATOM      5  C4  BZF d   1      -2.303  -1.444  -1.316  0.00  0.00     0.055 A 
ATOM      6  C5  BZF d   1      -2.039  -1.782  -2.606  0.00  0.00    -0.016 A 
ATOM      7  C6  BZF d   1      -0.822  -2.309  -2.984  0.00  0.00     0.022 A 
ATOM      8  C7  BZF d   1       0.164  -2.524  -2.080  0.00  0.00     0.029 A 
ATOM      9  C7A BZF d   1      -0.111  -2.214  -0.770  0.00  0.00     0.058 A 
ENDROOT
TORSDOF 0
ENDMDL
