MODEL 1
REMARK minimizedAffinity 0.0489145778
REMARK minimizedRMSD -1
REMARK  0 active torsions:
REMARK  status: ('A' for Active; 'I' for Inactive)
ROOT
ATOM      1  O1  BZF d   1       2.787   1.978   0.255  0.00  0.00    -0.204 OA
ATOM      2  C2  BZF d   1       2.489   0.763   0.840  0.00  0.00     0.174 A 
ATOM      3  C3  BZF d   1       1.171   0.672   1.110  0.00  0.00    -0.012 A 
ATOM      4  C3A BZF d   1       0.596   1.871   0.581  0.00  0.00    -0.107 A 
ATOM      5  C4  BZF d   1      -0.680   2.356   0.527  0.00  0.00     0.055 A 
ATOM      6  C5  BZF d   1      -0.895   3.593   0.009  0.00  0.00    -0.016 A 
ATOM      7  C6  BZF d   1       0.141   4.374  -0.459  0.00  0.00     0.022 A 
ATOM      8  C7  BZF d   1       1.423   3.935  -0.431  0.00  0.00     0.029 A 
ATOM      9  C7A BZF d   1       1.639   2.671   0.062  0.00  0.00     0.058 A 
ENDROOT
TORSDOF 0
ENDMDL
