MODEL 1
REMARK minimizedAffinity 13.8207455
REMARK minimizedRMSD -1
REMARK  0 active torsions:
REMARK  status: ('A' for Active; 'I' for Inactive)
ROOT
ATOM      1  O1  BZF d   1       3.804   0.175  -0.768  0.00  0.00    -0.204 OA
ATOM      2  C2  BZF d   1       4.020  -0.954  -0.002  0.00  0.00     0.174 A 
ATOM      3  C3  BZF d   1       3.551  -0.779   1.250  0.00  0.00    -0.012 A 
ATOM      4  C3A BZF d   1       2.926   0.508   1.242  0.00  0.00    -0.107 A 
ATOM      5  C4  BZF d   1       2.263   1.236   2.188  0.00  0.00     0.055 A 
ATOM      6  C5  BZF d   1       1.838   2.489   1.879  0.00  0.00    -0.016 A 
ATOM      7  C6  BZF d   1       2.062   3.047   0.638  0.00  0.00     0.022 A 
ATOM      8  C7  BZF d   1       2.710   2.361  -0.335  0.00  0.00     0.029 A 
ATOM      9  C7A BZF d   1       3.112   1.082  -0.037  0.00  0.00     0.058 A 
ENDROOT
TORSDOF 0
ENDMDL
