MODEL 1
REMARK minimizedAffinity 0.790580273
REMARK minimizedRMSD -1
REMARK  0 active torsions:
REMARK  status: ('A' for Active; 'I' for Inactive)
ROOT
ATOM      1  O1  BZF d   1      -0.705   0.626   0.963  0.00  0.00    -0.204 OA
ATOM      2  C2  BZF d   1      -0.505   1.945   0.604  0.00  0.00     0.174 A 
ATOM      3  C3  BZF d   1       0.791   2.288   0.749  0.00  0.00    -0.012 A 
ATOM      4  C3A BZF d   1       1.458   1.084   1.140  0.00  0.00    -0.107 A 
ATOM      5  C4  BZF d   1       2.760   0.780   1.419  0.00  0.00     0.055 A 
ATOM      6  C5  BZF d   1       3.069  -0.473   1.843  0.00  0.00    -0.016 A 
ATOM      7  C6  BZF d   1       2.103  -1.445   2.004  0.00  0.00     0.022 A 
ATOM      8  C7  BZF d   1       0.799  -1.192   1.734  0.00  0.00     0.029 A 
ATOM      9  C7A BZF d   1       0.488   0.065   1.274  0.00  0.00     0.058 A 
ENDROOT
TORSDOF 0
ENDMDL
