MODEL 1
REMARK minimizedAffinity 6.14776945
REMARK minimizedRMSD -1
REMARK  0 active torsions:
REMARK  status: ('A' for Active; 'I' for Inactive)
ROOT
ATOM      1  O1  BZF d   1       2.186   0.744   2.420  0.00  0.00    -0.204 OA
ATOM      2  C2  BZF d   1       2.065   1.059   1.081  0.00  0.00     0.174 A 
ATOM      3  C3  BZF d   1       1.528   0.030   0.394  0.00  0.00    -0.012 A 
ATOM      4  C3A BZF d   1       1.214  -0.958   1.380  0.00  0.00    -0.107 A 
ATOM      5  C4  BZF d   1       0.645  -2.198   1.319  0.00  0.00     0.055 A 
ATOM      6  C5  BZF d   1       0.546  -2.936   2.455  0.00  0.00    -0.016 A 
ATOM      7  C6  BZF d   1       1.011  -2.469   3.667  0.00  0.00     0.022 A 
ATOM      8  C7  BZF d   1       1.578  -1.243   3.778  0.00  0.00     0.029 A 
ATOM      9  C7A BZF d   1       1.649  -0.481   2.638  0.00  0.00     0.058 A 
ENDROOT
TORSDOF 0
ENDMDL
