MODEL 1
REMARK minimizedAffinity -0.921893656
REMARK minimizedRMSD -1
REMARK  0 active torsions:
REMARK  status: ('A' for Active; 'I' for Inactive)
ROOT
ATOM      1  O1  BZF d   1       0.849  -1.612   2.796  0.00  0.00    -0.204 OA
ATOM      2  C2  BZF d   1       1.802  -1.418   3.778  0.00  0.00     0.174 A 
ATOM      3  C3  BZF d   1       2.564  -0.341   3.499  0.00  0.00    -0.012 A 
ATOM      4  C3A BZF d   1       1.996   0.225   2.314  0.00  0.00    -0.107 A 
ATOM      5  C4  BZF d   1       2.302   1.319   1.556  0.00  0.00     0.055 A 
ATOM      6  C5  BZF d   1       1.597   1.553   0.418  0.00  0.00    -0.016 A 
ATOM      7  C6  BZF d   1       0.583   0.712   0.006  0.00  0.00     0.022 A 
ATOM      8  C7  BZF d   1       0.240  -0.382   0.728  0.00  0.00     0.029 A 
ATOM      9  C7A BZF d   1       0.929  -0.603   1.895  0.00  0.00     0.058 A 
ENDROOT
TORSDOF 0
ENDMDL
