MODEL 1
REMARK minimizedAffinity -2.36351347
REMARK minimizedRMSD -1
REMARK  0 active torsions:
REMARK  status: ('A' for Active; 'I' for Inactive)
ROOT
ATOM      1  C   UNL d   1       0.836  -1.092   1.332  0.00  0.00     0.124 A 
ATOM      2  C1  UNL d   1       1.374  -0.906   0.066  0.00  0.00     0.062 A 
ATOM      3  C2  UNL d   1       0.699  -0.135  -0.876  0.00  0.00     0.162 A 
ATOM      4  C3  UNL d   1      -0.522   0.458  -0.555  0.00  0.00    -0.034 A 
ATOM      5  C4  UNL d   1      -1.058   0.266   0.720  0.00  0.00     0.162 A 
ATOM      6  C5  UNL d   1      -0.379  -0.506   1.658  0.00  0.00     0.062 A 
ATOM      7  F   UNL d   1      -0.901  -0.684   2.880  0.00  0.00    -0.097 F 
ATOM      8  F1  UNL d   1      -2.230   0.821   1.062  0.00  0.00    -0.096 F 
ATOM      9  I   UNL d   1      -1.535   1.612  -1.960  0.00  0.00    -0.060 I 
ATOM     10  F2  UNL d   1       1.242   0.027  -2.091  0.00  0.00    -0.096 F 
ATOM     11  F3  UNL d   1       2.548  -1.472  -0.252  0.00  0.00    -0.097 F 
ATOM     12  F4  UNL d   1       1.487  -1.835   2.236  0.00  0.00    -0.092 F 
ENDROOT
TORSDOF 0
ENDMDL
