MODEL 1
REMARK minimizedAffinity 3.69219184
REMARK minimizedRMSD -1
REMARK  0 active torsions:
REMARK  status: ('A' for Active; 'I' for Inactive)
ROOT
ATOM      1  C   UNL d   1       0.821   0.590   0.358  0.00  0.00     0.124 A 
ATOM      2  C1  UNL d   1      -0.433   0.160  -0.053  0.00  0.00     0.062 A 
ATOM      3  C2  UNL d   1      -1.108  -0.821   0.668  0.00  0.00     0.162 A 
ATOM      4  C3  UNL d   1      -0.531  -1.377   1.809  0.00  0.00    -0.034 A 
ATOM      5  C4  UNL d   1       0.730  -0.941   2.216  0.00  0.00     0.162 A 
ATOM      6  C5  UNL d   1       1.401   0.039   1.492  0.00  0.00     0.062 A 
ATOM      7  F   UNL d   1       2.613   0.454   1.891  0.00  0.00    -0.097 F 
ATOM      8  F1  UNL d   1       1.314  -1.455   3.309  0.00  0.00    -0.096 F 
ATOM      9  I   UNL d   1      -1.538  -2.843   2.890  0.00  0.00    -0.060 I 
ATOM     10  F2  UNL d   1      -2.318  -1.217   0.247  0.00  0.00    -0.096 F 
ATOM     11  F3  UNL d   1      -0.995   0.689  -1.149  0.00  0.00    -0.097 F 
ATOM     12  F4  UNL d   1       1.469   1.532  -0.338  0.00  0.00    -0.092 F 
ENDROOT
TORSDOF 0
ENDMDL
