MODEL 1
REMARK minimizedAffinity -0.658005238
REMARK minimizedRMSD -1
REMARK  0 active torsions:
REMARK  status: ('A' for Active; 'I' for Inactive)
ROOT
ATOM      1  C   UNL d   1      -0.644  -0.634   2.208  0.00  0.00     0.124 A 
ATOM      2  C1  UNL d   1       0.696  -0.743   1.861  0.00  0.00     0.062 A 
ATOM      3  C2  UNL d   1       1.087  -0.617   0.531  0.00  0.00     0.162 A 
ATOM      4  C3  UNL d   1       0.137  -0.380  -0.462  0.00  0.00    -0.034 A 
ATOM      5  C4  UNL d   1      -1.209  -0.272  -0.106  0.00  0.00     0.162 A 
ATOM      6  C5  UNL d   1      -1.594  -0.399   1.225  0.00  0.00     0.062 A 
ATOM      7  F   UNL d   1      -2.889  -0.293   1.558  0.00  0.00    -0.097 F 
ATOM      8  F1  UNL d   1      -2.148  -0.044  -1.035  0.00  0.00    -0.096 F 
ATOM      9  I   UNL d   1       0.718  -0.191  -2.452  0.00  0.00    -0.060 I 
ATOM     10  F2  UNL d   1       2.388  -0.727   0.225  0.00  0.00    -0.096 F 
ATOM     11  F3  UNL d   1       1.616  -0.971   2.809  0.00  0.00    -0.097 F 
ATOM     12  F4  UNL d   1      -1.017  -0.757   3.488  0.00  0.00    -0.092 F 
ENDROOT
TORSDOF 0
ENDMDL
