MODEL 1
REMARK minimizedAffinity -0.68070358
REMARK minimizedRMSD -1
REMARK  0 active torsions:
REMARK  status: ('A' for Active; 'I' for Inactive)
ROOT
ATOM      1  C   UNL d   1       1.873  -0.552   0.094  0.00  0.00     0.124 A 
ATOM      2  C1  UNL d   1       1.650  -0.743  -1.263  0.00  0.00     0.062 A 
ATOM      3  C2  UNL d   1       0.561  -0.141  -1.885  0.00  0.00     0.162 A 
ATOM      4  C3  UNL d   1      -0.314   0.660  -1.151  0.00  0.00    -0.034 A 
ATOM      5  C4  UNL d   1      -0.084   0.847   0.213  0.00  0.00     0.162 A 
ATOM      6  C5  UNL d   1       1.006   0.243   0.830  0.00  0.00     0.062 A 
ATOM      7  F   UNL d   1       1.220   0.428   2.141  0.00  0.00    -0.097 F 
ATOM      8  F1  UNL d   1      -0.905   1.611   0.949  0.00  0.00    -0.096 F 
ATOM      9  I   UNL d   1      -1.945   1.563  -2.077  0.00  0.00    -0.060 I 
ATOM     10  F2  UNL d   1       0.369  -0.343  -3.197  0.00  0.00    -0.096 F 
ATOM     11  F3  UNL d   1       2.486  -1.512  -1.977  0.00  0.00    -0.097 F 
ATOM     12  F4  UNL d   1       2.922  -1.134   0.690  0.00  0.00    -0.092 F 
ENDROOT
TORSDOF 0
ENDMDL
