MODEL 1
REMARK minimizedAffinity 3.98139262
REMARK minimizedRMSD -1
REMARK  0 active torsions:
REMARK  status: ('A' for Active; 'I' for Inactive)
ROOT
ATOM      1  C   UNL d   1       2.265  -0.591   0.129  0.00  0.00     0.124 A 
ATOM      2  C1  UNL d   1       2.087  -0.667  -1.246  0.00  0.00     0.062 A 
ATOM      3  C2  UNL d   1       0.912  -0.199  -1.827  0.00  0.00     0.162 A 
ATOM      4  C3  UNL d   1      -0.096   0.350  -1.033  0.00  0.00    -0.034 A 
ATOM      5  C4  UNL d   1       0.090   0.422   0.349  0.00  0.00     0.162 A 
ATOM      6  C5  UNL d   1       1.266  -0.047   0.924  0.00  0.00     0.062 A 
ATOM      7  F   UNL d   1       1.436   0.028   2.253  0.00  0.00    -0.097 F 
ATOM      8  F1  UNL d   1      -0.858   0.944   1.141  0.00  0.00    -0.096 F 
ATOM      9  I   UNL d   1      -1.854   1.050  -1.898  0.00  0.00    -0.060 I 
ATOM     10  F2  UNL d   1       0.767  -0.285  -3.157  0.00  0.00    -0.096 F 
ATOM     11  F3  UNL d   1       3.050  -1.193  -2.017  0.00  0.00    -0.097 F 
ATOM     12  F4  UNL d   1       3.396  -1.042   0.685  0.00  0.00    -0.092 F 
ENDROOT
TORSDOF 0
ENDMDL
