MODEL 1
REMARK minimizedAffinity -0.258715451
REMARK minimizedRMSD -1
REMARK  0 active torsions:
REMARK  status: ('A' for Active; 'I' for Inactive)
ROOT
ATOM      1  C   UNL d   1       2.020  -0.844  -0.024  0.00  0.00     0.124 A 
ATOM      2  C1  UNL d   1       1.204  -0.024   0.743  0.00  0.00     0.062 A 
ATOM      3  C2  UNL d   1       0.127   0.636   0.159  0.00  0.00     0.162 A 
ATOM      4  C3  UNL d   1      -0.141   0.480  -1.201  0.00  0.00    -0.034 A 
ATOM      5  C4  UNL d   1       0.685  -0.345  -1.966  0.00  0.00     0.162 A 
ATOM      6  C5  UNL d   1       1.760  -1.003  -1.378  0.00  0.00     0.062 A 
ATOM      7  F   UNL d   1       2.547  -1.794  -2.121  0.00  0.00    -0.097 F 
ATOM      8  F1  UNL d   1       0.456  -0.518  -3.277  0.00  0.00    -0.096 F 
ATOM      9  I   UNL d   1      -1.750   1.466  -2.078  0.00  0.00    -0.060 I 
ATOM     10  F2  UNL d   1      -0.645   1.422   0.925  0.00  0.00    -0.096 F 
ATOM     11  F3  UNL d   1       1.454   0.132   2.051  0.00  0.00    -0.097 F 
ATOM     12  F4  UNL d   1       3.056  -1.478   0.540  0.00  0.00    -0.092 F 
ENDROOT
TORSDOF 0
ENDMDL
