MODEL 1
REMARK minimizedAffinity -1.46530592
REMARK minimizedRMSD -1
REMARK  0 active torsions:
REMARK  status: ('A' for Active; 'I' for Inactive)
ROOT
ATOM      1  C   UNL d   1       0.703  -1.281   2.279  0.00  0.00     0.124 A 
ATOM      2  C1  UNL d   1       1.577  -0.798   1.315  0.00  0.00     0.062 A 
ATOM      3  C2  UNL d   1       1.084  -0.174   0.173  0.00  0.00     0.162 A 
ATOM      4  C3  UNL d   1      -0.291  -0.028  -0.011  0.00  0.00    -0.034 A 
ATOM      5  C4  UNL d   1      -1.164  -0.518   0.962  0.00  0.00     0.162 A 
ATOM      6  C5  UNL d   1      -0.666  -1.141   2.102  0.00  0.00     0.062 A 
ATOM      7  F   UNL d   1      -1.512  -1.608   3.032  0.00  0.00    -0.097 F 
ATOM      8  F1  UNL d   1      -2.491  -0.395   0.817  0.00  0.00    -0.096 F 
ATOM      9  I   UNL d   1      -1.032   0.905  -1.717  0.00  0.00    -0.060 I 
ATOM     10  F2  UNL d   1       1.952   0.284  -0.741  0.00  0.00    -0.096 F 
ATOM     11  F3  UNL d   1       2.901  -0.933   1.484  0.00  0.00    -0.097 F 
ATOM     12  F4  UNL d   1       1.181  -1.883   3.377  0.00  0.00    -0.092 F 
ENDROOT
TORSDOF 0
ENDMDL
