MODEL 1
REMARK minimizedAffinity -0.952807367
REMARK minimizedRMSD -1
REMARK  0 active torsions:
REMARK  status: ('A' for Active; 'I' for Inactive)
ROOT
ATOM      1  C   UNL d   1       0.373  -1.244   2.178  0.00  0.00     0.124 A 
ATOM      2  C1  UNL d   1      -0.964  -1.211   1.808  0.00  0.00     0.062 A 
ATOM      3  C2  UNL d   1      -1.365  -0.474   0.697  0.00  0.00     0.162 A 
ATOM      4  C3  UNL d   1      -0.426   0.234  -0.054  0.00  0.00    -0.034 A 
ATOM      5  C4  UNL d   1       0.917   0.196   0.325  0.00  0.00     0.162 A 
ATOM      6  C5  UNL d   1       1.312  -0.541   1.437  0.00  0.00     0.062 A 
ATOM      7  F   UNL d   1       2.605  -0.572   1.793  0.00  0.00    -0.097 F 
ATOM      8  F1  UNL d   1       1.845   0.866  -0.374  0.00  0.00    -0.096 F 
ATOM      9  I   UNL d   1      -1.021   1.336  -1.716  0.00  0.00    -0.060 I 
ATOM     10  F2  UNL d   1      -2.663  -0.460   0.362  0.00  0.00    -0.096 F 
ATOM     11  F3  UNL d   1      -1.873  -1.888   2.523  0.00  0.00    -0.097 F 
ATOM     12  F4  UNL d   1       0.756  -1.953   3.248  0.00  0.00    -0.092 F 
ENDROOT
TORSDOF 0
ENDMDL
