MODEL 1
REMARK minimizedAffinity 2.45565534
REMARK minimizedRMSD -1
REMARK  0 active torsions:
REMARK  status: ('A' for Active; 'I' for Inactive)
ROOT
ATOM      1  C   UNL d   1      -0.488  -0.670   2.063  0.00  0.00     0.124 A 
ATOM      2  C1  UNL d   1       0.830  -0.945   1.727  0.00  0.00     0.062 A 
ATOM      3  C2  UNL d   1       1.303  -0.650   0.452  0.00  0.00     0.162 A 
ATOM      4  C3  UNL d   1       0.458  -0.075  -0.497  0.00  0.00    -0.034 A 
ATOM      5  C4  UNL d   1      -0.867   0.197  -0.152  0.00  0.00     0.162 A 
ATOM      6  C5  UNL d   1      -1.335  -0.100   1.124  0.00  0.00     0.062 A 
ATOM      7  F   UNL d   1      -2.610   0.166   1.447  0.00  0.00    -0.097 F 
ATOM      8  F1  UNL d   1      -1.707   0.748  -1.040  0.00  0.00    -0.096 F 
ATOM      9  I   UNL d   1       1.162   0.367  -2.405  0.00  0.00    -0.060 I 
ATOM     10  F2  UNL d   1       2.582  -0.925   0.155  0.00  0.00    -0.096 F 
ATOM     11  F3  UNL d   1       1.651  -1.496   2.633  0.00  0.00    -0.097 F 
ATOM     12  F4  UNL d   1      -0.941  -0.956   3.291  0.00  0.00    -0.092 F 
ENDROOT
TORSDOF 0
ENDMDL
