MODEL 1
REMARK minimizedAffinity 1.41612148
REMARK minimizedRMSD -1
REMARK  0 active torsions:
REMARK  status: ('A' for Active; 'I' for Inactive)
ROOT
ATOM      1  C   UNL d   1       1.749  -0.705  -0.156  0.00  0.00     0.124 A 
ATOM      2  C1  UNL d   1       1.016   0.203   0.596  0.00  0.00     0.062 A 
ATOM      3  C2  UNL d   1      -0.032   0.910   0.014  0.00  0.00     0.162 A 
ATOM      4  C3  UNL d   1      -0.355   0.711  -1.329  0.00  0.00    -0.034 A 
ATOM      5  C4  UNL d   1       0.387  -0.203  -2.079  0.00  0.00     0.162 A 
ATOM      6  C5  UNL d   1       1.434  -0.907  -1.492  0.00  0.00     0.062 A 
ATOM      7  F   UNL d   1       2.140  -1.784  -2.220  0.00  0.00    -0.097 F 
ATOM      8  F1  UNL d   1       0.103  -0.419  -3.372  0.00  0.00    -0.096 F 
ATOM      9  I   UNL d   1      -1.922   1.765  -2.203  0.00  0.00    -0.060 I 
ATOM     10  F2  UNL d   1      -0.723   1.780   0.764  0.00  0.00    -0.096 F 
ATOM     11  F3  UNL d   1       1.319   0.401   1.887  0.00  0.00    -0.097 F 
ATOM     12  F4  UNL d   1       2.757  -1.383   0.407  0.00  0.00    -0.092 F 
ENDROOT
TORSDOF 0
ENDMDL
