MODEL 1
REMARK minimizedAffinity -4.08930588
REMARK minimizedRMSD -1
REMARK  0 active torsions:
REMARK  status: ('A' for Active; 'I' for Inactive)
ROOT
ATOM      1  C   UNL d   1       0.528  -1.098   2.240  0.00  0.00     0.124 A 
ATOM      2  C1  UNL d   1       1.364  -0.624   1.239  0.00  0.00     0.062 A 
ATOM      3  C2  UNL d   1       0.836   0.080   0.161  0.00  0.00     0.162 A 
ATOM      4  C3  UNL d   1      -0.536   0.317   0.079  0.00  0.00    -0.034 A 
ATOM      5  C4  UNL d   1      -1.371  -0.164   1.089  0.00  0.00     0.162 A 
ATOM      6  C5  UNL d   1      -0.838  -0.867   2.165  0.00  0.00     0.062 A 
ATOM      7  F   UNL d   1      -1.648  -1.324   3.131  0.00  0.00    -0.097 F 
ATOM      8  F1  UNL d   1      -2.695   0.046   1.042  0.00  0.00    -0.096 F 
ATOM      9  I   UNL d   1      -1.330   1.369  -1.532  0.00  0.00    -0.060 I 
ATOM     10  F2  UNL d   1       1.668   0.526  -0.793  0.00  0.00    -0.096 F 
ATOM     11  F3  UNL d   1       2.685  -0.846   1.309  0.00  0.00    -0.097 F 
ATOM     12  F4  UNL d   1       1.039  -1.776   3.276  0.00  0.00    -0.092 F 
ENDROOT
TORSDOF 0
ENDMDL
