MODEL 1
REMARK minimizedAffinity -0.383444011
REMARK minimizedRMSD -1
REMARK  0 active torsions:
REMARK  status: ('A' for Active; 'I' for Inactive)
ROOT
ATOM      1  C   UNL d   1       0.721  -1.574   1.476  0.00  0.00     0.124 A 
ATOM      2  C1  UNL d   1       1.303  -1.434   0.224  0.00  0.00     0.062 A 
ATOM      3  C2  UNL d   1       0.719  -0.609  -0.732  0.00  0.00     0.162 A 
ATOM      4  C3  UNL d   1      -0.456   0.084  -0.440  0.00  0.00    -0.034 A 
ATOM      5  C4  UNL d   1      -1.037  -0.063   0.821  0.00  0.00     0.162 A 
ATOM      6  C5  UNL d   1      -0.449  -0.888   1.773  0.00  0.00     0.062 A 
ATOM      7  F   UNL d   1      -1.013  -1.022   2.982  0.00  0.00    -0.097 F 
ATOM      8  F1  UNL d   1      -2.167   0.589   1.135  0.00  0.00    -0.096 F 
ATOM      9  I   UNL d   1      -1.334   1.318  -1.868  0.00  0.00    -0.060 I 
ATOM     10  F2  UNL d   1       1.304  -0.493  -1.933  0.00  0.00    -0.096 F 
ATOM     11  F3  UNL d   1       2.433  -2.096  -0.065  0.00  0.00    -0.097 F 
ATOM     12  F4  UNL d   1       1.285  -2.369   2.394  0.00  0.00    -0.092 F 
ENDROOT
TORSDOF 0
ENDMDL
