MODEL 1
REMARK minimizedAffinity -3.60367918
REMARK minimizedRMSD -1
REMARK  0 active torsions:
REMARK  status: ('A' for Active; 'I' for Inactive)
ROOT
ATOM      1  C   UNL d   1       2.584  -1.025   1.324  0.00  0.00     0.023 A 
ATOM      2  C1  UNL d   1       2.872  -1.558   0.068  0.00  0.00     0.003 A 
ATOM      3  C2  UNL d   1       1.945  -1.444  -0.970  0.00  0.00     0.048 A 
ATOM      4  C3  UNL d   1       0.732  -0.794  -0.745  0.00  0.00     0.023 A 
ATOM      5  C4  UNL d   1       0.440  -0.258   0.510  0.00  0.00     0.048 A 
ATOM      6  C5  UNL d   1       1.369  -0.375   1.545  0.00  0.00     0.003 A 
ATOM      7  I   UNL d   1      -0.649  -0.623  -2.288  0.00  0.00    -0.146 I 
ENDROOT
TORSDOF 0
ENDMDL
