MODEL 1
REMARK minimizedAffinity -3.37278008
REMARK minimizedRMSD -1
REMARK  0 active torsions:
REMARK  status: ('A' for Active; 'I' for Inactive)
ROOT
ATOM      1  C   UNL d   1       3.167  -1.399   0.551  0.00  0.00     0.023 A 
ATOM      2  C1  UNL d   1       2.367  -1.945  -0.453  0.00  0.00     0.003 A 
ATOM      3  C2  UNL d   1       1.163  -1.329  -0.801  0.00  0.00     0.048 A 
ATOM      4  C3  UNL d   1       0.765  -0.167  -0.142  0.00  0.00     0.023 A 
ATOM      5  C4  UNL d   1       1.563   0.384   0.863  0.00  0.00     0.048 A 
ATOM      6  C5  UNL d   1       2.765  -0.236   1.208  0.00  0.00     0.003 A 
ATOM      7  I   UNL d   1      -1.026   0.752  -0.658  0.00  0.00    -0.146 I 
ENDROOT
TORSDOF 0
ENDMDL
