MODEL 1
REMARK minimizedAffinity -2.19814157
REMARK minimizedRMSD -1
REMARK  0 active torsions:
REMARK  status: ('A' for Active; 'I' for Inactive)
ROOT
ATOM      1  C   UNL d   1       3.588   0.177   0.784  0.00  0.00     0.023 A 
ATOM      2  C1  UNL d   1       2.450   0.978   0.875  0.00  0.00     0.003 A 
ATOM      3  C2  UNL d   1       1.241   0.541   0.330  0.00  0.00     0.048 A 
ATOM      4  C3  UNL d   1       1.177  -0.700  -0.303  0.00  0.00     0.023 A 
ATOM      5  C4  UNL d   1       2.313  -1.506  -0.396  0.00  0.00     0.048 A 
ATOM      6  C5  UNL d   1       3.520  -1.064   0.150  0.00  0.00     0.003 A 
ATOM      7  I   UNL d   1      -0.621  -1.354  -1.115  0.00  0.00    -0.146 I 
ENDROOT
TORSDOF 0
ENDMDL
