MODEL 1
REMARK minimizedAffinity 0.964781642
REMARK minimizedRMSD -1
REMARK  1 active torsions:
REMARK  status: ('A' for Active; 'I' for Inactive)
REMARK    1  A    between atoms: N_2  and  C1_3 
ROOT
ATOM      1  C1  UNL d   1      -4.947  -2.956  -5.113  0.00  0.00     0.143 A 
ATOM      2  C2  UNL d   1      -3.714  -2.447  -5.532  0.00  0.00    -0.057 A 
ATOM      3  C3  UNL d   1      -2.691  -3.295  -5.974  0.00  0.00     0.033 A 
ATOM      4  C4  UNL d   1      -2.874  -4.674  -5.975  0.00  0.00    -0.042 A 
ATOM      5  C5  UNL d   1      -4.084  -5.203  -5.539  0.00  0.00     0.033 A 
ATOM      6  C6  UNL d   1      -5.104  -4.351  -5.106  0.00  0.00    -0.057 A 
ENDROOT
BRANCH   1   7
ATOM      7  N   UNL d   1      -5.968  -2.172  -4.571  0.00  0.00    -0.732 N 
ATOM      8  C   UNL d   1      -5.875  -1.674  -3.215  0.00  0.00     0.284 C 
ATOM      9  H3  UNL d   1      -6.335  -1.495  -5.237  0.00  0.00     0.395 HD
ENDBRANCH   1   7
TORSDOF 1
ENDMDL
