MODEL 1
REMARK minimizedAffinity -1.34691918
REMARK minimizedRMSD -1
REMARK  1 active torsions:
REMARK  status: ('A' for Active; 'I' for Inactive)
REMARK    1  A    between atoms: N_2  and  C1_3 
ROOT
ATOM      1  C1  UNL d   1       3.197   0.254   2.298  0.00  0.00     0.143 A 
ATOM      2  C2  UNL d   1       2.451   1.251   1.660  0.00  0.00    -0.057 A 
ATOM      3  C3  UNL d   1       1.066   1.352   1.844  0.00  0.00     0.033 A 
ATOM      4  C4  UNL d   1       0.397   0.436   2.649  0.00  0.00    -0.042 A 
ATOM      5  C5  UNL d   1       1.115  -0.579   3.273  0.00  0.00     0.033 A 
ATOM      6  C6  UNL d   1       2.498  -0.669   3.091  0.00  0.00    -0.057 A 
ENDROOT
BRANCH   1   7
ATOM      7  N   UNL d   1       4.560   0.042   2.078  0.00  0.00    -0.732 N 
ATOM      8  C   UNL d   1       5.151   0.326   0.788  0.00  0.00     0.284 C 
ATOM      9  H3  UNL d   1       5.131   0.331   2.869  0.00  0.00     0.395 HD
ENDBRANCH   1   7
TORSDOF 1
ENDMDL
