MODEL 1
REMARK minimizedAffinity 1.81908596
REMARK minimizedRMSD -1
REMARK  1 active torsions:
REMARK  status: ('A' for Active; 'I' for Inactive)
REMARK    1  A    between atoms: N_2  and  C1_3 
ROOT
ATOM      1  C1  UNL d   1       5.490  -2.030   3.638  0.00  0.00     0.143 A 
ATOM      2  C2  UNL d   1       5.523  -3.416   3.451  0.00  0.00    -0.057 A 
ATOM      3  C3  UNL d   1       5.761  -4.287   4.521  0.00  0.00     0.033 A 
ATOM      4  C4  UNL d   1       6.000  -3.784   5.795  0.00  0.00    -0.042 A 
ATOM      5  C5  UNL d   1       5.997  -2.409   6.000  0.00  0.00     0.033 A 
ATOM      6  C6  UNL d   1       5.752  -1.544   4.929  0.00  0.00    -0.057 A 
ENDROOT
BRANCH   1   7
ATOM      7  N   UNL d   1       5.357  -1.107   2.597  0.00  0.00    -0.732 N 
ATOM      8  C   UNL d   1       4.115  -0.390   2.403  0.00  0.00     0.284 C 
ATOM      9  H3  UNL d   1       6.190  -0.536   2.475  0.00  0.00     0.395 HD
ENDBRANCH   1   7
TORSDOF 1
ENDMDL
