MODEL 1
REMARK minimizedAffinity 13.1442127
REMARK minimizedRMSD -1
REMARK  1 active torsions:
REMARK  status: ('A' for Active; 'I' for Inactive)
REMARK    1  A    between atoms: N_2  and  C1_3 
ROOT
ATOM      1  C1  UNL d   1       3.143   4.015  -2.377  0.00  0.00     0.143 A 
ATOM      2  C2  UNL d   1       3.904   2.998  -2.964  0.00  0.00    -0.057 A 
ATOM      3  C3  UNL d   1       4.707   3.247  -4.084  0.00  0.00     0.033 A 
ATOM      4  C4  UNL d   1       4.740   4.515  -4.656  0.00  0.00    -0.042 A 
ATOM      5  C5  UNL d   1       3.973   5.534  -4.104  0.00  0.00     0.033 A 
ATOM      6  C6  UNL d   1       3.178   5.281  -2.981  0.00  0.00    -0.057 A 
ENDROOT
BRANCH   1   7
ATOM      7  N   UNL d   1       2.250   3.807  -1.323  0.00  0.00    -0.732 N 
ATOM      8  C   UNL d   1       2.508   2.790  -0.327  0.00  0.00     0.284 C 
ATOM      9  H3  UNL d   1       1.889   4.679  -0.942  0.00  0.00     0.395 HD
ENDBRANCH   1   7
TORSDOF 1
ENDMDL
