MODEL 1
REMARK minimizedAffinity -0.676025629
REMARK minimizedRMSD -1
REMARK  1 active torsions:
REMARK  status: ('A' for Active; 'I' for Inactive)
REMARK    1  A    between atoms: N_2  and  C1_3 
ROOT
ATOM      1  C1  UNL d   1      -5.992  -3.528  -0.519  0.00  0.00     0.143 A 
ATOM      2  C2  UNL d   1      -5.971  -2.879   0.720  0.00  0.00    -0.057 A 
ATOM      3  C3  UNL d   1      -5.990  -1.482   0.809  0.00  0.00     0.033 A 
ATOM      4  C4  UNL d   1      -6.000  -0.706  -0.346  0.00  0.00    -0.042 A 
ATOM      5  C5  UNL d   1      -5.995  -1.329  -1.589  0.00  0.00     0.033 A 
ATOM      6  C6  UNL d   1      -5.984  -2.724  -1.670  0.00  0.00    -0.057 A 
ENDROOT
BRANCH   1   7
ATOM      7  N   UNL d   1      -5.875  -4.911  -0.675  0.00  0.00    -0.732 N 
ATOM      8  C   UNL d   1      -5.380  -5.736   0.406  0.00  0.00     0.284 C 
ATOM      9  H3  UNL d   1      -6.664  -5.313  -1.176  0.00  0.00     0.395 HD
ENDBRANCH   1   7
TORSDOF 1
ENDMDL
