MODEL 1
REMARK minimizedAffinity 12.2087307
REMARK minimizedRMSD -1
REMARK  1 active torsions:
REMARK  status: ('A' for Active; 'I' for Inactive)
REMARK    1  A    between atoms: N_2  and  C1_3 
ROOT
ATOM      1  C1  UNL d   1       0.117   0.180  -4.528  0.00  0.00     0.143 A 
ATOM      2  C2  UNL d   1       1.237  -0.611  -4.248  0.00  0.00    -0.057 A 
ATOM      3  C3  UNL d   1       1.987  -0.421  -3.080  0.00  0.00     0.033 A 
ATOM      4  C4  UNL d   1       1.645   0.586  -2.183  0.00  0.00    -0.042 A 
ATOM      5  C5  UNL d   1       0.550   1.400  -2.453  0.00  0.00     0.033 A 
ATOM      6  C6  UNL d   1      -0.198   1.201  -3.617  0.00  0.00    -0.057 A 
ENDROOT
BRANCH   1   7
ATOM      7  N   UNL d   1      -0.609   0.105  -5.718  0.00  0.00    -0.732 N 
ATOM      8  C   UNL d   1      -1.787   0.923  -5.916  0.00  0.00     0.284 C 
ATOM      9  H3  UNL d   1      -0.008   0.037  -6.536  0.00  0.00     0.395 HD
ENDBRANCH   1   7
TORSDOF 1
ENDMDL
