MODEL 1
REMARK minimizedAffinity 10.2160463
REMARK minimizedRMSD -1
REMARK  1 active torsions:
REMARK  status: ('A' for Active; 'I' for Inactive)
REMARK    1  A    between atoms: N_2  and  C1_3 
ROOT
ATOM      1  C1  UNL d   1      -4.662  -3.653  -0.135  0.00  0.00     0.143 A 
ATOM      2  C2  UNL d   1      -4.412  -3.684   1.241  0.00  0.00    -0.057 A 
ATOM      3  C3  UNL d   1      -3.930  -4.841   1.866  0.00  0.00     0.033 A 
ATOM      4  C4  UNL d   1      -3.718  -6.000   1.127  0.00  0.00    -0.042 A 
ATOM      5  C5  UNL d   1      -3.983  -6.000  -0.238  0.00  0.00     0.033 A 
ATOM      6  C6  UNL d   1      -4.457  -4.839  -0.857  0.00  0.00    -0.057 A 
ENDROOT
BRANCH   1   7
ATOM      7  N   UNL d   1      -5.234  -2.564  -0.798  0.00  0.00    -0.732 N 
ATOM      8  C   UNL d   1      -5.640  -2.674  -2.182  0.00  0.00     0.284 C 
ATOM      9  H3  UNL d   1      -5.890  -2.054  -0.211  0.00  0.00     0.395 HD
ENDBRANCH   1   7
TORSDOF 1
ENDMDL
