MODEL 1
REMARK minimizedAffinity 2.6974051
REMARK minimizedRMSD -1
REMARK  1 active torsions:
REMARK  status: ('A' for Active; 'I' for Inactive)
REMARK    1  A    between atoms: N_2  and  C1_3 
ROOT
ATOM      1  C1  UNL d   1       3.582   3.711  -5.377  0.00  0.00     0.143 A 
ATOM      2  C2  UNL d   1       2.444   3.187  -5.999  0.00  0.00    -0.057 A 
ATOM      3  C3  UNL d   1       1.177   3.742  -5.781  0.00  0.00     0.033 A 
ATOM      4  C4  UNL d   1       1.023   4.817  -4.911  0.00  0.00    -0.042 A 
ATOM      5  C5  UNL d   1       2.137   5.337  -4.263  0.00  0.00     0.033 A 
ATOM      6  C6  UNL d   1       3.400   4.783  -4.490  0.00  0.00    -0.057 A 
ENDROOT
BRANCH   1   7
ATOM      7  N   UNL d   1       4.854   3.141  -5.477  0.00  0.00    -0.732 N 
ATOM      8  C   UNL d   1       5.999   3.782  -4.866  0.00  0.00     0.284 C 
ATOM      9  H3  UNL d   1       4.837   2.130  -5.368  0.00  0.00     0.395 HD
ENDBRANCH   1   7
TORSDOF 1
ENDMDL
