MODEL 1
REMARK minimizedAffinity 8.24511147
REMARK minimizedRMSD -1
REMARK  1 active torsions:
REMARK  status: ('A' for Active; 'I' for Inactive)
REMARK    1  A    between atoms: N_2  and  C1_3 
ROOT
ATOM      1  C1  UNL d   1       1.840   0.020  -2.839  0.00  0.00     0.143 A 
ATOM      2  C2  UNL d   1       2.945   0.851  -2.624  0.00  0.00    -0.057 A 
ATOM      3  C3  UNL d   1       2.878   1.933  -1.738  0.00  0.00     0.033 A 
ATOM      4  C4  UNL d   1       1.692   2.222  -1.071  0.00  0.00    -0.042 A 
ATOM      5  C5  UNL d   1       0.574   1.424  -1.289  0.00  0.00     0.033 A 
ATOM      6  C6  UNL d   1       0.649   0.341  -2.169  0.00  0.00    -0.057 A 
ENDROOT
BRANCH   1   7
ATOM      7  N   UNL d   1       1.814  -1.012  -3.780  0.00  0.00    -0.732 N 
ATOM      8  C   UNL d   1       0.654  -1.868  -3.905  0.00  0.00     0.284 C 
ATOM      9  H3  UNL d   1       2.225  -0.736  -4.670  0.00  0.00     0.395 HD
ENDBRANCH   1   7
TORSDOF 1
ENDMDL
