MODEL 1
REMARK minimizedAffinity 14.229969
REMARK minimizedRMSD -1
REMARK  1 active torsions:
REMARK  status: ('A' for Active; 'I' for Inactive)
REMARK    1  A    between atoms: N_2  and  C1_3 
ROOT
ATOM      1  C1  UNL d   1      -0.296  -0.786  -5.221  0.00  0.00     0.143 A 
ATOM      2  C2  UNL d   1      -0.303  -2.185  -5.206  0.00  0.00    -0.057 A 
ATOM      3  C3  UNL d   1      -1.432  -2.910  -5.605  0.00  0.00     0.033 A 
ATOM      4  C4  UNL d   1      -2.589  -2.246  -6.000  0.00  0.00    -0.042 A 
ATOM      5  C5  UNL d   1      -2.613  -0.856  -6.000  0.00  0.00     0.033 A 
ATOM      6  C6  UNL d   1      -1.480  -0.137  -5.606  0.00  0.00    -0.057 A 
ENDROOT
BRANCH   1   7
ATOM      7  N   UNL d   1       0.761  -0.008  -4.743  0.00  0.00    -0.732 N 
ATOM      8  C   UNL d   1       1.645  -0.516  -3.716  0.00  0.00     0.284 C 
ATOM      9  H3  UNL d   1       1.236   0.501  -5.485  0.00  0.00     0.395 HD
ENDBRANCH   1   7
TORSDOF 1
ENDMDL
