MODEL 1
REMARK minimizedAffinity 11.0275345
REMARK minimizedRMSD -1
REMARK  1 active torsions:
REMARK  status: ('A' for Active; 'I' for Inactive)
REMARK    1  A    between atoms: N_2  and  C1_3 
ROOT
ATOM      1  C1  UNL d   1      -4.710  -5.311  -1.635  0.00  0.00     0.143 A 
ATOM      2  C2  UNL d   1      -5.321  -5.962  -2.712  0.00  0.00    -0.057 A 
ATOM      3  C3  UNL d   1      -5.948  -5.241  -3.736  0.00  0.00     0.033 A 
ATOM      4  C4  UNL d   1      -5.999  -3.852  -3.685  0.00  0.00    -0.042 A 
ATOM      5  C5  UNL d   1      -5.419  -3.185  -2.612  0.00  0.00     0.033 A 
ATOM      6  C6  UNL d   1      -4.789  -3.910  -1.596  0.00  0.00    -0.057 A 
ENDROOT
BRANCH   1   7
ATOM      7  N   UNL d   1      -4.157  -5.975  -0.537  0.00  0.00    -0.732 N 
ATOM      8  C   UNL d   1      -3.461  -5.238   0.496  0.00  0.00     0.284 C 
ATOM      9  H3  UNL d   1      -4.762  -6.713  -0.185  0.00  0.00     0.395 HD
ENDBRANCH   1   7
TORSDOF 1
ENDMDL
