MODEL 1
REMARK minimizedAffinity 7.6335907
REMARK minimizedRMSD -1
REMARK  1 active torsions:
REMARK  status: ('A' for Active; 'I' for Inactive)
REMARK    1  A    between atoms: N_2  and  C1_3 
ROOT
ATOM      1  C1  UNL d   1       1.787   0.992  -1.690  0.00  0.00     0.143 A 
ATOM      2  C2  UNL d   1       0.915  -0.078  -1.465  0.00  0.00    -0.057 A 
ATOM      3  C3  UNL d   1       0.861  -1.167  -2.343  0.00  0.00     0.033 A 
ATOM      4  C4  UNL d   1       1.659  -1.191  -3.482  0.00  0.00    -0.042 A 
ATOM      5  C5  UNL d   1       2.515  -0.126  -3.739  0.00  0.00     0.033 A 
ATOM      6  C6  UNL d   1       2.570   0.956  -2.855  0.00  0.00    -0.057 A 
ENDROOT
BRANCH   1   7
ATOM      7  N   UNL d   1       1.817   2.149  -0.907  0.00  0.00    -0.732 N 
ATOM      8  C   UNL d   1       2.081   3.439  -1.507  0.00  0.00     0.284 C 
ATOM      9  H3  UNL d   1       1.083   2.160  -0.203  0.00  0.00     0.395 HD
ENDBRANCH   1   7
TORSDOF 1
ENDMDL
