MODEL 1
REMARK minimizedAffinity -3.86078358
REMARK minimizedRMSD -1
REMARK  1 active torsions:
REMARK  status: ('A' for Active; 'I' for Inactive)
REMARK    1  A    between atoms: N_2  and  C1_3 
ROOT
ATOM      1  C1  UNL d   1      -0.004   0.184   0.125  0.00  0.00     0.143 A 
ATOM      2  C2  UNL d   1      -0.025   0.190   1.524  0.00  0.00    -0.057 A 
ATOM      3  C3  UNL d   1      -0.490   1.300   2.239  0.00  0.00     0.033 A 
ATOM      4  C4  UNL d   1      -0.914   2.441   1.565  0.00  0.00    -0.042 A 
ATOM      5  C5  UNL d   1      -0.878   2.467   0.176  0.00  0.00     0.033 A 
ATOM      6  C6  UNL d   1      -0.420   1.352  -0.533  0.00  0.00    -0.057 A 
ENDROOT
BRANCH   1   7
ATOM      7  N   UNL d   1       0.538  -0.851  -0.640  0.00  0.00    -0.732 N 
ATOM      8  C   UNL d   1      -0.141  -2.125  -0.743  0.00  0.00     0.284 C 
ATOM      9  H3  UNL d   1       0.935  -0.520  -1.517  0.00  0.00     0.395 HD
ENDBRANCH   1   7
TORSDOF 1
ENDMDL
