MODEL 1
REMARK minimizedAffinity -4.57690239
REMARK minimizedRMSD -1
REMARK  1 active torsions:
REMARK  status: ('A' for Active; 'I' for Inactive)
REMARK    1  A    between atoms: N_2  and  C1_3 
ROOT
ATOM      1  C1  UNL d   1       0.048  -0.018   0.327  0.00  0.00     0.143 A 
ATOM      2  C2  UNL d   1      -0.935   0.843  -0.171  0.00  0.00    -0.057 A 
ATOM      3  C3  UNL d   1      -1.395   1.932   0.580  0.00  0.00     0.033 A 
ATOM      4  C4  UNL d   1      -0.899   2.162   1.858  0.00  0.00    -0.042 A 
ATOM      5  C5  UNL d   1       0.061   1.305   2.384  0.00  0.00     0.033 A 
ATOM      6  C6  UNL d   1       0.522   0.223   1.627  0.00  0.00    -0.057 A 
ENDROOT
BRANCH   1   7
ATOM      7  N   UNL d   1       0.476  -1.174  -0.331  0.00  0.00    -0.732 N 
ATOM      8  C   UNL d   1      -0.459  -1.981  -1.085  0.00  0.00     0.284 C 
ATOM      9  H3  UNL d   1       1.379  -1.052  -0.783  0.00  0.00     0.395 HD
ENDBRANCH   1   7
TORSDOF 1
ENDMDL
