MODEL 1
REMARK minimizedAffinity -4.0784502
REMARK minimizedRMSD -1
REMARK  1 active torsions:
REMARK  status: ('A' for Active; 'I' for Inactive)
REMARK    1  A    between atoms: N_2  and  C1_3 
ROOT
ATOM      1  C1  UNL d   1       0.029  -0.086   0.090  0.00  0.00     0.143 A 
ATOM      2  C2  UNL d   1       0.399  -0.192   1.436  0.00  0.00    -0.057 A 
ATOM      3  C3  UNL d   1      -0.013   0.758   2.378  0.00  0.00     0.033 A 
ATOM      4  C4  UNL d   1      -0.780   1.850   1.985  0.00  0.00    -0.042 A 
ATOM      5  C5  UNL d   1      -1.138   1.988   0.649  0.00  0.00     0.033 A 
ATOM      6  C6  UNL d   1      -0.729   1.033  -0.287  0.00  0.00    -0.057 A 
ENDROOT
BRANCH   1   7
ATOM      7  N   UNL d   1       0.489  -0.944  -0.912  0.00  0.00    -0.732 N 
ATOM      8  C   UNL d   1       0.058  -2.325  -0.955  0.00  0.00     0.284 C 
ATOM      9  H3  UNL d   1       0.527  -0.492  -1.823  0.00  0.00     0.395 HD
ENDBRANCH   1   7
TORSDOF 1
ENDMDL
