MODEL 1
REMARK minimizedAffinity -3.60202336
REMARK minimizedRMSD -1
REMARK  1 active torsions:
REMARK  status: ('A' for Active; 'I' for Inactive)
REMARK    1  A    between atoms: N_2  and  C1_3 
ROOT
ATOM      1  C1  UNL d   1      -0.052  -0.794  -0.459  0.00  0.00     0.143 A 
ATOM      2  C2  UNL d   1       0.778  -0.752   0.667  0.00  0.00    -0.057 A 
ATOM      3  C3  UNL d   1       0.742   0.330   1.555  0.00  0.00     0.033 A 
ATOM      4  C4  UNL d   1      -0.106   1.406   1.317  0.00  0.00    -0.042 A 
ATOM      5  C5  UNL d   1      -0.921   1.397   0.191  0.00  0.00     0.033 A 
ATOM      6  C6  UNL d   1      -0.886   0.311  -0.689  0.00  0.00    -0.057 A 
ENDROOT
BRANCH   1   7
ATOM      7  N   UNL d   1       0.007  -1.794  -1.432  0.00  0.00    -0.732 N 
ATOM      8  C   UNL d   1       0.334  -3.157  -1.069  0.00  0.00     0.284 C 
ATOM      9  H3  UNL d   1      -0.741  -1.715  -2.117  0.00  0.00     0.395 HD
ENDBRANCH   1   7
TORSDOF 1
ENDMDL
