MODEL 1
REMARK minimizedAffinity -5.20316696
REMARK minimizedRMSD -1
REMARK  0 active torsions:
REMARK  status: ('A' for Active; 'I' for Inactive)
ROOT
ATOM      1  C1  DEN d   1       0.735   1.159   1.903  0.00  0.00     0.130 A 
ATOM      2  C2  DEN d   1      -0.341   1.338   2.874  0.00  0.00    -0.031 A 
ATOM      3  C3  DEN d   1      -1.599   0.879   2.251  0.00  0.00     0.027 A 
ATOM      4  C4  DEN d   1      -1.982  -0.090  -0.108  0.00  0.00     0.027 A 
ATOM      5  C5  DEN d   1      -1.373  -0.423  -1.298  0.00  0.00    -0.003 A 
ATOM      6  C6  DEN d   1      -0.035  -0.221  -1.514  0.00  0.00     0.001 A 
ATOM      7  C7  DEN d   1       0.746   0.286  -0.510  0.00  0.00     0.017 A 
ATOM      8  C8  DEN d   1       0.137   0.631   0.690  0.00  0.00    -0.094 A 
ATOM      9  C9  DEN d   1      -1.214   0.408   0.893  0.00  0.00    -0.072 A 
ENDROOT
TORSDOF 0
ENDMDL
