MODEL 1
REMARK minimizedAffinity -4.25202036
REMARK minimizedRMSD -1
REMARK  0 active torsions:
REMARK  status: ('A' for Active; 'I' for Inactive)
ROOT
ATOM      1  C1  DEN d   1       2.177  -0.370   1.159  0.00  0.00     0.130 A 
ATOM      2  C2  DEN d   1       1.556   0.333   2.279  0.00  0.00    -0.031 A 
ATOM      3  C3  DEN d   1       0.150   0.609   1.921  0.00  0.00     0.027 A 
ATOM      4  C4  DEN d   1      -1.121   0.015  -0.243  0.00  0.00     0.027 A 
ATOM      5  C5  DEN d   1      -1.011  -0.571  -1.484  0.00  0.00    -0.003 A 
ATOM      6  C6  DEN d   1       0.168  -1.097  -1.942  0.00  0.00     0.001 A 
ATOM      7  C7  DEN d   1       1.274  -1.087  -1.133  0.00  0.00     0.017 A 
ATOM      8  C8  DEN d   1       1.173  -0.491   0.117  0.00  0.00    -0.094 A 
ATOM      9  C9  DEN d   1      -0.031   0.024   0.566  0.00  0.00    -0.072 A 
ENDROOT
TORSDOF 0
ENDMDL
