MODEL 1
REMARK minimizedAffinity -6.12407684
REMARK minimizedRMSD -1
REMARK  0 active torsions:
REMARK  status: ('A' for Active; 'I' for Inactive)
ROOT
ATOM      1  C1  DEN d   1      -0.780  -0.723  -0.436  0.00  0.00     0.130 A 
ATOM      2  C2  DEN d   1       0.458  -1.411  -0.792  0.00  0.00    -0.031 A 
ATOM      3  C3  DEN d   1       1.418  -1.225   0.315  0.00  0.00     0.027 A 
ATOM      4  C4  DEN d   1       1.108   0.052   2.535  0.00  0.00     0.027 A 
ATOM      5  C5  DEN d   1       0.232   0.809   3.281  0.00  0.00    -0.003 A 
ATOM      6  C6  DEN d   1      -1.019   1.134   2.830  0.00  0.00     0.001 A 
ATOM      7  C7  DEN d   1      -1.448   0.663   1.617  0.00  0.00     0.017 A 
ATOM      8  C8  DEN d   1      -0.568  -0.095   0.856  0.00  0.00    -0.094 A 
ATOM      9  C9  DEN d   1       0.689  -0.423   1.334  0.00  0.00    -0.072 A 
ENDROOT
TORSDOF 0
ENDMDL
