MODEL 1
REMARK minimizedAffinity -5.18236923
REMARK minimizedRMSD -1
REMARK  0 active torsions:
REMARK  status: ('A' for Active; 'I' for Inactive)
ROOT
ATOM      1  C1  DEN d   1       0.718   0.287   3.120  0.00  0.00     0.130 A 
ATOM      2  C2  DEN d   1      -0.528   0.839   3.645  0.00  0.00    -0.031 A 
ATOM      3  C3  DEN d   1      -1.538   0.790   2.568  0.00  0.00     0.027 A 
ATOM      4  C4  DEN d   1      -1.295  -0.087   0.155  0.00  0.00     0.027 A 
ATOM      5  C5  DEN d   1      -0.423  -0.641  -0.756  0.00  0.00    -0.003 A 
ATOM      6  C6  DEN d   1       0.889  -0.891  -0.452  0.00  0.00     0.001 A 
ATOM      7  C7  DEN d   1       1.355  -0.628   0.809  0.00  0.00     0.017 A 
ATOM      8  C8  DEN d   1       0.484  -0.063   1.731  0.00  0.00    -0.094 A 
ATOM      9  C9  DEN d   1      -0.842   0.171   1.408  0.00  0.00    -0.072 A 
ENDROOT
TORSDOF 0
ENDMDL
