MODEL 1
REMARK minimizedAffinity -5.18999624
REMARK minimizedRMSD -1
REMARK  0 active torsions:
REMARK  status: ('A' for Active; 'I' for Inactive)
ROOT
ATOM      1  C1  DEN d   1       0.774   0.795   2.453  0.00  0.00     0.130 A 
ATOM      2  C2  DEN d   1      -0.416   1.292   3.138  0.00  0.00    -0.031 A 
ATOM      3  C3  DEN d   1      -1.593   0.947   2.317  0.00  0.00     0.027 A 
ATOM      4  C4  DEN d   1      -1.689  -0.307   0.065  0.00  0.00     0.027 A 
ATOM      5  C5  DEN d   1      -0.935  -0.914  -0.915  0.00  0.00    -0.003 A 
ATOM      6  C6  DEN d   1       0.433  -0.964  -0.858  0.00  0.00     0.001 A 
ATOM      7  C7  DEN d   1       1.086  -0.436   0.224  0.00  0.00     0.017 A 
ATOM      8  C8  DEN d   1       0.333   0.185   1.212  0.00  0.00    -0.094 A 
ATOM      9  C9  DEN d   1      -1.049   0.214   1.142  0.00  0.00    -0.072 A 
ENDROOT
TORSDOF 0
ENDMDL
