MODEL 1
REMARK minimizedAffinity -1.79785538
REMARK minimizedRMSD -1
REMARK  0 active torsions:
REMARK  status: ('A' for Active; 'I' for Inactive)
ROOT
ATOM      1  C1  DEN d   1       0.479   1.558   2.030  0.00  0.00     0.130 A 
ATOM      2  C2  DEN d   1      -0.806   1.558   2.723  0.00  0.00    -0.031 A 
ATOM      3  C3  DEN d   1      -1.752   0.747   1.930  0.00  0.00     0.027 A 
ATOM      4  C4  DEN d   1      -1.352  -0.505  -0.289  0.00  0.00     0.027 A 
ATOM      5  C5  DEN d   1      -0.425  -0.788  -1.266  0.00  0.00    -0.003 A 
ATOM      6  C6  DEN d   1       0.849  -0.286  -1.232  0.00  0.00     0.001 A 
ATOM      7  C7  DEN d   1       1.244   0.491  -0.175  0.00  0.00     0.017 A 
ATOM      8  C8  DEN d   1       0.312   0.787   0.811  0.00  0.00    -0.094 A 
ATOM      9  C9  DEN d   1      -0.967   0.259   0.764  0.00  0.00    -0.072 A 
ENDROOT
TORSDOF 0
ENDMDL
