MODEL 1
REMARK minimizedAffinity -4.94927979
REMARK minimizedRMSD -1
REMARK  1 active torsions:
REMARK  status: ('A' for Active; 'I' for Inactive)
REMARK    1  A    between atoms: C1_2  and  C2_3 
ROOT
ATOM      1  C2  UNL d   1      -0.471   0.190  -0.159  0.00  0.00    -0.081 A 
ATOM      2  C3  UNL d   1      -0.219  -1.185  -0.245  0.00  0.00     0.006 A 
ATOM      3  C4  UNL d   1       1.048  -1.692   0.052  0.00  0.00     0.002 A 
ATOM      4  C5  UNL d   1       2.081  -0.836   0.448  0.00  0.00    -0.080 A 
ATOM      5  C6  UNL d   1       3.437  -1.371   0.800  0.00  0.00     0.076 C 
ATOM      6  C7  UNL d   1       1.834   0.540   0.517  0.00  0.00     0.002 A 
ATOM      7  C8  UNL d   1       0.567   1.048   0.219  0.00  0.00     0.006 A 
ENDROOT
BRANCH   1   8
ATOM      8  C1  UNL d   1      -1.853   0.733  -0.417  0.00  0.00     0.054 C 
ATOM      9  C   UNL d   1      -2.687   0.752   0.856  0.00  0.00     0.018 C 
ENDBRANCH   1   8
TORSDOF 1
ENDMDL
