MODEL 1
REMARK minimizedAffinity -4.8935256
REMARK minimizedRMSD -1
REMARK  1 active torsions:
REMARK  status: ('A' for Active; 'I' for Inactive)
REMARK    1  A    between atoms: C1_2  and  C2_3 
ROOT
ATOM      1  C2  UNL d   1      -0.913   0.909   0.823  0.00  0.00    -0.081 A 
ATOM      2  C3  UNL d   1      -1.042   0.186  -0.370  0.00  0.00     0.006 A 
ATOM      3  C4  UNL d   1      -0.028  -0.679  -0.786  0.00  0.00     0.002 A 
ATOM      4  C5  UNL d   1       1.127  -0.844  -0.014  0.00  0.00    -0.080 A 
ATOM      5  C6  UNL d   1       2.209  -1.793  -0.434  0.00  0.00     0.076 C 
ATOM      6  C7  UNL d   1       1.263  -0.109   1.169  0.00  0.00     0.002 A 
ATOM      7  C8  UNL d   1       0.250   0.758   1.585  0.00  0.00     0.006 A 
ENDROOT
BRANCH   1   8
ATOM      8  C1  UNL d   1      -2.033   1.794   1.307  0.00  0.00     0.054 C 
ATOM      9  C   UNL d   1      -3.313   0.999   1.525  0.00  0.00     0.018 C 
ENDBRANCH   1   8
TORSDOF 1
ENDMDL
