MODEL 1
REMARK minimizedAffinity -0.335824817
REMARK minimizedRMSD -1
REMARK  1 active torsions:
REMARK  status: ('A' for Active; 'I' for Inactive)
REMARK    1  A    between atoms: C1_2  and  C2_3 
ROOT
ATOM      1  C2  UNL d   1       1.879  -0.940  -0.348  0.00  0.00    -0.081 A 
ATOM      2  C3  UNL d   1       0.725  -1.732  -0.392  0.00  0.00     0.006 A 
ATOM      3  C4  UNL d   1      -0.540  -1.145  -0.313  0.00  0.00     0.002 A 
ATOM      4  C5  UNL d   1      -0.673   0.243  -0.197  0.00  0.00    -0.080 A 
ATOM      5  C6  UNL d   1      -2.026   0.888  -0.142  0.00  0.00     0.076 C 
ATOM      6  C7  UNL d   1       0.480   1.032  -0.137  0.00  0.00     0.002 A 
ATOM      7  C8  UNL d   1       1.745   0.446  -0.215  0.00  0.00     0.006 A 
ENDROOT
BRANCH   1   8
ATOM      8  C1  UNL d   1       3.243  -1.564  -0.498  0.00  0.00     0.054 C 
ATOM      9  C   UNL d   1       4.297  -0.518  -0.829  0.00  0.00     0.018 C 
ENDBRANCH   1   8
TORSDOF 1
ENDMDL
