MODEL 1
REMARK minimizedAffinity 4.5450201
REMARK minimizedRMSD -1
REMARK  1 active torsions:
REMARK  status: ('A' for Active; 'I' for Inactive)
REMARK    1  A    between atoms: C1_2  and  C2_3 
ROOT
ATOM      1  C2  UNL d   1       0.410  -1.872  -0.187  0.00  0.00    -0.081 A 
ATOM      2  C3  UNL d   1      -0.266  -2.237   0.984  0.00  0.00     0.006 A 
ATOM      3  C4  UNL d   1      -1.531  -1.714   1.263  0.00  0.00     0.002 A 
ATOM      4  C5  UNL d   1      -2.145  -0.826   0.374  0.00  0.00    -0.080 A 
ATOM      5  C6  UNL d   1      -3.515  -0.282   0.647  0.00  0.00     0.076 C 
ATOM      6  C7  UNL d   1      -1.462  -0.448  -0.788  0.00  0.00     0.002 A 
ATOM      7  C8  UNL d   1      -0.197  -0.969  -1.067  0.00  0.00     0.006 A 
ENDROOT
BRANCH   1   8
ATOM      8  C1  UNL d   1       1.746  -2.483  -0.522  0.00  0.00     0.054 C 
ATOM      9  C   UNL d   1       2.864  -1.455  -0.429  0.00  0.00     0.018 C 
ENDBRANCH   1   8
TORSDOF 1
ENDMDL
