MODEL 1
REMARK minimizedAffinity 9.2717762
REMARK minimizedRMSD -1
REMARK  0 active torsions:
REMARK  status: ('A' for Active; 'I' for Inactive)
ROOT
ATOM      1  C4' PXY d   1       0.607   6.000  -2.762  0.00  0.00     0.077 C 
ATOM      2  C1' PXY d   1       0.053   2.697   1.949  0.00  0.00     0.077 C 
ATOM      3  C1  PXY d   1       0.192   3.554   0.706  0.00  0.00    -0.082 A 
ATOM      4  C2  PXY d   1       1.183   4.426   0.620  0.00  0.00     0.003 A 
ATOM      5  C3  PXY d   1       1.305   5.232  -0.482  0.00  0.00     0.003 A 
ATOM      6  C4  PXY d   1       0.433   5.107  -1.531  0.00  0.00    -0.082 A 
ATOM      7  C5  PXY d   1      -0.575   4.212  -1.455  0.00  0.00     0.003 A 
ATOM      8  C6  PXY d   1      -0.705   3.433  -0.310  0.00  0.00     0.003 A 
ENDROOT
TORSDOF 0
ENDMDL
