MODEL 1
REMARK minimizedAffinity 1.96310198
REMARK minimizedRMSD -1
REMARK  0 active torsions:
REMARK  status: ('A' for Active; 'I' for Inactive)
ROOT
ATOM      1  C4' PXY d   1      -5.557   2.298  -0.814  0.00  0.00     0.077 C 
ATOM      2  C1' PXY d   1      -5.679   4.849  -6.000  0.00  0.00     0.077 C 
ATOM      3  C1  PXY d   1      -5.638   4.188  -4.636  0.00  0.00    -0.082 A 
ATOM      4  C2  PXY d   1      -5.999   2.921  -4.511  0.00  0.00     0.003 A 
ATOM      5  C3  PXY d   1      -5.998   2.318  -3.280  0.00  0.00     0.003 A 
ATOM      6  C4  PXY d   1      -5.574   3.003  -2.173  0.00  0.00    -0.082 A 
ATOM      7  C5  PXY d   1      -5.195   4.293  -2.293  0.00  0.00     0.003 A 
ATOM      8  C6  PXY d   1      -5.242   4.899  -3.545  0.00  0.00     0.003 A 
ENDROOT
TORSDOF 0
ENDMDL
