MODEL 1
REMARK minimizedAffinity 7.07177687
REMARK minimizedRMSD -1
REMARK  0 active torsions:
REMARK  status: ('A' for Active; 'I' for Inactive)
ROOT
ATOM      1  C4' PXY d   1      -5.807   4.962  -4.460  0.00  0.00     0.077 C 
ATOM      2  C1' PXY d   1      -2.345   0.367  -5.028  0.00  0.00     0.077 C 
ATOM      3  C1  PXY d   1      -3.250   1.576  -4.891  0.00  0.00    -0.082 A 
ATOM      4  C2  PXY d   1      -3.529   2.051  -3.688  0.00  0.00     0.003 A 
ATOM      5  C3  PXY d   1      -4.371   3.124  -3.544  0.00  0.00     0.003 A 
ATOM      6  C4  PXY d   1      -4.891   3.749  -4.646  0.00  0.00    -0.082 A 
ATOM      7  C5  PXY d   1      -4.602   3.277  -5.877  0.00  0.00     0.003 A 
ATOM      8  C6  PXY d   1      -3.778   2.162  -6.000  0.00  0.00     0.003 A 
ENDROOT
TORSDOF 0
ENDMDL
