MODEL 1
REMARK minimizedAffinity 8.3548317
REMARK minimizedRMSD -1
REMARK  0 active torsions:
REMARK  status: ('A' for Active; 'I' for Inactive)
ROOT
ATOM      1  C4' PXY d   1      -0.333   1.907   3.142  0.00  0.00     0.077 C 
ATOM      2  C1' PXY d   1      -0.288   5.999  -0.941  0.00  0.00     0.077 C 
ATOM      3  C1  PXY d   1      -0.303   4.935   0.139  0.00  0.00    -0.082 A 
ATOM      4  C2  PXY d   1       0.424   3.840  -0.012  0.00  0.00     0.003 A 
ATOM      5  C3  PXY d   1       0.397   2.853   0.940  0.00  0.00     0.003 A 
ATOM      6  C4  PXY d   1      -0.341   3.012   2.082  0.00  0.00    -0.082 A 
ATOM      7  C5  PXY d   1      -1.077   4.131   2.248  0.00  0.00     0.003 A 
ATOM      8  C6  PXY d   1      -1.068   5.103   1.252  0.00  0.00     0.003 A 
ENDROOT
TORSDOF 0
ENDMDL
