MODEL 1
REMARK minimizedAffinity 13.6442947
REMARK minimizedRMSD -1
REMARK  0 active torsions:
REMARK  status: ('A' for Active; 'I' for Inactive)
ROOT
ATOM      1  C4' PXY d   1       1.141   6.000  -2.278  0.00  0.00     0.077 C 
ATOM      2  C1' PXY d   1      -1.143   3.087   2.162  0.00  0.00     0.077 C 
ATOM      3  C1  PXY d   1      -0.554   3.858   0.997  0.00  0.00    -0.082 A 
ATOM      4  C2  PXY d   1       0.382   3.299   0.248  0.00  0.00     0.003 A 
ATOM      5  C3  PXY d   1       0.947   3.994  -0.790  0.00  0.00     0.003 A 
ATOM      6  C4  PXY d   1       0.512   5.255  -1.097  0.00  0.00    -0.082 A 
ATOM      7  C5  PXY d   1      -0.450   5.829  -0.345  0.00  0.00     0.003 A 
ATOM      8  C6  PXY d   1      -0.982   5.122   0.730  0.00  0.00     0.003 A 
ENDROOT
TORSDOF 0
ENDMDL
