MODEL 1
REMARK minimizedAffinity 9.43861675
REMARK minimizedRMSD -1
REMARK  0 active torsions:
REMARK  status: ('A' for Active; 'I' for Inactive)
ROOT
ATOM      1  C4' PXY d   1       1.012   2.523   3.245  0.00  0.00     0.077 C 
ATOM      2  C1' PXY d   1       0.890   5.273  -1.838  0.00  0.00     0.077 C 
ATOM      3  C1  PXY d   1       0.909   4.551  -0.505  0.00  0.00    -0.082 A 
ATOM      4  C2  PXY d   1       1.924   4.734   0.324  0.00  0.00     0.003 A 
ATOM      5  C3  PXY d   1       1.973   4.064   1.519  0.00  0.00     0.003 A 
ATOM      6  C4  PXY d   1       0.946   3.239   1.893  0.00  0.00    -0.082 A 
ATOM      7  C5  PXY d   1      -0.098   3.055   1.057  0.00  0.00     0.003 A 
ATOM      8  C6  PXY d   1      -0.109   3.712  -0.169  0.00  0.00     0.003 A 
ENDROOT
TORSDOF 0
ENDMDL
