MODEL 1
REMARK minimizedAffinity -3.03382754
REMARK minimizedRMSD -1
REMARK  2 active torsions:
REMARK  status: ('A' for Active; 'I' for Inactive)
REMARK    1  A    between atoms: C1_2  and  C2_3 
REMARK    2  A    between atoms: C2_3  and  C3_4 
ROOT
ATOM      1  C3  UNL d   1      -2.108  -4.921  -0.084  0.00  0.00    -0.075 A 
ATOM      2  C4  UNL d   1      -0.885  -4.819  -0.764  0.00  0.00     0.002 A 
ATOM      3  C5  UNL d   1      -0.760  -5.291  -2.071  0.00  0.00     0.002 A 
ATOM      4  C6  UNL d   1      -1.850  -5.878  -2.710  0.00  0.00    -0.004 A 
ATOM      5  C7  UNL d   1      -3.065  -5.999  -2.039  0.00  0.00     0.002 A 
ATOM      6  C8  UNL d   1      -3.194  -5.524  -0.732  0.00  0.00     0.002 A 
ENDROOT
BRANCH   1   7
ATOM      7  C2  UNL d   1      -2.258  -4.385   1.320  0.00  0.00     0.056 C 
BRANCH   7   8
ATOM      8  C1  UNL d   1      -3.027  -5.316   2.263  0.00  0.00     0.007 C 
ATOM      9  C   UNL d   1      -3.015  -4.846   3.712  0.00  0.00     0.009 C 
ENDBRANCH   7   8
ENDBRANCH   1   7
TORSDOF 2
ENDMDL
