MODEL 1
REMARK minimizedAffinity -4.55214882
REMARK minimizedRMSD -1
REMARK  2 active torsions:
REMARK  status: ('A' for Active; 'I' for Inactive)
REMARK    1  A    between atoms: C1_2  and  C2_3 
REMARK    2  A    between atoms: C2_3  and  C3_4 
ROOT
ATOM      1  C3  UNL d   1      -1.856  -5.822  -3.471  0.00  0.00    -0.075 A 
ATOM      2  C4  UNL d   1      -1.022  -5.661  -2.355  0.00  0.00     0.002 A 
ATOM      3  C5  UNL d   1      -1.553  -5.674  -1.065  0.00  0.00     0.002 A 
ATOM      4  C6  UNL d   1      -2.924  -5.838  -0.875  0.00  0.00    -0.004 A 
ATOM      5  C7  UNL d   1      -3.764  -5.983  -1.977  0.00  0.00     0.002 A 
ATOM      6  C8  UNL d   1      -3.234  -5.974  -3.268  0.00  0.00     0.002 A 
ENDROOT
BRANCH   1   7
ATOM      7  C2  UNL d   1      -1.283  -5.839  -4.868  0.00  0.00     0.056 C 
BRANCH   7   8
ATOM      8  C1  UNL d   1       0.247  -5.895  -4.914  0.00  0.00     0.007 C 
ATOM      9  C   UNL d   1       0.855  -4.900  -5.893  0.00  0.00     0.009 C 
ENDBRANCH   7   8
ENDBRANCH   1   7
TORSDOF 2
ENDMDL
