MODEL 1
REMARK minimizedAffinity 1.18239713
REMARK minimizedRMSD -1
REMARK  2 active torsions:
REMARK  status: ('A' for Active; 'I' for Inactive)
REMARK    1  A    between atoms: C1_2  and  C2_3 
REMARK    2  A    between atoms: C2_3  and  C3_4 
ROOT
ATOM      1  C3  UNL d   1      -4.672  -5.389   0.461  0.00  0.00    -0.075 A 
ATOM      2  C4  UNL d   1      -5.141  -5.308   1.781  0.00  0.00     0.002 A 
ATOM      3  C5  UNL d   1      -4.359  -4.720   2.776  0.00  0.00     0.002 A 
ATOM      4  C6  UNL d   1      -3.097  -4.217   2.468  0.00  0.00    -0.004 A 
ATOM      5  C7  UNL d   1      -2.614  -4.307   1.164  0.00  0.00     0.002 A 
ATOM      6  C8  UNL d   1      -3.396  -4.891   0.166  0.00  0.00     0.002 A 
ENDROOT
BRANCH   1   7
ATOM      7  C2  UNL d   1      -5.525  -5.997  -0.626  0.00  0.00     0.056 C 
BRANCH   7   8
ATOM      8  C1  UNL d   1      -4.871  -5.985  -2.012  0.00  0.00     0.007 C 
ATOM      9  C   UNL d   1      -4.867  -4.608  -2.662  0.00  0.00     0.009 C 
ENDBRANCH   7   8
ENDBRANCH   1   7
TORSDOF 2
ENDMDL
