MODEL 1
REMARK minimizedAffinity -4.70976973
REMARK minimizedRMSD -1
REMARK  2 active torsions:
REMARK  status: ('A' for Active; 'I' for Inactive)
REMARK    1  A    between atoms: C1_2  and  C2_3 
REMARK    2  A    between atoms: C2_3  and  C3_4 
ROOT
ATOM      1  C3  UNL d   1      -1.947  -5.640  -3.602  0.00  0.00    -0.075 A 
ATOM      2  C4  UNL d   1      -3.297  -6.000  -3.483  0.00  0.00     0.002 A 
ATOM      3  C5  UNL d   1      -3.931  -5.973  -2.240  0.00  0.00     0.002 A 
ATOM      4  C6  UNL d   1      -3.221  -5.598  -1.101  0.00  0.00    -0.004 A 
ATOM      5  C7  UNL d   1      -1.875  -5.255  -1.205  0.00  0.00     0.002 A 
ATOM      6  C8  UNL d   1      -1.240  -5.276  -2.448  0.00  0.00     0.002 A 
ENDROOT
BRANCH   1   7
ATOM      7  C2  UNL d   1      -1.264  -5.638  -4.948  0.00  0.00     0.056 C 
BRANCH   7   8
ATOM      8  C1  UNL d   1       0.267  -5.659  -4.871  0.00  0.00     0.007 C 
ATOM      9  C   UNL d   1       0.936  -4.874  -5.991  0.00  0.00     0.009 C 
ENDBRANCH   7   8
ENDBRANCH   1   7
TORSDOF 2
ENDMDL
