MODEL 1
REMARK minimizedAffinity -4.56211138
REMARK minimizedRMSD -1
REMARK  2 active torsions:
REMARK  status: ('A' for Active; 'I' for Inactive)
REMARK    1  A    between atoms: C1_2  and  C2_3 
REMARK    2  A    between atoms: C2_3  and  C3_4 
ROOT
ATOM      1  C3  UNL d   1      -3.300  -5.984  -1.288  0.00  0.00    -0.075 A 
ATOM      2  C4  UNL d   1      -4.113  -5.986  -2.430  0.00  0.00     0.002 A 
ATOM      3  C5  UNL d   1      -3.545  -5.999  -3.704  0.00  0.00     0.002 A 
ATOM      4  C6  UNL d   1      -2.160  -6.000  -3.852  0.00  0.00    -0.004 A 
ATOM      5  C7  UNL d   1      -1.342  -5.982  -2.725  0.00  0.00     0.002 A 
ATOM      6  C8  UNL d   1      -1.908  -5.973  -1.448  0.00  0.00     0.002 A 
ENDROOT
BRANCH   1   7
ATOM      7  C2  UNL d   1      -3.909  -6.000   0.094  0.00  0.00     0.056 C 
BRANCH   7   8
ATOM      8  C1  UNL d   1      -3.246  -5.031   1.079  0.00  0.00     0.007 C 
ATOM      9  C   UNL d   1      -2.990  -5.648   2.448  0.00  0.00     0.009 C 
ENDBRANCH   7   8
ENDBRANCH   1   7
TORSDOF 2
ENDMDL
