MODEL 1
REMARK minimizedAffinity 0.759891033
REMARK minimizedRMSD -1
REMARK  2 active torsions:
REMARK  status: ('A' for Active; 'I' for Inactive)
REMARK    1  A    between atoms: C1_2  and  C2_3 
REMARK    2  A    between atoms: C2_3  and  C3_4 
ROOT
ATOM      1  C3  UNL d   1       2.153  -2.274   3.954  0.00  0.00    -0.075 A 
ATOM      2  C4  UNL d   1       0.797  -2.018   3.699  0.00  0.00     0.002 A 
ATOM      3  C5  UNL d   1       0.389  -1.544   2.452  0.00  0.00     0.002 A 
ATOM      4  C6  UNL d   1       1.328  -1.312   1.450  0.00  0.00    -0.004 A 
ATOM      5  C7  UNL d   1       2.679  -1.547   1.698  0.00  0.00     0.002 A 
ATOM      6  C8  UNL d   1       3.090  -2.025   2.943  0.00  0.00     0.002 A 
ENDROOT
BRANCH   1   7
ATOM      7  C2  UNL d   1       2.598  -2.814   5.292  0.00  0.00     0.056 C 
BRANCH   7   8
ATOM      8  C1  UNL d   1       2.008  -4.185   5.639  0.00  0.00     0.007 C 
ATOM      9  C   UNL d   1       3.062  -5.277   5.770  0.00  0.00     0.009 C 
ENDBRANCH   7   8
ENDBRANCH   1   7
TORSDOF 2
ENDMDL
