MODEL 1
REMARK minimizedAffinity -2.89353251
REMARK minimizedRMSD -1
REMARK  2 active torsions:
REMARK  status: ('A' for Active; 'I' for Inactive)
REMARK    1  A    between atoms: C1_2  and  C2_3 
REMARK    2  A    between atoms: C2_3  and  C3_4 
ROOT
ATOM      1  C3  UNL d   1       2.045  -3.559   4.115  0.00  0.00    -0.075 A 
ATOM      2  C4  UNL d   1       1.328  -3.636   5.318  0.00  0.00     0.002 A 
ATOM      3  C5  UNL d   1       1.215  -4.849   5.999  0.00  0.00     0.002 A 
ATOM      4  C6  UNL d   1       1.809  -5.999   5.482  0.00  0.00    -0.004 A 
ATOM      5  C7  UNL d   1       2.510  -5.937   4.280  0.00  0.00     0.002 A 
ATOM      6  C8  UNL d   1       2.627  -4.724   3.599  0.00  0.00     0.002 A 
ENDROOT
BRANCH   1   7
ATOM      7  C2  UNL d   1       2.195  -2.243   3.388  0.00  0.00     0.056 C 
BRANCH   7   8
ATOM      8  C1  UNL d   1       1.918  -2.327   1.884  0.00  0.00     0.007 C 
ATOM      9  C   UNL d   1       0.708  -1.511   1.449  0.00  0.00     0.009 C 
ENDBRANCH   7   8
ENDBRANCH   1   7
TORSDOF 2
ENDMDL
