MODEL 1
REMARK minimizedAffinity -1.95518267
REMARK minimizedRMSD -1
REMARK  2 active torsions:
REMARK  status: ('A' for Active; 'I' for Inactive)
REMARK    1  A    between atoms: C1_2  and  C2_3 
REMARK    2  A    between atoms: C2_3  and  C3_4 
ROOT
ATOM      1  C3  UNL d   1       1.757  -3.660   4.790  0.00  0.00    -0.075 A 
ATOM      2  C4  UNL d   1       0.677  -3.497   3.911  0.00  0.00     0.002 A 
ATOM      3  C5  UNL d   1       0.755  -2.591   2.853  0.00  0.00     0.002 A 
ATOM      4  C6  UNL d   1       1.907  -1.831   2.667  0.00  0.00    -0.004 A 
ATOM      5  C7  UNL d   1       2.980  -1.973   3.544  0.00  0.00     0.002 A 
ATOM      6  C8  UNL d   1       2.907  -2.882   4.601  0.00  0.00     0.002 A 
ENDROOT
BRANCH   1   7
ATOM      7  C2  UNL d   1       1.690  -4.660   5.919  0.00  0.00     0.056 C 
BRANCH   7   8
ATOM      8  C1  UNL d   1       2.387  -5.991   5.616  0.00  0.00     0.007 C 
ATOM      9  C   UNL d   1       3.861  -5.996   5.999  0.00  0.00     0.009 C 
ENDBRANCH   7   8
ENDBRANCH   1   7
TORSDOF 2
ENDMDL
