MODEL 1
REMARK minimizedAffinity 1.35846436
REMARK minimizedRMSD -1
REMARK  2 active torsions:
REMARK  status: ('A' for Active; 'I' for Inactive)
REMARK    1  A    between atoms: C1_2  and  C2_3 
REMARK    2  A    between atoms: C2_3  and  C3_4 
ROOT
ATOM      1  C3  UNL d   1       1.243  -1.169   1.245  0.00  0.00    -0.075 A 
ATOM      2  C4  UNL d   1       0.542  -2.319   0.856  0.00  0.00     0.002 A 
ATOM      3  C5  UNL d   1      -0.219  -2.323  -0.314  0.00  0.00     0.002 A 
ATOM      4  C6  UNL d   1      -0.297  -1.177  -1.101  0.00  0.00    -0.004 A 
ATOM      5  C7  UNL d   1       0.382  -0.023  -0.715  0.00  0.00     0.002 A 
ATOM      6  C8  UNL d   1       1.147  -0.018   0.452  0.00  0.00     0.002 A 
ENDROOT
BRANCH   1   7
ATOM      7  C2  UNL d   1       2.091  -1.167   2.495  0.00  0.00     0.056 C 
BRANCH   7   8
ATOM      8  C1  UNL d   1       3.600  -1.174   2.224  0.00  0.00     0.007 C 
ATOM      9  C   UNL d   1       4.432  -0.841   3.455  0.00  0.00     0.009 C 
ENDBRANCH   7   8
ENDBRANCH   1   7
TORSDOF 2
ENDMDL
