MODEL 1
REMARK minimizedAffinity -4.65937138
REMARK minimizedRMSD -1
REMARK  2 active torsions:
REMARK  status: ('A' for Active; 'I' for Inactive)
REMARK    1  A    between atoms: C1_2  and  C2_3 
REMARK    2  A    between atoms: C2_3  and  C3_4 
ROOT
ATOM      1  C3  UNL d   1       1.361  -3.465   4.198  0.00  0.00    -0.075 A 
ATOM      2  C4  UNL d   1       2.391  -2.513   4.192  0.00  0.00     0.002 A 
ATOM      3  C5  UNL d   1       2.406  -1.492   3.241  0.00  0.00     0.002 A 
ATOM      4  C6  UNL d   1       1.401  -1.415   2.281  0.00  0.00    -0.004 A 
ATOM      5  C7  UNL d   1       0.382  -2.365   2.267  0.00  0.00     0.002 A 
ATOM      6  C8  UNL d   1       0.362  -3.385   3.219  0.00  0.00     0.002 A 
ENDROOT
BRANCH   1   7
ATOM      7  C2  UNL d   1       1.323  -4.555   5.242  0.00  0.00     0.056 C 
BRANCH   7   8
ATOM      8  C1  UNL d   1       2.660  -4.783   5.955  0.00  0.00     0.007 C 
ATOM      9  C   UNL d   1       3.416  -5.999   5.439  0.00  0.00     0.009 C 
ENDBRANCH   7   8
ENDBRANCH   1   7
TORSDOF 2
ENDMDL
