MODEL 1
REMARK minimizedAffinity -3.57813668
REMARK minimizedRMSD -1
REMARK  2 active torsions:
REMARK  status: ('A' for Active; 'I' for Inactive)
REMARK    1  A    between atoms: C1_2  and  C2_3 
REMARK    2  A    between atoms: C2_3  and  C3_4 
ROOT
ATOM      1  C3  UNL d   1      -1.348  -5.927  -2.887  0.00  0.00    -0.075 A 
ATOM      2  C4  UNL d   1      -2.564  -5.913  -3.584  0.00  0.00     0.002 A 
ATOM      3  C5  UNL d   1      -3.775  -5.822  -2.896  0.00  0.00     0.002 A 
ATOM      4  C6  UNL d   1      -3.785  -5.754  -1.505  0.00  0.00    -0.004 A 
ATOM      5  C7  UNL d   1      -2.583  -5.783  -0.801  0.00  0.00     0.002 A 
ATOM      6  C8  UNL d   1      -1.371  -5.870  -1.487  0.00  0.00     0.002 A 
ENDROOT
BRANCH   1   7
ATOM      7  C2  UNL d   1      -0.033  -5.996  -3.627  0.00  0.00     0.056 C 
BRANCH   7   8
ATOM      8  C1  UNL d   1      -0.051  -5.307  -4.995  0.00  0.00     0.007 C 
ATOM      9  C   UNL d   1       0.954  -5.895  -5.977  0.00  0.00     0.009 C 
ENDBRANCH   7   8
ENDBRANCH   1   7
TORSDOF 2
ENDMDL
