MODEL 1
REMARK minimizedAffinity -4.65225029
REMARK minimizedRMSD -1
REMARK  2 active torsions:
REMARK  status: ('A' for Active; 'I' for Inactive)
REMARK    1  A    between atoms: C1_2  and  C2_3 
REMARK    2  A    between atoms: C2_3  and  C3_4 
ROOT
ATOM      1  C3  UNL d   1       1.589  -3.705   4.139  0.00  0.00    -0.075 A 
ATOM      2  C4  UNL d   1       2.549  -2.696   4.303  0.00  0.00     0.002 A 
ATOM      3  C5  UNL d   1       2.661  -1.666   3.368  0.00  0.00     0.002 A 
ATOM      4  C6  UNL d   1       1.823  -1.637   2.256  0.00  0.00    -0.004 A 
ATOM      5  C7  UNL d   1       0.877  -2.643   2.075  0.00  0.00     0.002 A 
ATOM      6  C8  UNL d   1       0.760  -3.672   3.010  0.00  0.00     0.002 A 
ENDROOT
BRANCH   1   7
ATOM      7  C2  UNL d   1       1.443  -4.806   5.162  0.00  0.00     0.056 C 
BRANCH   7   8
ATOM      8  C1  UNL d   1       2.469  -5.935   5.014  0.00  0.00     0.007 C 
ATOM      9  C   UNL d   1       3.632  -5.821   5.990  0.00  0.00     0.009 C 
ENDBRANCH   7   8
ENDBRANCH   1   7
TORSDOF 2
ENDMDL
