MODEL 1
REMARK minimizedAffinity -5.84481955
REMARK minimizedRMSD -1
REMARK  2 active torsions:
REMARK  status: ('A' for Active; 'I' for Inactive)
REMARK    1  A    between atoms: C1_2  and  C2_3 
REMARK    2  A    between atoms: C2_3  and  C3_4 
ROOT
ATOM      1  C3  UNL d   1       1.090  -3.799   3.924  0.00  0.00    -0.075 A 
ATOM      2  C4  UNL d   1       1.635  -2.518   3.753  0.00  0.00     0.002 A 
ATOM      3  C5  UNL d   1       1.516  -1.856   2.531  0.00  0.00     0.002 A 
ATOM      4  C6  UNL d   1       0.862  -2.468   1.464  0.00  0.00    -0.004 A 
ATOM      5  C7  UNL d   1       0.331  -3.747   1.618  0.00  0.00     0.002 A 
ATOM      6  C8  UNL d   1       0.444  -4.410   2.841  0.00  0.00     0.002 A 
ENDROOT
BRANCH   1   7
ATOM      7  C2  UNL d   1       1.189  -4.510   5.253  0.00  0.00     0.056 C 
BRANCH   7   8
ATOM      8  C1  UNL d   1       2.620  -4.873   5.661  0.00  0.00     0.007 C 
ATOM      9  C   UNL d   1       3.214  -6.000   4.826  0.00  0.00     0.009 C 
ENDBRANCH   7   8
ENDBRANCH   1   7
TORSDOF 2
ENDMDL
