MODEL 1
REMARK minimizedAffinity -1.12822092
REMARK minimizedRMSD -1
REMARK  2 active torsions:
REMARK  status: ('A' for Active; 'I' for Inactive)
REMARK    1  A    between atoms: C1_2  and  C2_3 
REMARK    2  A    between atoms: C2_3  and  C3_4 
ROOT
ATOM      1  C3  UNL d   1      -3.644   0.746  -2.514  0.00  0.00    -0.075 A 
ATOM      2  C4  UNL d   1      -3.981   0.957  -1.169  0.00  0.00     0.002 A 
ATOM      3  C5  UNL d   1      -4.538  -0.071  -0.409  0.00  0.00     0.002 A 
ATOM      4  C6  UNL d   1      -4.774  -1.318  -0.985  0.00  0.00    -0.004 A 
ATOM      5  C7  UNL d   1      -4.459  -1.534  -2.324  0.00  0.00     0.002 A 
ATOM      6  C8  UNL d   1      -3.897  -0.507  -3.086  0.00  0.00     0.002 A 
ENDROOT
BRANCH   1   7
ATOM      7  C2  UNL d   1      -3.014   1.847  -3.335  0.00  0.00     0.056 C 
BRANCH   7   8
ATOM      8  C1  UNL d   1      -1.488   1.918  -3.215  0.00  0.00     0.007 C 
ATOM      9  C   UNL d   1      -0.911   3.249  -3.678  0.00  0.00     0.009 C 
ENDBRANCH   7   8
ENDBRANCH   1   7
TORSDOF 2
ENDMDL
