MODEL 1
REMARK minimizedAffinity 8.23140907
REMARK minimizedRMSD -1
REMARK  2 active torsions:
REMARK  status: ('A' for Active; 'I' for Inactive)
REMARK    1  A    between atoms: C1_2  and  C2_3 
REMARK    2  A    between atoms: C2_3  and  C3_4 
ROOT
ATOM      1  C3  UNL d   1       0.635   0.028  -1.527  0.00  0.00    -0.075 A 
ATOM      2  C4  UNL d   1       0.094  -1.253  -1.342  0.00  0.00     0.002 A 
ATOM      3  C5  UNL d   1       0.233  -1.911  -0.120  0.00  0.00     0.002 A 
ATOM      4  C6  UNL d   1       0.922  -1.303   0.927  0.00  0.00    -0.004 A 
ATOM      5  C7  UNL d   1       1.479  -0.039   0.749  0.00  0.00     0.002 A 
ATOM      6  C8  UNL d   1       1.337   0.624  -0.471  0.00  0.00     0.002 A 
ENDROOT
BRANCH   1   7
ATOM      7  C2  UNL d   1       0.463   0.758  -2.838  0.00  0.00     0.056 C 
BRANCH   7   8
ATOM      8  C1  UNL d   1      -0.516   1.935  -2.772  0.00  0.00     0.007 C 
ATOM      9  C   UNL d   1       0.018   3.197  -3.435  0.00  0.00     0.009 C 
ENDBRANCH   7   8
ENDBRANCH   1   7
TORSDOF 2
ENDMDL
