MODEL 1
REMARK minimizedAffinity 6.50595093
REMARK minimizedRMSD -1
REMARK  2 active torsions:
REMARK  status: ('A' for Active; 'I' for Inactive)
REMARK    1  A    between atoms: C1_2  and  C2_3 
REMARK    2  A    between atoms: C2_3  and  C3_4 
ROOT
ATOM      1  C3  UNL d   1       2.972  -1.126   2.231  0.00  0.00    -0.075 A 
ATOM      2  C4  UNL d   1       3.079  -1.407   3.601  0.00  0.00     0.002 A 
ATOM      3  C5  UNL d   1       4.305  -1.283   4.255  0.00  0.00     0.002 A 
ATOM      4  C6  UNL d   1       5.439  -0.889   3.548  0.00  0.00    -0.004 A 
ATOM      5  C7  UNL d   1       5.347  -0.624   2.184  0.00  0.00     0.002 A 
ATOM      6  C8  UNL d   1       4.121  -0.742   1.527  0.00  0.00     0.002 A 
ENDROOT
BRANCH   1   7
ATOM      7  C2  UNL d   1       1.642  -1.229   1.524  0.00  0.00     0.056 C 
BRANCH   7   8
ATOM      8  C1  UNL d   1       1.391  -0.116   0.501  0.00  0.00     0.007 C 
ATOM      9  C   UNL d   1       0.105   0.658   0.760  0.00  0.00     0.009 C 
ENDBRANCH   7   8
ENDBRANCH   1   7
TORSDOF 2
ENDMDL
