MODEL 1
REMARK minimizedAffinity -5.84455967
REMARK minimizedRMSD -1
REMARK  1 active torsions:
REMARK  status: ('A' for Active; 'I' for Inactive)
REMARK    1  A    between atoms: C1_2  and  C2_3 
ROOT
ATOM      1  C2  UNL d   1      -0.301   1.367   0.908  0.00  0.00    -0.077 A 
ATOM      2  C3  UNL d   1      -0.248   1.833  -0.413  0.00  0.00     0.002 A 
ATOM      3  C4  UNL d   1      -0.719   3.108  -0.732  0.00  0.00     0.002 A 
ATOM      4  C5  UNL d   1      -1.243   3.929   0.265  0.00  0.00    -0.004 A 
ATOM      5  C6  UNL d   1      -1.302   3.474   1.582  0.00  0.00     0.002 A 
ATOM      6  C7  UNL d   1      -0.832   2.200   1.902  0.00  0.00     0.002 A 
ENDROOT
BRANCH   1   7
ATOM      7  C1  UNL d   1       0.251   0.012   1.263  0.00  0.00     0.055 C 
ATOM      8  C   UNL d   1       1.387  -0.384   0.330  0.00  0.00     0.019 C 
ENDBRANCH   1   7
TORSDOF 1
ENDMDL
