MODEL 1
REMARK minimizedAffinity 4.55494595
REMARK minimizedRMSD -1
REMARK  1 active torsions:
REMARK  status: ('A' for Active; 'I' for Inactive)
REMARK    1  A    between atoms: C1_2  and  C2_3 
ROOT
ATOM      1  C2  UNL d   1       4.448  -0.450   1.863  0.00  0.00    -0.077 A 
ATOM      2  C3  UNL d   1       3.052  -0.437   1.993  0.00  0.00     0.002 A 
ATOM      3  C4  UNL d   1       2.237  -0.524   0.863  0.00  0.00     0.002 A 
ATOM      4  C5  UNL d   1       2.808  -0.628  -0.404  0.00  0.00    -0.004 A 
ATOM      5  C6  UNL d   1       4.195  -0.639  -0.544  0.00  0.00     0.002 A 
ATOM      6  C7  UNL d   1       5.012  -0.552   0.585  0.00  0.00     0.002 A 
ENDROOT
BRANCH   1   7
ATOM      7  C1  UNL d   1       5.329  -0.407   3.084  0.00  0.00     0.055 C 
ATOM      8  C   UNL d   1       5.249  -1.707   3.871  0.00  0.00     0.019 C 
ENDBRANCH   1   7
TORSDOF 1
ENDMDL
