MODEL 1
REMARK minimizedAffinity -3.95571589
REMARK minimizedRMSD -1
REMARK  1 active torsions:
REMARK  status: ('A' for Active; 'I' for Inactive)
REMARK    1  A    between atoms: C1_2  and  C2_3 
ROOT
ATOM      1  C2  UNL d   1      -0.465   0.649   0.184  0.00  0.00    -0.077 A 
ATOM      2  C3  UNL d   1      -1.630   1.293  -0.258  0.00  0.00     0.002 A 
ATOM      3  C4  UNL d   1      -2.136   2.393   0.436  0.00  0.00     0.002 A 
ATOM      4  C5  UNL d   1      -1.481   2.863   1.573  0.00  0.00    -0.004 A 
ATOM      5  C6  UNL d   1      -0.323   2.229   2.021  0.00  0.00     0.002 A 
ATOM      6  C7  UNL d   1       0.183   1.128   1.329  0.00  0.00     0.002 A 
ENDROOT
BRANCH   1   7
ATOM      7  C1  UNL d   1       0.109  -0.507  -0.592  0.00  0.00     0.055 C 
ATOM      8  C   UNL d   1       1.506  -0.862  -0.103  0.00  0.00     0.019 C 
ENDBRANCH   1   7
TORSDOF 1
ENDMDL
