MODEL 1
REMARK minimizedAffinity -4.95626211
REMARK minimizedRMSD -1
REMARK  1 active torsions:
REMARK  status: ('A' for Active; 'I' for Inactive)
REMARK    1  A    between atoms: C1_2  and  C2_3 
ROOT
ATOM      1  C2  UNL d   1       0.841   0.530   1.594  0.00  0.00    -0.077 A 
ATOM      2  C3  UNL d   1       0.366   1.803   1.942  0.00  0.00     0.002 A 
ATOM      3  C4  UNL d   1      -0.679   2.388   1.225  0.00  0.00     0.002 A 
ATOM      4  C5  UNL d   1      -1.261   1.706   0.158  0.00  0.00    -0.004 A 
ATOM      5  C6  UNL d   1      -0.794   0.442  -0.198  0.00  0.00     0.002 A 
ATOM      6  C7  UNL d   1       0.251  -0.144   0.517  0.00  0.00     0.002 A 
ENDROOT
BRANCH   1   7
ATOM      7  C1  UNL d   1       1.935  -0.123   2.397  0.00  0.00     0.055 C 
ATOM      8  C   UNL d   1       3.213  -0.259   1.584  0.00  0.00     0.019 C 
ENDBRANCH   1   7
TORSDOF 1
ENDMDL
