MODEL 1
REMARK minimizedAffinity -3.86547136
REMARK minimizedRMSD -1
REMARK  1 active torsions:
REMARK  status: ('A' for Active; 'I' for Inactive)
REMARK    1  A    between atoms: C1_2  and  C2_3 
ROOT
ATOM      1  C2  UNL d   1      -0.339   0.603   0.016  0.00  0.00    -0.077 A 
ATOM      2  C3  UNL d   1       0.135   0.728   1.330  0.00  0.00     0.002 A 
ATOM      3  C4  UNL d   1      -0.456   1.636   2.211  0.00  0.00     0.002 A 
ATOM      4  C5  UNL d   1      -1.527   2.421   1.789  0.00  0.00    -0.004 A 
ATOM      5  C6  UNL d   1      -2.004   2.306   0.484  0.00  0.00     0.002 A 
ATOM      6  C7  UNL d   1      -1.413   1.400  -0.398  0.00  0.00     0.002 A 
ENDROOT
BRANCH   1   7
ATOM      7  C1  UNL d   1       0.266  -0.410  -0.920  0.00  0.00     0.055 C 
ATOM      8  C   UNL d   1      -0.465  -1.743  -0.841  0.00  0.00     0.019 C 
ENDBRANCH   1   7
TORSDOF 1
ENDMDL
