MODEL 1
REMARK minimizedAffinity -6.07375002
REMARK minimizedRMSD -1
REMARK  1 active torsions:
REMARK  status: ('A' for Active; 'I' for Inactive)
REMARK    1  A    between atoms: C1_2  and  C2_3 
ROOT
ATOM      1  C2  UNL d   1       0.696   0.682   1.719  0.00  0.00    -0.077 A 
ATOM      2  C3  UNL d   1       0.501   0.379   0.364  0.00  0.00     0.002 A 
ATOM      3  C4  UNL d   1      -0.371   1.145  -0.412  0.00  0.00     0.002 A 
ATOM      4  C5  UNL d   1      -1.051   2.220   0.156  0.00  0.00    -0.004 A 
ATOM      5  C6  UNL d   1      -0.865   2.528   1.503  0.00  0.00     0.002 A 
ATOM      6  C7  UNL d   1       0.005   1.763   2.281  0.00  0.00     0.002 A 
ENDROOT
BRANCH   1   7
ATOM      7  C1  UNL d   1       1.673  -0.112   2.546  0.00  0.00     0.055 C 
ATOM      8  C   UNL d   1       3.003  -0.276   1.825  0.00  0.00     0.019 C 
ENDBRANCH   1   7
TORSDOF 1
ENDMDL
