MODEL 1
REMARK minimizedAffinity -3.73910236
REMARK minimizedRMSD -1
REMARK  1 active torsions:
REMARK  status: ('A' for Active; 'I' for Inactive)
REMARK    1  A    between atoms: C1_2  and  C2_3 
ROOT
ATOM      1  C2  UNL d   1      -0.657  -4.050  -1.378  0.00  0.00    -0.077 A 
ATOM      2  C3  UNL d   1      -0.174  -5.185  -0.712  0.00  0.00     0.002 A 
ATOM      3  C4  UNL d   1       1.065  -5.153  -0.068  0.00  0.00     0.002 A 
ATOM      4  C5  UNL d   1       1.828  -3.987  -0.079  0.00  0.00    -0.004 A 
ATOM      5  C6  UNL d   1       1.357  -2.853  -0.740  0.00  0.00     0.002 A 
ATOM      6  C7  UNL d   1       0.120  -2.884  -1.386  0.00  0.00     0.002 A 
ENDROOT
BRANCH   1   7
ATOM      7  C1  UNL d   1      -2.014  -4.068  -2.031  0.00  0.00     0.055 C 
ATOM      8  C   UNL d   1      -1.906  -3.876  -3.537  0.00  0.00     0.019 C 
ENDBRANCH   1   7
TORSDOF 1
ENDMDL
