MODEL 1
REMARK minimizedAffinity -3.81662869
REMARK minimizedRMSD -1
REMARK  0 active torsions:
REMARK  status: ('A' for Active; 'I' for Inactive)
ROOT
ATOM      1  C   UNL d   1       0.210   3.361  -0.284  0.00  0.00     0.023 A 
ATOM      2  C1  UNL d   1       1.229   2.553  -0.788  0.00  0.00     0.003 A 
ATOM      3  C2  UNL d   1       1.149   1.165  -0.658  0.00  0.00     0.048 A 
ATOM      4  C3  UNL d   1       0.046   0.592  -0.025  0.00  0.00     0.023 A 
ATOM      5  C4  UNL d   1      -0.976   1.397   0.480  0.00  0.00     0.048 A 
ATOM      6  C5  UNL d   1      -0.891   2.784   0.349  0.00  0.00     0.003 A 
ATOM      7  I   UNL d   1      -0.076  -1.474   0.168  0.00  0.00    -0.146 I 
ENDROOT
TORSDOF 0
ENDMDL
