MODEL 1
REMARK minimizedAffinity -1.9764452
REMARK minimizedRMSD -1
REMARK  0 active torsions:
REMARK  status: ('A' for Active; 'I' for Inactive)
ROOT
ATOM      1  C   UNL d   1       0.509   3.262   0.421  0.00  0.00     0.023 A 
ATOM      2  C1  UNL d   1      -0.220   2.527   1.356  0.00  0.00     0.003 A 
ATOM      3  C2  UNL d   1      -0.503   1.180   1.120  0.00  0.00     0.048 A 
ATOM      4  C3  UNL d   1      -0.053   0.574  -0.052  0.00  0.00     0.023 A 
ATOM      5  C4  UNL d   1       0.679   1.305  -0.989  0.00  0.00     0.048 A 
ATOM      6  C5  UNL d   1       0.958   2.652  -0.750  0.00  0.00     0.003 A 
ATOM      7  I   UNL d   1      -0.472  -1.431  -0.404  0.00  0.00    -0.146 I 
ENDROOT
TORSDOF 0
ENDMDL
