MODEL 1
REMARK minimizedAffinity -4.67196608
REMARK minimizedRMSD -1
REMARK  0 active torsions:
REMARK  status: ('A' for Active; 'I' for Inactive)
ROOT
ATOM      1  C   UNL d   1       0.214   3.264   0.071  0.00  0.00     0.023 A 
ATOM      2  C1  UNL d   1      -0.807   2.569   0.721  0.00  0.00     0.003 A 
ATOM      3  C2  UNL d   1      -0.924   1.187   0.562  0.00  0.00     0.048 A 
ATOM      4  C3  UNL d   1      -0.015   0.505  -0.247  0.00  0.00     0.023 A 
ATOM      5  C4  UNL d   1       1.008   1.195  -0.899  0.00  0.00     0.048 A 
ATOM      6  C5  UNL d   1       1.120   2.578  -0.738  0.00  0.00     0.003 A 
ATOM      7  I   UNL d   1      -0.187  -1.553  -0.485  0.00  0.00    -0.146 I 
ENDROOT
TORSDOF 0
ENDMDL
