MODEL 1
REMARK minimizedAffinity -4.64770555
REMARK minimizedRMSD -1
REMARK  0 active torsions:
REMARK  status: ('A' for Active; 'I' for Inactive)
ROOT
ATOM      1  C   UNL d   1       1.313   3.535   0.349  0.00  0.00     0.023 A 
ATOM      2  C1  UNL d   1       2.251   2.504   0.319  0.00  0.00     0.003 A 
ATOM      3  C2  UNL d   1       1.839   1.188   0.097  0.00  0.00     0.048 A 
ATOM      4  C3  UNL d   1       0.486   0.912  -0.096  0.00  0.00     0.023 A 
ATOM      5  C4  UNL d   1      -0.457   1.940  -0.068  0.00  0.00     0.048 A 
ATOM      6  C5  UNL d   1      -0.040   3.254   0.155  0.00  0.00     0.003 A 
ATOM      7  I   UNL d   1      -0.131  -1.045  -0.428  0.00  0.00    -0.146 I 
ENDROOT
TORSDOF 0
ENDMDL
