MODEL 1
REMARK minimizedAffinity -5.31073475
REMARK minimizedRMSD -1
REMARK  0 active torsions:
REMARK  status: ('A' for Active; 'I' for Inactive)
ROOT
ATOM      1  C   UNL d   1       0.142   3.136   0.250  0.00  0.00     0.023 A 
ATOM      2  C1  UNL d   1      -0.873   2.472   0.938  0.00  0.00     0.003 A 
ATOM      3  C2  UNL d   1      -0.981   1.083   0.856  0.00  0.00     0.048 A 
ATOM      4  C3  UNL d   1      -0.070   0.363   0.084  0.00  0.00     0.023 A 
ATOM      5  C4  UNL d   1       0.948   1.022  -0.606  0.00  0.00     0.048 A 
ATOM      6  C5  UNL d   1       1.052   2.412  -0.522  0.00  0.00     0.003 A 
ATOM      7  I   UNL d   1      -0.229  -1.706  -0.040  0.00  0.00    -0.146 I 
ENDROOT
TORSDOF 0
ENDMDL
