MODEL 1
REMARK minimizedAffinity -0.472012192
REMARK minimizedRMSD -1
REMARK  0 active torsions:
REMARK  status: ('A' for Active; 'I' for Inactive)
ROOT
ATOM      1  C   UNL d   1       3.137   2.165   0.756  0.00  0.00     0.023 A 
ATOM      2  C1  UNL d   1       2.688   0.952   0.234  0.00  0.00     0.003 A 
ATOM      3  C2  UNL d   1       1.326   0.751   0.005  0.00  0.00     0.048 A 
ATOM      4  C3  UNL d   1       0.418   1.768   0.298  0.00  0.00     0.023 A 
ATOM      5  C4  UNL d   1       0.863   2.984   0.819  0.00  0.00     0.048 A 
ATOM      6  C5  UNL d   1       2.226   3.180   1.048  0.00  0.00     0.003 A 
ATOM      7  I   UNL d   1      -1.611   1.471  -0.043  0.00  0.00    -0.146 I 
ENDROOT
TORSDOF 0
ENDMDL
