MODEL 1
REMARK minimizedAffinity -4.95926571
REMARK minimizedRMSD -1
REMARK  0 active torsions:
REMARK  status: ('A' for Active; 'I' for Inactive)
ROOT
ATOM      1  C   UNL d   1      -1.473   1.564   0.168  0.00  0.00     0.023 A 
ATOM      2  C1  UNL d   1      -0.722   2.739   0.170  0.00  0.00     0.003 A 
ATOM      3  C2  UNL d   1       0.672   2.678   0.206  0.00  0.00     0.048 A 
ATOM      4  C3  UNL d   1       1.309   1.438   0.238  0.00  0.00     0.023 A 
ATOM      5  C4  UNL d   1       0.562   0.259   0.235  0.00  0.00     0.048 A 
ATOM      6  C5  UNL d   1      -0.832   0.325   0.200  0.00  0.00     0.003 A 
ATOM      7  I   UNL d   1       3.385   1.344   0.291  0.00  0.00    -0.146 I 
ENDROOT
TORSDOF 0
ENDMDL
