MODEL 1
REMARK minimizedAffinity -0.2048942
REMARK minimizedRMSD -1
REMARK  0 active torsions:
REMARK  status: ('A' for Active; 'I' for Inactive)
ROOT
ATOM      1  C   UNL d   1      -0.793  -0.977   0.801  0.00  0.00     0.023 A 
ATOM      2  C1  UNL d   1       0.464  -0.770   0.231  0.00  0.00     0.003 A 
ATOM      3  C2  UNL d   1       0.835   0.505  -0.199  0.00  0.00     0.048 A 
ATOM      4  C3  UNL d   1      -0.054   1.570  -0.055  0.00  0.00     0.023 A 
ATOM      5  C4  UNL d   1      -1.311   1.368   0.516  0.00  0.00     0.048 A 
ATOM      6  C5  UNL d   1      -1.679   0.090   0.944  0.00  0.00     0.003 A 
ATOM      7  I   UNL d   1       0.497   3.469  -0.693  0.00  0.00    -0.146 I 
ENDROOT
TORSDOF 0
ENDMDL
