MODEL 1
REMARK minimizedAffinity -1.67495811
REMARK minimizedRMSD -1
REMARK  0 active torsions:
REMARK  status: ('A' for Active; 'I' for Inactive)
ROOT
ATOM      1  C   UNL d   1      -0.360  -4.213  -2.311  0.00  0.00     0.023 A 
ATOM      2  C1  UNL d   1       0.357  -3.102  -2.755  0.00  0.00     0.003 A 
ATOM      3  C2  UNL d   1       0.355  -1.924  -2.005  0.00  0.00     0.048 A 
ATOM      4  C3  UNL d   1      -0.364  -1.865  -0.811  0.00  0.00     0.023 A 
ATOM      5  C4  UNL d   1      -1.082  -2.975  -0.363  0.00  0.00     0.048 A 
ATOM      6  C5  UNL d   1      -1.078  -4.150  -1.117  0.00  0.00     0.003 A 
ATOM      7  I   UNL d   1      -0.367  -0.113   0.307  0.00  0.00    -0.146 I 
ENDROOT
TORSDOF 0
ENDMDL
