MODEL 1
REMARK minimizedAffinity -3.12198472
REMARK minimizedRMSD -1
REMARK  0 active torsions:
REMARK  status: ('A' for Active; 'I' for Inactive)
ROOT
ATOM      1  C   UNL d   1      -1.447   1.857   0.024  0.00  0.00     0.023 A 
ATOM      2  C1  UNL d   1      -0.646   2.956  -0.287  0.00  0.00     0.003 A 
ATOM      3  C2  UNL d   1       0.744   2.853  -0.208  0.00  0.00     0.048 A 
ATOM      4  C3  UNL d   1       1.327   1.648   0.183  0.00  0.00     0.023 A 
ATOM      5  C4  UNL d   1       0.530   0.546   0.494  0.00  0.00     0.048 A 
ATOM      6  C5  UNL d   1      -0.860   0.653   0.414  0.00  0.00     0.003 A 
ATOM      7  I   UNL d   1       3.396   1.492   0.302  0.00  0.00    -0.146 I 
ENDROOT
TORSDOF 0
ENDMDL
