MODEL 1
REMARK minimizedAffinity -5.3863163
REMARK minimizedRMSD -1
REMARK  0 active torsions:
REMARK  status: ('A' for Active; 'I' for Inactive)
ROOT
ATOM      1  C   UNL d   1      -1.759   0.773   0.448  0.00  0.00     0.023 A 
ATOM      2  C1  UNL d   1      -0.820  -0.252   0.338  0.00  0.00     0.003 A 
ATOM      3  C2  UNL d   1       0.544   0.036   0.419  0.00  0.00     0.048 A 
ATOM      4  C3  UNL d   1       0.962   1.353   0.610  0.00  0.00     0.023 A 
ATOM      5  C4  UNL d   1       0.026   2.382   0.722  0.00  0.00     0.048 A 
ATOM      6  C5  UNL d   1      -1.336   2.089   0.640  0.00  0.00     0.003 A 
ATOM      7  I   UNL d   1       2.992   1.785   0.731  0.00  0.00    -0.146 I 
ENDROOT
TORSDOF 0
ENDMDL
