MODEL 1
REMARK minimizedAffinity -1.43339765
REMARK minimizedRMSD -1
REMARK  0 active torsions:
REMARK  status: ('A' for Active; 'I' for Inactive)
ROOT
ATOM      1  C   UNL d   1      -0.412   2.626   0.532  0.00  0.00     0.023 A 
ATOM      2  C1  UNL d   1       0.184   2.587  -0.728  0.00  0.00     0.003 A 
ATOM      3  C2  UNL d   1       0.350   1.367  -1.386  0.00  0.00     0.048 A 
ATOM      4  C3  UNL d   1      -0.084   0.189  -0.779  0.00  0.00     0.023 A 
ATOM      5  C4  UNL d   1      -0.683   0.224   0.482  0.00  0.00     0.048 A 
ATOM      6  C5  UNL d   1      -0.846   1.446   1.136  0.00  0.00     0.003 A 
ATOM      7  I   UNL d   1       0.161  -1.629  -1.756  0.00  0.00    -0.146 I 
ENDROOT
TORSDOF 0
ENDMDL
