MODEL 1
REMARK minimizedAffinity -1.87210453
REMARK minimizedRMSD -1
REMARK  0 active torsions:
REMARK  status: ('A' for Active; 'I' for Inactive)
ROOT
ATOM      1  C   UNL d   1      -0.427  -4.071  -1.744  0.00  0.00     0.023 A 
ATOM      2  C1  UNL d   1      -1.309  -3.808  -0.696  0.00  0.00     0.003 A 
ATOM      3  C2  UNL d   1      -1.341  -2.541  -0.110  0.00  0.00     0.048 A 
ATOM      4  C3  UNL d   1      -0.490  -1.541  -0.579  0.00  0.00     0.023 A 
ATOM      5  C4  UNL d   1       0.393  -1.799  -1.628  0.00  0.00     0.048 A 
ATOM      6  C5  UNL d   1       0.422  -3.068  -2.210  0.00  0.00     0.003 A 
ATOM      7  I   UNL d   1      -0.537   0.346   0.291  0.00  0.00    -0.146 I 
ENDROOT
TORSDOF 0
ENDMDL
