MODEL 1
REMARK minimizedAffinity -5.2143302
REMARK minimizedRMSD -1
REMARK  1 active torsions:
REMARK  status: ('A' for Active; 'I' for Inactive)
REMARK    1  A    between atoms: C1_2  and  C2_3 
ROOT
ATOM      1  C2  UNL d   1      -0.037  -0.032   0.480  0.00  0.00    -0.077 A 
ATOM      2  C3  UNL d   1       1.364  -0.075   0.492  0.00  0.00     0.002 A 
ATOM      3  C4  UNL d   1       2.045  -0.566   1.608  0.00  0.00     0.002 A 
ATOM      4  C5  UNL d   1       1.334  -1.020   2.717  0.00  0.00    -0.004 A 
ATOM      5  C6  UNL d   1      -0.059  -0.980   2.714  0.00  0.00     0.002 A 
ATOM      6  C7  UNL d   1      -0.742  -0.489   1.601  0.00  0.00     0.002 A 
ENDROOT
BRANCH   1   7
ATOM      7  C1  UNL d   1      -0.775   0.450  -0.742  0.00  0.00     0.055 C 
ATOM      8  C   UNL d   1      -0.263   1.810  -1.196  0.00  0.00     0.019 C 
ENDBRANCH   1   7
TORSDOF 1
ENDMDL
