MODEL 1
REMARK minimizedAffinity -3.5160315
REMARK minimizedRMSD -1
REMARK  1 active torsions:
REMARK  status: ('A' for Active; 'I' for Inactive)
REMARK    1  A    between atoms: C1_2  and  C2_3 
ROOT
ATOM      1  C2  UNL d   1       0.750  -0.386   1.193  0.00  0.00    -0.077 A 
ATOM      2  C3  UNL d   1      -0.542   0.119   0.994  0.00  0.00     0.002 A 
ATOM      3  C4  UNL d   1      -0.964   0.498  -0.281  0.00  0.00     0.002 A 
ATOM      4  C5  UNL d   1      -0.102   0.372  -1.368  0.00  0.00    -0.004 A 
ATOM      5  C6  UNL d   1       1.187  -0.127  -1.181  0.00  0.00     0.002 A 
ATOM      6  C7  UNL d   1       1.611  -0.505   0.094  0.00  0.00     0.002 A 
ENDROOT
BRANCH   1   7
ATOM      7  C1  UNL d   1       1.191  -0.841   2.560  0.00  0.00     0.055 C 
ATOM      8  C   UNL d   1       0.489  -2.129   2.967  0.00  0.00     0.019 C 
ENDBRANCH   1   7
TORSDOF 1
ENDMDL
