MODEL 1
REMARK minimizedAffinity -2.75660038
REMARK minimizedRMSD -1
REMARK  1 active torsions:
REMARK  status: ('A' for Active; 'I' for Inactive)
REMARK    1  A    between atoms: C1_2  and  C2_3 
ROOT
ATOM      1  C2  UNL d   1       0.488  -0.296   1.275  0.00  0.00    -0.077 A 
ATOM      2  C3  UNL d   1      -0.865   0.069   1.339  0.00  0.00     0.002 A 
ATOM      3  C4  UNL d   1      -1.545   0.461   0.184  0.00  0.00     0.002 A 
ATOM      4  C5  UNL d   1      -0.884   0.487  -1.042  0.00  0.00    -0.004 A 
ATOM      5  C6  UNL d   1       0.462   0.128  -1.115  0.00  0.00     0.002 A 
ATOM      6  C7  UNL d   1       1.144  -0.262   0.038  0.00  0.00     0.002 A 
ENDROOT
BRANCH   1   7
ATOM      7  C1  UNL d   1       1.210  -0.765   2.511  0.00  0.00     0.055 C 
ATOM      8  C   UNL d   1       0.470  -1.913   3.182  0.00  0.00     0.019 C 
ENDBRANCH   1   7
TORSDOF 1
ENDMDL
