MODEL 1
REMARK minimizedAffinity -4.75641632
REMARK minimizedRMSD -1
REMARK  1 active torsions:
REMARK  status: ('A' for Active; 'I' for Inactive)
REMARK    1  A    between atoms: C1_2  and  C2_3 
ROOT
ATOM      1  C2  UNL d   1       1.003  -0.560   0.852  0.00  0.00    -0.077 A 
ATOM      2  C3  UNL d   1      -0.216   0.086   0.603  0.00  0.00     0.002 A 
ATOM      3  C4  UNL d   1      -0.662   0.272  -0.707  0.00  0.00     0.002 A 
ATOM      4  C5  UNL d   1       0.102  -0.189  -1.777  0.00  0.00    -0.004 A 
ATOM      5  C6  UNL d   1       1.317  -0.831  -1.540  0.00  0.00     0.002 A 
ATOM      6  C7  UNL d   1       1.765  -1.017  -0.231  0.00  0.00     0.002 A 
ENDROOT
BRANCH   1   7
ATOM      7  C1  UNL d   1       1.463  -0.806   2.265  0.00  0.00     0.055 C 
ATOM      8  C   UNL d   1       0.615  -1.871   2.946  0.00  0.00     0.019 C 
ENDBRANCH   1   7
TORSDOF 1
ENDMDL
