MODEL 1
REMARK minimizedAffinity -3.34151673
REMARK minimizedRMSD -1
REMARK  1 active torsions:
REMARK  status: ('A' for Active; 'I' for Inactive)
REMARK    1  A    between atoms: C1_2  and  C2_3 
ROOT
ATOM      1  C2  UNL d   1       0.813  -0.092   0.530  0.00  0.00    -0.077 A 
ATOM      2  C3  UNL d   1       0.900  -0.465   1.878  0.00  0.00     0.002 A 
ATOM      3  C4  UNL d   1      -0.258  -0.671   2.630  0.00  0.00     0.002 A 
ATOM      4  C5  UNL d   1      -1.511  -0.511   2.041  0.00  0.00    -0.004 A 
ATOM      5  C6  UNL d   1      -1.607  -0.138   0.701  0.00  0.00     0.002 A 
ATOM      6  C7  UNL d   1      -0.451   0.069  -0.052  0.00  0.00     0.002 A 
ENDROOT
BRANCH   1   7
ATOM      7  C1  UNL d   1       2.061   0.082  -0.296  0.00  0.00     0.055 C 
ATOM      8  C   UNL d   1       2.317  -1.132  -1.177  0.00  0.00     0.019 C 
ENDBRANCH   1   7
TORSDOF 1
ENDMDL
