MODEL 1
REMARK minimizedAffinity -2.09779143
REMARK minimizedRMSD -1
REMARK  1 active torsions:
REMARK  status: ('A' for Active; 'I' for Inactive)
REMARK    1  A    between atoms: C1_2  and  C2_3 
ROOT
ATOM      1  C2  UNL d   1      -0.619  -0.289   1.647  0.00  0.00    -0.077 A 
ATOM      2  C3  UNL d   1       0.491  -0.582   2.452  0.00  0.00     0.002 A 
ATOM      3  C4  UNL d   1       1.786  -0.423   1.954  0.00  0.00     0.002 A 
ATOM      4  C5  UNL d   1       1.983   0.032   0.652  0.00  0.00    -0.004 A 
ATOM      5  C6  UNL d   1       0.885   0.323  -0.157  0.00  0.00     0.002 A 
ATOM      6  C7  UNL d   1      -0.410   0.164   0.338  0.00  0.00     0.002 A 
ENDROOT
BRANCH   1   7
ATOM      7  C1  UNL d   1      -2.015  -0.412   2.198  0.00  0.00     0.055 C 
ATOM      8  C   UNL d   1      -3.010  -0.783   1.108  0.00  0.00     0.019 C 
ENDBRANCH   1   7
TORSDOF 1
ENDMDL
