MODEL 1
REMARK minimizedAffinity -5.11911535
REMARK minimizedRMSD -1
REMARK  1 active torsions:
REMARK  status: ('A' for Active; 'I' for Inactive)
REMARK    1  A    between atoms: C1_2  and  C2_3 
ROOT
ATOM      1  C2  UNL d   1       2.634   1.508  -2.793  0.00  0.00    -0.077 A 
ATOM      2  C3  UNL d   1       2.402   2.021  -1.510  0.00  0.00     0.002 A 
ATOM      3  C4  UNL d   1       1.102   2.305  -1.088  0.00  0.00     0.002 A 
ATOM      4  C5  UNL d   1       0.025   2.076  -1.941  0.00  0.00    -0.004 A 
ATOM      5  C6  UNL d   1       0.246   1.567  -3.220  0.00  0.00     0.002 A 
ATOM      6  C7  UNL d   1       1.544   1.283  -3.644  0.00  0.00     0.002 A 
ENDROOT
BRANCH   1   7
ATOM      7  C1  UNL d   1       4.031   1.154  -3.233  0.00  0.00     0.055 C 
ATOM      8  C   UNL d   1       5.028   1.318  -2.095  0.00  0.00     0.019 C 
ENDBRANCH   1   7
TORSDOF 1
ENDMDL
