MODEL 1
REMARK minimizedAffinity -3.720052
REMARK minimizedRMSD -1
REMARK  1 active torsions:
REMARK  status: ('A' for Active; 'I' for Inactive)
REMARK    1  A    between atoms: C1_2  and  C2_3 
ROOT
ATOM      1  C2  UNL d   1      -0.171  -1.327   0.817  0.00  0.00    -0.077 A 
ATOM      2  C3  UNL d   1       1.151  -0.989   0.495  0.00  0.00     0.002 A 
ATOM      3  C4  UNL d   1       1.464   0.299   0.056  0.00  0.00     0.002 A 
ATOM      4  C5  UNL d   1       0.461   1.259  -0.062  0.00  0.00    -0.004 A 
ATOM      5  C6  UNL d   1      -0.857   0.932   0.253  0.00  0.00     0.002 A 
ATOM      6  C7  UNL d   1      -1.172  -0.355   0.691  0.00  0.00     0.002 A 
ENDROOT
BRANCH   1   7
ATOM      7  C1  UNL d   1      -0.502  -2.701   1.338  0.00  0.00     0.055 C 
ATOM      8  C   UNL d   1      -1.968  -3.040   1.113  0.00  0.00     0.019 C 
ENDBRANCH   1   7
TORSDOF 1
ENDMDL
