MODEL 1
REMARK minimizedAffinity -6.01538324
REMARK minimizedRMSD -1
REMARK  1 active torsions:
REMARK  status: ('A' for Active; 'I' for Inactive)
REMARK    1  A    between atoms: C1_2  and  C2_3 
ROOT
ATOM      1  C2  UNL d   1      -1.060  -0.289   0.447  0.00  0.00    -0.077 A 
ATOM      2  C3  UNL d   1      -1.953   0.438   1.246  0.00  0.00     0.002 A 
ATOM      3  C4  UNL d   1      -2.809  -0.222   2.130  0.00  0.00     0.002 A 
ATOM      4  C5  UNL d   1      -2.777  -1.612   2.226  0.00  0.00    -0.004 A 
ATOM      5  C6  UNL d   1      -1.893  -2.344   1.435  0.00  0.00     0.002 A 
ATOM      6  C7  UNL d   1      -1.038  -1.686   0.550  0.00  0.00     0.002 A 
ENDROOT
BRANCH   1   7
ATOM      7  C1  UNL d   1      -0.102   0.424  -0.471  0.00  0.00     0.055 C 
ATOM      8  C   UNL d   1       0.623   1.550   0.252  0.00  0.00     0.019 C 
ENDBRANCH   1   7
TORSDOF 1
ENDMDL
