MODEL 1
REMARK minimizedAffinity -5.48668671
REMARK minimizedRMSD -1
REMARK  1 active torsions:
REMARK  status: ('A' for Active; 'I' for Inactive)
REMARK    1  A    between atoms: C1_2  and  C2_3 
ROOT
ATOM      1  C2  UNL d   1      -1.231  -1.167   1.040  0.00  0.00    -0.077 A 
ATOM      2  C3  UNL d   1      -0.399  -1.088  -0.086  0.00  0.00     0.002 A 
ATOM      3  C4  UNL d   1      -0.056   0.154  -0.624  0.00  0.00     0.002 A 
ATOM      4  C5  UNL d   1      -0.535   1.325  -0.041  0.00  0.00    -0.004 A 
ATOM      5  C6  UNL d   1      -1.365   1.257   1.077  0.00  0.00     0.002 A 
ATOM      6  C7  UNL d   1      -1.711   0.017   1.616  0.00  0.00     0.002 A 
ENDROOT
BRANCH   1   7
ATOM      7  C1  UNL d   1      -1.564  -2.503   1.652  0.00  0.00     0.055 C 
ATOM      8  C   UNL d   1      -0.463  -2.970   2.592  0.00  0.00     0.019 C 
ENDBRANCH   1   7
TORSDOF 1
ENDMDL
