MODEL 1
REMARK minimizedAffinity -4.83106375
REMARK minimizedRMSD -1
REMARK  1 active torsions:
REMARK  status: ('A' for Active; 'I' for Inactive)
REMARK    1  A    between atoms: C1_2  and  C2_3 
ROOT
ATOM      1  C2  UNL d   1       0.036  -0.020  -0.165  0.00  0.00    -0.077 A 
ATOM      2  C3  UNL d   1      -1.340  -0.226   0.003  0.00  0.00     0.002 A 
ATOM      3  C4  UNL d   1      -1.819  -1.449   0.475  0.00  0.00     0.002 A 
ATOM      4  C5  UNL d   1      -0.929  -2.475   0.786  0.00  0.00    -0.004 A 
ATOM      5  C6  UNL d   1       0.442  -2.281   0.620  0.00  0.00     0.002 A 
ATOM      6  C7  UNL d   1       0.922  -1.058   0.148  0.00  0.00     0.002 A 
ENDROOT
BRANCH   1   7
ATOM      7  C1  UNL d   1       0.558   1.316  -0.627  0.00  0.00     0.055 C 
ATOM      8  C   UNL d   1       0.412   1.476  -2.133  0.00  0.00     0.019 C 
ENDBRANCH   1   7
TORSDOF 1
ENDMDL
