MODEL 1
REMARK minimizedAffinity 1.39973235
REMARK minimizedRMSD -1
REMARK  1 active torsions:
REMARK  status: ('A' for Active; 'I' for Inactive)
REMARK    1  A    between atoms: C1_2  and  C2_3 
ROOT
ATOM      1  C2  UNL d   1      -0.937  -2.171   2.622  0.00  0.00    -0.077 A 
ATOM      2  C3  UNL d   1      -1.375  -1.652   3.848  0.00  0.00     0.002 A 
ATOM      3  C4  UNL d   1      -0.771  -2.055   5.041  0.00  0.00     0.002 A 
ATOM      4  C5  UNL d   1       0.277  -2.972   5.018  0.00  0.00    -0.004 A 
ATOM      5  C6  UNL d   1       0.719  -3.495   3.803  0.00  0.00     0.002 A 
ATOM      6  C7  UNL d   1       0.115  -3.095   2.610  0.00  0.00     0.002 A 
ENDROOT
BRANCH   1   7
ATOM      7  C1  UNL d   1      -1.554  -1.701   1.330  0.00  0.00     0.055 C 
ATOM      8  C   UNL d   1      -1.261  -0.229   1.080  0.00  0.00     0.019 C 
ENDBRANCH   1   7
TORSDOF 1
ENDMDL
