MODEL 1
REMARK minimizedAffinity -3.90426326
REMARK minimizedRMSD -1
REMARK  1 active torsions:
REMARK  status: ('A' for Active; 'I' for Inactive)
REMARK    1  A    between atoms: C1_2  and  C2_3 
ROOT
ATOM      1  C2  UNL d   1      -0.337   0.276   0.158  0.00  0.00    -0.077 A 
ATOM      2  C3  UNL d   1       0.650  -0.613   0.606  0.00  0.00     0.002 A 
ATOM      3  C4  UNL d   1       0.329  -1.943   0.884  0.00  0.00     0.002 A 
ATOM      4  C5  UNL d   1      -0.977  -2.397   0.713  0.00  0.00    -0.004 A 
ATOM      5  C6  UNL d   1      -1.966  -1.520   0.270  0.00  0.00     0.002 A 
ATOM      6  C7  UNL d   1      -1.648  -0.190  -0.007  0.00  0.00     0.002 A 
ENDROOT
BRANCH   1   7
ATOM      7  C1  UNL d   1       0.017   1.698  -0.190  0.00  0.00     0.055 C 
ATOM      8  C   UNL d   1       0.759   1.776  -1.516  0.00  0.00     0.019 C 
ENDBRANCH   1   7
TORSDOF 1
ENDMDL
