MODEL 1
REMARK minimizedAffinity -4.96548462
REMARK minimizedRMSD -1
REMARK  1 active torsions:
REMARK  status: ('A' for Active; 'I' for Inactive)
REMARK    1  A    between atoms: C1_2  and  C2_3 
ROOT
ATOM      1  C2  UNL d   1      -0.084  -1.090   0.873  0.00  0.00    -0.077 A 
ATOM      2  C3  UNL d   1       0.939  -0.722  -0.012  0.00  0.00     0.002 A 
ATOM      3  C4  UNL d   1       1.066   0.604  -0.433  0.00  0.00     0.002 A 
ATOM      4  C5  UNL d   1       0.177   1.571   0.029  0.00  0.00    -0.004 A 
ATOM      5  C6  UNL d   1      -0.846   1.215   0.908  0.00  0.00     0.002 A 
ATOM      6  C7  UNL d   1      -0.975  -0.109   1.328  0.00  0.00     0.002 A 
ENDROOT
BRANCH   1   7
ATOM      7  C1  UNL d   1      -0.193  -2.509   1.366  0.00  0.00     0.055 C 
ATOM      8  C   UNL d   1      -1.609  -3.043   1.208  0.00  0.00     0.019 C 
ENDBRANCH   1   7
TORSDOF 1
ENDMDL
