MODEL 1
REMARK minimizedAffinity -3.64468718
REMARK minimizedRMSD -1
REMARK  1 active torsions:
REMARK  status: ('A' for Active; 'I' for Inactive)
REMARK    1  A    between atoms: C1_2  and  C2_3 
ROOT
ATOM      1  C2  UNL d   1      -0.129   0.201  -0.123  0.00  0.00    -0.077 A 
ATOM      2  C3  UNL d   1      -1.036   0.300   0.941  0.00  0.00     0.002 A 
ATOM      3  C4  UNL d   1      -1.352  -0.823   1.708  0.00  0.00     0.002 A 
ATOM      4  C5  UNL d   1      -0.761  -2.052   1.421  0.00  0.00    -0.004 A 
ATOM      5  C6  UNL d   1       0.141  -2.162   0.363  0.00  0.00     0.002 A 
ATOM      6  C7  UNL d   1       0.456  -1.040  -0.404  0.00  0.00     0.002 A 
ENDROOT
BRANCH   1   7
ATOM      7  C1  UNL d   1       0.250   1.422  -0.919  0.00  0.00     0.055 C 
ATOM      8  C   UNL d   1       1.752   1.667  -0.876  0.00  0.00     0.019 C 
ENDBRANCH   1   7
TORSDOF 1
ENDMDL
