MODEL 1
REMARK minimizedAffinity -5.736022
REMARK minimizedRMSD -1
REMARK  0 active torsions:
REMARK  status: ('A' for Active; 'I' for Inactive)
ROOT
ATOM      1  C   UNL d   1       0.086  -0.748  -0.743  0.00  0.00     0.078 C 
ATOM      2  C1  UNL d   1      -0.356   0.609  -0.282  0.00  0.00    -0.077 A 
ATOM      3  C2  UNL d   1      -0.653   1.622  -1.203  0.00  0.00    -0.001 A 
ATOM      4  C3  UNL d   1      -1.054   2.883  -0.760  0.00  0.00     0.003 A 
ATOM      5  C4  UNL d   1      -1.161   3.144   0.605  0.00  0.00    -0.005 A 
ATOM      6  C5  UNL d   1      -0.865   2.143   1.529  0.00  0.00     0.003 A 
ATOM      7  C6  UNL d   1      -0.464   0.881   1.087  0.00  0.00    -0.001 A 
ENDROOT
TORSDOF 0
ENDMDL
