MODEL 1
REMARK minimizedAffinity -4.05942059
REMARK minimizedRMSD -1
REMARK  0 active torsions:
REMARK  status: ('A' for Active; 'I' for Inactive)
ROOT
ATOM      1  C   UNL d   1       0.694  -1.016  -1.077  0.00  0.00     0.078 C 
ATOM      2  C1  UNL d   1       0.277  -0.048  -0.011  0.00  0.00    -0.077 A 
ATOM      3  C2  UNL d   1      -0.799   0.826  -0.211  0.00  0.00    -0.001 A 
ATOM      4  C3  UNL d   1      -1.169   1.729   0.787  0.00  0.00     0.003 A 
ATOM      5  C4  UNL d   1      -0.469   1.768   1.991  0.00  0.00    -0.005 A 
ATOM      6  C5  UNL d   1       0.604   0.904   2.198  0.00  0.00     0.003 A 
ATOM      7  C6  UNL d   1       0.977   0.000   1.202  0.00  0.00    -0.001 A 
ENDROOT
TORSDOF 0
ENDMDL
