MODEL 1
REMARK minimizedAffinity -3.94963503
REMARK minimizedRMSD -1
REMARK  0 active torsions:
REMARK  status: ('A' for Active; 'I' for Inactive)
ROOT
ATOM      1  C   UNL d   1       0.150  -0.743  -0.711  0.00  0.00     0.078 C 
ATOM      2  C1  UNL d   1       0.160   0.095   0.532  0.00  0.00    -0.077 A 
ATOM      3  C2  UNL d   1      -0.735   1.161   0.691  0.00  0.00    -0.001 A 
ATOM      4  C3  UNL d   1      -0.707   1.939   1.849  0.00  0.00     0.003 A 
ATOM      5  C4  UNL d   1       0.214   1.660   2.857  0.00  0.00    -0.005 A 
ATOM      6  C5  UNL d   1       1.109   0.604   2.707  0.00  0.00     0.003 A 
ATOM      7  C6  UNL d   1       1.083  -0.176   1.549  0.00  0.00    -0.001 A 
ENDROOT
TORSDOF 0
ENDMDL
