MODEL 1
REMARK minimizedAffinity -5.81588316
REMARK minimizedRMSD -1
REMARK  0 active torsions:
REMARK  status: ('A' for Active; 'I' for Inactive)
ROOT
ATOM      1  C   UNL d   1       0.383  -0.621  -0.651  0.00  0.00     0.078 C 
ATOM      2  C1  UNL d   1      -0.068   0.608   0.081  0.00  0.00    -0.077 A 
ATOM      3  C2  UNL d   1      -0.117   0.636   1.480  0.00  0.00    -0.001 A 
ATOM      4  C3  UNL d   1      -0.548   1.783   2.148  0.00  0.00     0.003 A 
ATOM      5  C4  UNL d   1      -0.934   2.910   1.425  0.00  0.00    -0.005 A 
ATOM      6  C5  UNL d   1      -0.890   2.891   0.033  0.00  0.00     0.003 A 
ATOM      7  C6  UNL d   1      -0.460   1.744  -0.637  0.00  0.00    -0.001 A 
ENDROOT
TORSDOF 0
ENDMDL
