MODEL 1
REMARK minimizedAffinity -1.42965579
REMARK minimizedRMSD -1
REMARK  0 active torsions:
REMARK  status: ('A' for Active; 'I' for Inactive)
ROOT
ATOM      1  C   UNL d   1       2.522   2.940   2.960  0.00  0.00     0.078 C 
ATOM      2  C1  UNL d   1       1.624   1.860   2.437  0.00  0.00    -0.077 A 
ATOM      3  C2  UNL d   1       0.231   1.970   2.535  0.00  0.00    -0.001 A 
ATOM      4  C3  UNL d   1      -0.593   0.952   2.053  0.00  0.00     0.003 A 
ATOM      5  C4  UNL d   1      -0.034  -0.184   1.470  0.00  0.00    -0.005 A 
ATOM      6  C5  UNL d   1       1.350  -0.303   1.370  0.00  0.00     0.003 A 
ATOM      7  C6  UNL d   1       2.176   0.714   1.852  0.00  0.00    -0.001 A 
ENDROOT
TORSDOF 0
ENDMDL
