MODEL 1
REMARK minimizedAffinity -5.4245739
REMARK minimizedRMSD -1
REMARK  0 active torsions:
REMARK  status: ('A' for Active; 'I' for Inactive)
ROOT
ATOM      1  C   UNL d   1       0.512  -1.190  -0.683  0.00  0.00     0.078 C 
ATOM      2  C1  UNL d   1       0.037  -0.117   0.251  0.00  0.00    -0.077 A 
ATOM      3  C2  UNL d   1      -0.705   0.973  -0.221  0.00  0.00    -0.001 A 
ATOM      4  C3  UNL d   1      -1.132   1.970   0.658  0.00  0.00     0.003 A 
ATOM      5  C4  UNL d   1      -0.821   1.887   2.014  0.00  0.00    -0.005 A 
ATOM      6  C5  UNL d   1      -0.082   0.807   2.492  0.00  0.00     0.003 A 
ATOM      7  C6  UNL d   1       0.346  -0.190   1.615  0.00  0.00    -0.001 A 
ENDROOT
TORSDOF 0
ENDMDL
