MODEL 1
REMARK minimizedAffinity 3.4785893
REMARK minimizedRMSD -1
REMARK  0 active torsions:
REMARK  status: ('A' for Active; 'I' for Inactive)
ROOT
ATOM      1  C   UNL d   1      -4.507   4.522  -3.630  0.00  0.00     0.078 C 
ATOM      2  C1  UNL d   1      -4.167   3.347  -2.764  0.00  0.00    -0.077 A 
ATOM      3  C2  UNL d   1      -4.758   2.096  -2.981  0.00  0.00    -0.001 A 
ATOM      4  C3  UNL d   1      -4.439   1.013  -2.160  0.00  0.00     0.003 A 
ATOM      5  C4  UNL d   1      -3.530   1.170  -1.116  0.00  0.00    -0.005 A 
ATOM      6  C5  UNL d   1      -2.939   2.411  -0.891  0.00  0.00     0.003 A 
ATOM      7  C6  UNL d   1      -3.256   3.495  -1.710  0.00  0.00    -0.001 A 
ENDROOT
TORSDOF 0
ENDMDL
