MODEL 1
REMARK minimizedAffinity 3.15132999
REMARK minimizedRMSD -1
REMARK  0 active torsions:
REMARK  status: ('A' for Active; 'I' for Inactive)
ROOT
ATOM      1  C   UNL d   1       2.381  -0.917   0.118  0.00  0.00     0.078 C 
ATOM      2  C1  UNL d   1       3.633  -1.436  -0.524  0.00  0.00    -0.077 A 
ATOM      3  C2  UNL d   1       3.991  -2.786  -0.419  0.00  0.00    -0.001 A 
ATOM      4  C3  UNL d   1       5.164  -3.253  -1.013  0.00  0.00     0.003 A 
ATOM      5  C4  UNL d   1       5.989  -2.377  -1.717  0.00  0.00    -0.005 A 
ATOM      6  C5  UNL d   1       5.642  -1.032  -1.825  0.00  0.00     0.003 A 
ATOM      7  C6  UNL d   1       4.469  -0.563  -1.231  0.00  0.00    -0.001 A 
ENDROOT
TORSDOF 0
ENDMDL
