MODEL 1
REMARK minimizedAffinity 3.32297325
REMARK minimizedRMSD -1
REMARK  0 active torsions:
REMARK  status: ('A' for Active; 'I' for Inactive)
ROOT
ATOM      1  C   UNL d   1      -3.449   3.245  -1.455  0.00  0.00     0.078 C 
ATOM      2  C1  UNL d   1      -2.149   2.535  -1.222  0.00  0.00    -0.077 A 
ATOM      3  C2  UNL d   1      -2.025   1.161  -1.462  0.00  0.00    -0.001 A 
ATOM      4  C3  UNL d   1      -0.812   0.511  -1.231  0.00  0.00     0.003 A 
ATOM      5  C4  UNL d   1       0.287   1.227  -0.758  0.00  0.00    -0.005 A 
ATOM      6  C5  UNL d   1       0.172   2.594  -0.514  0.00  0.00     0.003 A 
ATOM      7  C6  UNL d   1      -1.041   3.245  -0.744  0.00  0.00    -0.001 A 
ENDROOT
TORSDOF 0
ENDMDL
