MODEL 1
REMARK minimizedAffinity -4.532372
REMARK minimizedRMSD -1
REMARK  1 active torsions:
REMARK  status: ('A' for Active; 'I' for Inactive)
REMARK    1  A    between atoms: C1_2  and  C2_3 
ROOT
ATOM      1  C2  UNL d   1      -0.185   0.688  -0.675  0.00  0.00    -0.077 A 
ATOM      2  C3  UNL d   1       0.603   0.573  -1.829  0.00  0.00     0.002 A 
ATOM      3  C4  UNL d   1       0.060   0.059  -3.008  0.00  0.00     0.002 A 
ATOM      4  C5  UNL d   1      -1.274  -0.341  -3.046  0.00  0.00    -0.004 A 
ATOM      5  C6  UNL d   1      -2.066  -0.233  -1.903  0.00  0.00     0.002 A 
ATOM      6  C7  UNL d   1      -1.525   0.280  -0.724  0.00  0.00     0.002 A 
ENDROOT
BRANCH   1   7
ATOM      7  C1  UNL d   1       0.385   1.288   0.583  0.00  0.00     0.055 C 
ATOM      8  C   UNL d   1       1.814   0.822   0.820  0.00  0.00     0.019 C 
ENDBRANCH   1   7
TORSDOF 1
ENDMDL
