MODEL 1
REMARK minimizedAffinity -2.50352788
REMARK minimizedRMSD -1
REMARK  1 active torsions:
REMARK  status: ('A' for Active; 'I' for Inactive)
REMARK    1  A    between atoms: C1_2  and  C2_3 
ROOT
ATOM      1  C2  UNL d   1      -1.587  -0.112  -1.197  0.00  0.00    -0.077 A 
ATOM      2  C3  UNL d   1      -1.383  -1.189  -2.071  0.00  0.00     0.002 A 
ATOM      3  C4  UNL d   1      -1.890  -1.149  -3.372  0.00  0.00     0.002 A 
ATOM      4  C5  UNL d   1      -2.600  -0.033  -3.810  0.00  0.00    -0.004 A 
ATOM      5  C6  UNL d   1      -2.810   1.042  -2.947  0.00  0.00     0.002 A 
ATOM      6  C7  UNL d   1      -2.305   1.003  -1.647  0.00  0.00     0.002 A 
ENDROOT
BRANCH   1   7
ATOM      7  C1  UNL d   1      -0.999  -0.133   0.190  0.00  0.00     0.055 C 
ATOM      8  C   UNL d   1       0.474   0.248   0.172  0.00  0.00     0.019 C 
ENDBRANCH   1   7
TORSDOF 1
ENDMDL
