MODEL 1
REMARK minimizedAffinity -4.15815687
REMARK minimizedRMSD -1
REMARK  1 active torsions:
REMARK  status: ('A' for Active; 'I' for Inactive)
REMARK    1  A    between atoms: C1_2  and  C2_3 
ROOT
ATOM      1  C2  UNL d   1       0.636  -0.183   0.889  0.00  0.00    -0.077 A 
ATOM      2  C3  UNL d   1       0.057  -1.371   1.357  0.00  0.00     0.002 A 
ATOM      3  C4  UNL d   1       0.715  -2.149   2.311  0.00  0.00     0.002 A 
ATOM      4  C5  UNL d   1       1.952  -1.746   2.808  0.00  0.00    -0.004 A 
ATOM      5  C6  UNL d   1       2.537  -0.567   2.348  0.00  0.00     0.002 A 
ATOM      6  C7  UNL d   1       1.882   0.212   1.394  0.00  0.00     0.002 A 
ENDROOT
BRANCH   1   7
ATOM      7  C1  UNL d   1      -0.095   0.684  -0.104  0.00  0.00     0.055 C 
ATOM      8  C   UNL d   1      -1.579   0.766   0.221  0.00  0.00     0.019 C 
ENDBRANCH   1   7
TORSDOF 1
ENDMDL
