MODEL 1
REMARK minimizedAffinity -2.64434433
REMARK minimizedRMSD -1
REMARK  1 active torsions:
REMARK  status: ('A' for Active; 'I' for Inactive)
REMARK    1  A    between atoms: C1_2  and  C2_3 
ROOT
ATOM      1  C2  UNL d   1      -2.195   0.328  -1.032  0.00  0.00    -0.077 A 
ATOM      2  C3  UNL d   1      -2.354  -0.912  -1.666  0.00  0.00     0.002 A 
ATOM      3  C4  UNL d   1      -3.021  -0.999  -2.890  0.00  0.00     0.002 A 
ATOM      4  C5  UNL d   1      -3.531   0.150  -3.491  0.00  0.00    -0.004 A 
ATOM      5  C6  UNL d   1      -3.379   1.388  -2.867  0.00  0.00     0.002 A 
ATOM      6  C7  UNL d   1      -2.713   1.477  -1.644  0.00  0.00     0.002 A 
ENDROOT
BRANCH   1   7
ATOM      7  C1  UNL d   1      -1.432   0.431   0.263  0.00  0.00     0.055 C 
ATOM      8  C   UNL d   1       0.067   0.518   0.017  0.00  0.00     0.019 C 
ENDBRANCH   1   7
TORSDOF 1
ENDMDL
