MODEL 1
REMARK minimizedAffinity -3.77806163
REMARK minimizedRMSD -1
REMARK  1 active torsions:
REMARK  status: ('A' for Active; 'I' for Inactive)
REMARK    1  A    between atoms: C1_2  and  C2_3 
ROOT
ATOM      1  C2  UNL d   1       1.327   0.105   1.062  0.00  0.00    -0.077 A 
ATOM      2  C3  UNL d   1       1.229   1.272   0.291  0.00  0.00     0.002 A 
ATOM      3  C4  UNL d   1       0.067   1.543  -0.434  0.00  0.00     0.002 A 
ATOM      4  C5  UNL d   1      -1.006   0.655  -0.393  0.00  0.00    -0.004 A 
ATOM      5  C6  UNL d   1      -0.917  -0.509   0.369  0.00  0.00     0.002 A 
ATOM      6  C7  UNL d   1       0.244  -0.783   1.093  0.00  0.00     0.002 A 
ENDROOT
BRANCH   1   7
ATOM      7  C1  UNL d   1       2.560  -0.165   1.884  0.00  0.00     0.055 C 
ATOM      8  C   UNL d   1       2.360  -1.359   2.806  0.00  0.00     0.019 C 
ENDBRANCH   1   7
TORSDOF 1
ENDMDL
