MODEL 1
REMARK minimizedAffinity -3.51237702
REMARK minimizedRMSD -1
REMARK  1 active torsions:
REMARK  status: ('A' for Active; 'I' for Inactive)
REMARK    1  A    between atoms: C1_2  and  C2_3 
ROOT
ATOM      1  C2  UNL d   1      -1.617   0.060  -0.978  0.00  0.00    -0.077 A 
ATOM      2  C3  UNL d   1      -1.409  -0.942  -1.937  0.00  0.00     0.002 A 
ATOM      3  C4  UNL d   1      -2.110  -0.919  -3.145  0.00  0.00     0.002 A 
ATOM      4  C5  UNL d   1      -3.020   0.103  -3.405  0.00  0.00    -0.004 A 
ATOM      5  C6  UNL d   1      -3.235   1.102  -2.457  0.00  0.00     0.002 A 
ATOM      6  C7  UNL d   1      -2.536   1.081  -1.249  0.00  0.00     0.002 A 
ENDROOT
BRANCH   1   7
ATOM      7  C1  UNL d   1      -0.826   0.065   0.304  0.00  0.00     0.055 C 
ATOM      8  C   UNL d   1       0.122   1.253   0.364  0.00  0.00     0.019 C 
ENDBRANCH   1   7
TORSDOF 1
ENDMDL
