MODEL 1
REMARK minimizedAffinity -0.907268941
REMARK minimizedRMSD -1
REMARK  2 active torsions:
REMARK  status: ('A' for Active; 'I' for Inactive)
REMARK    1  A    between atoms: C1_2  and  C2_3 
REMARK    2  A    between atoms: C2_3  and  C3_4 
ROOT
ATOM      1  C3  UNL d   1       3.049   2.415  -3.803  0.00  0.00    -0.075 A 
ATOM      2  C4  UNL d   1       4.226   1.657  -3.874  0.00  0.00     0.002 A 
ATOM      3  C5  UNL d   1       5.468   2.254  -3.655  0.00  0.00     0.002 A 
ATOM      4  C6  UNL d   1       5.549   3.616  -3.374  0.00  0.00    -0.004 A 
ATOM      5  C7  UNL d   1       4.386   4.382  -3.317  0.00  0.00     0.002 A 
ATOM      6  C8  UNL d   1       3.142   3.786  -3.531  0.00  0.00     0.002 A 
ENDROOT
BRANCH   1   7
ATOM      7  C2  UNL d   1       1.700   1.768  -4.010  0.00  0.00     0.056 C 
BRANCH   7   8
ATOM      8  C1  UNL d   1       0.851   1.676  -2.737  0.00  0.00     0.007 C 
ATOM      9  C   UNL d   1       1.179   0.459  -1.883  0.00  0.00     0.009 C 
ENDBRANCH   7   8
ENDBRANCH   1   7
TORSDOF 2
ENDMDL
