MODEL 1
REMARK minimizedAffinity 9.5630331
REMARK minimizedRMSD -1
REMARK  2 active torsions:
REMARK  status: ('A' for Active; 'I' for Inactive)
REMARK    1  A    between atoms: C1_2  and  C2_3 
REMARK    2  A    between atoms: C2_3  and  C3_4 
ROOT
ATOM      1  C3  UNL d   1       0.641   2.522  -0.362  0.00  0.00    -0.075 A 
ATOM      2  C4  UNL d   1       0.348   3.883  -0.193  0.00  0.00     0.002 A 
ATOM      3  C5  UNL d   1       0.836   4.580   0.912  0.00  0.00     0.002 A 
ATOM      4  C6  UNL d   1       1.612   3.925   1.866  0.00  0.00    -0.004 A 
ATOM      5  C7  UNL d   1       1.895   2.569   1.717  0.00  0.00     0.002 A 
ATOM      6  C8  UNL d   1       1.412   1.870   0.609  0.00  0.00     0.002 A 
ENDROOT
BRANCH   1   7
ATOM      7  C2  UNL d   1       0.140   1.769  -1.572  0.00  0.00     0.056 C 
BRANCH   7   8
ATOM      8  C1  UNL d   1       1.191   0.860  -2.219  0.00  0.00     0.007 C 
ATOM      9  C   UNL d   1       1.520   1.249  -3.654  0.00  0.00     0.009 C 
ENDBRANCH   7   8
ENDBRANCH   1   7
TORSDOF 2
ENDMDL
