MODEL 1
REMARK minimizedAffinity 8.3421545
REMARK minimizedRMSD -1
REMARK  2 active torsions:
REMARK  status: ('A' for Active; 'I' for Inactive)
REMARK    1  A    between atoms: C1_2  and  C2_3 
REMARK    2  A    between atoms: C2_3  and  C3_4 
ROOT
ATOM      1  C3  UNL d   1       4.330   0.031   3.541  0.00  0.00    -0.075 A 
ATOM      2  C4  UNL d   1       3.743  -1.125   4.075  0.00  0.00     0.002 A 
ATOM      3  C5  UNL d   1       4.271  -1.726   5.218  0.00  0.00     0.002 A 
ATOM      4  C6  UNL d   1       5.397  -1.185   5.835  0.00  0.00    -0.004 A 
ATOM      5  C7  UNL d   1       5.999  -0.046   5.304  0.00  0.00     0.002 A 
ATOM      6  C8  UNL d   1       5.469   0.559   4.163  0.00  0.00     0.002 A 
ENDROOT
BRANCH   1   7
ATOM      7  C2  UNL d   1       3.745   0.703   2.322  0.00  0.00     0.056 C 
BRANCH   7   8
ATOM      8  C1  UNL d   1       3.434   2.190   2.517  0.00  0.00     0.007 C 
ATOM      9  C   UNL d   1       2.402   2.722   1.532  0.00  0.00     0.009 C 
ENDBRANCH   7   8
ENDBRANCH   1   7
TORSDOF 2
ENDMDL
