MODEL 1
REMARK minimizedAffinity -3.64830947
REMARK minimizedRMSD -1
REMARK  2 active torsions:
REMARK  status: ('A' for Active; 'I' for Inactive)
REMARK    1  A    between atoms: C1_2  and  C2_3 
REMARK    2  A    between atoms: C2_3  and  C3_4 
ROOT
ATOM      1  C3  UNL d   1      -0.024   0.005  -0.774  0.00  0.00    -0.075 A 
ATOM      2  C4  UNL d   1      -0.636  -1.118  -0.198  0.00  0.00     0.002 A 
ATOM      3  C5  UNL d   1      -0.028  -2.371  -0.270  0.00  0.00     0.002 A 
ATOM      4  C6  UNL d   1       1.192  -2.521  -0.925  0.00  0.00    -0.004 A 
ATOM      5  C7  UNL d   1       1.801  -1.416  -1.515  0.00  0.00     0.002 A 
ATOM      6  C8  UNL d   1       1.198  -0.159  -1.441  0.00  0.00     0.002 A 
ENDROOT
BRANCH   1   7
ATOM      7  C2  UNL d   1      -0.662   1.370  -0.674  0.00  0.00     0.056 C 
BRANCH   7   8
ATOM      8  C1  UNL d   1      -0.383   2.094   0.647  0.00  0.00     0.007 C 
ATOM      9  C   UNL d   1       0.371   3.405   0.466  0.00  0.00     0.009 C 
ENDBRANCH   7   8
ENDBRANCH   1   7
TORSDOF 2
ENDMDL
