MODEL 1
REMARK minimizedAffinity -0.983755052
REMARK minimizedRMSD -1
REMARK  2 active torsions:
REMARK  status: ('A' for Active; 'I' for Inactive)
REMARK    1  A    between atoms: C1_2  and  C2_3 
REMARK    2  A    between atoms: C2_3  and  C3_4 
ROOT
ATOM      1  C3  UNL d   1       0.064   0.314  -1.090  0.00  0.00    -0.075 A 
ATOM      2  C4  UNL d   1       0.101  -0.870  -0.338  0.00  0.00     0.002 A 
ATOM      3  C5  UNL d   1       0.822  -1.975  -0.792  0.00  0.00     0.002 A 
ATOM      4  C6  UNL d   1       1.506  -1.915  -2.004  0.00  0.00    -0.004 A 
ATOM      5  C7  UNL d   1       1.463  -0.750  -2.767  0.00  0.00     0.002 A 
ATOM      6  C8  UNL d   1       0.746   0.359  -2.313  0.00  0.00     0.002 A 
ENDROOT
BRANCH   1   7
ATOM      7  C2  UNL d   1      -0.690   1.523  -0.591  0.00  0.00     0.056 C 
BRANCH   7   8
ATOM      8  C1  UNL d   1       0.055   2.323   0.483  0.00  0.00     0.007 C 
ATOM      9  C   UNL d   1      -0.388   3.778   0.563  0.00  0.00     0.009 C 
ENDBRANCH   7   8
ENDBRANCH   1   7
TORSDOF 2
ENDMDL
