MODEL 1
REMARK minimizedAffinity -3.83604002
REMARK minimizedRMSD -1
REMARK  2 active torsions:
REMARK  status: ('A' for Active; 'I' for Inactive)
REMARK    1  A    between atoms: C1_2  and  C2_3 
REMARK    2  A    between atoms: C2_3  and  C3_4 
ROOT
ATOM      1  C3  UNL d   1      -1.005   0.409  -0.570  0.00  0.00    -0.075 A 
ATOM      2  C4  UNL d   1      -0.403  -0.854  -0.472  0.00  0.00     0.002 A 
ATOM      3  C5  UNL d   1       0.673  -1.191  -1.294  0.00  0.00     0.002 A 
ATOM      4  C6  UNL d   1       1.153  -0.276  -2.229  0.00  0.00    -0.004 A 
ATOM      5  C7  UNL d   1       0.551   0.975  -2.346  0.00  0.00     0.002 A 
ATOM      6  C8  UNL d   1      -0.523   1.316  -1.522  0.00  0.00     0.002 A 
ENDROOT
BRANCH   1   7
ATOM      7  C2  UNL d   1      -2.151   0.790   0.337  0.00  0.00     0.056 C 
BRANCH   7   8
ATOM      8  C1  UNL d   1      -2.053   0.201   1.748  0.00  0.00     0.007 C 
ATOM      9  C   UNL d   1      -2.725   1.064   2.807  0.00  0.00     0.009 C 
ENDBRANCH   7   8
ENDBRANCH   1   7
TORSDOF 2
ENDMDL
