MODEL 1
REMARK minimizedAffinity -3.71958137
REMARK minimizedRMSD -1
REMARK  2 active torsions:
REMARK  status: ('A' for Active; 'I' for Inactive)
REMARK    1  A    between atoms: C1_2  and  C2_3 
REMARK    2  A    between atoms: C2_3  and  C3_4 
ROOT
ATOM      1  C3  UNL d   1       1.915  -0.585  -2.767  0.00  0.00    -0.075 A 
ATOM      2  C4  UNL d   1       2.908   0.354  -3.082  0.00  0.00     0.002 A 
ATOM      3  C5  UNL d   1       2.879   1.035  -4.299  0.00  0.00     0.002 A 
ATOM      4  C6  UNL d   1       1.865   0.779  -5.219  0.00  0.00    -0.004 A 
ATOM      5  C7  UNL d   1       0.882  -0.164  -4.924  0.00  0.00     0.002 A 
ATOM      6  C8  UNL d   1       0.907  -0.843  -3.705  0.00  0.00     0.002 A 
ENDROOT
BRANCH   1   7
ATOM      7  C2  UNL d   1       1.924  -1.304  -1.439  0.00  0.00     0.056 C 
BRANCH   7   8
ATOM      8  C1  UNL d   1       1.084  -0.621  -0.354  0.00  0.00     0.007 C 
ATOM      9  C   UNL d   1      -0.367  -1.085  -0.338  0.00  0.00     0.009 C 
ENDBRANCH   7   8
ENDBRANCH   1   7
TORSDOF 2
ENDMDL
