MODEL 1
REMARK minimizedAffinity -4.20632792
REMARK minimizedRMSD -1
REMARK  2 active torsions:
REMARK  status: ('A' for Active; 'I' for Inactive)
REMARK    1  A    between atoms: C1_2  and  C2_3 
REMARK    2  A    between atoms: C2_3  and  C3_4 
ROOT
ATOM      1  C3  UNL d   1      -0.470  -0.243  -0.212  0.00  0.00    -0.075 A 
ATOM      2  C4  UNL d   1      -0.957   0.543  -1.267  0.00  0.00     0.002 A 
ATOM      3  C5  UNL d   1      -0.619   1.893  -1.359  0.00  0.00     0.002 A 
ATOM      4  C6  UNL d   1       0.200   2.477  -0.395  0.00  0.00    -0.004 A 
ATOM      5  C7  UNL d   1       0.676   1.710   0.666  0.00  0.00     0.002 A 
ATOM      6  C8  UNL d   1       0.342   0.357   0.759  0.00  0.00     0.002 A 
ENDROOT
BRANCH   1   7
ATOM      7  C2  UNL d   1      -0.809  -1.712  -0.123  0.00  0.00     0.056 C 
BRANCH   7   8
ATOM      8  C1  UNL d   1       0.411  -2.638  -0.184  0.00  0.00     0.007 C 
ATOM      9  C   UNL d   1       1.362  -2.303  -1.326  0.00  0.00     0.009 C 
ENDBRANCH   7   8
ENDBRANCH   1   7
TORSDOF 2
ENDMDL
