MODEL 1
REMARK minimizedAffinity 0.60235101
REMARK minimizedRMSD -1
REMARK  2 active torsions:
REMARK  status: ('A' for Active; 'I' for Inactive)
REMARK    1  A    between atoms: C1_2  and  C2_3 
REMARK    2  A    between atoms: C2_3  and  C3_4 
ROOT
ATOM      1  C3  UNL d   1       0.861  -0.326  -1.998  0.00  0.00    -0.075 A 
ATOM      2  C4  UNL d   1       0.026  -0.287  -0.872  0.00  0.00     0.002 A 
ATOM      3  C5  UNL d   1       0.006  -1.350   0.032  0.00  0.00     0.002 A 
ATOM      4  C6  UNL d   1       0.809  -2.467  -0.184  0.00  0.00    -0.004 A 
ATOM      5  C7  UNL d   1       1.630  -2.524  -1.309  0.00  0.00     0.002 A 
ATOM      6  C8  UNL d   1       1.656  -1.460  -2.212  0.00  0.00     0.002 A 
ENDROOT
BRANCH   1   7
ATOM      7  C2  UNL d   1       0.910   0.834  -2.964  0.00  0.00     0.056 C 
BRANCH   7   8
ATOM      8  C1  UNL d   1       1.446   0.468  -4.352  0.00  0.00     0.007 C 
ATOM      9  C   UNL d   1       1.440   1.639  -5.325  0.00  0.00     0.009 C 
ENDBRANCH   7   8
ENDBRANCH   1   7
TORSDOF 2
ENDMDL
