MODEL 1
REMARK minimizedAffinity -1.45022511
REMARK minimizedRMSD -1
REMARK  2 active torsions:
REMARK  status: ('A' for Active; 'I' for Inactive)
REMARK    1  A    between atoms: C1_2  and  C2_3 
REMARK    2  A    between atoms: C2_3  and  C3_4 
ROOT
ATOM      1  C3  UNL d   1      -0.425  -0.826  -0.085  0.00  0.00    -0.075 A 
ATOM      2  C4  UNL d   1      -0.014   0.277  -0.848  0.00  0.00     0.002 A 
ATOM      3  C5  UNL d   1       1.049   0.161  -1.745  0.00  0.00     0.002 A 
ATOM      4  C6  UNL d   1       1.718  -1.052  -1.884  0.00  0.00    -0.004 A 
ATOM      5  C7  UNL d   1       1.329  -2.150  -1.119  0.00  0.00     0.002 A 
ATOM      6  C8  UNL d   1       0.264  -2.039  -0.224  0.00  0.00     0.002 A 
ENDROOT
BRANCH   1   7
ATOM      7  C2  UNL d   1      -1.593  -0.716   0.866  0.00  0.00     0.056 C 
BRANCH   7   8
ATOM      8  C1  UNL d   1      -1.242  -0.073   2.212  0.00  0.00     0.007 C 
ATOM      9  C   UNL d   1      -2.450   0.117   3.120  0.00  0.00     0.009 C 
ENDBRANCH   7   8
ENDBRANCH   1   7
TORSDOF 2
ENDMDL
