MODEL 1
REMARK minimizedAffinity 1.69286788
REMARK minimizedRMSD -1
REMARK  2 active torsions:
REMARK  status: ('A' for Active; 'I' for Inactive)
REMARK    1  A    between atoms: C1_2  and  C2_3 
REMARK    2  A    between atoms: C2_3  and  C3_4 
ROOT
ATOM      1  C3  UNL d   1      -1.201  -0.687   0.363  0.00  0.00    -0.075 A 
ATOM      2  C4  UNL d   1      -0.781  -1.967   0.750  0.00  0.00     0.002 A 
ATOM      3  C5  UNL d   1       0.272  -2.598   0.087  0.00  0.00     0.002 A 
ATOM      4  C6  UNL d   1       0.911  -1.962  -0.975  0.00  0.00    -0.004 A 
ATOM      5  C7  UNL d   1       0.492  -0.697  -1.379  0.00  0.00     0.002 A 
ATOM      6  C8  UNL d   1      -0.559  -0.062  -0.715  0.00  0.00     0.002 A 
ENDROOT
BRANCH   1   7
ATOM      7  C2  UNL d   1      -2.321   0.013   1.094  0.00  0.00     0.056 C 
BRANCH   7   8
ATOM      8  C1  UNL d   1      -2.285  -0.172   2.615  0.00  0.00     0.007 C 
ATOM      9  C   UNL d   1      -2.525   1.120   3.384  0.00  0.00     0.009 C 
ENDBRANCH   7   8
ENDBRANCH   1   7
TORSDOF 2
ENDMDL
