MODEL 1
REMARK minimizedAffinity -4.08576298
REMARK minimizedRMSD -1
REMARK  2 active torsions:
REMARK  status: ('A' for Active; 'I' for Inactive)
REMARK    1  A    between atoms: C1_2  and  C2_3 
REMARK    2  A    between atoms: C2_3  and  C3_4 
ROOT
ATOM      1  C3  UNL d   1       0.076   0.469   1.147  0.00  0.00    -0.075 A 
ATOM      2  C4  UNL d   1       0.460   1.648   0.493  0.00  0.00     0.002 A 
ATOM      3  C5  UNL d   1       0.130   2.894   1.026  0.00  0.00     0.002 A 
ATOM      4  C6  UNL d   1      -0.596   2.977   2.212  0.00  0.00    -0.004 A 
ATOM      5  C7  UNL d   1      -0.998   1.812   2.862  0.00  0.00     0.002 A 
ATOM      6  C8  UNL d   1      -0.665   0.564   2.333  0.00  0.00     0.002 A 
ENDROOT
BRANCH   1   7
ATOM      7  C2  UNL d   1       0.455  -0.883   0.591  0.00  0.00     0.056 C 
BRANCH   7   8
ATOM      8  C1  UNL d   1       0.069  -1.083  -0.878  0.00  0.00     0.007 C 
ATOM      9  C   UNL d   1       1.110  -1.862  -1.672  0.00  0.00     0.009 C 
ENDBRANCH   7   8
ENDBRANCH   1   7
TORSDOF 2
ENDMDL
