MODEL 1
REMARK minimizedAffinity -4.60276127
REMARK minimizedRMSD -1
REMARK  2 active torsions:
REMARK  status: ('A' for Active; 'I' for Inactive)
REMARK    1  A    between atoms: C1_2  and  C2_3 
REMARK    2  A    between atoms: C2_3  and  C3_4 
ROOT
ATOM      1  C3  UNL d   1       0.150   0.956  -0.508  0.00  0.00    -0.075 A 
ATOM      2  C4  UNL d   1      -0.908   0.258   0.093  0.00  0.00     0.002 A 
ATOM      3  C5  UNL d   1      -0.874  -1.133   0.191  0.00  0.00     0.002 A 
ATOM      4  C6  UNL d   1       0.210  -1.844  -0.318  0.00  0.00    -0.004 A 
ATOM      5  C7  UNL d   1       1.259  -1.163  -0.932  0.00  0.00     0.002 A 
ATOM      6  C8  UNL d   1       1.230   0.230  -1.027  0.00  0.00     0.002 A 
ENDROOT
BRANCH   1   7
ATOM      7  C2  UNL d   1       0.133   2.463  -0.591  0.00  0.00     0.056 C 
BRANCH   7   8
ATOM      8  C1  UNL d   1      -0.051   3.161   0.761  0.00  0.00     0.007 C 
ATOM      9  C   UNL d   1       1.122   4.055   1.140  0.00  0.00     0.009 C 
ENDBRANCH   7   8
ENDBRANCH   1   7
TORSDOF 2
ENDMDL
