MODEL 1
REMARK minimizedAffinity -3.05467892
REMARK minimizedRMSD -1
REMARK  2 active torsions:
REMARK  status: ('A' for Active; 'I' for Inactive)
REMARK    1  A    between atoms: C1_2  and  C2_3 
REMARK    2  A    between atoms: C2_3  and  C3_4 
ROOT
ATOM      1  C3  UNL d   1       0.312   0.225  -1.174  0.00  0.00    -0.075 A 
ATOM      2  C4  UNL d   1       0.232  -1.175  -1.186  0.00  0.00     0.002 A 
ATOM      3  C5  UNL d   1      -0.044  -1.879  -0.013  0.00  0.00     0.002 A 
ATOM      4  C6  UNL d   1      -0.232  -1.194   1.186  0.00  0.00    -0.004 A 
ATOM      5  C7  UNL d   1      -0.138   0.196   1.212  0.00  0.00     0.002 A 
ATOM      6  C8  UNL d   1       0.133   0.902   0.039  0.00  0.00     0.002 A 
ENDROOT
BRANCH   1   7
ATOM      7  C2  UNL d   1       0.580   0.994  -2.446  0.00  0.00     0.056 C 
BRANCH   7   8
ATOM      8  C1  UNL d   1       1.235   0.160  -3.552  0.00  0.00     0.007 C 
ATOM      9  C   UNL d   1       1.407   0.925  -4.858  0.00  0.00     0.009 C 
ENDBRANCH   7   8
ENDBRANCH   1   7
TORSDOF 2
ENDMDL
