MODEL 1
REMARK minimizedAffinity 1.76098394
REMARK minimizedRMSD -1
REMARK  0 active torsions:
REMARK  status: ('A' for Active; 'I' for Inactive)
ROOT
ATOM      1  C1  BNZ d   1       0.083   1.051   1.967  0.00  0.00     0.000 A 
ATOM      2  C2  BNZ d   1       0.735   1.664   3.004  0.00  0.00     0.000 A 
ATOM      3  C3  BNZ d   1       1.168   2.955   2.892  0.00  0.00     0.000 A 
ATOM      4  C4  BNZ d   1       0.985   3.618   1.732  0.00  0.00     0.000 A 
ATOM      5  C5  BNZ d   1       0.337   3.010   0.674  0.00  0.00     0.000 A 
ATOM      6  C6  BNZ d   1      -0.132   1.723   0.804  0.00  0.00     0.000 A 
ENDROOT
TORSDOF 0
ENDMDL
