MODEL 1
REMARK minimizedAffinity 1.18098974
REMARK minimizedRMSD -1
REMARK  0 active torsions:
REMARK  status: ('A' for Active; 'I' for Inactive)
ROOT
ATOM      1  C1  BNZ d   1       1.529  -0.756   2.780  0.00  0.00     0.000 A 
ATOM      2  C2  BNZ d   1       0.201  -0.570   2.505  0.00  0.00     0.000 A 
ATOM      3  C3  BNZ d   1      -0.243  -0.500   1.214  0.00  0.00     0.000 A 
ATOM      4  C4  BNZ d   1       0.646  -0.576   0.202  0.00  0.00     0.000 A 
ATOM      5  C5  BNZ d   1       1.990  -0.754   0.464  0.00  0.00     0.000 A 
ATOM      6  C6  BNZ d   1       2.428  -0.863   1.764  0.00  0.00     0.000 A 
ENDROOT
TORSDOF 0
ENDMDL
