MODEL 1
REMARK minimizedAffinity 2.01671886
REMARK minimizedRMSD -1
REMARK  0 active torsions:
REMARK  status: ('A' for Active; 'I' for Inactive)
ROOT
ATOM      1  C1  BNZ d   1      -5.999  -3.376   3.708  0.00  0.00     0.000 A 
ATOM      2  C2  BNZ d   1      -5.973  -2.641   2.553  0.00  0.00     0.000 A 
ATOM      3  C3  BNZ d   1      -5.930  -1.275   2.594  0.00  0.00     0.000 A 
ATOM      4  C4  BNZ d   1      -5.954  -0.646   3.787  0.00  0.00     0.000 A 
ATOM      5  C5  BNZ d   1      -5.990  -1.374   4.960  0.00  0.00     0.000 A 
ATOM      6  C6  BNZ d   1      -5.994  -2.749   4.916  0.00  0.00     0.000 A 
ENDROOT
TORSDOF 0
ENDMDL
