MODEL 1
REMARK minimizedAffinity 0.326994538
REMARK minimizedRMSD -1
REMARK  0 active torsions:
REMARK  status: ('A' for Active; 'I' for Inactive)
ROOT
ATOM      1  C1  BNZ d   1      -5.997  -1.272   3.580  0.00  0.00     0.000 A 
ATOM      2  C2  BNZ d   1      -5.978  -0.761   4.850  0.00  0.00     0.000 A 
ATOM      3  C3  BNZ d   1      -5.944  -1.589   5.937  0.00  0.00     0.000 A 
ATOM      4  C4  BNZ d   1      -5.971  -2.925   5.754  0.00  0.00     0.000 A 
ATOM      5  C5  BNZ d   1      -6.000  -3.455   4.479  0.00  0.00     0.000 A 
ATOM      6  C6  BNZ d   1      -5.994  -2.619   3.387  0.00  0.00     0.000 A 
ENDROOT
TORSDOF 0
ENDMDL
