MODEL 1
REMARK minimizedAffinity 1.74747562
REMARK minimizedRMSD -1
REMARK  0 active torsions:
REMARK  status: ('A' for Active; 'I' for Inactive)
ROOT
ATOM      1  C1  BNZ d   1      -5.979  -2.095   3.547  0.00  0.00     0.000 A 
ATOM      2  C2  BNZ d   1      -5.973  -3.459   3.661  0.00  0.00     0.000 A 
ATOM      3  C3  BNZ d   1      -5.999  -4.059   4.888  0.00  0.00     0.000 A 
ATOM      4  C4  BNZ d   1      -5.989  -3.295   6.000  0.00  0.00     0.000 A 
ATOM      5  C5  BNZ d   1      -5.986  -1.918   5.902  0.00  0.00     0.000 A 
ATOM      6  C6  BNZ d   1      -5.999  -1.318   4.664  0.00  0.00     0.000 A 
ENDROOT
TORSDOF 0
ENDMDL
