MODEL 1
REMARK minimizedAffinity 3.92772746
REMARK minimizedRMSD -1
REMARK  0 active torsions:
REMARK  status: ('A' for Active; 'I' for Inactive)
ROOT
ATOM      1  C1  BNZ d   1       0.771  -5.010  -0.514  0.00  0.00     0.000 A 
ATOM      2  C2  BNZ d   1      -0.502  -4.903  -1.009  0.00  0.00     0.000 A 
ATOM      3  C3  BNZ d   1      -1.110  -3.684  -1.119  0.00  0.00     0.000 A 
ATOM      4  C4  BNZ d   1      -0.461  -2.579  -0.697  0.00  0.00     0.000 A 
ATOM      5  C5  BNZ d   1       0.818  -2.671  -0.187  0.00  0.00     0.000 A 
ATOM      6  C6  BNZ d   1       1.442  -3.896  -0.114  0.00  0.00     0.000 A 
ENDROOT
TORSDOF 0
ENDMDL
