MODEL 1
REMARK minimizedAffinity -2.88735676
REMARK minimizedRMSD -1
REMARK  0 active torsions:
REMARK  status: ('A' for Active; 'I' for Inactive)
ROOT
ATOM      1  C1  BNZ d   1      -2.986   0.055  -1.910  0.00  0.00     0.000 A 
ATOM      2  C2  BNZ d   1      -2.435   1.307  -1.837  0.00  0.00     0.000 A 
ATOM      3  C3  BNZ d   1      -1.218   1.501  -1.245  0.00  0.00     0.000 A 
ATOM      4  C4  BNZ d   1      -0.574   0.453  -0.692  0.00  0.00     0.000 A 
ATOM      5  C5  BNZ d   1      -1.122  -0.813  -0.750  0.00  0.00     0.000 A 
ATOM      6  C6  BNZ d   1      -2.328  -1.012  -1.381  0.00  0.00     0.000 A 
ENDROOT
TORSDOF 0
ENDMDL
