MODEL 1
REMARK minimizedAffinity -4.53319788
REMARK minimizedRMSD -1
REMARK  1 active torsions:
REMARK  status: ('A' for Active; 'I' for Inactive)
REMARK    1  A    between atoms: C1_2  and  C2_3 
ROOT
ATOM      1  C2  UNL d   1      -2.237   2.836  -2.381  0.00  0.00    -0.073 A 
ATOM      2  C3  UNL d   1      -1.225   3.800  -2.457  0.00  0.00    -0.002 A 
ATOM      3  C4  UNL d   1       0.116   3.414  -2.474  0.00  0.00     0.004 A 
ATOM      4  C5  UNL d   1       0.459   2.064  -2.422  0.00  0.00    -0.004 A 
ATOM      5  C6  UNL d   1      -0.538   1.085  -2.357  0.00  0.00    -0.075 A 
ATOM      6  C7  UNL d   1      -0.185  -0.373  -2.299  0.00  0.00     0.076 C 
ATOM      7  C8  UNL d   1      -1.882   1.480  -2.338  0.00  0.00     0.001 A 
ENDROOT
BRANCH   1   8
ATOM      8  C1  UNL d   1      -3.686   3.247  -2.369  0.00  0.00     0.053 C 
ATOM      9  C   UNL d   1      -4.613   2.075  -2.653  0.00  0.00     0.018 C 
ENDBRANCH   1   8
TORSDOF 1
ENDMDL
