MODEL 1
REMARK minimizedAffinity -4.63870096
REMARK minimizedRMSD -1
REMARK  1 active torsions:
REMARK  status: ('A' for Active; 'I' for Inactive)
REMARK    1  A    between atoms: C1_2  and  C2_3 
ROOT
ATOM      1  C2  UNL d   1       0.034  -0.083  -0.613  0.00  0.00    -0.073 A 
ATOM      2  C3  UNL d   1       1.157  -0.781  -1.071  0.00  0.00    -0.002 A 
ATOM      3  C4  UNL d   1       2.007  -1.419  -0.167  0.00  0.00     0.004 A 
ATOM      4  C5  UNL d   1       1.740  -1.373   1.201  0.00  0.00    -0.004 A 
ATOM      5  C6  UNL d   1       0.616  -0.690   1.678  0.00  0.00    -0.075 A 
ATOM      6  C7  UNL d   1       0.316  -0.629   3.147  0.00  0.00     0.076 C 
ATOM      7  C8  UNL d   1      -0.232  -0.049   0.764  0.00  0.00     0.001 A 
ENDROOT
BRANCH   1   8
ATOM      8  C1  UNL d   1      -0.891   0.603  -1.585  0.00  0.00     0.053 C 
ATOM      9  C   UNL d   1      -0.327   1.930  -2.069  0.00  0.00     0.018 C 
ENDBRANCH   1   8
TORSDOF 1
ENDMDL
