MODEL 1
REMARK minimizedAffinity -2.77053857
REMARK minimizedRMSD -1
REMARK  1 active torsions:
REMARK  status: ('A' for Active; 'I' for Inactive)
REMARK    1  A    between atoms: C1_2  and  C2_3 
ROOT
ATOM      1  C2  UNL d   1      -0.369   0.291  -0.103  0.00  0.00    -0.073 A 
ATOM      2  C3  UNL d   1      -1.054  -0.838   0.361  0.00  0.00    -0.002 A 
ATOM      3  C4  UNL d   1      -0.627  -1.497   1.514  0.00  0.00     0.004 A 
ATOM      4  C5  UNL d   1       0.483  -1.031   2.219  0.00  0.00    -0.004 A 
ATOM      5  C6  UNL d   1       1.173   0.103   1.778  0.00  0.00    -0.075 A 
ATOM      6  C7  UNL d   1       2.370   0.616   2.524  0.00  0.00     0.076 C 
ATOM      7  C8  UNL d   1       0.740   0.758   0.618  0.00  0.00     0.001 A 
ENDROOT
BRANCH   1   8
ATOM      8  C1  UNL d   1      -0.831   1.010  -1.344  0.00  0.00     0.053 C 
ATOM      9  C   UNL d   1       0.336   1.523  -2.173  0.00  0.00     0.018 C 
ENDBRANCH   1   8
TORSDOF 1
ENDMDL
