MODEL 1
REMARK minimizedAffinity 0.584582508
REMARK minimizedRMSD -1
REMARK  1 active torsions:
REMARK  status: ('A' for Active; 'I' for Inactive)
REMARK    1  A    between atoms: C1_2  and  C2_3 
ROOT
ATOM      1  C2  UNL d   1      -0.011  -1.568   2.431  0.00  0.00    -0.073 A 
ATOM      2  C3  UNL d   1       1.245  -0.952   2.397  0.00  0.00    -0.002 A 
ATOM      3  C4  UNL d   1       1.543  -0.012   1.409  0.00  0.00     0.004 A 
ATOM      4  C5  UNL d   1       0.588   0.326   0.451  0.00  0.00    -0.004 A 
ATOM      5  C6  UNL d   1      -0.677  -0.270   0.475  0.00  0.00    -0.075 A 
ATOM      6  C7  UNL d   1      -1.715   0.081  -0.550  0.00  0.00     0.076 C 
ATOM      7  C8  UNL d   1      -0.968  -1.215   1.468  0.00  0.00     0.001 A 
ENDROOT
BRANCH   1   8
ATOM      8  C1  UNL d   1      -0.339  -2.579   3.499  0.00  0.00     0.053 C 
ATOM      9  C   UNL d   1      -1.169  -3.732   2.957  0.00  0.00     0.018 C 
ENDBRANCH   1   8
TORSDOF 1
ENDMDL
