MODEL 1
REMARK minimizedAffinity -4.41468716
REMARK minimizedRMSD -1
REMARK  1 active torsions:
REMARK  status: ('A' for Active; 'I' for Inactive)
REMARK    1  A    between atoms: C1_2  and  C2_3 
ROOT
ATOM      1  C2  UNL d   1      -0.073   0.004  -0.382  0.00  0.00    -0.073 A 
ATOM      2  C3  UNL d   1      -1.423   0.098  -0.022  0.00  0.00    -0.002 A 
ATOM      3  C4  UNL d   1      -1.805  -0.022   1.315  0.00  0.00     0.004 A 
ATOM      4  C5  UNL d   1      -0.845  -0.232   2.304  0.00  0.00    -0.004 A 
ATOM      5  C6  UNL d   1       0.510  -0.317   1.965  0.00  0.00    -0.075 A 
ATOM      6  C7  UNL d   1       1.555  -0.544   3.017  0.00  0.00     0.076 C 
ATOM      7  C8  UNL d   1       0.886  -0.197   0.621  0.00  0.00     0.001 A 
ENDROOT
BRANCH   1   8
ATOM      8  C1  UNL d   1       0.345   0.140  -1.823  0.00  0.00     0.053 C 
ATOM      9  C   UNL d   1       0.026   1.518  -2.381  0.00  0.00     0.018 C 
ENDBRANCH   1   8
TORSDOF 1
ENDMDL
