MODEL 1
REMARK minimizedAffinity -0.0812480226
REMARK minimizedRMSD -1
REMARK  1 active torsions:
REMARK  status: ('A' for Active; 'I' for Inactive)
REMARK    1  A    between atoms: C1_2  and  C2_3 
ROOT
ATOM      1  C2  UNL d   1      -0.518   1.801  -2.038  0.00  0.00    -0.073 A 
ATOM      2  C3  UNL d   1      -1.608   0.982  -2.355  0.00  0.00    -0.002 A 
ATOM      3  C4  UNL d   1      -1.837  -0.194  -1.640  0.00  0.00     0.004 A 
ATOM      4  C5  UNL d   1      -0.985  -0.560  -0.598  0.00  0.00    -0.004 A 
ATOM      5  C6  UNL d   1       0.102   0.252  -0.259  0.00  0.00    -0.075 A 
ATOM      6  C7  UNL d   1       1.029  -0.129   0.858  0.00  0.00     0.076 C 
ATOM      7  C8  UNL d   1       0.327   1.430  -0.983  0.00  0.00     0.001 A 
ENDROOT
BRANCH   1   8
ATOM      8  C1  UNL d   1      -0.270   3.075  -2.803  0.00  0.00     0.053 C 
ATOM      9  C   UNL d   1      -1.110   4.229  -2.278  0.00  0.00     0.018 C 
ENDBRANCH   1   8
TORSDOF 1
ENDMDL
