MODEL 1
REMARK minimizedAffinity -2.79836297
REMARK minimizedRMSD -1
REMARK  1 active torsions:
REMARK  status: ('A' for Active; 'I' for Inactive)
REMARK    1  A    between atoms: C1_2  and  C2_3 
ROOT
ATOM      1  C2  UNL d   1      -0.437   0.369  -0.191  0.00  0.00    -0.073 A 
ATOM      2  C3  UNL d   1      -1.678   0.122   0.407  0.00  0.00    -0.002 A 
ATOM      3  C4  UNL d   1      -1.746  -0.401   1.699  0.00  0.00     0.004 A 
ATOM      4  C5  UNL d   1      -0.577  -0.676   2.408  0.00  0.00    -0.004 A 
ATOM      5  C6  UNL d   1       0.673  -0.424   1.832  0.00  0.00    -0.075 A 
ATOM      6  C7  UNL d   1       1.940  -0.716   2.580  0.00  0.00     0.076 C 
ATOM      7  C8  UNL d   1       0.733   0.099   0.533  0.00  0.00     0.001 A 
ENDROOT
BRANCH   1   8
ATOM      8  C1  UNL d   1      -0.358   0.940  -1.583  0.00  0.00     0.053 C 
ATOM      9  C   UNL d   1      -1.708   1.441  -2.071  0.00  0.00     0.018 C 
ENDBRANCH   1   8
TORSDOF 1
ENDMDL
