MODEL 1
REMARK minimizedAffinity -3.47966266
REMARK minimizedRMSD -1
REMARK  1 active torsions:
REMARK  status: ('A' for Active; 'I' for Inactive)
REMARK    1  A    between atoms: C1_2  and  C2_3 
ROOT
ATOM      1  C2  UNL d   1      -0.265   0.430  -0.301  0.00  0.00    -0.073 A 
ATOM      2  C3  UNL d   1      -1.563   0.696   0.149  0.00  0.00    -0.002 A 
ATOM      3  C4  UNL d   1      -1.909   0.462   1.481  0.00  0.00     0.004 A 
ATOM      4  C5  UNL d   1      -0.961  -0.033   2.376  0.00  0.00    -0.004 A 
ATOM      5  C6  UNL d   1       0.345  -0.293   1.948  0.00  0.00    -0.075 A 
ATOM      6  C7  UNL d   1       1.376  -0.828   2.898  0.00  0.00     0.076 C 
ATOM      7  C8  UNL d   1       0.684  -0.058   0.609  0.00  0.00     0.001 A 
ENDROOT
BRANCH   1   8
ATOM      8  C1  UNL d   1       0.115   0.688  -1.736  0.00  0.00     0.053 C 
ATOM      9  C   UNL d   1      -0.630   1.878  -2.318  0.00  0.00     0.018 C 
ENDBRANCH   1   8
TORSDOF 1
ENDMDL
