MODEL 1
REMARK minimizedAffinity -2.74548006
REMARK minimizedRMSD -1
REMARK  1 active torsions:
REMARK  status: ('A' for Active; 'I' for Inactive)
REMARK    1  A    between atoms: C1_2  and  C2_3 
ROOT
ATOM      1  C2  UNL d   1       1.586  -0.830   2.018  0.00  0.00    -0.073 A 
ATOM      2  C3  UNL d   1       2.667  -1.694   2.222  0.00  0.00    -0.002 A 
ATOM      3  C4  UNL d   1       3.236  -2.379   1.147  0.00  0.00     0.004 A 
ATOM      4  C5  UNL d   1       2.734  -2.202  -0.142  0.00  0.00    -0.004 A 
ATOM      5  C6  UNL d   1       1.661  -1.333  -0.368  0.00  0.00    -0.075 A 
ATOM      6  C7  UNL d   1       1.108  -1.133  -1.749  0.00  0.00     0.076 C 
ATOM      7  C8  UNL d   1       1.094  -0.651   0.717  0.00  0.00     0.001 A 
ENDROOT
BRANCH   1   8
ATOM      8  C1  UNL d   1       0.973  -0.084   3.175  0.00  0.00     0.053 C 
ATOM      9  C   UNL d   1      -0.536   0.043   3.036  0.00  0.00     0.018 C 
ENDBRANCH   1   8
TORSDOF 1
ENDMDL
