MODEL 1
REMARK minimizedAffinity 13.147027
REMARK minimizedRMSD -1
REMARK  0 active torsions:
REMARK  status: ('A' for Active; 'I' for Inactive)
ROOT
ATOM      1  O1  BZF d   1       3.856  -2.927   0.638  0.00  0.00    -0.204 OA
ATOM      2  C2  BZF d   1       4.348  -3.374   1.849  0.00  0.00     0.174 A 
ATOM      3  C3  BZF d   1       3.546  -2.989   2.863  0.00  0.00    -0.012 A 
ATOM      4  C3A BZF d   1       2.438  -2.334   2.238  0.00  0.00    -0.107 A 
ATOM      5  C4  BZF d   1       1.302  -1.747   2.717  0.00  0.00     0.055 A 
ATOM      6  C5  BZF d   1       0.458  -1.132   1.847  0.00  0.00    -0.016 A 
ATOM      7  C6  BZF d   1       0.721  -1.081   0.494  0.00  0.00     0.022 A 
ATOM      8  C7  BZF d   1       1.833  -1.654  -0.029  0.00  0.00     0.029 A 
ATOM      9  C7A BZF d   1       2.671  -2.304   0.843  0.00  0.00     0.058 A 
ENDROOT
TORSDOF 0
ENDMDL
