MODEL 1
REMARK minimizedAffinity 18.4470997
REMARK minimizedRMSD -1
REMARK  0 active torsions:
REMARK  status: ('A' for Active; 'I' for Inactive)
ROOT
ATOM      1  O1  BZF d   1      -3.098  -1.872  -1.754  0.00  0.00    -0.204 OA
ATOM      2  C2  BZF d   1      -2.623  -0.710  -1.177  0.00  0.00     0.174 A 
ATOM      3  C3  BZF d   1      -3.267   0.367  -1.670  0.00  0.00    -0.012 A 
ATOM      4  C3A BZF d   1      -4.266  -0.160  -2.547  0.00  0.00    -0.107 A 
ATOM      5  C4  BZF d   1      -5.234   0.414  -3.321  0.00  0.00     0.055 A 
ATOM      6  C5  BZF d   1      -5.999  -0.378  -4.117  0.00  0.00    -0.016 A 
ATOM      7  C6  BZF d   1      -5.822  -1.745  -4.167  0.00  0.00     0.022 A 
ATOM      8  C7  BZF d   1      -4.879  -2.360  -3.413  0.00  0.00     0.029 A 
ATOM      9  C7A BZF d   1      -4.125  -1.567  -2.583  0.00  0.00     0.058 A 
ENDROOT
TORSDOF 0
ENDMDL
