MODEL 1
REMARK minimizedAffinity -0.885680735
REMARK minimizedRMSD -1
REMARK  0 active torsions:
REMARK  status: ('A' for Active; 'I' for Inactive)
ROOT
ATOM      1  O1  BZF d   1       5.981   3.981  -5.956  0.00  0.00    -0.204 OA
ATOM      2  C2  BZF d   1       5.900   2.602  -5.941  0.00  0.00     0.174 A 
ATOM      3  C3  BZF d   1       4.615   2.198  -5.895  0.00  0.00    -0.012 A 
ATOM      4  C3A BZF d   1       3.840   3.399  -5.973  0.00  0.00    -0.107 A 
ATOM      5  C4  BZF d   1       2.498   3.651  -5.989  0.00  0.00     0.055 A 
ATOM      6  C5  BZF d   1       2.068   4.940  -5.999  0.00  0.00    -0.016 A 
ATOM      7  C6  BZF d   1       2.951   6.000  -5.987  0.00  0.00     0.022 A 
ATOM      8  C7  BZF d   1       4.291   5.800  -5.976  0.00  0.00     0.029 A 
ATOM      9  C7A BZF d   1       4.729   4.498  -6.000  0.00  0.00     0.058 A 
ENDROOT
TORSDOF 0
ENDMDL
