MODEL 1
REMARK minimizedAffinity 4.59035587
REMARK minimizedRMSD -1
REMARK  0 active torsions:
REMARK  status: ('A' for Active; 'I' for Inactive)
ROOT
ATOM      1  O1  BZF d   1      -3.751   2.156  -4.132  0.00  0.00    -0.204 OA
ATOM      2  C2  BZF d   1      -2.611   2.641  -3.520  0.00  0.00     0.174 A 
ATOM      3  C3  BZF d   1      -2.099   1.727  -2.671  0.00  0.00    -0.012 A 
ATOM      4  C3A BZF d   1      -2.921   0.566  -2.826  0.00  0.00    -0.107 A 
ATOM      5  C4  BZF d   1      -2.905  -0.678  -2.262  0.00  0.00     0.055 A 
ATOM      6  C5  BZF d   1      -3.893  -1.557  -2.576  0.00  0.00    -0.016 A 
ATOM      7  C6  BZF d   1      -4.912  -1.225  -3.444  0.00  0.00     0.022 A 
ATOM      8  C7  BZF d   1      -4.967  -0.005  -4.032  0.00  0.00     0.029 A 
ATOM      9  C7A BZF d   1      -3.952   0.874  -3.743  0.00  0.00     0.058 A 
ENDROOT
TORSDOF 0
ENDMDL
