MODEL 1
REMARK minimizedAffinity 7.06984043
REMARK minimizedRMSD -1
REMARK  0 active torsions:
REMARK  status: ('A' for Active; 'I' for Inactive)
ROOT
ATOM      1  O1  BZF d   1       3.456  -1.667   4.188  0.00  0.00    -0.204 OA
ATOM      2  C2  BZF d   1       4.565  -2.405   4.555  0.00  0.00     0.174 A 
ATOM      3  C3  BZF d   1       4.809  -3.381   3.657  0.00  0.00    -0.012 A 
ATOM      4  C3A BZF d   1       3.844  -3.187   2.619  0.00  0.00    -0.107 A 
ATOM      5  C4  BZF d   1       3.588  -3.831   1.442  0.00  0.00     0.055 A 
ATOM      6  C5  BZF d   1       2.527  -3.437   0.690  0.00  0.00    -0.016 A 
ATOM      7  C6  BZF d   1       1.698  -2.408   1.087  0.00  0.00     0.022 A 
ATOM      8  C7  BZF d   1       1.914  -1.736   2.244  0.00  0.00     0.029 A 
ATOM      9  C7A BZF d   1       3.006  -2.110   2.989  0.00  0.00     0.058 A 
ENDROOT
TORSDOF 0
ENDMDL
