MODEL 1
REMARK minimizedAffinity 12.1838455
REMARK minimizedRMSD -1
REMARK  0 active torsions:
REMARK  status: ('A' for Active; 'I' for Inactive)
ROOT
ATOM      1  O1  BZF d   1       5.354  -3.893   0.045  0.00  0.00    -0.204 OA
ATOM      2  C2  BZF d   1       5.999  -2.696   0.295  0.00  0.00     0.174 A 
ATOM      3  C3  BZF d   1       5.120  -1.752   0.687  0.00  0.00    -0.012 A 
ATOM      4  C3A BZF d   1       3.859  -2.423   0.772  0.00  0.00    -0.107 A 
ATOM      5  C4  BZF d   1       2.603  -2.020   1.124  0.00  0.00     0.055 A 
ATOM      6  C5  BZF d   1       1.575  -2.905   1.030  0.00  0.00    -0.016 A 
ATOM      7  C6  BZF d   1       1.766  -4.196   0.583  0.00  0.00     0.022 A 
ATOM      8  C7  BZF d   1       2.995  -4.642   0.227  0.00  0.00     0.029 A 
ATOM      9  C7A BZF d   1       4.041  -3.761   0.352  0.00  0.00     0.058 A 
ENDROOT
TORSDOF 0
ENDMDL
