MODEL 1
REMARK minimizedAffinity 4.07446194
REMARK minimizedRMSD -1
REMARK  0 active torsions:
REMARK  status: ('A' for Active; 'I' for Inactive)
ROOT
ATOM      1  O1  BZF d   1       5.927  -3.795   2.240  0.00  0.00    -0.204 OA
ATOM      2  C2  BZF d   1       5.608  -3.864   3.583  0.00  0.00     0.174 A 
ATOM      3  C3  BZF d   1       4.308  -3.566   3.782  0.00  0.00    -0.012 A 
ATOM      4  C3A BZF d   1       3.759  -3.384   2.473  0.00  0.00    -0.107 A 
ATOM      5  C4  BZF d   1       2.508  -3.086   2.012  0.00  0.00     0.055 A 
ATOM      6  C5  BZF d   1       2.321  -2.906   0.678  0.00  0.00    -0.016 A 
ATOM      7  C6  BZF d   1       3.361  -3.011  -0.221  0.00  0.00     0.022 A 
ATOM      8  C7  BZF d   1       4.619  -3.310   0.187  0.00  0.00     0.029 A 
ATOM      9  C7A BZF d   1       4.805  -3.525   1.531  0.00  0.00     0.058 A 
ENDROOT
TORSDOF 0
ENDMDL
