MODEL 1
REMARK minimizedAffinity 13.108984
REMARK minimizedRMSD -1
REMARK  0 active torsions:
REMARK  status: ('A' for Active; 'I' for Inactive)
ROOT
ATOM      1  C   UNL d   1       6.000   2.457  -1.547  0.00  0.00     0.023 A 
ATOM      2  C1  UNL d   1       5.319   1.868  -2.612  0.00  0.00     0.003 A 
ATOM      3  C2  UNL d   1       4.196   1.075  -2.372  0.00  0.00     0.048 A 
ATOM      4  C3  UNL d   1       3.757   0.876  -1.063  0.00  0.00     0.023 A 
ATOM      5  C4  UNL d   1       4.434   1.464   0.006  0.00  0.00     0.048 A 
ATOM      6  C5  UNL d   1       5.558   2.255  -0.239  0.00  0.00     0.003 A 
ATOM      7  I   UNL d   1       2.084  -0.304  -0.703  0.00  0.00    -0.146 I 
ENDROOT
TORSDOF 0
ENDMDL
