MODEL 1
REMARK minimizedAffinity 9.91651917
REMARK minimizedRMSD -1
REMARK  0 active torsions:
REMARK  status: ('A' for Active; 'I' for Inactive)
ROOT
ATOM      1  C   UNL d   1       1.869   1.751   4.101  0.00  0.00     0.023 A 
ATOM      2  C1  UNL d   1       0.655   2.301   4.516  0.00  0.00     0.003 A 
ATOM      3  C2  UNL d   1       0.223   3.520   3.991  0.00  0.00     0.048 A 
ATOM      4  C3  UNL d   1       1.009   4.185   3.050  0.00  0.00     0.023 A 
ATOM      5  C4  UNL d   1       2.224   3.638   2.631  0.00  0.00     0.048 A 
ATOM      6  C5  UNL d   1       2.652   2.419   3.160  0.00  0.00     0.003 A 
ATOM      7  I   UNL d   1       0.368   6.000   2.266  0.00  0.00    -0.146 I 
ENDROOT
TORSDOF 0
ENDMDL
