MODEL 1
REMARK minimizedAffinity -2.85074496
REMARK minimizedRMSD -1
REMARK  0 active torsions:
REMARK  status: ('A' for Active; 'I' for Inactive)
ROOT
ATOM      1  C   UNL d   1       1.317   3.054   4.058  0.00  0.00     0.023 A 
ATOM      2  C1  UNL d   1       1.406   3.201   5.443  0.00  0.00     0.003 A 
ATOM      3  C2  UNL d   1       2.427   3.973   6.000  0.00  0.00     0.048 A 
ATOM      4  C3  UNL d   1       3.356   4.597   5.167  0.00  0.00     0.023 A 
ATOM      5  C4  UNL d   1       3.270   4.453   3.781  0.00  0.00     0.048 A 
ATOM      6  C5  UNL d   1       2.248   3.679   3.229  0.00  0.00     0.003 A 
ATOM      7  I   UNL d   1       4.876   5.747   5.994  0.00  0.00    -0.146 I 
ENDROOT
TORSDOF 0
ENDMDL
