MODEL 1
REMARK minimizedAffinity 1.62167704
REMARK minimizedRMSD -1
REMARK  0 active torsions:
REMARK  status: ('A' for Active; 'I' for Inactive)
ROOT
ATOM      1  C   UNL d   1       1.963   3.539   2.959  0.00  0.00     0.023 A 
ATOM      2  C1  UNL d   1       3.284   3.107   3.073  0.00  0.00     0.003 A 
ATOM      3  C2  UNL d   1       4.169   3.777   3.920  0.00  0.00     0.048 A 
ATOM      4  C3  UNL d   1       3.726   4.880   4.650  0.00  0.00     0.023 A 
ATOM      5  C4  UNL d   1       2.405   5.316   4.540  0.00  0.00     0.048 A 
ATOM      6  C5  UNL d   1       1.524   4.642   3.691  0.00  0.00     0.003 A 
ATOM      7  I   UNL d   1       5.041   5.880   5.911  0.00  0.00    -0.146 I 
ENDROOT
TORSDOF 0
ENDMDL
