MODEL 1
REMARK minimizedAffinity 7.76395655
REMARK minimizedRMSD -1
REMARK  0 active torsions:
REMARK  status: ('A' for Active; 'I' for Inactive)
ROOT
ATOM      1  C   UNL d   1       4.113   4.811   3.461  0.00  0.00     0.023 A 
ATOM      2  C1  UNL d   1       3.332   4.090   2.558  0.00  0.00     0.003 A 
ATOM      3  C2  UNL d   1       2.256   3.328   3.016  0.00  0.00     0.048 A 
ATOM      4  C3  UNL d   1       1.965   3.292   4.380  0.00  0.00     0.023 A 
ATOM      5  C4  UNL d   1       2.744   4.011   5.287  0.00  0.00     0.048 A 
ATOM      6  C5  UNL d   1       3.820   4.771   4.824  0.00  0.00     0.003 A 
ATOM      7  I   UNL d   1       0.364   2.158   5.065  0.00  0.00    -0.146 I 
ENDROOT
TORSDOF 0
ENDMDL
