MODEL 1
REMARK minimizedAffinity 3.19882751
REMARK minimizedRMSD -1
REMARK  0 active torsions:
REMARK  status: ('A' for Active; 'I' for Inactive)
ROOT
ATOM      1  C   UNL d   1      -0.256   2.796   0.150  0.00  0.00     0.023 A 
ATOM      2  C1  UNL d   1       0.623   1.992  -0.578  0.00  0.00     0.003 A 
ATOM      3  C2  UNL d   1       0.140   0.886  -1.280  0.00  0.00     0.048 A 
ATOM      4  C3  UNL d   1      -1.223   0.590  -1.252  0.00  0.00     0.023 A 
ATOM      5  C4  UNL d   1      -2.105   1.392  -0.526  0.00  0.00     0.048 A 
ATOM      6  C5  UNL d   1      -1.618   2.496   0.175  0.00  0.00     0.003 A 
ATOM      7  I   UNL d   1      -1.944  -1.056  -2.296  0.00  0.00    -0.146 I 
ENDROOT
TORSDOF 0
ENDMDL
