MODEL 1
REMARK minimizedAffinity 6.24202204
REMARK minimizedRMSD -1
REMARK  0 active torsions:
REMARK  status: ('A' for Active; 'I' for Inactive)
ROOT
ATOM      1  C   UNL d   1       2.992   0.381  -0.060  0.00  0.00     0.023 A 
ATOM      2  C1  UNL d   1       2.846   0.393  -1.447  0.00  0.00     0.003 A 
ATOM      3  C2  UNL d   1       3.707   1.159  -2.235  0.00  0.00     0.048 A 
ATOM      4  C3  UNL d   1       4.713   1.911  -1.629  0.00  0.00     0.023 A 
ATOM      5  C4  UNL d   1       4.864   1.902  -0.241  0.00  0.00     0.048 A 
ATOM      6  C5  UNL d   1       4.000   1.134   0.542  0.00  0.00     0.003 A 
ATOM      7  I   UNL d   1       5.996   3.053  -2.799  0.00  0.00    -0.146 I 
ENDROOT
TORSDOF 0
ENDMDL
