MODEL 1
REMARK minimizedAffinity 12.7517195
REMARK minimizedRMSD -1
REMARK  0 active torsions:
REMARK  status: ('A' for Active; 'I' for Inactive)
ROOT
ATOM      1  C2' OXE d   1      -0.900   2.172   0.340  0.00  0.00     0.078 C 
ATOM      2  C1' OXE d   1      -0.921   3.059  -2.323  0.00  0.00     0.078 C 
ATOM      3  C1  OXE d   1       0.168   2.101  -1.909  0.00  0.00    -0.078 A 
ATOM      4  C2  OXE d   1       0.198   1.709  -0.593  0.00  0.00    -0.078 A 
ATOM      5  C3  OXE d   1       1.148   0.783  -0.171  0.00  0.00     0.003 A 
ATOM      6  C4  OXE d   1       2.166   0.367  -1.037  0.00  0.00    -0.002 A 
ATOM      7  C5  OXE d   1       2.177   0.785  -2.372  0.00  0.00    -0.002 A 
ATOM      8  C6  OXE d   1       1.163   1.617  -2.834  0.00  0.00     0.003 A 
ENDROOT
TORSDOF 0
ENDMDL
