MODEL 1
REMARK minimizedAffinity 9.50741291
REMARK minimizedRMSD -1
REMARK  0 active torsions:
REMARK  status: ('A' for Active; 'I' for Inactive)
ROOT
ATOM      1  C2' OXE d   1      -5.174  -5.226   4.119  0.00  0.00     0.078 C 
ATOM      2  C1' OXE d   1      -5.980  -3.304   5.999  0.00  0.00     0.078 C 
ATOM      3  C1  OXE d   1      -4.546  -3.274   5.534  0.00  0.00    -0.078 A 
ATOM      4  C2  OXE d   1      -4.148  -4.247   4.648  0.00  0.00    -0.078 A 
ATOM      5  C3  OXE d   1      -2.850  -4.232   4.145  0.00  0.00     0.003 A 
ATOM      6  C4  OXE d   1      -1.905  -3.330   4.648  0.00  0.00    -0.002 A 
ATOM      7  C5  OXE d   1      -2.280  -2.356   5.579  0.00  0.00    -0.002 A 
ATOM      8  C6  OXE d   1      -3.603  -2.288   6.000  0.00  0.00     0.003 A 
ENDROOT
TORSDOF 0
ENDMDL
