MODEL 1
REMARK minimizedAffinity 2.5404098
REMARK minimizedRMSD -1
REMARK  0 active torsions:
REMARK  status: ('A' for Active; 'I' for Inactive)
ROOT
ATOM      1  C2' OXE d   1      -5.624   2.663  -5.995  0.00  0.00     0.078 C 
ATOM      2  C1' OXE d   1      -3.172   1.844  -4.902  0.00  0.00     0.078 C 
ATOM      3  C1  OXE d   1      -3.360   3.313  -5.184  0.00  0.00    -0.078 A 
ATOM      4  C2  OXE d   1      -4.546   3.699  -5.762  0.00  0.00    -0.078 A 
ATOM      5  C3  OXE d   1      -4.793   5.049  -5.993  0.00  0.00     0.003 A 
ATOM      6  C4  OXE d   1      -3.787   6.000  -5.785  0.00  0.00    -0.002 A 
ATOM      7  C5  OXE d   1      -2.558   5.623  -5.234  0.00  0.00    -0.002 A 
ATOM      8  C6  OXE d   1      -2.344   4.293  -4.889  0.00  0.00     0.003 A 
ENDROOT
TORSDOF 0
ENDMDL
