MODEL 1
REMARK minimizedAffinity 1.03463531
REMARK minimizedRMSD -1
REMARK  0 active torsions:
REMARK  status: ('A' for Active; 'I' for Inactive)
ROOT
ATOM      1  C2' OXE d   1      -2.342   4.419  -4.527  0.00  0.00     0.078 C 
ATOM      2  C1' OXE d   1      -4.324   5.995  -5.740  0.00  0.00     0.078 C 
ATOM      3  C1  OXE d   1      -4.598   4.521  -5.579  0.00  0.00    -0.078 A 
ATOM      4  C2  OXE d   1      -3.604   3.749  -5.027  0.00  0.00    -0.078 A 
ATOM      5  C3  OXE d   1      -3.826   2.393  -4.806  0.00  0.00     0.003 A 
ATOM      6  C4  OXE d   1      -4.991   1.779  -5.281  0.00  0.00    -0.002 A 
ATOM      7  C5  OXE d   1      -6.000   2.540  -5.882  0.00  0.00    -0.002 A 
ATOM      8  C6  OXE d   1      -5.837   3.915  -6.000  0.00  0.00     0.003 A 
ENDROOT
TORSDOF 0
ENDMDL
