MODEL 1
REMARK minimizedAffinity 12.9121161
REMARK minimizedRMSD -1
REMARK  0 active torsions:
REMARK  status: ('A' for Active; 'I' for Inactive)
ROOT
ATOM      1  C2' OXE d   1       1.970  -1.860   1.254  0.00  0.00     0.078 C 
ATOM      2  C1' OXE d   1       1.112   0.223   2.928  0.00  0.00     0.078 C 
ATOM      3  C1  OXE d   1       0.505  -1.142   3.137  0.00  0.00    -0.078 A 
ATOM      4  C2  OXE d   1       0.896  -2.144   2.282  0.00  0.00    -0.078 A 
ATOM      5  C3  OXE d   1       0.408  -3.435   2.465  0.00  0.00     0.003 A 
ATOM      6  C4  OXE d   1      -0.592  -3.687   3.412  0.00  0.00    -0.002 A 
ATOM      7  C5  OXE d   1      -1.033  -2.671   4.267  0.00  0.00    -0.002 A 
ATOM      8  C6  OXE d   1      -0.465  -1.405   4.170  0.00  0.00     0.003 A 
ENDROOT
TORSDOF 0
ENDMDL
