MODEL 1
REMARK minimizedAffinity 5.26955748
REMARK minimizedRMSD -1
REMARK  0 active torsions:
REMARK  status: ('A' for Active; 'I' for Inactive)
ROOT
ATOM      1  C2' OXE d   1      -0.913   3.495  -2.639  0.00  0.00     0.078 C 
ATOM      2  C1' OXE d   1      -1.164   6.000  -3.881  0.00  0.00     0.078 C 
ATOM      3  C1  OXE d   1      -1.997   4.862  -4.417  0.00  0.00    -0.078 A 
ATOM      4  C2  OXE d   1      -1.833   3.629  -3.833  0.00  0.00    -0.078 A 
ATOM      5  C3  OXE d   1      -2.617   2.558  -4.253  0.00  0.00     0.003 A 
ATOM      6  C4  OXE d   1      -3.457   2.688  -5.365  0.00  0.00    -0.002 A 
ATOM      7  C5  OXE d   1      -3.609   3.926  -6.000  0.00  0.00    -0.002 A 
ATOM      8  C6  OXE d   1      -2.919   5.030  -5.513  0.00  0.00     0.003 A 
ENDROOT
TORSDOF 0
ENDMDL
