MODEL 1
REMARK minimizedAffinity 4.45992279
REMARK minimizedRMSD -1
REMARK  0 active torsions:
REMARK  status: ('A' for Active; 'I' for Inactive)
ROOT
ATOM      1  C2' OXE d   1      -5.061   3.028  -5.996  0.00  0.00     0.078 C 
ATOM      2  C1' OXE d   1      -4.627   5.801  -5.997  0.00  0.00     0.078 C 
ATOM      3  C1  OXE d   1      -3.500   4.913  -5.533  0.00  0.00    -0.078 A 
ATOM      4  C2  OXE d   1      -3.737   3.560  -5.491  0.00  0.00    -0.078 A 
ATOM      5  C3  OXE d   1      -2.714   2.691  -5.123  0.00  0.00     0.003 A 
ATOM      6  C4  OXE d   1      -1.496   3.192  -4.648  0.00  0.00    -0.002 A 
ATOM      7  C5  OXE d   1      -1.247   4.569  -4.644  0.00  0.00    -0.002 A 
ATOM      8  C6  OXE d   1      -2.221   5.438  -5.122  0.00  0.00     0.003 A 
ENDROOT
TORSDOF 0
ENDMDL
