MODEL 1
REMARK minimizedAffinity 20.607336
REMARK minimizedRMSD -1
REMARK  0 active torsions:
REMARK  status: ('A' for Active; 'I' for Inactive)
ROOT
ATOM      1  C2' OXE d   1      -1.473   1.804  -0.078  0.00  0.00     0.078 C 
ATOM      2  C1' OXE d   1      -3.689   1.071   1.481  0.00  0.00     0.078 C 
ATOM      3  C1  OXE d   1      -3.592   2.506   1.027  0.00  0.00    -0.078 A 
ATOM      4  C2  OXE d   1      -2.480   2.867   0.304  0.00  0.00    -0.078 A 
ATOM      5  C3  OXE d   1      -2.368   4.165  -0.185  0.00  0.00     0.003 A 
ATOM      6  C4  OXE d   1      -3.299   5.144   0.182  0.00  0.00    -0.002 A 
ATOM      7  C5  OXE d   1      -4.418   4.807   0.951  0.00  0.00    -0.002 A 
ATOM      8  C6  OXE d   1      -4.601   3.486   1.345  0.00  0.00     0.003 A 
ENDROOT
TORSDOF 0
ENDMDL
