MODEL 1
REMARK minimizedAffinity 11.6582975
REMARK minimizedRMSD -1
REMARK  0 active torsions:
REMARK  status: ('A' for Active; 'I' for Inactive)
ROOT
ATOM      1  C2' OXE d   1      -1.611   2.460  -4.122  0.00  0.00     0.078 C 
ATOM      2  C1' OXE d   1      -4.176   2.197  -5.231  0.00  0.00     0.078 C 
ATOM      3  C1  OXE d   1      -3.500   3.542  -5.334  0.00  0.00    -0.078 A 
ATOM      4  C2  OXE d   1      -2.264   3.674  -4.747  0.00  0.00    -0.078 A 
ATOM      5  C3  OXE d   1      -1.572   4.877  -4.860  0.00  0.00     0.003 A 
ATOM      6  C4  OXE d   1      -2.188   5.997  -5.432  0.00  0.00    -0.002 A 
ATOM      7  C5  OXE d   1      -3.462   5.895  -6.000  0.00  0.00    -0.002 A 
ATOM      8  C6  OXE d   1      -4.113   4.666  -5.997  0.00  0.00     0.003 A 
ENDROOT
TORSDOF 0
ENDMDL
