MODEL 1
REMARK minimizedAffinity 19.6635075
REMARK minimizedRMSD -1
REMARK  0 active torsions:
REMARK  status: ('A' for Active; 'I' for Inactive)
ROOT
ATOM      1  C2' OXE d   1      -1.581   0.686   4.411  0.00  0.00     0.078 C 
ATOM      2  C1' OXE d   1       0.592  -0.936   3.685  0.00  0.00     0.078 C 
ATOM      3  C1  OXE d   1      -0.521  -1.567   4.482  0.00  0.00    -0.078 A 
ATOM      4  C2  OXE d   1      -1.558  -0.755   4.873  0.00  0.00    -0.078 A 
ATOM      5  C3  OXE d   1      -2.638  -1.298   5.564  0.00  0.00     0.003 A 
ATOM      6  C4  OXE d   1      -2.604  -2.629   5.997  0.00  0.00    -0.002 A 
ATOM      7  C5  OXE d   1      -1.539  -3.464   5.644  0.00  0.00    -0.002 A 
ATOM      8  C6  OXE d   1      -0.512  -2.961   4.852  0.00  0.00     0.003 A 
ENDROOT
TORSDOF 0
ENDMDL
