MODEL 1
REMARK minimizedAffinity 7.08961487
REMARK minimizedRMSD -1
REMARK  0 active torsions:
REMARK  status: ('A' for Active; 'I' for Inactive)
ROOT
ATOM      1  C2' OXE d   1      -4.534   3.278  -5.380  0.00  0.00     0.078 C 
ATOM      2  C1' OXE d   1      -4.207   5.996  -5.999  0.00  0.00     0.078 C 
ATOM      3  C1  OXE d   1      -3.107   5.313  -5.226  0.00  0.00    -0.078 A 
ATOM      4  C2  OXE d   1      -3.297   3.995  -4.887  0.00  0.00    -0.078 A 
ATOM      5  C3  OXE d   1      -2.289   3.303  -4.221  0.00  0.00     0.003 A 
ATOM      6  C4  OXE d   1      -1.152   3.977  -3.759  0.00  0.00    -0.002 A 
ATOM      7  C5  OXE d   1      -0.958   5.329  -4.059  0.00  0.00    -0.002 A 
ATOM      8  C6  OXE d   1      -1.903   6.000  -4.826  0.00  0.00     0.003 A 
ENDROOT
TORSDOF 0
ENDMDL
