MODEL 1
REMARK minimizedAffinity 0.827633679
REMARK minimizedRMSD -1
REMARK  0 active torsions:
REMARK  status: ('A' for Active; 'I' for Inactive)
ROOT
ATOM      1  C2' OXE d   1      -4.638   5.944  -5.971  0.00  0.00     0.078 C 
ATOM      2  C1' OXE d   1      -4.535   3.138  -5.983  0.00  0.00     0.078 C 
ATOM      3  C1  OXE d   1      -3.310   3.885  -5.517  0.00  0.00    -0.078 A 
ATOM      4  C2  OXE d   1      -3.353   5.258  -5.559  0.00  0.00    -0.078 A 
ATOM      5  C3  OXE d   1      -2.270   5.996  -5.089  0.00  0.00     0.003 A 
ATOM      6  C4  OXE d   1      -1.082   5.354  -4.719  0.00  0.00    -0.002 A 
ATOM      7  C5  OXE d   1      -1.004   3.957  -4.707  0.00  0.00    -0.002 A 
ATOM      8  C6  OXE d   1      -2.120   3.209  -5.062  0.00  0.00     0.003 A 
ENDROOT
TORSDOF 0
ENDMDL
