MODEL 1
REMARK minimizedAffinity 13.7350798
REMARK minimizedRMSD -1
REMARK  0 active torsions:
REMARK  status: ('A' for Active; 'I' for Inactive)
ROOT
ATOM      1  C2' OXE d   1       0.788   0.573   2.603  0.00  0.00     0.078 C 
ATOM      2  C1' OXE d   1      -1.884   0.504   3.458  0.00  0.00     0.078 C 
ATOM      3  C1  OXE d   1      -1.595   1.096   2.102  0.00  0.00    -0.078 A 
ATOM      4  C2  OXE d   1      -0.280   1.169   1.711  0.00  0.00    -0.078 A 
ATOM      5  C3  OXE d   1       0.038   1.656   0.446  0.00  0.00     0.003 A 
ATOM      6  C4  OXE d   1      -0.955   2.213  -0.369  0.00  0.00    -0.002 A 
ATOM      7  C5  OXE d   1      -2.296   2.186   0.027  0.00  0.00    -0.002 A 
ATOM      8  C6  OXE d   1      -2.638   1.593   1.238  0.00  0.00     0.003 A 
ENDROOT
TORSDOF 0
ENDMDL
