MODEL 1
REMARK minimizedAffinity 9.05862331
REMARK minimizedRMSD -1
REMARK  0 active torsions:
REMARK  status: ('A' for Active; 'I' for Inactive)
ROOT
ATOM      1  C2' OXE d   1      -3.645   2.327  -4.877  0.00  0.00     0.078 C 
ATOM      2  C1' OXE d   1      -0.864   2.262  -5.250  0.00  0.00     0.078 C 
ATOM      3  C1  OXE d   1      -1.497   3.589  -4.913  0.00  0.00    -0.078 A 
ATOM      4  C2  OXE d   1      -2.864   3.620  -4.777  0.00  0.00    -0.078 A 
ATOM      5  C3  OXE d   1      -3.494   4.807  -4.413  0.00  0.00     0.003 A 
ATOM      6  C4  OXE d   1      -2.766   6.000  -4.333  0.00  0.00    -0.002 A 
ATOM      7  C5  OXE d   1      -1.377   5.997  -4.506  0.00  0.00    -0.002 A 
ATOM      8  C6  OXE d   1      -0.724   4.795  -4.754  0.00  0.00     0.003 A 
ENDROOT
TORSDOF 0
ENDMDL
