MODEL 1
REMARK minimizedAffinity 8.27933407
REMARK minimizedRMSD -1
REMARK  0 active torsions:
REMARK  status: ('A' for Active; 'I' for Inactive)
ROOT
ATOM      1  C2' OXE d   1      -5.804  -2.998   6.000  0.00  0.00     0.078 C 
ATOM      2  C1' OXE d   1      -4.617  -5.051   4.498  0.00  0.00     0.078 C 
ATOM      3  C1  OXE d   1      -3.757  -3.872   4.880  0.00  0.00    -0.078 A 
ATOM      4  C2  OXE d   1      -4.359  -2.850   5.575  0.00  0.00    -0.078 A 
ATOM      5  C3  OXE d   1      -3.598  -1.764   6.000  0.00  0.00     0.003 A 
ATOM      6  C4  OXE d   1      -2.265  -1.631   5.594  0.00  0.00    -0.002 A 
ATOM      7  C5  OXE d   1      -1.644  -2.641   4.852  0.00  0.00    -0.002 A 
ATOM      8  C6  OXE d   1      -2.363  -3.786   4.524  0.00  0.00     0.003 A 
ENDROOT
TORSDOF 0
ENDMDL
