MODEL 1
REMARK minimizedAffinity 2.91052938
REMARK minimizedRMSD -1
REMARK  0 active torsions:
REMARK  status: ('A' for Active; 'I' for Inactive)
ROOT
ATOM      1  C2' OXE d   1      -1.044   6.000  -5.340  0.00  0.00     0.078 C 
ATOM      2  C1' OXE d   1      -3.774   5.997  -5.994  0.00  0.00     0.078 C 
ATOM      3  C1  OXE d   1      -3.199   4.751  -5.367  0.00  0.00    -0.078 A 
ATOM      4  C2  OXE d   1      -1.853   4.745  -5.093  0.00  0.00    -0.078 A 
ATOM      5  C3  OXE d   1      -1.283   3.642  -4.464  0.00  0.00     0.003 A 
ATOM      6  C4  OXE d   1      -2.036   2.481  -4.248  0.00  0.00    -0.002 A 
ATOM      7  C5  OXE d   1      -3.400   2.453  -4.556  0.00  0.00    -0.002 A 
ATOM      8  C6  OXE d   1      -4.005   3.591  -5.075  0.00  0.00     0.003 A 
ENDROOT
TORSDOF 0
ENDMDL
