MODEL 1
REMARK minimizedAffinity 19.300127
REMARK minimizedRMSD -1
REMARK  0 active torsions:
REMARK  status: ('A' for Active; 'I' for Inactive)
ROOT
ATOM      1  C2' OXE d   1       0.432   0.755   2.193  0.00  0.00     0.078 C 
ATOM      2  C1' OXE d   1      -1.755   0.828   3.951  0.00  0.00     0.078 C 
ATOM      3  C1  OXE d   1      -1.976   1.293   2.533  0.00  0.00    -0.078 A 
ATOM      4  C2  OXE d   1      -0.889   1.298   1.693  0.00  0.00    -0.078 A 
ATOM      5  C3  OXE d   1      -1.049   1.665   0.360  0.00  0.00     0.003 A 
ATOM      6  C4  OXE d   1      -2.272   2.176  -0.092  0.00  0.00    -0.002 A 
ATOM      7  C5  OXE d   1      -3.382   2.216   0.758  0.00  0.00    -0.002 A 
ATOM      8  C6  OXE d   1      -3.262   1.740   2.059  0.00  0.00     0.003 A 
ENDROOT
TORSDOF 0
ENDMDL
