MODEL 1
REMARK minimizedAffinity 12.7936039
REMARK minimizedRMSD -1
REMARK  0 active torsions:
REMARK  status: ('A' for Active; 'I' for Inactive)
ROOT
ATOM      1  C2' OXE d   1      -3.762  -2.965   4.125  0.00  0.00     0.078 C 
ATOM      2  C1' OXE d   1      -2.568  -0.792   5.441  0.00  0.00     0.078 C 
ATOM      3  C1  OXE d   1      -1.811  -2.096   5.407  0.00  0.00    -0.078 A 
ATOM      4  C2  OXE d   1      -2.424  -3.167   4.801  0.00  0.00    -0.078 A 
ATOM      5  C3  OXE d   1      -1.747  -4.378   4.694  0.00  0.00     0.003 A 
ATOM      6  C4  OXE d   1      -0.513  -4.560   5.331  0.00  0.00    -0.002 A 
ATOM      7  C5  OXE d   1       0.110  -3.494   5.988  0.00  0.00    -0.002 A 
ATOM      8  C6  OXE d   1      -0.504  -2.247   5.998  0.00  0.00     0.003 A 
ENDROOT
TORSDOF 0
ENDMDL
