MODEL 1
REMARK minimizedAffinity -5.45241165
REMARK minimizedRMSD -1
REMARK  0 active torsions:
REMARK  status: ('A' for Active; 'I' for Inactive)
ROOT
ATOM      1  C   UNL d   1       2.265   2.253   0.545  0.00  0.00     0.124 A 
ATOM      2  C1  UNL d   1       1.000   2.160   1.109  0.00  0.00     0.062 A 
ATOM      3  C2  UNL d   1       0.207   1.041   0.869  0.00  0.00     0.162 A 
ATOM      4  C3  UNL d   1       0.676   0.006   0.061  0.00  0.00    -0.034 A 
ATOM      5  C4  UNL d   1       1.949   0.107  -0.504  0.00  0.00     0.162 A 
ATOM      6  C5  UNL d   1       2.738   1.227  -0.261  0.00  0.00     0.062 A 
ATOM      7  F   UNL d   1       3.960   1.315  -0.807  0.00  0.00    -0.097 F 
ATOM      8  F1  UNL d   1       2.432  -0.870  -1.286  0.00  0.00    -0.096 F 
ATOM      9  I   UNL d   1      -0.506  -1.668  -0.301  0.00  0.00    -0.060 I 
ATOM     10  F2  UNL d   1      -1.011   0.978   1.427  0.00  0.00    -0.096 F 
ATOM     11  F3  UNL d   1       0.540   3.150   1.888  0.00  0.00    -0.097 F 
ATOM     12  F4  UNL d   1       3.025   3.330   0.778  0.00  0.00    -0.092 F 
ENDROOT
TORSDOF 0
ENDMDL
