MODEL 1
REMARK minimizedAffinity -3.47020888
REMARK minimizedRMSD -1
REMARK  0 active torsions:
REMARK  status: ('A' for Active; 'I' for Inactive)
ROOT
ATOM      1  C   UNL d   1       2.303   1.841   0.564  0.00  0.00     0.124 A 
ATOM      2  C1  UNL d   1       0.953   2.106   0.752  0.00  0.00     0.062 A 
ATOM      3  C2  UNL d   1      -0.005   1.187   0.336  0.00  0.00     0.162 A 
ATOM      4  C3  UNL d   1       0.382  -0.008  -0.271  0.00  0.00    -0.034 A 
ATOM      5  C4  UNL d   1       1.741  -0.267  -0.457  0.00  0.00     0.162 A 
ATOM      6  C5  UNL d   1       2.695   0.655  -0.040  0.00  0.00     0.062 A 
ATOM      7  F   UNL d   1       3.998   0.397  -0.222  0.00  0.00    -0.097 F 
ATOM      8  F1  UNL d   1       2.148  -1.406  -1.037  0.00  0.00    -0.096 F 
ATOM      9  I   UNL d   1      -1.048  -1.386  -0.893  0.00  0.00    -0.060 I 
ATOM     10  F2  UNL d   1      -1.302   1.469   0.531  0.00  0.00    -0.096 F 
ATOM     11  F3  UNL d   1       0.571   3.252   1.334  0.00  0.00    -0.097 F 
ATOM     12  F4  UNL d   1       3.223   2.728   0.964  0.00  0.00    -0.092 F 
ENDROOT
TORSDOF 0
ENDMDL
