MODEL 1
REMARK minimizedAffinity -5.15942574
REMARK minimizedRMSD -1
REMARK  0 active torsions:
REMARK  status: ('A' for Active; 'I' for Inactive)
ROOT
ATOM      1  C   UNL d   1      -0.621   0.244   1.635  0.00  0.00     0.124 A 
ATOM      2  C1  UNL d   1      -0.073  -0.397   0.532  0.00  0.00     0.062 A 
ATOM      3  C2  UNL d   1       1.119   0.059  -0.022  0.00  0.00     0.162 A 
ATOM      4  C3  UNL d   1       1.773   1.163   0.526  0.00  0.00    -0.034 A 
ATOM      5  C4  UNL d   1       1.215   1.803   1.634  0.00  0.00     0.162 A 
ATOM      6  C5  UNL d   1       0.023   1.343   2.184  0.00  0.00     0.062 A 
ATOM      7  F   UNL d   1      -0.504   1.963   3.250  0.00  0.00    -0.097 F 
ATOM      8  F1  UNL d   1       1.817   2.867   2.186  0.00  0.00    -0.096 F 
ATOM      9  I   UNL d   1       3.556   1.849  -0.300  0.00  0.00    -0.060 I 
ATOM     10  F2  UNL d   1       1.625  -0.579  -1.088  0.00  0.00    -0.096 F 
ATOM     11  F3  UNL d   1      -0.694  -1.459  -0.002  0.00  0.00    -0.097 F 
ATOM     12  F4  UNL d   1      -1.769  -0.197   2.165  0.00  0.00    -0.092 F 
ENDROOT
TORSDOF 0
ENDMDL
