MODEL 1
REMARK minimizedAffinity -0.701341987
REMARK minimizedRMSD -1
REMARK  0 active torsions:
REMARK  status: ('A' for Active; 'I' for Inactive)
ROOT
ATOM      1  C   UNL d   1       2.444   1.969   0.919  0.00  0.00     0.124 A 
ATOM      2  C1  UNL d   1       1.085   2.246   0.967  0.00  0.00     0.062 A 
ATOM      3  C2  UNL d   1       0.168   1.349   0.426  0.00  0.00     0.162 A 
ATOM      4  C3  UNL d   1       0.607   0.165  -0.166  0.00  0.00    -0.034 A 
ATOM      5  C4  UNL d   1       1.976  -0.107  -0.211  0.00  0.00     0.162 A 
ATOM      6  C5  UNL d   1       2.888   0.793   0.330  0.00  0.00     0.062 A 
ATOM      7  F   UNL d   1       4.201   0.524   0.283  0.00  0.00    -0.097 F 
ATOM      8  F1  UNL d   1       2.433  -1.236  -0.773  0.00  0.00    -0.096 F 
ATOM      9  I   UNL d   1      -0.760  -1.179  -0.975  0.00  0.00    -0.060 I 
ATOM     10  F2  UNL d   1      -1.139   1.642   0.487  0.00  0.00    -0.096 F 
ATOM     11  F3  UNL d   1       0.653   3.382   1.534  0.00  0.00    -0.097 F 
ATOM     12  F4  UNL d   1       3.324   2.835   1.438  0.00  0.00    -0.092 F 
ENDROOT
TORSDOF 0
ENDMDL
