MODEL 1
REMARK minimizedAffinity 0.287720889
REMARK minimizedRMSD -1
REMARK  0 active torsions:
REMARK  status: ('A' for Active; 'I' for Inactive)
ROOT
ATOM      1  C   UNL d   1       1.087   1.865   1.368  0.00  0.00     0.124 A 
ATOM      2  C1  UNL d   1       0.131   1.084   2.002  0.00  0.00     0.062 A 
ATOM      3  C2  UNL d   1      -0.653   0.201   1.265  0.00  0.00     0.162 A 
ATOM      4  C3  UNL d   1      -0.483   0.093  -0.115  0.00  0.00    -0.034 A 
ATOM      5  C4  UNL d   1       0.480   0.882  -0.746  0.00  0.00     0.162 A 
ATOM      6  C5  UNL d   1       1.261   1.764  -0.005  0.00  0.00     0.062 A 
ATOM      7  F   UNL d   1       2.184   2.518  -0.620  0.00  0.00    -0.097 F 
ATOM      8  F1  UNL d   1       0.670   0.803  -2.072  0.00  0.00    -0.096 F 
ATOM      9  I   UNL d   1      -1.652  -1.227  -1.221  0.00  0.00    -0.060 I 
ATOM     10  F2  UNL d   1      -1.569  -0.542   1.904  0.00  0.00    -0.096 F 
ATOM     11  F3  UNL d   1      -0.040   1.181   3.328  0.00  0.00    -0.097 F 
ATOM     12  F4  UNL d   1       1.838   2.715   2.079  0.00  0.00    -0.092 F 
ENDROOT
TORSDOF 0
ENDMDL
