MODEL 1
REMARK minimizedAffinity -3.10068727
REMARK minimizedRMSD -1
REMARK  0 active torsions:
REMARK  status: ('A' for Active; 'I' for Inactive)
ROOT
ATOM      1  C   UNL d   1       2.824   1.254   0.372  0.00  0.00     0.124 A 
ATOM      2  C1  UNL d   1       2.121   2.002   1.306  0.00  0.00     0.062 A 
ATOM      3  C2  UNL d   1       0.838   1.620   1.687  0.00  0.00     0.162 A 
ATOM      4  C3  UNL d   1       0.250   0.482   1.134  0.00  0.00    -0.034 A 
ATOM      5  C4  UNL d   1       0.963  -0.265   0.195  0.00  0.00     0.162 A 
ATOM      6  C5  UNL d   1       2.245   0.122  -0.183  0.00  0.00     0.062 A 
ATOM      7  F   UNL d   1       2.923  -0.602  -1.085  0.00  0.00    -0.097 F 
ATOM      8  F1  UNL d   1       0.428  -1.364  -0.357  0.00  0.00    -0.096 F 
ATOM      9  I   UNL d   1      -1.668  -0.093   1.701  0.00  0.00    -0.060 I 
ATOM     10  F2  UNL d   1       0.182   2.362   2.591  0.00  0.00    -0.096 F 
ATOM     11  F3  UNL d   1       2.678   3.098   1.842  0.00  0.00    -0.097 F 
ATOM     12  F4  UNL d   1       4.058   1.625   0.007  0.00  0.00    -0.092 F 
ENDROOT
TORSDOF 0
ENDMDL
