MODEL 1
REMARK minimizedAffinity 3.60215616
REMARK minimizedRMSD -1
REMARK  0 active torsions:
REMARK  status: ('A' for Active; 'I' for Inactive)
ROOT
ATOM      1  C   UNL d   1      -0.401  -0.507  -0.219  0.00  0.00     0.124 A 
ATOM      2  C1  UNL d   1       0.647   0.041  -0.945  0.00  0.00     0.062 A 
ATOM      3  C2  UNL d   1       1.430   1.050  -0.391  0.00  0.00     0.162 A 
ATOM      4  C3  UNL d   1       1.168   1.517   0.898  0.00  0.00    -0.034 A 
ATOM      5  C4  UNL d   1       0.112   0.961   1.621  0.00  0.00     0.162 A 
ATOM      6  C5  UNL d   1      -0.667  -0.047   1.063  0.00  0.00     0.062 A 
ATOM      7  F   UNL d   1      -1.680  -0.576   1.766  0.00  0.00    -0.097 F 
ATOM      8  F1  UNL d   1      -0.167   1.386   2.862  0.00  0.00    -0.096 F 
ATOM      9  I   UNL d   1       2.336   3.025   1.729  0.00  0.00    -0.060 I 
ATOM     10  F2  UNL d   1       2.436   1.562  -1.115  0.00  0.00    -0.096 F 
ATOM     11  F3  UNL d   1       0.906  -0.401  -2.184  0.00  0.00    -0.097 F 
ATOM     12  F4  UNL d   1      -1.153  -1.477  -0.755  0.00  0.00    -0.092 F 
ENDROOT
TORSDOF 0
ENDMDL
