MODEL 1
REMARK minimizedAffinity -2.31174994
REMARK minimizedRMSD -1
REMARK  0 active torsions:
REMARK  status: ('A' for Active; 'I' for Inactive)
ROOT
ATOM      1  C   UNL d   1       2.069   1.593   0.439  0.00  0.00     0.124 A 
ATOM      2  C1  UNL d   1       0.761   2.002   0.222  0.00  0.00     0.062 A 
ATOM      3  C2  UNL d   1      -0.182   1.102  -0.268  0.00  0.00     0.162 A 
ATOM      4  C3  UNL d   1       0.180  -0.217  -0.542  0.00  0.00    -0.034 A 
ATOM      5  C4  UNL d   1       1.498  -0.621  -0.322  0.00  0.00     0.162 A 
ATOM      6  C5  UNL d   1       2.437   0.282   0.167  0.00  0.00     0.062 A 
ATOM      7  F   UNL d   1       3.701  -0.115   0.376  0.00  0.00    -0.097 F 
ATOM      8  F1  UNL d   1       1.880  -1.881  -0.576  0.00  0.00    -0.096 F 
ATOM      9  I   UNL d   1      -1.226  -1.565  -1.274  0.00  0.00    -0.060 I 
ATOM     10  F2  UNL d   1      -1.439   1.525  -0.468  0.00  0.00    -0.096 F 
ATOM     11  F3  UNL d   1       0.404   3.267   0.483  0.00  0.00    -0.097 F 
ATOM     12  F4  UNL d   1       2.975   2.461   0.908  0.00  0.00    -0.092 F 
ENDROOT
TORSDOF 0
ENDMDL
