MODEL 1
REMARK minimizedAffinity -5.82059622
REMARK minimizedRMSD -1
REMARK  0 active torsions:
REMARK  status: ('A' for Active; 'I' for Inactive)
ROOT
ATOM      1  C   UNL d   1       1.793   2.407   1.322  0.00  0.00     0.124 A 
ATOM      2  C1  UNL d   1       0.460   2.235   1.666  0.00  0.00     0.062 A 
ATOM      3  C2  UNL d   1      -0.289   1.217   1.082  0.00  0.00     0.162 A 
ATOM      4  C3  UNL d   1       0.295   0.362   0.147  0.00  0.00    -0.034 A 
ATOM      5  C4  UNL d   1       1.637   0.542  -0.195  0.00  0.00     0.162 A 
ATOM      6  C5  UNL d   1       2.380   1.561   0.392  0.00  0.00     0.062 A 
ATOM      7  F   UNL d   1       3.669   1.725   0.058  0.00  0.00    -0.097 F 
ATOM      8  F1  UNL d   1       2.230  -0.262  -1.090  0.00  0.00    -0.096 F 
ATOM      9  I   UNL d   1      -0.820  -1.160  -0.730  0.00  0.00    -0.060 I 
ATOM     10  F2  UNL d   1      -1.575   1.074   1.433  0.00  0.00    -0.096 F 
ATOM     11  F3  UNL d   1      -0.110   3.052   2.564  0.00  0.00    -0.097 F 
ATOM     12  F4  UNL d   1       2.511   3.387   1.885  0.00  0.00    -0.092 F 
ENDROOT
TORSDOF 0
ENDMDL
