MODEL 1
REMARK minimizedAffinity 2.07242894
REMARK minimizedRMSD -1
REMARK  0 active torsions:
REMARK  status: ('A' for Active; 'I' for Inactive)
ROOT
ATOM      1  C   UNL d   1      -0.089   1.337   1.548  0.00  0.00     0.124 A 
ATOM      2  C1  UNL d   1      -0.130   2.043   0.353  0.00  0.00     0.062 A 
ATOM      3  C2  UNL d   1      -0.383   1.379  -0.843  0.00  0.00     0.162 A 
ATOM      4  C3  UNL d   1      -0.598   0.001  -0.852  0.00  0.00    -0.034 A 
ATOM      5  C4  UNL d   1      -0.555  -0.702   0.353  0.00  0.00     0.162 A 
ATOM      6  C5  UNL d   1      -0.302  -0.034   1.547  0.00  0.00     0.062 A 
ATOM      7  F   UNL d   1      -0.263  -0.718   2.700  0.00  0.00    -0.097 F 
ATOM      8  F1  UNL d   1      -0.758  -2.028   0.381  0.00  0.00    -0.096 F 
ATOM      9  I   UNL d   1      -0.977  -0.996  -2.639  0.00  0.00    -0.060 I 
ATOM     10  F2  UNL d   1      -0.416   2.086  -1.983  0.00  0.00    -0.096 F 
ATOM     11  F3  UNL d   1       0.076   3.368   0.352  0.00  0.00    -0.097 F 
ATOM     12  F4  UNL d   1       0.156   1.978   2.698  0.00  0.00    -0.092 F 
ENDROOT
TORSDOF 0
ENDMDL
