MODEL 1
REMARK minimizedAffinity 2.89762998
REMARK minimizedRMSD -1
REMARK  0 active torsions:
REMARK  status: ('A' for Active; 'I' for Inactive)
ROOT
ATOM      1  C   UNL d   1       0.584  -1.626  -0.848  0.00  0.00     0.124 A 
ATOM      2  C1  UNL d   1      -0.439  -0.940  -0.209  0.00  0.00     0.062 A 
ATOM      3  C2  UNL d   1      -0.221   0.343   0.284  0.00  0.00     0.162 A 
ATOM      4  C3  UNL d   1       1.027   0.949   0.140  0.00  0.00    -0.034 A 
ATOM      5  C4  UNL d   1       2.052   0.253  -0.503  0.00  0.00     0.162 A 
ATOM      6  C5  UNL d   1       1.829  -1.029  -0.994  0.00  0.00     0.062 A 
ATOM      7  F   UNL d   1       2.819  -1.690  -1.611  0.00  0.00    -0.097 F 
ATOM      8  F1  UNL d   1       3.264   0.807  -0.659  0.00  0.00    -0.096 F 
ATOM      9  I   UNL d   1       1.357   2.868   0.876  0.00  0.00    -0.060 I 
ATOM     10  F2  UNL d   1      -1.229   0.982   0.897  0.00  0.00    -0.096 F 
ATOM     11  F3  UNL d   1      -1.642  -1.515  -0.066  0.00  0.00    -0.097 F 
ATOM     12  F4  UNL d   1       0.372  -2.861  -1.321  0.00  0.00    -0.092 F 
ENDROOT
TORSDOF 0
ENDMDL
