MODEL 1
REMARK minimizedAffinity -3.05879498
REMARK minimizedRMSD -1
REMARK  0 active torsions:
REMARK  status: ('A' for Active; 'I' for Inactive)
ROOT
ATOM      1  C   UNL d   1       1.587   2.190   1.177  0.00  0.00     0.124 A 
ATOM      2  C1  UNL d   1       2.247   1.346   0.295  0.00  0.00     0.062 A 
ATOM      3  C2  UNL d   1       1.590   0.243  -0.242  0.00  0.00     0.162 A 
ATOM      4  C3  UNL d   1       0.264  -0.023   0.101  0.00  0.00    -0.034 A 
ATOM      5  C4  UNL d   1      -0.393   0.830   0.990  0.00  0.00     0.162 A 
ATOM      6  C5  UNL d   1       0.268   1.931   1.524  0.00  0.00     0.062 A 
ATOM      7  F   UNL d   1      -0.371   2.745   2.377  0.00  0.00    -0.097 F 
ATOM      8  F1  UNL d   1      -1.667   0.604   1.341  0.00  0.00    -0.096 F 
ATOM      9  I   UNL d   1      -0.722  -1.672  -0.701  0.00  0.00    -0.060 I 
ATOM     10  F2  UNL d   1       2.252  -0.556  -1.093  0.00  0.00    -0.096 F 
ATOM     11  F3  UNL d   1       3.521   1.593  -0.041  0.00  0.00    -0.097 F 
ATOM     12  F4  UNL d   1       2.221   3.250   1.694  0.00  0.00    -0.092 F 
ENDROOT
TORSDOF 0
ENDMDL
