MODEL 1
REMARK minimizedAffinity -2.78785491
REMARK minimizedRMSD -1
REMARK  0 active torsions:
REMARK  status: ('A' for Active; 'I' for Inactive)
ROOT
ATOM      1  C   UNL d   1       1.888   1.562   1.318  0.00  0.00     0.124 A 
ATOM      2  C1  UNL d   1       0.513   1.675   1.477  0.00  0.00     0.062 A 
ATOM      3  C2  UNL d   1      -0.345   0.846   0.760  0.00  0.00     0.162 A 
ATOM      4  C3  UNL d   1       0.169  -0.105  -0.121  0.00  0.00    -0.034 A 
ATOM      5  C4  UNL d   1       1.553  -0.212  -0.276  0.00  0.00     0.162 A 
ATOM      6  C5  UNL d   1       2.406   0.619   0.442  0.00  0.00     0.062 A 
ATOM      7  F   UNL d   1       3.733   0.508   0.288  0.00  0.00    -0.097 F 
ATOM      8  F1  UNL d   1       2.080  -1.116  -1.115  0.00  0.00    -0.096 F 
ATOM      9  I   UNL d   1      -1.110  -1.347  -1.194  0.00  0.00    -0.060 I 
ATOM     10  F2  UNL d   1      -1.668   0.977   0.933  0.00  0.00    -0.096 F 
ATOM     11  F3  UNL d   1       0.010   2.587   2.322  0.00  0.00    -0.097 F 
ATOM     12  F4  UNL d   1       2.711   2.362   2.008  0.00  0.00    -0.092 F 
ENDROOT
TORSDOF 0
ENDMDL
