MODEL 1
REMARK minimizedAffinity 2.4699254
REMARK minimizedRMSD -1
REMARK  0 active torsions:
REMARK  status: ('A' for Active; 'I' for Inactive)
ROOT
ATOM      1  C   UNL d   1       2.604   2.405   0.944  0.00  0.00     0.124 A 
ATOM      2  C1  UNL d   1       1.277   2.631   1.284  0.00  0.00     0.062 A 
ATOM      3  C2  UNL d   1       0.303   1.689   0.967  0.00  0.00     0.162 A 
ATOM      4  C3  UNL d   1       0.652   0.511   0.307  0.00  0.00    -0.034 A 
ATOM      5  C4  UNL d   1       1.988   0.291  -0.032  0.00  0.00     0.162 A 
ATOM      6  C5  UNL d   1       2.958   1.236   0.287  0.00  0.00     0.062 A 
ATOM      7  F   UNL d   1       4.239   1.015  -0.042  0.00  0.00    -0.097 F 
ATOM      8  F1  UNL d   1       2.358  -0.832  -0.667  0.00  0.00    -0.096 F 
ATOM      9  I   UNL d   1      -0.802  -0.901  -0.168  0.00  0.00    -0.060 I 
ATOM     10  F2  UNL d   1      -0.971   1.934   1.308  0.00  0.00    -0.096 F 
ATOM     11  F3  UNL d   1       0.932   3.761   1.918  0.00  0.00    -0.097 F 
ATOM     12  F4  UNL d   1       3.539   3.314   1.249  0.00  0.00    -0.092 F 
ENDROOT
TORSDOF 0
ENDMDL
