MODEL 1
REMARK minimizedAffinity 0.19292146
REMARK minimizedRMSD -1
REMARK  0 active torsions:
REMARK  status: ('A' for Active; 'I' for Inactive)
ROOT
ATOM      1  C   UNL d   1       2.413   1.562  -0.034  0.00  0.00     0.124 A 
ATOM      2  C1  UNL d   1       1.110   2.021  -0.165  0.00  0.00     0.062 A 
ATOM      3  C2  UNL d   1       0.091   1.142  -0.523  0.00  0.00     0.162 A 
ATOM      4  C3  UNL d   1       0.372  -0.205  -0.751  0.00  0.00    -0.034 A 
ATOM      5  C4  UNL d   1       1.685  -0.659  -0.618  0.00  0.00     0.162 A 
ATOM      6  C5  UNL d   1       2.700   0.223  -0.260  0.00  0.00     0.062 A 
ATOM      7  F   UNL d   1       3.959  -0.222  -0.134  0.00  0.00    -0.097 F 
ATOM      8  F1  UNL d   1       1.990  -1.948  -0.830  0.00  0.00    -0.096 F 
ATOM      9  I   UNL d   1      -1.148  -1.522  -1.287  0.00  0.00    -0.060 I 
ATOM     10  F2  UNL d   1      -1.159   1.613  -0.643  0.00  0.00    -0.096 F 
ATOM     11  F3  UNL d   1       0.831   3.314   0.052  0.00  0.00    -0.097 F 
ATOM     12  F4  UNL d   1       3.391   2.410   0.310  0.00  0.00    -0.092 F 
ENDROOT
TORSDOF 0
ENDMDL
