MODEL 1
REMARK minimizedAffinity -5.19117641
REMARK minimizedRMSD -1
REMARK  0 active torsions:
REMARK  status: ('A' for Active; 'I' for Inactive)
ROOT
ATOM      1  C   UNL d   1      -0.749  -0.868   1.156  0.00  0.00     0.124 A 
ATOM      2  C1  UNL d   1      -0.586   0.418   1.652  0.00  0.00     0.062 A 
ATOM      3  C2  UNL d   1       0.558   1.147   1.345  0.00  0.00     0.162 A 
ATOM      4  C3  UNL d   1       1.550   0.593   0.536  0.00  0.00    -0.034 A 
ATOM      5  C4  UNL d   1       1.380  -0.701   0.041  0.00  0.00     0.162 A 
ATOM      6  C5  UNL d   1       0.234  -1.426   0.351  0.00  0.00     0.062 A 
ATOM      7  F   UNL d   1       0.079  -2.669  -0.130  0.00  0.00    -0.097 F 
ATOM      8  F1  UNL d   1       2.314  -1.265  -0.740  0.00  0.00    -0.096 F 
ATOM      9  I   UNL d   1       3.264   1.680   0.075  0.00  0.00    -0.060 I 
ATOM     10  F2  UNL d   1       0.689   2.388   1.839  0.00  0.00    -0.096 F 
ATOM     11  F3  UNL d   1      -1.534   0.959   2.431  0.00  0.00    -0.097 F 
ATOM     12  F4  UNL d   1      -1.851  -1.568   1.454  0.00  0.00    -0.092 F 
ENDROOT
TORSDOF 0
ENDMDL
