MODEL 1
REMARK minimizedAffinity 15.2425537
REMARK minimizedRMSD -1
REMARK  0 active torsions:
REMARK  status: ('A' for Active; 'I' for Inactive)
ROOT
ATOM      1  N1  IND d   1      -3.471  -2.099   5.577  0.00  0.00    -0.196 N 
ATOM      2  C2  IND d   1      -3.754  -2.931   4.530  0.00  0.00     0.054 A 
ATOM      3  C3  IND d   1      -3.974  -2.213   3.405  0.00  0.00    -0.031 A 
ATOM      4  C4  IND d   1      -3.819   0.330   3.033  0.00  0.00     0.051 A 
ATOM      5  C5  IND d   1      -3.627   1.507   3.700  0.00  0.00    -0.031 A 
ATOM      6  C6  IND d   1      -3.365   1.542   5.055  0.00  0.00     0.015 A 
ATOM      7  C7  IND d   1      -3.274   0.396   5.793  0.00  0.00    -0.016 A 
ATOM      8  C8  IND d   1      -3.475  -0.800   5.120  0.00  0.00    -0.047 A 
ATOM      9  C9  IND d   1      -3.784  -0.840   3.754  0.00  0.00    -0.096 A 
ATOM     10  HN1 IND d   1      -3.316  -2.346   6.386  0.00  0.00     0.298 HD
ENDROOT
TORSDOF 0
ENDMDL
