MODEL 1
REMARK minimizedAffinity 13.2112589
REMARK minimizedRMSD -1
REMARK  0 active torsions:
REMARK  status: ('A' for Active; 'I' for Inactive)
ROOT
ATOM      1  N1  IND d   1      -3.619  -2.341   5.281  0.00  0.00    -0.196 N 
ATOM      2  C2  IND d   1      -3.699  -3.044   4.112  0.00  0.00     0.054 A 
ATOM      3  C3  IND d   1      -3.901  -2.205   3.071  0.00  0.00    -0.031 A 
ATOM      4  C4  IND d   1      -4.028   0.366   3.043  0.00  0.00     0.051 A 
ATOM      5  C5  IND d   1      -4.046   1.452   3.872  0.00  0.00    -0.031 A 
ATOM      6  C6  IND d   1      -3.917   1.328   5.240  0.00  0.00     0.015 A 
ATOM      7  C7  IND d   1      -3.753   0.107   5.832  0.00  0.00    -0.016 A 
ATOM      8  C8  IND d   1      -3.742  -0.999   4.995  0.00  0.00    -0.047 A 
ATOM      9  C9  IND d   1      -3.915  -0.882   3.609  0.00  0.00    -0.096 A 
ATOM     10  HN1 IND d   1      -3.511  -2.679   6.064  0.00  0.00     0.298 HD
ENDROOT
TORSDOF 0
ENDMDL
