MODEL 1
REMARK minimizedAffinity 12.4499407
REMARK minimizedRMSD -1
REMARK  0 active torsions:
REMARK  status: ('A' for Active; 'I' for Inactive)
ROOT
ATOM      1  N1  IND d   1      -4.484   2.840   3.846  0.00  0.00    -0.196 N 
ATOM      2  C2  IND d   1      -4.405   3.384   5.097  0.00  0.00     0.054 A 
ATOM      3  C3  IND d   1      -4.047   2.442   5.998  0.00  0.00    -0.031 A 
ATOM      4  C4  IND d   1      -3.444  -0.032   5.626  0.00  0.00     0.051 A 
ATOM      5  C5  IND d   1      -3.406  -0.998   4.659  0.00  0.00    -0.031 A 
ATOM      6  C6  IND d   1      -3.729  -0.728   3.345  0.00  0.00     0.015 A 
ATOM      7  C7  IND d   1      -4.093   0.527   2.945  0.00  0.00    -0.016 A 
ATOM      8  C8  IND d   1      -4.140   1.508   3.925  0.00  0.00    -0.047 A 
ATOM      9  C9  IND d   1      -3.854   1.230   5.267  0.00  0.00    -0.096 A 
ATOM     10  HN1 IND d   1      -4.711   3.258   3.130  0.00  0.00     0.298 HD
ENDROOT
TORSDOF 0
ENDMDL
