MODEL 1
REMARK minimizedAffinity 16.6623726
REMARK minimizedRMSD -1
REMARK  0 active torsions:
REMARK  status: ('A' for Active; 'I' for Inactive)
ROOT
ATOM      1  N1  IND d   1       0.216  -2.028  -3.328  0.00  0.00    -0.196 N 
ATOM      2  C2  IND d   1      -0.114  -3.332  -3.084  0.00  0.00     0.054 A 
ATOM      3  C3  IND d   1       0.574  -3.801  -2.019  0.00  0.00    -0.031 A 
ATOM      4  C4  IND d   1       2.219  -2.572  -0.466  0.00  0.00     0.051 A 
ATOM      5  C5  IND d   1       2.866  -1.379  -0.309  0.00  0.00    -0.031 A 
ATOM      6  C6  IND d   1       2.656  -0.318  -1.167  0.00  0.00     0.015 A 
ATOM      7  C7  IND d   1       1.779  -0.408  -2.210  0.00  0.00    -0.016 A 
ATOM      8  C8  IND d   1       1.126  -1.621  -2.377  0.00  0.00    -0.047 A 
ATOM      9  C9  IND d   1       1.367  -2.715  -1.535  0.00  0.00    -0.096 A 
ATOM     10  HN1 IND d   1      -0.092  -1.543  -3.968  0.00  0.00     0.298 HD
ENDROOT
TORSDOF 0
ENDMDL
