MODEL 1
REMARK minimizedAffinity 22.4352055
REMARK minimizedRMSD -1
REMARK  0 active torsions:
REMARK  status: ('A' for Active; 'I' for Inactive)
ROOT
ATOM      1  N1  IND d   1      -4.574   3.311   3.784  0.00  0.00    -0.196 N 
ATOM      2  C2  IND d   1      -4.893   3.866   4.992  0.00  0.00     0.054 A 
ATOM      3  C3  IND d   1      -4.520   3.045   6.000  0.00  0.00    -0.031 A 
ATOM      4  C4  IND d   1      -3.278   0.792   5.900  0.00  0.00     0.051 A 
ATOM      5  C5  IND d   1      -2.807  -0.140   5.018  0.00  0.00    -0.031 A 
ATOM      6  C6  IND d   1      -2.900   0.036   3.652  0.00  0.00     0.015 A 
ATOM      7  C7  IND d   1      -3.460   1.160   3.115  0.00  0.00    -0.016 A 
ATOM      8  C8  IND d   1      -3.946   2.106   4.008  0.00  0.00    -0.047 A 
ATOM      9  C9  IND d   1      -3.893   1.913   5.394  0.00  0.00    -0.096 A 
ATOM     10  HN1 IND d   1      -4.738   3.657   3.015  0.00  0.00     0.298 HD
ENDROOT
TORSDOF 0
ENDMDL
