MODEL 1
REMARK minimizedAffinity 6.54758358
REMARK minimizedRMSD -1
REMARK  0 active torsions:
REMARK  status: ('A' for Active; 'I' for Inactive)
ROOT
ATOM      1  N1  IND d   1       2.803  -1.214  -0.362  0.00  0.00    -0.196 N 
ATOM      2  C2  IND d   1       2.736  -0.208  -1.285  0.00  0.00     0.054 A 
ATOM      3  C3  IND d   1       2.252  -0.678  -2.457  0.00  0.00    -0.031 A 
ATOM      4  C4  IND d   1       1.414  -3.038  -3.052  0.00  0.00     0.051 A 
ATOM      5  C5  IND d   1       1.312  -4.304  -2.548  0.00  0.00    -0.031 A 
ATOM      6  C6  IND d   1       1.707  -4.610  -1.262  0.00  0.00     0.015 A 
ATOM      7  C7  IND d   1       2.211  -3.655  -0.425  0.00  0.00    -0.016 A 
ATOM      8  C8  IND d   1       2.323  -2.370  -0.936  0.00  0.00    -0.047 A 
ATOM      9  C9  IND d   1       1.963  -2.062  -2.255  0.00  0.00    -0.096 A 
ATOM     10  HN1 IND d   1       3.097  -1.137   0.443  0.00  0.00     0.298 HD
ENDROOT
TORSDOF 0
ENDMDL
