MODEL 1
REMARK minimizedAffinity 8.68124962
REMARK minimizedRMSD -1
REMARK  0 active torsions:
REMARK  status: ('A' for Active; 'I' for Inactive)
ROOT
ATOM      1  N1  IND d   1       2.551  -0.848  -0.290  0.00  0.00    -0.196 N 
ATOM      2  C2  IND d   1       2.126   0.106  -1.171  0.00  0.00     0.054 A 
ATOM      3  C3  IND d   1       1.589  -0.472  -2.269  0.00  0.00    -0.031 A 
ATOM      4  C4  IND d   1       1.214  -2.966  -2.785  0.00  0.00     0.051 A 
ATOM      5  C5  IND d   1       1.470  -4.218  -2.298  0.00  0.00    -0.031 A 
ATOM      6  C6  IND d   1       2.110  -4.414  -1.091  0.00  0.00     0.015 A 
ATOM      7  C7  IND d   1       2.510  -3.361  -0.318  0.00  0.00    -0.016 A 
ATOM      8  C8  IND d   1       2.258  -2.089  -0.812  0.00  0.00    -0.047 A 
ATOM      9  C9  IND d   1       1.646  -1.884  -2.056  0.00  0.00    -0.096 A 
ATOM     10  HN1 IND d   1       2.937  -0.699   0.464  0.00  0.00     0.298 HD
ENDROOT
TORSDOF 0
ENDMDL
