MODEL 1
REMARK minimizedAffinity 8.28308105
REMARK minimizedRMSD -1
REMARK  0 active torsions:
REMARK  status: ('A' for Active; 'I' for Inactive)
ROOT
ATOM      1  N1  IND d   1       2.857  -1.951  -0.042  0.00  0.00    -0.196 N 
ATOM      2  C2  IND d   1       2.705  -0.754  -0.684  0.00  0.00     0.054 A 
ATOM      3  C3  IND d   1       1.963  -0.911  -1.803  0.00  0.00    -0.031 A 
ATOM      4  C4  IND d   1       0.810  -3.024  -2.718  0.00  0.00     0.051 A 
ATOM      5  C5  IND d   1       0.691  -4.367  -2.496  0.00  0.00    -0.031 A 
ATOM      6  C6  IND d   1       1.298  -4.986  -1.423  0.00  0.00     0.015 A 
ATOM      7  C7  IND d   1       2.040  -4.279  -0.519  0.00  0.00    -0.016 A 
ATOM      8  C8  IND d   1       2.169  -2.916  -0.745  0.00  0.00    -0.047 A 
ATOM      9  C9  IND d   1       1.591  -2.290  -1.856  0.00  0.00    -0.096 A 
ATOM     10  HN1 IND d   1       3.307  -2.080   0.680  0.00  0.00     0.298 HD
ENDROOT
TORSDOF 0
ENDMDL
