MODEL 1
REMARK minimizedAffinity 13.6502676
REMARK minimizedRMSD -1
REMARK  0 active torsions:
REMARK  status: ('A' for Active; 'I' for Inactive)
ROOT
ATOM      1  N1  IND d   1      -4.627   0.461   2.796  0.00  0.00    -0.196 N 
ATOM      2  C2  IND d   1      -3.661  -0.391   3.252  0.00  0.00     0.054 A 
ATOM      3  C3  IND d   1      -3.257  -0.025   4.489  0.00  0.00    -0.031 A 
ATOM      4  C4  IND d   1      -4.118   1.877   5.995  0.00  0.00     0.051 A 
ATOM      5  C5  IND d   1      -4.969   2.946   5.999  0.00  0.00    -0.031 A 
ATOM      6  C6  IND d   1      -5.769   3.246   4.914  0.00  0.00     0.015 A 
ATOM      7  C7  IND d   1      -5.754   2.477   3.785  0.00  0.00    -0.016 A 
ATOM      8  C8  IND d   1      -4.885   1.395   3.774  0.00  0.00    -0.047 A 
ATOM      9  C9  IND d   1      -4.041   1.111   4.855  0.00  0.00    -0.096 A 
ATOM     10  HN1 IND d   1      -5.009   0.420   2.026  0.00  0.00     0.298 HD
ENDROOT
TORSDOF 0
ENDMDL
