MODEL 1
REMARK minimizedAffinity 19.0690918
REMARK minimizedRMSD -1
REMARK  0 active torsions:
REMARK  status: ('A' for Active; 'I' for Inactive)
ROOT
ATOM      1  N1  IND d   1      -4.496  -3.798  -4.872  0.00  0.00    -0.196 N 
ATOM      2  C2  IND d   1      -4.285  -3.013  -5.971  0.00  0.00     0.054 A 
ATOM      3  C3  IND d   1      -3.006  -2.577  -6.000  0.00  0.00    -0.031 A 
ATOM      4  C4  IND d   1      -1.060  -3.111  -4.401  0.00  0.00     0.051 A 
ATOM      5  C5  IND d   1      -0.774  -3.754  -3.229  0.00  0.00    -0.031 A 
ATOM      6  C6  IND d   1      -1.732  -4.461  -2.533  0.00  0.00     0.015 A 
ATOM      7  C7  IND d   1      -3.016  -4.561  -2.990  0.00  0.00    -0.016 A 
ATOM      8  C8  IND d   1      -3.312  -3.904  -4.175  0.00  0.00    -0.047 A 
ATOM      9  C9  IND d   1      -2.353  -3.150  -4.865  0.00  0.00    -0.096 A 
ATOM     10  HN1 IND d   1      -5.242  -4.164  -4.652  0.00  0.00     0.298 HD
ENDROOT
TORSDOF 0
ENDMDL
