MODEL 1
REMARK minimizedAffinity 15.6534252
REMARK minimizedRMSD -1
REMARK  0 active torsions:
REMARK  status: ('A' for Active; 'I' for Inactive)
ROOT
ATOM      1  N1  IND d   1       3.422  -2.105   0.151  0.00  0.00    -0.196 N 
ATOM      2  C2  IND d   1       3.671  -3.371   0.601  0.00  0.00     0.054 A 
ATOM      3  C3  IND d   1       2.909  -4.266  -0.066  0.00  0.00    -0.031 A 
ATOM      4  C4  IND d   1       1.259  -3.886  -2.006  0.00  0.00     0.051 A 
ATOM      5  C5  IND d   1       0.670  -2.895  -2.740  0.00  0.00    -0.031 A 
ATOM      6  C6  IND d   1       0.976  -1.564  -2.547  0.00  0.00     0.015 A 
ATOM      7  C7  IND d   1       1.896  -1.172  -1.615  0.00  0.00    -0.016 A 
ATOM      8  C8  IND d   1       2.491  -2.175  -0.862  0.00  0.00    -0.047 A 
ATOM      9  C9  IND d   1       2.153  -3.525  -1.025  0.00  0.00    -0.096 A 
ATOM     10  HN1 IND d   1       3.785  -1.385   0.449  0.00  0.00     0.298 HD
ENDROOT
TORSDOF 0
ENDMDL
