MODEL 1
REMARK minimizedAffinity 21.6310825
REMARK minimizedRMSD -1
REMARK  0 active torsions:
REMARK  status: ('A' for Active; 'I' for Inactive)
ROOT
ATOM      1  N1  IND d   1      -3.934  -2.030   5.570  0.00  0.00    -0.196 N 
ATOM      2  C2  IND d   1      -4.246  -2.866   4.534  0.00  0.00     0.054 A 
ATOM      3  C3  IND d   1      -4.287  -2.177   3.371  0.00  0.00    -0.031 A 
ATOM      4  C4  IND d   1      -3.778   0.306   2.922  0.00  0.00     0.051 A 
ATOM      5  C5  IND d   1      -3.485   1.478   3.561  0.00  0.00    -0.031 A 
ATOM      6  C6  IND d   1      -3.320   1.542   4.929  0.00  0.00     0.015 A 
ATOM      7  C7  IND d   1      -3.432   0.428   5.712  0.00  0.00    -0.016 A 
ATOM      8  C8  IND d   1      -3.737  -0.763   5.068  0.00  0.00    -0.047 A 
ATOM      9  C9  IND d   1      -3.947  -0.825   3.684  0.00  0.00    -0.096 A 
ATOM     10  HN1 IND d   1      -3.872  -2.258   6.397  0.00  0.00     0.298 HD
ENDROOT
TORSDOF 0
ENDMDL
