MODEL 1
REMARK minimizedAffinity 17.6410236
REMARK minimizedRMSD -1
REMARK  0 active torsions:
REMARK  status: ('A' for Active; 'I' for Inactive)
ROOT
ATOM      1  N1  IND d   1      -2.670   2.158  -5.772  0.00  0.00    -0.196 N 
ATOM      2  C2  IND d   1      -1.731   1.558  -4.981  0.00  0.00     0.054 A 
ATOM      3  C3  IND d   1      -1.147   2.469  -4.171  0.00  0.00    -0.031 A 
ATOM      4  C4  IND d   1      -1.649   4.980  -3.903  0.00  0.00     0.051 A 
ATOM      5  C5  IND d   1      -2.399   5.991  -4.435  0.00  0.00    -0.031 A 
ATOM      6  C6  IND d   1      -3.298   5.771  -5.459  0.00  0.00     0.015 A 
ATOM      7  C7  IND d   1      -3.489   4.524  -5.983  0.00  0.00    -0.016 A 
ATOM      8  C8  IND d   1      -2.724   3.496  -5.450  0.00  0.00    -0.047 A 
ATOM      9  C9  IND d   1      -1.780   3.721  -4.441  0.00  0.00    -0.096 A 
ATOM     10  HN1 IND d   1      -3.147   1.766  -6.371  0.00  0.00     0.298 HD
ENDROOT
TORSDOF 0
ENDMDL
