MODEL 1
REMARK minimizedAffinity 13.5250664
REMARK minimizedRMSD -1
REMARK  0 active torsions:
REMARK  status: ('A' for Active; 'I' for Inactive)
ROOT
ATOM      1  N1  IND d   1      -0.876   2.721  -4.104  0.00  0.00    -0.196 N 
ATOM      2  C2  IND d   1      -1.146   1.929  -5.185  0.00  0.00     0.054 A 
ATOM      3  C3  IND d   1      -2.052   2.528  -5.991  0.00  0.00    -0.031 A 
ATOM      4  C4  IND d   1      -3.146   4.849  -5.783  0.00  0.00     0.051 A 
ATOM      5  C5  IND d   1      -3.239   5.924  -4.944  0.00  0.00    -0.031 A 
ATOM      6  C6  IND d   1      -2.533   5.989  -3.760  0.00  0.00     0.015 A 
ATOM      7  C7  IND d   1      -1.695   4.982  -3.375  0.00  0.00    -0.016 A 
ATOM      8  C8  IND d   1      -1.603   3.885  -4.220  0.00  0.00    -0.047 A 
ATOM      9  C9  IND d   1      -2.349   3.795  -5.402  0.00  0.00    -0.096 A 
ATOM     10  HN1 IND d   1      -0.341   2.525  -3.460  0.00  0.00     0.298 HD
ENDROOT
TORSDOF 0
ENDMDL
