MODEL 1
REMARK minimizedAffinity 10.9002275
REMARK minimizedRMSD -1
REMARK  0 active torsions:
REMARK  status: ('A' for Active; 'I' for Inactive)
ROOT
ATOM      1  N1  IND d   1       4.493   0.415   0.631  0.00  0.00    -0.196 N 
ATOM      2  C2  IND d   1       4.277   1.633   0.051  0.00  0.00     0.054 A 
ATOM      3  C3  IND d   1       3.315   1.540  -0.895  0.00  0.00    -0.031 A 
ATOM      4  C4  IND d   1       1.889  -0.490  -1.583  0.00  0.00     0.051 A 
ATOM      5  C5  IND d   1       1.747  -1.831  -1.361  0.00  0.00    -0.031 A 
ATOM      6  C6  IND d   1       2.526  -2.505  -0.443  0.00  0.00     0.015 A 
ATOM      7  C7  IND d   1       3.473  -1.858   0.299  0.00  0.00    -0.016 A 
ATOM      8  C8  IND d   1       3.626  -0.498   0.071  0.00  0.00    -0.047 A 
ATOM      9  C9  IND d   1       2.867   0.183  -0.890  0.00  0.00    -0.096 A 
ATOM     10  HN1 IND d   1       5.072   0.246   1.243  0.00  0.00     0.298 HD
ENDROOT
TORSDOF 0
ENDMDL
