MODEL 1
REMARK minimizedAffinity 23.5708504
REMARK minimizedRMSD -1
REMARK  0 active torsions:
REMARK  status: ('A' for Active; 'I' for Inactive)
ROOT
ATOM      1  N1  IND d   1      -3.485   1.457   3.023  0.00  0.00    -0.196 N 
ATOM      2  C2  IND d   1      -4.019   0.210   2.857  0.00  0.00     0.054 A 
ATOM      3  C3  IND d   1      -3.049  -0.681   2.553  0.00  0.00    -0.031 A 
ATOM      4  C4  IND d   1      -0.504  -0.332   2.378  0.00  0.00     0.051 A 
ATOM      5  C5  IND d   1       0.454   0.642   2.411  0.00  0.00    -0.031 A 
ATOM      6  C6  IND d   1       0.142   1.964   2.657  0.00  0.00     0.015 A 
ATOM      7  C7  IND d   1      -1.144   2.360   2.892  0.00  0.00    -0.016 A 
ATOM      8  C8  IND d   1      -2.120   1.375   2.852  0.00  0.00    -0.047 A 
ATOM      9  C9  IND d   1      -1.816   0.040   2.561  0.00  0.00    -0.096 A 
ATOM     10  HN1 IND d   1      -3.927   2.172   3.203  0.00  0.00     0.298 HD
ENDROOT
TORSDOF 0
ENDMDL
