MODEL 1
REMARK minimizedAffinity 21.6433449
REMARK minimizedRMSD -1
REMARK  0 active torsions:
REMARK  status: ('A' for Active; 'I' for Inactive)
ROOT
ATOM      1  N1  IND d   1      -4.491  -0.050   1.962  0.00  0.00    -0.196 N 
ATOM      2  C2  IND d   1      -3.367   0.589   2.406  0.00  0.00     0.054 A 
ATOM      3  C3  IND d   1      -2.921   0.017   3.547  0.00  0.00    -0.031 A 
ATOM      4  C4  IND d   1      -3.820  -2.041   4.806  0.00  0.00     0.051 A 
ATOM      5  C5  IND d   1      -4.850  -2.939   4.804  0.00  0.00    -0.031 A 
ATOM      6  C6  IND d   1      -5.832  -2.922   3.835  0.00  0.00     0.015 A 
ATOM      7  C7  IND d   1      -5.813  -2.008   2.819  0.00  0.00    -0.016 A 
ATOM      8  C8  IND d   1      -4.772  -1.090   2.821  0.00  0.00    -0.047 A 
ATOM      9  C9  IND d   1      -3.797  -1.076   3.826  0.00  0.00    -0.096 A 
ATOM     10  HN1 IND d   1      -4.946   0.162   1.264  0.00  0.00     0.298 HD
ENDROOT
TORSDOF 0
ENDMDL
