MODEL 1
REMARK minimizedAffinity 18.1082878
REMARK minimizedRMSD -1
REMARK  0 active torsions:
REMARK  status: ('A' for Active; 'I' for Inactive)
ROOT
ATOM      1  N1  IND d   1      -4.787  -0.011   2.095  0.00  0.00    -0.196 N 
ATOM      2  C2  IND d   1      -3.759   0.704   2.643  0.00  0.00     0.054 A 
ATOM      3  C3  IND d   1      -3.345   0.126   3.793  0.00  0.00    -0.031 A 
ATOM      4  C4  IND d   1      -4.143  -2.053   4.908  0.00  0.00     0.051 A 
ATOM      5  C5  IND d   1      -5.086  -3.036   4.799  0.00  0.00    -0.031 A 
ATOM      6  C6  IND d   1      -5.994  -3.063   3.760  0.00  0.00     0.015 A 
ATOM      7  C7  IND d   1      -5.985  -2.110   2.781  0.00  0.00    -0.016 A 
ATOM      8  C8  IND d   1      -5.034  -1.106   2.893  0.00  0.00    -0.047 A 
ATOM      9  C9  IND d   1      -4.137  -1.050   3.968  0.00  0.00    -0.096 A 
ATOM     10  HN1 IND d   1      -5.208   0.190   1.373  0.00  0.00     0.298 HD
ENDROOT
TORSDOF 0
ENDMDL
