MODEL 1
REMARK minimizedAffinity -0.711282611
REMARK minimizedRMSD -1
REMARK  0 active torsions:
REMARK  status: ('A' for Active; 'I' for Inactive)
ROOT
ATOM      1  C   UNL d   1       0.219   0.641  -4.536  0.00  0.00     0.020 A 
ATOM      2  C1  UNL d   1      -0.695  -0.032  -3.726  0.00  0.00     0.020 A 
ATOM      3  C2  UNL d   1      -0.255  -0.695  -2.579  0.00  0.00     0.034 A 
ATOM      4  C3  UNL d   1       1.103  -0.686  -2.238  0.00  0.00     0.017 A 
ATOM      5  C4  UNL d   1       2.019  -0.010  -3.052  0.00  0.00     0.017 A 
ATOM      6  C5  UNL d   1       1.573   0.652  -4.200  0.00  0.00     0.034 A 
ATOM      7 Cl   UNL d   1       3.710   0.045  -2.697  0.00  0.00    -0.070 Cl
ATOM      8 Cl1  UNL d   1       1.577  -1.526  -0.805  0.00  0.00    -0.070 Cl
ENDROOT
TORSDOF 0
ENDMDL
