MODEL 1
REMARK minimizedAffinity -3.02849126
REMARK minimizedRMSD -1
REMARK  0 active torsions:
REMARK  status: ('A' for Active; 'I' for Inactive)
ROOT
ATOM      1  C   UNL d   1      -2.250   0.282  -0.059  0.00  0.00     0.020 A 
ATOM      2  C1  UNL d   1      -2.243   0.654   1.284  0.00  0.00     0.020 A 
ATOM      3  C2  UNL d   1      -1.092   0.471   2.053  0.00  0.00     0.034 A 
ATOM      4  C3  UNL d   1       0.057  -0.085   1.479  0.00  0.00     0.017 A 
ATOM      5  C4  UNL d   1       0.049  -0.458   0.130  0.00  0.00     0.017 A 
ATOM      6  C5  UNL d   1      -1.107  -0.272  -0.635  0.00  0.00     0.034 A 
ATOM      7 Cl   UNL d   1       1.428  -1.150  -0.649  0.00  0.00    -0.070 Cl
ATOM      8 Cl1  UNL d   1       1.445  -0.282   2.489  0.00  0.00    -0.070 Cl
ENDROOT
TORSDOF 0
ENDMDL
