MODEL 1
REMARK minimizedAffinity -4.70059443
REMARK minimizedRMSD -1
REMARK  0 active torsions:
REMARK  status: ('A' for Active; 'I' for Inactive)
ROOT
ATOM      1  C   UNL d   1      -0.407   0.663   2.786  0.00  0.00     0.020 A 
ATOM      2  C1  UNL d   1      -1.424   0.838   1.847  0.00  0.00     0.020 A 
ATOM      3  C2  UNL d   1      -1.227   0.441   0.523  0.00  0.00     0.034 A 
ATOM      4  C3  UNL d   1      -0.011  -0.133   0.133  0.00  0.00     0.017 A 
ATOM      5  C4  UNL d   1       1.009  -0.307   1.076  0.00  0.00     0.017 A 
ATOM      6  C5  UNL d   1       0.806   0.092   2.401  0.00  0.00     0.034 A 
ATOM      7 Cl   UNL d   1       2.536  -1.007   0.671  0.00  0.00    -0.070 Cl
ATOM      8 Cl1  UNL d   1       0.164  -0.601  -1.521  0.00  0.00    -0.070 Cl
ENDROOT
TORSDOF 0
ENDMDL
