MODEL 1
REMARK minimizedAffinity -4.98467159
REMARK minimizedRMSD -1
REMARK  0 active torsions:
REMARK  status: ('A' for Active; 'I' for Inactive)
ROOT
ATOM      1  C   UNL d   1      -1.397   0.476   2.540  0.00  0.00     0.020 A 
ATOM      2  C1  UNL d   1      -1.942   0.412   1.258  0.00  0.00     0.020 A 
ATOM      3  C2  UNL d   1      -1.120   0.139   0.163  0.00  0.00     0.034 A 
ATOM      4  C3  UNL d   1       0.251  -0.072   0.347  0.00  0.00     0.017 A 
ATOM      5  C4  UNL d   1       0.798  -0.008   1.634  0.00  0.00     0.017 A 
ATOM      6  C5  UNL d   1      -0.030   0.266   2.727  0.00  0.00     0.034 A 
ATOM      7 Cl   UNL d   1       2.480  -0.257   1.940  0.00  0.00    -0.070 Cl
ATOM      8 Cl1  UNL d   1       1.208  -0.405  -1.053  0.00  0.00    -0.070 Cl
ENDROOT
TORSDOF 0
ENDMDL
