MODEL 1
REMARK minimizedAffinity -0.847334206
REMARK minimizedRMSD -1
REMARK  0 active torsions:
REMARK  status: ('A' for Active; 'I' for Inactive)
ROOT
ATOM      1  C   UNL d   1       1.317  -0.598   3.627  0.00  0.00     0.020 A 
ATOM      2  C1  UNL d   1       0.036  -0.167   3.970  0.00  0.00     0.020 A 
ATOM      3  C2  UNL d   1      -0.830   0.302   2.980  0.00  0.00     0.034 A 
ATOM      4  C3  UNL d   1      -0.416   0.342   1.644  0.00  0.00     0.017 A 
ATOM      5  C4  UNL d   1       0.870  -0.090   1.301  0.00  0.00     0.017 A 
ATOM      6  C5  UNL d   1       1.733  -0.560   2.296  0.00  0.00     0.034 A 
ATOM      7 Cl   UNL d   1       1.451  -0.071  -0.326  0.00  0.00    -0.070 Cl
ATOM      8 Cl1  UNL d   1      -1.540   0.935   0.472  0.00  0.00    -0.070 Cl
ENDROOT
TORSDOF 0
ENDMDL
