MODEL 1
REMARK minimizedAffinity -2.69977307
REMARK minimizedRMSD -1
REMARK  0 active torsions:
REMARK  status: ('A' for Active; 'I' for Inactive)
ROOT
ATOM      1  C   UNL d   1       1.539   0.341  -4.189  0.00  0.00     0.020 A 
ATOM      2  C1  UNL d   1       0.571   1.261  -3.787  0.00  0.00     0.020 A 
ATOM      3  C2  UNL d   1      -0.132   1.060  -2.597  0.00  0.00     0.034 A 
ATOM      4  C3  UNL d   1       0.132  -0.063  -1.804  0.00  0.00     0.017 A 
ATOM      5  C4  UNL d   1       1.104  -0.986  -2.209  0.00  0.00     0.017 A 
ATOM      6  C5  UNL d   1       1.805  -0.780  -3.401  0.00  0.00     0.034 A 
ATOM      7 Cl   UNL d   1       1.485  -2.395  -1.284  0.00  0.00    -0.070 Cl
ATOM      8 Cl1  UNL d   1      -0.774  -0.248  -0.345  0.00  0.00    -0.070 Cl
ENDROOT
TORSDOF 0
ENDMDL
