MODEL 1
REMARK minimizedAffinity -2.26346016
REMARK minimizedRMSD -1
REMARK  0 active torsions:
REMARK  status: ('A' for Active; 'I' for Inactive)
ROOT
ATOM      1  C   UNL d   1       1.117   0.320  -3.453  0.00  0.00     0.020 A 
ATOM      2  C1  UNL d   1       2.344   0.530  -2.826  0.00  0.00     0.020 A 
ATOM      3  C2  UNL d   1       2.473   0.312  -1.453  0.00  0.00     0.034 A 
ATOM      4  C3  UNL d   1       1.372  -0.117  -0.702  0.00  0.00     0.017 A 
ATOM      5  C4  UNL d   1       0.141  -0.328  -1.333  0.00  0.00     0.017 A 
ATOM      6  C5  UNL d   1       0.018  -0.108  -2.708  0.00  0.00     0.034 A 
ATOM      7 Cl   UNL d   1      -1.262  -0.858  -0.473  0.00  0.00    -0.070 Cl
ATOM      8 Cl1  UNL d   1       1.604  -0.367   0.992  0.00  0.00    -0.070 Cl
ENDROOT
TORSDOF 0
ENDMDL
