MODEL 1
REMARK minimizedAffinity -2.61272073
REMARK minimizedRMSD -1
REMARK  0 active torsions:
REMARK  status: ('A' for Active; 'I' for Inactive)
ROOT
ATOM      1  C   UNL d   1      -1.349   0.236   2.801  0.00  0.00     0.020 A 
ATOM      2  C1  UNL d   1      -0.304  -0.090   3.665  0.00  0.00     0.020 A 
ATOM      3  C2  UNL d   1       0.958  -0.393   3.151  0.00  0.00     0.034 A 
ATOM      4  C3  UNL d   1       1.179  -0.372   1.769  0.00  0.00     0.017 A 
ATOM      5  C4  UNL d   1       0.129  -0.044   0.903  0.00  0.00     0.017 A 
ATOM      6  C5  UNL d   1      -1.133   0.259   1.423  0.00  0.00     0.034 A 
ATOM      7 Cl   UNL d   1       0.325   0.003  -0.814  0.00  0.00    -0.070 Cl
ATOM      8 Cl1  UNL d   1       2.765  -0.757   1.203  0.00  0.00    -0.070 Cl
ENDROOT
TORSDOF 0
ENDMDL
