MODEL 1
REMARK minimizedAffinity -2.31173968
REMARK minimizedRMSD -1
REMARK  0 active torsions:
REMARK  status: ('A' for Active; 'I' for Inactive)
ROOT
ATOM      1  C   UNL d   1      -0.988   0.634   2.734  0.00  0.00     0.020 A 
ATOM      2  C1  UNL d   1      -1.748   0.948   1.607  0.00  0.00     0.020 A 
ATOM      3  C2  UNL d   1      -1.256   0.663   0.332  0.00  0.00     0.034 A 
ATOM      4  C3  UNL d   1      -0.001   0.062   0.180  0.00  0.00     0.017 A 
ATOM      5  C4  UNL d   1       0.760  -0.253   1.311  0.00  0.00     0.017 A 
ATOM      6  C5  UNL d   1       0.263   0.035   2.586  0.00  0.00     0.034 A 
ATOM      7 Cl   UNL d   1       2.317  -0.996   1.203  0.00  0.00    -0.070 Cl
ATOM      8 Cl1  UNL d   1       0.545  -0.264  -1.427  0.00  0.00    -0.070 Cl
ENDROOT
TORSDOF 0
ENDMDL
