MODEL 1
REMARK minimizedAffinity -5.54936981
REMARK minimizedRMSD -1
REMARK  2 active torsions:
REMARK  status: ('A' for Active; 'I' for Inactive)
REMARK    1  A    between atoms: C2'_3  and  C1'_4 
REMARK    2  A    between atoms: C1'_4  and  C1_5 
ROOT
ATOM      1  C1  I4B d   1      -1.231   1.176  -1.599  0.00  0.00    -0.075 A 
ATOM      2  C2  I4B d   1      -0.263   2.007  -2.105  0.00  0.00     0.003 A 
ATOM      3  C3  I4B d   1      -0.626   3.208  -2.762  0.00  0.00     0.002 A 
ATOM      4  C4  I4B d   1      -1.961   3.511  -2.933  0.00  0.00    -0.004 A 
ATOM      5  C5  I4B d   1      -2.941   2.679  -2.399  0.00  0.00     0.002 A 
ATOM      6  C6  I4B d   1      -2.573   1.510  -1.717  0.00  0.00     0.003 A 
ENDROOT
BRANCH   1   7
ATOM      7  C1' I4B d   1      -0.812  -0.100  -0.940  0.00  0.00     0.060 C 
BRANCH   7   8
ATOM      8  C2' I4B d   1       0.117   0.248   0.205  0.00  0.00    -0.013 C 
ATOM      9  C4' I4B d   1      -0.492  -0.121   1.532  0.00  0.00     0.013 C 
ATOM     10  C3' I4B d   1       1.413  -0.473  -0.015  0.00  0.00     0.013 C 
ENDBRANCH   7   8
ENDBRANCH   1   7
TORSDOF 2
ENDMDL
