MODEL 1
REMARK minimizedAffinity -5.02190018
REMARK minimizedRMSD -1
REMARK  2 active torsions:
REMARK  status: ('A' for Active; 'I' for Inactive)
REMARK    1  A    between atoms: C2'_3  and  C1'_4 
REMARK    2  A    between atoms: C1'_4  and  C1_5 
ROOT
ATOM      1  C1  I4B d   1      -0.806   0.274  -0.830  0.00  0.00    -0.075 A 
ATOM      2  C2  I4B d   1       0.431  -0.318  -0.880  0.00  0.00     0.003 A 
ATOM      3  C3  I4B d   1       0.986  -0.909   0.281  0.00  0.00     0.002 A 
ATOM      4  C4  I4B d   1       0.296  -0.840   1.474  0.00  0.00    -0.004 A 
ATOM      5  C5  I4B d   1      -0.968  -0.260   1.518  0.00  0.00     0.002 A 
ATOM      6  C6  I4B d   1      -1.528   0.290   0.356  0.00  0.00     0.003 A 
ENDROOT
BRANCH   1   7
ATOM      7  C1' I4B d   1      -1.348   0.917  -2.067  0.00  0.00     0.060 C 
BRANCH   7   8
ATOM      8  C2' I4B d   1      -1.271   2.419  -1.885  0.00  0.00    -0.013 C 
ATOM      9  C4' I4B d   1      -0.383   3.051  -2.925  0.00  0.00     0.013 C 
ATOM     10  C3' I4B d   1      -2.665   2.967  -1.958  0.00  0.00     0.013 C 
ENDBRANCH   7   8
ENDBRANCH   1   7
TORSDOF 2
ENDMDL
