MODEL 1
REMARK minimizedAffinity 3.67026138
REMARK minimizedRMSD -1
REMARK  2 active torsions:
REMARK  status: ('A' for Active; 'I' for Inactive)
REMARK    1  A    between atoms: C2'_3  and  C1'_4 
REMARK    2  A    between atoms: C1'_4  and  C1_5 
ROOT
ATOM      1  C1  I4B d   1       1.592  -0.159   0.808  0.00  0.00    -0.075 A 
ATOM      2  C2  I4B d   1       2.652  -0.905   0.356  0.00  0.00     0.003 A 
ATOM      3  C3  I4B d   1       2.643  -1.432  -0.958  0.00  0.00     0.002 A 
ATOM      4  C4  I4B d   1       1.541  -1.233  -1.764  0.00  0.00    -0.004 A 
ATOM      5  C5  I4B d   1       0.478  -0.456  -1.312  0.00  0.00     0.002 A 
ATOM      6  C6  I4B d   1       0.508   0.095  -0.023  0.00  0.00     0.003 A 
ENDROOT
BRANCH   1   7
ATOM      7  C1' I4B d   1       1.619   0.355   2.212  0.00  0.00     0.060 C 
BRANCH   7   8
ATOM      8  C2' I4B d   1       0.926  -0.663   3.095  0.00  0.00    -0.013 C 
ATOM      9  C4' I4B d   1      -0.281  -1.247   2.410  0.00  0.00     0.013 C 
ATOM     10  C3' I4B d   1       1.922  -1.730   3.440  0.00  0.00     0.013 C 
ENDBRANCH   7   8
ENDBRANCH   1   7
TORSDOF 2
ENDMDL
