MODEL 1
REMARK minimizedAffinity -3.46423244
REMARK minimizedRMSD -1
REMARK  2 active torsions:
REMARK  status: ('A' for Active; 'I' for Inactive)
REMARK    1  A    between atoms: C2'_3  and  C1'_4 
REMARK    2  A    between atoms: C1'_4  and  C1_5 
ROOT
ATOM      1  C1  I4B d   1      -0.284   0.329  -0.055  0.00  0.00    -0.075 A 
ATOM      2  C2  I4B d   1      -1.041  -0.098   1.007  0.00  0.00     0.003 A 
ATOM      3  C3  I4B d   1      -0.417  -0.646   2.154  0.00  0.00     0.002 A 
ATOM      4  C4  I4B d   1       0.955  -0.794   2.175  0.00  0.00    -0.004 A 
ATOM      5  C5  I4B d   1       1.723  -0.340   1.107  0.00  0.00     0.002 A 
ATOM      6  C6  I4B d   1       1.101   0.236  -0.010  0.00  0.00     0.003 A 
ENDROOT
BRANCH   1   7
ATOM      7  C1' I4B d   1      -0.978   0.872  -1.263  0.00  0.00     0.060 C 
BRANCH   7   8
ATOM      8  C2' I4B d   1      -0.808   2.377  -1.262  0.00  0.00    -0.013 C 
ATOM      9  C4' I4B d   1       0.294   2.802  -2.196  0.00  0.00     0.013 C 
ATOM     10  C3' I4B d   1      -2.118   2.991  -1.655  0.00  0.00     0.013 C 
ENDBRANCH   7   8
ENDBRANCH   1   7
TORSDOF 2
ENDMDL
