MODEL 1
REMARK minimizedAffinity -0.0182497464
REMARK minimizedRMSD -1
REMARK  2 active torsions:
REMARK  status: ('A' for Active; 'I' for Inactive)
REMARK    1  A    between atoms: C2'_3  and  C1'_4 
REMARK    2  A    between atoms: C1'_4  and  C1_5 
ROOT
ATOM      1  C1  I4B d   1      -0.156   0.345  -1.189  0.00  0.00    -0.075 A 
ATOM      2  C2  I4B d   1      -0.500   0.575   0.120  0.00  0.00     0.003 A 
ATOM      3  C3  I4B d   1       0.027  -0.242   1.149  0.00  0.00     0.002 A 
ATOM      4  C4  I4B d   1       0.850  -1.300   0.823  0.00  0.00    -0.004 A 
ATOM      5  C5  I4B d   1       1.216  -1.518  -0.502  0.00  0.00     0.002 A 
ATOM      6  C6  I4B d   1       0.721  -0.682  -1.514  0.00  0.00     0.003 A 
ENDROOT
BRANCH   1   7
ATOM      7  C1' I4B d   1      -0.757   1.206  -2.254  0.00  0.00     0.060 C 
BRANCH   7   8
ATOM      8  C2' I4B d   1      -0.444   2.650  -1.920  0.00  0.00    -0.013 C 
ATOM      9  C4' I4B d   1       0.581   3.219  -2.866  0.00  0.00     0.013 C 
ATOM     10  C3' I4B d   1      -1.725   3.427  -1.978  0.00  0.00     0.013 C 
ENDBRANCH   7   8
ENDBRANCH   1   7
TORSDOF 2
ENDMDL
