MODEL 1
REMARK minimizedAffinity -3.03490043
REMARK minimizedRMSD -1
REMARK  2 active torsions:
REMARK  status: ('A' for Active; 'I' for Inactive)
REMARK    1  A    between atoms: C2'_3  and  C1'_4 
REMARK    2  A    between atoms: C1'_4  and  C1_5 
ROOT
ATOM      1  C1  I4B d   1       0.271  -0.270   0.110  0.00  0.00    -0.075 A 
ATOM      2  C2  I4B d   1      -0.765  -0.840   0.808  0.00  0.00     0.003 A 
ATOM      3  C3  I4B d   1      -0.563  -1.305   2.130  0.00  0.00     0.002 A 
ATOM      4  C4  I4B d   1       0.694  -1.226   2.693  0.00  0.00    -0.004 A 
ATOM      5  C5  I4B d   1       1.738  -0.627   1.993  0.00  0.00     0.002 A 
ATOM      6  C6  I4B d   1       1.522  -0.135   0.698  0.00  0.00     0.003 A 
ENDROOT
BRANCH   1   7
ATOM      7  C1' I4B d   1       0.031   0.180  -1.296  0.00  0.00     0.060 C 
BRANCH   7   8
ATOM      8  C2' I4B d   1       0.504  -0.920  -2.225  0.00  0.00    -0.013 C 
ATOM      9  C4' I4B d   1       1.825  -1.484  -1.774  0.00  0.00     0.013 C 
ATOM     10  C3' I4B d   1      -0.554  -1.982  -2.262  0.00  0.00     0.013 C 
ENDBRANCH   7   8
ENDBRANCH   1   7
TORSDOF 2
ENDMDL
