MODEL 1
REMARK minimizedAffinity -0.860548019
REMARK minimizedRMSD -1
REMARK  0 active torsions:
REMARK  status: ('A' for Active; 'I' for Inactive)
ROOT
ATOM      1  C   UNL d   1       0.590   4.195  -5.989  0.00  0.00     0.077 C 
ATOM      2  C1  UNL d   1       2.067   4.459  -5.999  0.00  0.00    -0.074 A 
ATOM      3  C2  UNL d   1       2.563   5.766  -6.000  0.00  0.00    -0.005 A 
ATOM      4  C3  UNL d   1       3.939   5.996  -6.000  0.00  0.00     0.006 A 
ATOM      5  C4  UNL d   1       4.831   4.923  -5.999  0.00  0.00    -0.005 A 
ATOM      6  C5  UNL d   1       4.353   3.609  -5.997  0.00  0.00    -0.074 A 
ATOM      7  C6  UNL d   1       5.297   2.444  -5.986  0.00  0.00     0.077 C 
ATOM      8  C7  UNL d   1       2.969   3.386  -5.991  0.00  0.00    -0.001 A 
ENDROOT
TORSDOF 0
ENDMDL
