MODEL 1
REMARK minimizedAffinity 6.22505045
REMARK minimizedRMSD -1
REMARK  0 active torsions:
REMARK  status: ('A' for Active; 'I' for Inactive)
ROOT
ATOM      1  C   UNL d   1      -4.199   3.095  -5.614  0.00  0.00     0.077 C 
ATOM      2  C1  UNL d   1      -2.876   3.788  -5.753  0.00  0.00    -0.074 A 
ATOM      3  C2  UNL d   1      -2.799   5.183  -5.818  0.00  0.00    -0.005 A 
ATOM      4  C3  UNL d   1      -1.560   5.814  -5.937  0.00  0.00     0.006 A 
ATOM      5  C4  UNL d   1      -0.389   5.058  -5.993  0.00  0.00    -0.005 A 
ATOM      6  C5  UNL d   1      -0.446   3.662  -5.929  0.00  0.00    -0.074 A 
ATOM      7  C6  UNL d   1       0.804   2.835  -5.978  0.00  0.00     0.077 C 
ATOM      8  C7  UNL d   1      -1.694   3.036  -5.802  0.00  0.00    -0.001 A 
ENDROOT
TORSDOF 0
ENDMDL
