MODEL 1
REMARK minimizedAffinity -0.173116297
REMARK minimizedRMSD -1
REMARK  0 active torsions:
REMARK  status: ('A' for Active; 'I' for Inactive)
ROOT
ATOM      1  C   UNL d   1      -3.008   5.999  -5.995  0.00  0.00     0.077 C 
ATOM      2  C1  UNL d   1      -1.958   4.928  -5.989  0.00  0.00    -0.074 A 
ATOM      3  C2  UNL d   1      -2.311   3.575  -5.996  0.00  0.00    -0.005 A 
ATOM      4  C3  UNL d   1      -1.323   2.591  -6.000  0.00  0.00     0.006 A 
ATOM      5  C4  UNL d   1       0.026   2.949  -5.997  0.00  0.00    -0.005 A 
ATOM      6  C5  UNL d   1       0.398   4.297  -5.991  0.00  0.00    -0.074 A 
ATOM      7  C6  UNL d   1       1.843   4.699  -5.997  0.00  0.00     0.077 C 
ATOM      8  C7  UNL d   1      -0.601   5.280  -5.994  0.00  0.00    -0.001 A 
ENDROOT
TORSDOF 0
ENDMDL
