MODEL 1
REMARK minimizedAffinity 1.24351907
REMARK minimizedRMSD -1
REMARK  0 active torsions:
REMARK  status: ('A' for Active; 'I' for Inactive)
ROOT
ATOM      1  C   UNL d   1       3.845   4.111  -5.994  0.00  0.00     0.077 C 
ATOM      2  C1  UNL d   1       2.367   4.369  -5.988  0.00  0.00    -0.074 A 
ATOM      3  C2  UNL d   1       1.865   5.674  -5.994  0.00  0.00    -0.005 A 
ATOM      4  C3  UNL d   1       0.488   5.897  -5.998  0.00  0.00     0.006 A 
ATOM      5  C4  UNL d   1      -0.399   4.820  -5.995  0.00  0.00    -0.005 A 
ATOM      6  C5  UNL d   1       0.085   3.508  -5.990  0.00  0.00    -0.074 A 
ATOM      7  C6  UNL d   1      -0.854   2.339  -5.998  0.00  0.00     0.077 C 
ATOM      8  C7  UNL d   1       1.470   3.291  -5.993  0.00  0.00    -0.001 A 
ENDROOT
TORSDOF 0
ENDMDL
