MODEL 1
REMARK minimizedAffinity 4.67557859
REMARK minimizedRMSD -1
REMARK  0 active torsions:
REMARK  status: ('A' for Active; 'I' for Inactive)
ROOT
ATOM      1  C   UNL d   1      -2.264   6.000  -5.740  0.00  0.00     0.077 C 
ATOM      2  C1  UNL d   1      -1.910   4.545  -5.824  0.00  0.00    -0.074 A 
ATOM      3  C2  UNL d   1      -2.906   3.564  -5.882  0.00  0.00    -0.005 A 
ATOM      4  C3  UNL d   1      -2.560   2.216  -5.970  0.00  0.00     0.006 A 
ATOM      5  C4  UNL d   1      -1.218   1.834  -6.000  0.00  0.00    -0.005 A 
ATOM      6  C5  UNL d   1      -0.209   2.801  -5.944  0.00  0.00    -0.074 A 
ATOM      7  C6  UNL d   1       1.238   2.408  -5.985  0.00  0.00     0.077 C 
ATOM      8  C7  UNL d   1      -0.564   4.154  -5.863  0.00  0.00    -0.001 A 
ENDROOT
TORSDOF 0
ENDMDL
