MODEL 1
REMARK minimizedAffinity 0.0843994841
REMARK minimizedRMSD -1
REMARK  0 active torsions:
REMARK  status: ('A' for Active; 'I' for Inactive)
ROOT
ATOM      1  C   UNL d   1       1.879   2.603  -5.967  0.00  0.00     0.077 C 
ATOM      2  C1  UNL d   1       0.412   2.914  -5.981  0.00  0.00    -0.074 A 
ATOM      3  C2  UNL d   1      -0.540   1.890  -5.989  0.00  0.00    -0.005 A 
ATOM      4  C3  UNL d   1      -1.901   2.195  -5.993  0.00  0.00     0.006 A 
ATOM      5  C4  UNL d   1      -2.323   3.525  -5.988  0.00  0.00    -0.005 A 
ATOM      6  C5  UNL d   1      -1.385   4.563  -5.979  0.00  0.00    -0.074 A 
ATOM      7  C6  UNL d   1      -1.821   5.998  -5.964  0.00  0.00     0.077 C 
ATOM      8  C7  UNL d   1      -0.019   4.248  -5.969  0.00  0.00    -0.001 A 
ENDROOT
TORSDOF 0
ENDMDL
