MODEL 1
REMARK minimizedAffinity 2.33938098
REMARK minimizedRMSD -1
REMARK  0 active torsions:
REMARK  status: ('A' for Active; 'I' for Inactive)
ROOT
ATOM      1  C   UNL d   1      -3.266   5.978  -5.857  0.00  0.00     0.077 C 
ATOM      2  C1  UNL d   1      -2.080   5.061  -5.900  0.00  0.00    -0.074 A 
ATOM      3  C2  UNL d   1      -2.246   3.673  -5.931  0.00  0.00    -0.005 A 
ATOM      4  C3  UNL d   1      -1.134   2.832  -5.981  0.00  0.00     0.006 A 
ATOM      5  C4  UNL d   1       0.153   3.371  -6.000  0.00  0.00    -0.005 A 
ATOM      6  C5  UNL d   1       0.338   4.757  -5.970  0.00  0.00    -0.074 A 
ATOM      7  C6  UNL d   1       1.715   5.352  -5.999  0.00  0.00     0.077 C 
ATOM      8  C7  UNL d   1      -0.784   5.595  -5.927  0.00  0.00    -0.001 A 
ENDROOT
TORSDOF 0
ENDMDL
