MODEL 1
REMARK minimizedAffinity -0.0357190147
REMARK minimizedRMSD -1
REMARK  0 active torsions:
REMARK  status: ('A' for Active; 'I' for Inactive)
ROOT
ATOM      1  C   UNL d   1       5.447   5.661  -5.964  0.00  0.00     0.077 C 
ATOM      2  C1  UNL d   1       4.209   4.814  -5.977  0.00  0.00    -0.074 A 
ATOM      3  C2  UNL d   1       4.293   3.418  -5.966  0.00  0.00    -0.005 A 
ATOM      4  C3  UNL d   1       3.134   2.643  -5.969  0.00  0.00     0.006 A 
ATOM      5  C4  UNL d   1       1.880   3.256  -5.983  0.00  0.00    -0.005 A 
ATOM      6  C5  UNL d   1       1.776   4.650  -5.994  0.00  0.00    -0.074 A 
ATOM      7  C6  UNL d   1       0.436   5.324  -5.999  0.00  0.00     0.077 C 
ATOM      8  C7  UNL d   1       2.946   5.422  -5.984  0.00  0.00    -0.001 A 
ENDROOT
TORSDOF 0
ENDMDL
