MODEL 1
REMARK minimizedAffinity -0.451680958
REMARK minimizedRMSD -1
REMARK  0 active torsions:
REMARK  status: ('A' for Active; 'I' for Inactive)
ROOT
ATOM      1  C   UNL d   1      -3.043   3.040  -5.997  0.00  0.00     0.077 C 
ATOM      2  C1  UNL d   1      -1.710   3.727  -5.999  0.00  0.00    -0.074 A 
ATOM      3  C2  UNL d   1      -1.621   5.123  -5.981  0.00  0.00    -0.005 A 
ATOM      4  C3  UNL d   1      -0.374   5.748  -5.972  0.00  0.00     0.006 A 
ATOM      5  C4  UNL d   1       0.794   4.985  -5.982  0.00  0.00    -0.005 A 
ATOM      6  C5  UNL d   1       0.725   3.589  -5.999  0.00  0.00    -0.074 A 
ATOM      7  C6  UNL d   1       1.971   2.754  -5.999  0.00  0.00     0.077 C 
ATOM      8  C7  UNL d   1      -0.531   2.968  -6.000  0.00  0.00    -0.001 A 
ENDROOT
TORSDOF 0
ENDMDL
