MODEL 1
REMARK minimizedAffinity -0.711803019
REMARK minimizedRMSD -1
REMARK  0 active torsions:
REMARK  status: ('A' for Active; 'I' for Inactive)
ROOT
ATOM      1  C   UNL d   1       1.292   2.610  -5.988  0.00  0.00     0.077 C 
ATOM      2  C1  UNL d   1       0.034   3.427  -5.984  0.00  0.00    -0.074 A 
ATOM      3  C2  UNL d   1       0.085   4.824  -5.994  0.00  0.00    -0.005 A 
ATOM      4  C3  UNL d   1      -1.093   5.571  -6.000  0.00  0.00     0.006 A 
ATOM      5  C4  UNL d   1      -2.332   4.928  -5.997  0.00  0.00    -0.005 A 
ATOM      6  C5  UNL d   1      -2.402   3.532  -5.988  0.00  0.00    -0.074 A 
ATOM      7  C6  UNL d   1      -3.725   2.826  -5.995  0.00  0.00     0.077 C 
ATOM      8  C7  UNL d   1      -1.214   2.789  -5.989  0.00  0.00    -0.001 A 
ENDROOT
TORSDOF 0
ENDMDL
