MODEL 1
REMARK minimizedAffinity 9.14381695
REMARK minimizedRMSD -1
REMARK  0 active torsions:
REMARK  status: ('A' for Active; 'I' for Inactive)
ROOT
ATOM      1  C   UNL d   1       1.340   3.009  -1.689  0.00  0.00     0.077 C 
ATOM      2  C1  UNL d   1       0.517   2.144  -0.780  0.00  0.00    -0.074 A 
ATOM      3  C2  UNL d   1       0.264   2.527   0.541  0.00  0.00    -0.005 A 
ATOM      4  C3  UNL d   1      -0.511   1.717   1.372  0.00  0.00     0.006 A 
ATOM      5  C4  UNL d   1      -1.038   0.518   0.891  0.00  0.00    -0.005 A 
ATOM      6  C5  UNL d   1      -0.796   0.119  -0.428  0.00  0.00    -0.074 A 
ATOM      7  C6  UNL d   1      -1.364  -1.161  -0.963  0.00  0.00     0.077 C 
ATOM      8  C7  UNL d   1      -0.023   0.942  -1.258  0.00  0.00    -0.001 A 
ENDROOT
TORSDOF 0
ENDMDL
