MODEL 1
REMARK minimizedAffinity -1.43902242
REMARK minimizedRMSD -1
REMARK  0 active torsions:
REMARK  status: ('A' for Active; 'I' for Inactive)
ROOT
ATOM      1  C   UNL d   1       1.101   4.886  -5.983  0.00  0.00     0.077 C 
ATOM      2  C1  UNL d   1       2.529   4.429  -5.977  0.00  0.00    -0.074 A 
ATOM      3  C2  UNL d   1       2.848   3.067  -5.996  0.00  0.00    -0.005 A 
ATOM      4  C3  UNL d   1       4.181   2.657  -6.000  0.00  0.00     0.006 A 
ATOM      5  C4  UNL d   1       5.207   3.603  -5.984  0.00  0.00    -0.005 A 
ATOM      6  C5  UNL d   1       4.907   4.969  -5.965  0.00  0.00    -0.074 A 
ATOM      7  C6  UNL d   1       5.998   5.999  -5.957  0.00  0.00     0.077 C 
ATOM      8  C7  UNL d   1       3.565   5.373  -5.969  0.00  0.00    -0.001 A 
ENDROOT
TORSDOF 0
ENDMDL
