MODEL 1
REMARK minimizedAffinity -2.72358704
REMARK minimizedRMSD -1
REMARK  0 active torsions:
REMARK  status: ('A' for Active; 'I' for Inactive)
ROOT
ATOM      1  C   UNL d   1      -4.316   5.991  -5.988  0.00  0.00     0.077 C 
ATOM      2  C1  UNL d   1      -3.155   5.041  -5.982  0.00  0.00    -0.074 A 
ATOM      3  C2  UNL d   1      -3.359   3.658  -5.986  0.00  0.00    -0.005 A 
ATOM      4  C3  UNL d   1      -2.269   2.787  -5.990  0.00  0.00     0.006 A 
ATOM      5  C4  UNL d   1      -0.968   3.290  -5.991  0.00  0.00    -0.005 A 
ATOM      6  C5  UNL d   1      -0.745   4.670  -5.988  0.00  0.00    -0.074 A 
ATOM      7  C6  UNL d   1       0.648   5.227  -5.999  0.00  0.00     0.077 C 
ATOM      8  C7  UNL d   1      -1.845   5.539  -5.991  0.00  0.00    -0.001 A 
ENDROOT
TORSDOF 0
ENDMDL
