MODEL 1
REMARK minimizedAffinity 3.32509232
REMARK minimizedRMSD -1
REMARK  0 active torsions:
REMARK  status: ('A' for Active; 'I' for Inactive)
ROOT
ATOM      1  C   UNL d   1      -1.832   5.997  -5.946  0.00  0.00     0.077 C 
ATOM      2  C1  UNL d   1      -1.243   4.618  -5.958  0.00  0.00    -0.074 A 
ATOM      3  C2  UNL d   1      -2.065   3.486  -5.974  0.00  0.00    -0.005 A 
ATOM      4  C3  UNL d   1      -1.503   2.209  -5.995  0.00  0.00     0.006 A 
ATOM      5  C4  UNL d   1      -0.117   2.052  -6.000  0.00  0.00    -0.005 A 
ATOM      6  C5  UNL d   1       0.721   3.172  -5.985  0.00  0.00    -0.074 A 
ATOM      7  C6  UNL d   1       2.213   3.020  -6.000  0.00  0.00     0.077 C 
ATOM      8  C7  UNL d   1       0.149   4.451  -5.971  0.00  0.00    -0.001 A 
ENDROOT
TORSDOF 0
ENDMDL
