MODEL 1
REMARK minimizedAffinity -2.16882658
REMARK minimizedRMSD -1
REMARK  0 active torsions:
REMARK  status: ('A' for Active; 'I' for Inactive)
ROOT
ATOM      1  C4' PXY d   1      -0.425   5.983   4.843  0.00  0.00     0.077 C 
ATOM      2  C1' PXY d   1       5.344   5.976   4.480  0.00  0.00     0.077 C 
ATOM      3  C1  PXY d   1       3.830   5.983   4.563  0.00  0.00    -0.082 A 
ATOM      4  C2  PXY d   1       3.241   5.984   5.748  0.00  0.00     0.003 A 
ATOM      5  C3  PXY d   1       1.873   5.958   5.841  0.00  0.00     0.003 A 
ATOM      6  C4  PXY d   1       1.100   5.985   4.711  0.00  0.00    -0.082 A 
ATOM      7  C5  PXY d   1       1.695   5.995   3.499  0.00  0.00     0.003 A 
ATOM      8  C6  PXY d   1       3.084   5.979   3.425  0.00  0.00     0.003 A 
ENDROOT
TORSDOF 0
ENDMDL
