MODEL 1
REMARK minimizedAffinity 10.5843964
REMARK minimizedRMSD -1
REMARK  0 active torsions:
REMARK  status: ('A' for Active; 'I' for Inactive)
ROOT
ATOM      1  C4' PXY d   1      -0.160   1.743  -0.298  0.00  0.00     0.077 C 
ATOM      2  C1' PXY d   1      -5.702   0.245   0.382  0.00  0.00     0.077 C 
ATOM      3  C1  PXY d   1      -4.247   0.628   0.195  0.00  0.00    -0.082 A 
ATOM      4  C2  PXY d   1      -3.616   1.288   1.153  0.00  0.00     0.003 A 
ATOM      5  C3  PXY d   1      -2.310   1.670   0.988  0.00  0.00     0.003 A 
ATOM      6  C4  PXY d   1      -1.627   1.327  -0.148  0.00  0.00    -0.082 A 
ATOM      7  C5  PXY d   1      -2.260   0.645  -1.126  0.00  0.00     0.003 A 
ATOM      8  C6  PXY d   1      -3.598   0.302  -0.955  0.00  0.00     0.003 A 
ENDROOT
TORSDOF 0
ENDMDL
