MODEL 1
REMARK minimizedAffinity 3.98502374
REMARK minimizedRMSD -1
REMARK  0 active torsions:
REMARK  status: ('A' for Active; 'I' for Inactive)
ROOT
ATOM      1  C4' PXY d   1       2.119  -3.383  -0.634  0.00  0.00     0.077 C 
ATOM      2  C1' PXY d   1       3.833   2.137  -0.581  0.00  0.00     0.077 C 
ATOM      3  C1  PXY d   1       3.377   0.691  -0.583  0.00  0.00    -0.082 A 
ATOM      4  C2  PXY d   1       4.038  -0.201  -1.303  0.00  0.00     0.003 A 
ATOM      5  C3  PXY d   1       3.621  -1.507  -1.342  0.00  0.00     0.003 A 
ATOM      6  C4  PXY d   1       2.548  -1.914  -0.594  0.00  0.00    -0.082 A 
ATOM      7  C5  PXY d   1       1.876  -1.012   0.151  0.00  0.00     0.003 A 
ATOM      8  C6  PXY d   1       2.290   0.317   0.145  0.00  0.00     0.003 A 
ENDROOT
TORSDOF 0
ENDMDL
