MODEL 1
REMARK minimizedAffinity 15.2289715
REMARK minimizedRMSD -1
REMARK  0 active torsions:
REMARK  status: ('A' for Active; 'I' for Inactive)
ROOT
ATOM      1  C4' PXY d   1       1.774   1.361  -0.766  0.00  0.00     0.077 C 
ATOM      2  C1' PXY d   1       5.432  -2.405   1.654  0.00  0.00     0.077 C 
ATOM      3  C1  PXY d   1       4.474  -1.423   1.007  0.00  0.00    -0.082 A 
ATOM      4  C2  PXY d   1       4.279  -0.238   1.563  0.00  0.00     0.003 A 
ATOM      5  C3  PXY d   1       3.392   0.649   1.010  0.00  0.00     0.003 A 
ATOM      6  C4  PXY d   1       2.739   0.342  -0.154  0.00  0.00    -0.082 A 
ATOM      7  C5  PXY d   1       2.942  -0.861  -0.733  0.00  0.00     0.003 A 
ATOM      8  C6  PXY d   1       3.815  -1.764  -0.133  0.00  0.00     0.003 A 
ENDROOT
TORSDOF 0
ENDMDL
