MODEL 1
REMARK minimizedAffinity 8.92149448
REMARK minimizedRMSD -1
REMARK  0 active torsions:
REMARK  status: ('A' for Active; 'I' for Inactive)
ROOT
ATOM      1  C4' PXY d   1       1.557  -1.094   3.370  0.00  0.00     0.077 C 
ATOM      2  C1' PXY d   1      -0.005  -6.000   5.999  0.00  0.00     0.077 C 
ATOM      3  C1  PXY d   1       0.412  -4.710   5.320  0.00  0.00    -0.082 A 
ATOM      4  C2  PXY d   1      -0.367  -4.178   4.393  0.00  0.00     0.003 A 
ATOM      5  C3  PXY d   1       0.010  -3.029   3.746  0.00  0.00     0.003 A 
ATOM      6  C4  PXY d   1       1.172  -2.390   4.089  0.00  0.00    -0.082 A 
ATOM      7  C5  PXY d   1       1.967  -2.922   5.041  0.00  0.00     0.003 A 
ATOM      8  C6  PXY d   1       1.586  -4.110   5.657  0.00  0.00     0.003 A 
ENDROOT
TORSDOF 0
ENDMDL
