MODEL 1
REMARK minimizedAffinity 1.8934226
REMARK minimizedRMSD -1
REMARK  0 active torsions:
REMARK  status: ('A' for Active; 'I' for Inactive)
ROOT
ATOM      1  C4' PXY d   1       3.785   6.000   5.357  0.00  0.00     0.077 C 
ATOM      2  C1' PXY d   1       1.816   0.712   4.103  0.00  0.00     0.077 C 
ATOM      3  C1  PXY d   1       2.337   2.100   4.420  0.00  0.00    -0.082 A 
ATOM      4  C2  PXY d   1       2.530   2.454   5.680  0.00  0.00     0.003 A 
ATOM      5  C3  PXY d   1       2.971   3.716   5.986  0.00  0.00     0.003 A 
ATOM      6  C4  PXY d   1       3.268   4.606   4.990  0.00  0.00    -0.082 A 
ATOM      7  C5  PXY d   1       3.085   4.249   3.701  0.00  0.00     0.003 A 
ATOM      8  C6  PXY d   1       2.597   2.977   3.413  0.00  0.00     0.003 A 
ENDROOT
TORSDOF 0
ENDMDL
