MODEL 1
REMARK minimizedAffinity 3.63777041
REMARK minimizedRMSD -1
REMARK  0 active torsions:
REMARK  status: ('A' for Active; 'I' for Inactive)
ROOT
ATOM      1  C4' PXY d   1      -4.996   2.221   2.706  0.00  0.00     0.077 C 
ATOM      2  C1' PXY d   1      -1.582   0.954  -1.783  0.00  0.00     0.077 C 
ATOM      3  C1  PXY d   1      -2.482   1.297  -0.612  0.00  0.00    -0.082 A 
ATOM      4  C2  PXY d   1      -2.170   0.868   0.600  0.00  0.00     0.003 A 
ATOM      5  C3  PXY d   1      -2.989   1.141   1.665  0.00  0.00     0.003 A 
ATOM      6  C4  PXY d   1      -4.112   1.907   1.496  0.00  0.00    -0.082 A 
ATOM      7  C5  PXY d   1      -4.431   2.357   0.265  0.00  0.00     0.003 A 
ATOM      8  C6  PXY d   1      -3.608   2.034  -0.810  0.00  0.00     0.003 A 
ENDROOT
TORSDOF 0
ENDMDL
