MODEL 1
REMARK minimizedAffinity 8.78381062
REMARK minimizedRMSD -1
REMARK  0 active torsions:
REMARK  status: ('A' for Active; 'I' for Inactive)
ROOT
ATOM      1  C4' PXY d   1       3.409   1.909   1.827  0.00  0.00     0.077 C 
ATOM      2  C1' PXY d   1       2.384  -2.272  -2.031  0.00  0.00     0.077 C 
ATOM      3  C1  PXY d   1       2.652  -1.167  -1.029  0.00  0.00    -0.082 A 
ATOM      4  C2  PXY d   1       3.296  -1.443   0.093  0.00  0.00     0.003 A 
ATOM      5  C3  PXY d   1       3.519  -0.462   1.025  0.00  0.00     0.003 A 
ATOM      6  C4  PXY d   1       3.125   0.827   0.782  0.00  0.00    -0.082 A 
ATOM      7  C5  PXY d   1       2.476   1.119  -0.365  0.00  0.00     0.003 A 
ATOM      8  C6  PXY d   1       2.224   0.100  -1.280  0.00  0.00     0.003 A 
ENDROOT
TORSDOF 0
ENDMDL
