MODEL 1
REMARK minimizedAffinity -0.0382767245
REMARK minimizedRMSD -1
REMARK  0 active torsions:
REMARK  status: ('A' for Active; 'I' for Inactive)
ROOT
ATOM      1  C4' PXY d   1      -0.024  -3.335  -1.106  0.00  0.00     0.077 C 
ATOM      2  C1' PXY d   1       4.106   0.592  -0.137  0.00  0.00     0.077 C 
ATOM      3  C1  PXY d   1       3.031  -0.447  -0.387  0.00  0.00    -0.082 A 
ATOM      4  C2  PXY d   1       2.091  -0.213  -1.288  0.00  0.00     0.003 A 
ATOM      5  C3  PXY d   1       1.093  -1.128  -1.504  0.00  0.00     0.003 A 
ATOM      6  C4  PXY d   1       1.087  -2.318  -0.828  0.00  0.00    -0.082 A 
ATOM      7  C5  PXY d   1       2.048  -2.570   0.086  0.00  0.00     0.003 A 
ATOM      8  C6  PXY d   1       3.029  -1.610   0.319  0.00  0.00     0.003 A 
ENDROOT
TORSDOF 0
ENDMDL
