MODEL 1
REMARK minimizedAffinity 11.0161676
REMARK minimizedRMSD -1
REMARK  0 active torsions:
REMARK  status: ('A' for Active; 'I' for Inactive)
ROOT
ATOM      1  C4' PXY d   1       3.711  -2.319   1.117  0.00  0.00     0.077 C 
ATOM      2  C1' PXY d   1       1.433  -3.022  -4.149  0.00  0.00     0.077 C 
ATOM      3  C1  PXY d   1       2.019  -2.841  -2.763  0.00  0.00    -0.082 A 
ATOM      4  C2  PXY d   1       3.063  -2.046  -2.593  0.00  0.00     0.003 A 
ATOM      5  C3  PXY d   1       3.626  -1.896  -1.352  0.00  0.00     0.003 A 
ATOM      6  C4  PXY d   1       3.081  -2.524  -0.264  0.00  0.00    -0.082 A 
ATOM      7  C5  PXY d   1       2.008  -3.328  -0.427  0.00  0.00     0.003 A 
ATOM      8  C6  PXY d   1       1.478  -3.499  -1.702  0.00  0.00     0.003 A 
ENDROOT
TORSDOF 0
ENDMDL
