MODEL 1
REMARK minimizedAffinity 6.798666
REMARK minimizedRMSD -1
REMARK  0 active torsions:
REMARK  status: ('A' for Active; 'I' for Inactive)
ROOT
ATOM      1  C4' PXY d   1      -6.000   0.621   0.760  0.00  0.00     0.077 C 
ATOM      2  C1' PXY d   1      -0.387   1.002  -0.569  0.00  0.00     0.077 C 
ATOM      3  C1  PXY d   1      -1.855   0.901  -0.208  0.00  0.00    -0.082 A 
ATOM      4  C2  PXY d   1      -2.726   0.491  -1.117  0.00  0.00     0.003 A 
ATOM      5  C3  PXY d   1      -4.062   0.425  -0.817  0.00  0.00     0.003 A 
ATOM      6  C4  PXY d   1      -4.506   0.729   0.442  0.00  0.00    -0.082 A 
ATOM      7  C5  PXY d   1      -3.622   1.137   1.378  0.00  0.00     0.003 A 
ATOM      8  C6  PXY d   1      -2.276   1.238   1.042  0.00  0.00     0.003 A 
ENDROOT
TORSDOF 0
ENDMDL
