MODEL 1
REMARK minimizedAffinity 5.12534237
REMARK minimizedRMSD -1
REMARK  0 active torsions:
REMARK  status: ('A' for Active; 'I' for Inactive)
ROOT
ATOM      1  C4' PXY d   1       0.247   1.768   1.124  0.00  0.00     0.077 C 
ATOM      2  C1' PXY d   1      -0.832   4.691   5.992  0.00  0.00     0.077 C 
ATOM      3  C1  PXY d   1      -0.561   3.929   4.711  0.00  0.00    -0.082 A 
ATOM      4  C2  PXY d   1       0.253   2.885   4.730  0.00  0.00     0.003 A 
ATOM      5  C3  PXY d   1       0.535   2.204   3.574  0.00  0.00     0.003 A 
ATOM      6  C4  PXY d   1      -0.063   2.562   2.395  0.00  0.00    -0.082 A 
ATOM      7  C5  PXY d   1      -0.903   3.618   2.369  0.00  0.00     0.003 A 
ATOM      8  C6  PXY d   1      -1.144   4.322   3.546  0.00  0.00     0.003 A 
ENDROOT
TORSDOF 0
ENDMDL
