MODEL 1
REMARK minimizedAffinity 0.751824021
REMARK minimizedRMSD -1
REMARK  1 active torsions:
REMARK  status: ('A' for Active; 'I' for Inactive)
REMARK    1  A    between atoms: C3_4  and  O_7 
ROOT
ATOM      1  C   UNL d   1      -4.832  -2.311  -3.458  0.00  0.00    -0.033 A 
ATOM      2  C1  UNL d   1      -4.019  -2.335  -2.323  0.00  0.00     0.039 A 
ATOM      3  C2  UNL d   1      -3.807  -1.166  -1.589  0.00  0.00    -0.080 A 
ATOM      4  C3  UNL d   1      -4.415   0.018  -2.000  0.00  0.00     0.150 A 
ATOM      5  C4  UNL d   1      -5.229   0.048  -3.127  0.00  0.00    -0.007 A 
ATOM      6  C5  UNL d   1      -5.438  -1.120  -3.859  0.00  0.00     0.039 A 
ENDROOT
BRANCH   4   7
ATOM      7  O   UNL d   1      -4.234   1.185  -1.318  0.00  0.00    -0.526 OA
ATOM      8  H5  UNL d   1      -3.625   1.018  -0.579  0.00  0.00     0.418 HD
ENDBRANCH   4   7
TORSDOF 1
ENDMDL
