MODEL 1
REMARK minimizedAffinity 7.81630373
REMARK minimizedRMSD -1
REMARK  1 active torsions:
REMARK  status: ('A' for Active; 'I' for Inactive)
REMARK    1  A    between atoms: C3_4  and  O_7 
ROOT
ATOM      1  C   UNL d   1       1.027   1.140  -1.433  0.00  0.00    -0.033 A 
ATOM      2  C1  UNL d   1       1.159   0.946  -2.810  0.00  0.00     0.039 A 
ATOM      3  C2  UNL d   1       2.401   0.610  -3.353  0.00  0.00    -0.080 A 
ATOM      4  C3  UNL d   1       3.500   0.468  -2.510  0.00  0.00     0.150 A 
ATOM      5  C4  UNL d   1       3.374   0.656  -1.138  0.00  0.00    -0.007 A 
ATOM      6  C5  UNL d   1       2.134   0.993  -0.597  0.00  0.00     0.039 A 
ENDROOT
BRANCH   4   7
ATOM      7  O   UNL d   1       4.732   0.145  -2.995  0.00  0.00    -0.526 OA
ATOM      8  H5  UNL d   1       4.674   0.075  -3.962  0.00  0.00     0.418 HD
ENDBRANCH   4   7
TORSDOF 1
ENDMDL
