MODEL 1
REMARK minimizedAffinity 6.75623989
REMARK minimizedRMSD -1
REMARK  1 active torsions:
REMARK  status: ('A' for Active; 'I' for Inactive)
REMARK    1  A    between atoms: C3_4  and  O_7 
ROOT
ATOM      1  C   UNL d   1      -4.887   2.602  -5.847  0.00  0.00    -0.033 A 
ATOM      2  C1  UNL d   1      -5.997   3.426  -5.649  0.00  0.00     0.039 A 
ATOM      3  C2  UNL d   1      -5.885   4.575  -4.865  0.00  0.00    -0.080 A 
ATOM      4  C3  UNL d   1      -4.659   4.890  -4.285  0.00  0.00     0.150 A 
ATOM      5  C4  UNL d   1      -3.548   4.076  -4.482  0.00  0.00    -0.007 A 
ATOM      6  C5  UNL d   1      -3.662   2.928  -5.265  0.00  0.00     0.039 A 
ENDROOT
BRANCH   4   7
ATOM      7  O   UNL d   1      -4.502   5.998  -3.508  0.00  0.00    -0.526 OA
ATOM      8  H5  UNL d   1      -5.360   6.449  -3.437  0.00  0.00     0.418 HD
ENDBRANCH   4   7
TORSDOF 1
ENDMDL
