MODEL 1
REMARK minimizedAffinity 1.40315115
REMARK minimizedRMSD -1
REMARK  1 active torsions:
REMARK  status: ('A' for Active; 'I' for Inactive)
REMARK    1  A    between atoms: C3_4  and  O_7 
ROOT
ATOM      1  C   UNL d   1       2.989  -3.806   2.403  0.00  0.00    -0.033 A 
ATOM      2  C1  UNL d   1       1.909  -3.611   1.540  0.00  0.00     0.039 A 
ATOM      3  C2  UNL d   1       0.878  -2.739   1.895  0.00  0.00    -0.080 A 
ATOM      4  C3  UNL d   1       0.940  -2.068   3.114  0.00  0.00     0.150 A 
ATOM      5  C4  UNL d   1       2.015  -2.255   3.976  0.00  0.00    -0.007 A 
ATOM      6  C5  UNL d   1       3.043  -3.127   3.620  0.00  0.00     0.039 A 
ENDROOT
BRANCH   4   7
ATOM      7  O   UNL d   1      -0.044  -1.211   3.506  0.00  0.00    -0.526 OA
ATOM      8  H5  UNL d   1      -0.736  -1.203   2.824  0.00  0.00     0.418 HD
ENDBRANCH   4   7
TORSDOF 1
ENDMDL
