MODEL 1
REMARK minimizedAffinity 5.09476948
REMARK minimizedRMSD -1
REMARK  1 active torsions:
REMARK  status: ('A' for Active; 'I' for Inactive)
REMARK    1  A    between atoms: C3_4  and  O_7 
ROOT
ATOM      1  C   UNL d   1      -3.201   0.170   3.508  0.00  0.00    -0.033 A 
ATOM      2  C1  UNL d   1      -4.174   0.760   2.698  0.00  0.00     0.039 A 
ATOM      3  C2  UNL d   1      -4.407   0.268   1.412  0.00  0.00    -0.080 A 
ATOM      4  C3  UNL d   1      -3.662  -0.813   0.949  0.00  0.00     0.150 A 
ATOM      5  C4  UNL d   1      -2.694  -1.408   1.751  0.00  0.00    -0.007 A 
ATOM      6  C5  UNL d   1      -2.462  -0.915   3.035  0.00  0.00     0.039 A 
ENDROOT
BRANCH   4   7
ATOM      7  O   UNL d   1      -3.850  -1.324  -0.301  0.00  0.00    -0.526 OA
ATOM      8  H5  UNL d   1      -4.529  -0.795  -0.751  0.00  0.00     0.418 HD
ENDBRANCH   4   7
TORSDOF 1
ENDMDL
