MODEL 1
REMARK minimizedAffinity 10.919735
REMARK minimizedRMSD -1
REMARK  1 active torsions:
REMARK  status: ('A' for Active; 'I' for Inactive)
REMARK    1  A    between atoms: C3_4  and  O_7 
ROOT
ATOM      1  C   UNL d   1      -5.539  -1.169  -4.250  0.00  0.00    -0.033 A 
ATOM      2  C1  UNL d   1      -5.069  -2.348  -3.667  0.00  0.00     0.039 A 
ATOM      3  C2  UNL d   1      -4.118  -2.293  -2.646  0.00  0.00    -0.080 A 
ATOM      4  C3  UNL d   1      -3.647  -1.056  -2.217  0.00  0.00     0.150 A 
ATOM      5  C4  UNL d   1      -4.113   0.123  -2.790  0.00  0.00    -0.007 A 
ATOM      6  C5  UNL d   1      -5.062   0.066  -3.810  0.00  0.00     0.039 A 
ENDROOT
BRANCH   4   7
ATOM      7  O   UNL d   1      -2.715  -0.953  -1.227  0.00  0.00    -0.526 OA
ATOM      8  H5  UNL d   1      -2.465  -1.848  -0.945  0.00  0.00     0.418 HD
ENDBRANCH   4   7
TORSDOF 1
ENDMDL
