MODEL 1
REMARK minimizedAffinity 2.2674346
REMARK minimizedRMSD -1
REMARK  1 active torsions:
REMARK  status: ('A' for Active; 'I' for Inactive)
REMARK    1  A    between atoms: C3_4  and  O_7 
ROOT
ATOM      1  C   UNL d   1       2.757  -3.834   1.136  0.00  0.00    -0.033 A 
ATOM      2  C1  UNL d   1       2.150  -4.701   2.047  0.00  0.00     0.039 A 
ATOM      3  C2  UNL d   1       1.048  -4.275   2.791  0.00  0.00    -0.080 A 
ATOM      4  C3  UNL d   1       0.564  -2.982   2.615  0.00  0.00     0.150 A 
ATOM      5  C4  UNL d   1       1.161  -2.114   1.707  0.00  0.00    -0.007 A 
ATOM      6  C5  UNL d   1       2.262  -2.541   0.965  0.00  0.00     0.039 A 
ENDROOT
BRANCH   4   7
ATOM      7  O   UNL d   1      -0.506  -2.519   3.323  0.00  0.00    -0.526 OA
ATOM      8  H5  UNL d   1      -0.797  -3.218   3.932  0.00  0.00     0.418 HD
ENDBRANCH   4   7
TORSDOF 1
ENDMDL
