MODEL 1
REMARK minimizedAffinity 4.34004116
REMARK minimizedRMSD -1
REMARK  1 active torsions:
REMARK  status: ('A' for Active; 'I' for Inactive)
REMARK    1  A    between atoms: C3_4  and  O_7 
ROOT
ATOM      1  C   UNL d   1       5.539  -4.345   0.034  0.00  0.00    -0.033 A 
ATOM      2  C1  UNL d   1       5.224  -3.468   1.073  0.00  0.00     0.039 A 
ATOM      3  C2  UNL d   1       3.893  -3.271   1.445  0.00  0.00    -0.080 A 
ATOM      4  C3  UNL d   1       2.887  -3.958   0.771  0.00  0.00     0.150 A 
ATOM      5  C4  UNL d   1       3.193  -4.836  -0.263  0.00  0.00    -0.007 A 
ATOM      6  C5  UNL d   1       4.523  -5.030  -0.634  0.00  0.00     0.039 A 
ENDROOT
BRANCH   4   7
ATOM      7  O   UNL d   1       1.573  -3.795   1.094  0.00  0.00    -0.526 OA
ATOM      8  H5  UNL d   1       1.510  -3.137   1.807  0.00  0.00     0.418 HD
ENDBRANCH   4   7
TORSDOF 1
ENDMDL
