MODEL 1
REMARK minimizedAffinity 5.7220459
REMARK minimizedRMSD -1
REMARK  3 active torsions:
REMARK  status: ('A' for Active; 'I' for Inactive)
REMARK    1  A    between atoms: C3'_2  and  C2'_3 
REMARK    2  A    between atoms: C2'_3  and  C1'_4 
REMARK    3  A    between atoms: C1'_4  and  C1_5 
ROOT
ATOM      1  C1  N4B d   1      -1.530  -3.238  -4.050  0.00  0.00    -0.075 A 
ATOM      2  C2  N4B d   1      -1.735  -4.042  -2.907  0.00  0.00     0.002 A 
ATOM      3  C3  N4B d   1      -1.691  -5.410  -3.013  0.00  0.00     0.002 A 
ATOM      4  C4  N4B d   1      -1.464  -5.995  -4.250  0.00  0.00    -0.004 A 
ATOM      5  C5  N4B d   1      -1.242  -5.212  -5.344  0.00  0.00     0.002 A 
ATOM      6  C6  N4B d   1      -1.279  -3.835  -5.251  0.00  0.00     0.002 A 
ENDROOT
BRANCH   1   7
ATOM      7  C1' N4B d   1      -1.654  -1.740  -4.000  0.00  0.00     0.057 C 
BRANCH   7   8
ATOM      8  C2' N4B d   1      -0.549  -1.117  -4.848  0.00  0.00     0.009 C 
BRANCH   8   9
ATOM      9  C3' N4B d   1       0.283  -0.122  -4.057  0.00  0.00     0.004 C 
ATOM     10  C4' N4B d   1       1.753  -0.255  -4.321  0.00  0.00     0.003 C 
ENDBRANCH   8   9
ENDBRANCH   7   8
ENDBRANCH   1   7
TORSDOF 3
ENDMDL
