MODEL 1
REMARK minimizedAffinity 7.84501886
REMARK minimizedRMSD -1
REMARK  3 active torsions:
REMARK  status: ('A' for Active; 'I' for Inactive)
REMARK    1  A    between atoms: C3'_2  and  C2'_3 
REMARK    2  A    between atoms: C2'_3  and  C1'_4 
REMARK    3  A    between atoms: C1'_4  and  C1_5 
ROOT
ATOM      1  C1  N4B d   1       4.095  -2.435   5.008  0.00  0.00    -0.075 A 
ATOM      2  C2  N4B d   1       4.401  -1.063   4.866  0.00  0.00     0.002 A 
ATOM      3  C3  N4B d   1       3.485  -0.210   4.303  0.00  0.00     0.002 A 
ATOM      4  C4  N4B d   1       2.268  -0.707   3.858  0.00  0.00    -0.004 A 
ATOM      5  C5  N4B d   1       1.971  -2.028   4.022  0.00  0.00     0.002 A 
ATOM      6  C6  N4B d   1       2.881  -2.896   4.591  0.00  0.00     0.002 A 
ENDROOT
BRANCH   1   7
ATOM      7  C1' N4B d   1       5.099  -3.421   5.540  0.00  0.00     0.057 C 
BRANCH   7   8
ATOM      8  C2' N4B d   1       5.861  -4.040   4.372  0.00  0.00     0.009 C 
BRANCH   8   9
ATOM      9  C3' N4B d   1       5.991  -5.546   4.512  0.00  0.00     0.004 C 
ATOM     10  C4' N4B d   1       5.984  -5.999   5.942  0.00  0.00     0.003 C 
ENDBRANCH   8   9
ENDBRANCH   7   8
ENDBRANCH   1   7
TORSDOF 3
ENDMDL
