MODEL 1
REMARK minimizedAffinity 8.71737194
REMARK minimizedRMSD -1
REMARK  1 active torsions:
REMARK  status: ('A' for Active; 'I' for Inactive)
REMARK    1  A    between atoms: C1_2  and  C2_3 
ROOT
ATOM      1  C2  UNL d   1       2.920  -2.015  -1.141  0.00  0.00    -0.076 A 
ATOM      2  C3  UNL d   1       2.946  -0.951  -0.222  0.00  0.00     0.004 A 
ATOM      3  C4  UNL d   1       3.700   0.194  -0.472  0.00  0.00    -0.003 A 
ATOM      4  C5  UNL d   1       4.439   0.295  -1.645  0.00  0.00     0.000 A 
ATOM      5  C6  UNL d   1       4.411  -0.743  -2.576  0.00  0.00     0.000 A 
ATOM      6  C7  UNL d   1       3.644  -1.898  -2.347  0.00  0.00    -0.073 A 
ATOM      7  C8  UNL d   1       3.655  -2.989  -3.382  0.00  0.00     0.078 C 
ENDROOT
BRANCH   1   8
ATOM      8  C1  UNL d   1       2.106  -3.244  -0.803  0.00  0.00     0.053 C 
ATOM      9  C   UNL d   1       0.876  -3.388  -1.686  0.00  0.00     0.018 C 
ENDBRANCH   1   8
TORSDOF 1
ENDMDL
