MODEL 1
REMARK minimizedAffinity 9.27931499
REMARK minimizedRMSD -1
REMARK  1 active torsions:
REMARK  status: ('A' for Active; 'I' for Inactive)
REMARK    1  A    between atoms: C1_2  and  C2_3 
ROOT
ATOM      1  C2  UNL d   1       4.806  -0.348   0.438  0.00  0.00    -0.076 A 
ATOM      2  C3  UNL d   1       5.201   0.741  -0.360  0.00  0.00     0.004 A 
ATOM      3  C4  UNL d   1       4.486   1.087  -1.505  0.00  0.00    -0.003 A 
ATOM      4  C5  UNL d   1       3.365   0.351  -1.871  0.00  0.00     0.000 A 
ATOM      5  C6  UNL d   1       2.949  -0.721  -1.082  0.00  0.00     0.000 A 
ATOM      6  C7  UNL d   1       3.648  -1.073   0.085  0.00  0.00    -0.073 A 
ATOM      7  C8  UNL d   1       3.159  -2.242   0.896  0.00  0.00     0.078 C 
ENDROOT
BRANCH   1   8
ATOM      8  C1  UNL d   1       5.636  -0.693   1.654  0.00  0.00     0.053 C 
ATOM      9  C   UNL d   1       5.999  -2.168   1.712  0.00  0.00     0.018 C 
ENDBRANCH   1   8
TORSDOF 1
ENDMDL
