MODEL 1
REMARK minimizedAffinity 7.37619448
REMARK minimizedRMSD -1
REMARK  1 active torsions:
REMARK  status: ('A' for Active; 'I' for Inactive)
REMARK    1  A    between atoms: C1_2  and  C2_3 
ROOT
ATOM      1  C2  UNL d   1       4.084  -0.847  -0.481  0.00  0.00    -0.076 A 
ATOM      2  C3  UNL d   1       3.558   0.165  -1.303  0.00  0.00     0.004 A 
ATOM      3  C4  UNL d   1       4.237   1.368  -1.484  0.00  0.00    -0.003 A 
ATOM      4  C5  UNL d   1       5.455   1.580  -0.846  0.00  0.00     0.000 A 
ATOM      5  C6  UNL d   1       6.000   0.580  -0.041  0.00  0.00     0.000 A 
ATOM      6  C7  UNL d   1       5.335  -0.645   0.139  0.00  0.00    -0.073 A 
ATOM      7  C8  UNL d   1       5.966  -1.686   1.023  0.00  0.00     0.078 C 
ENDROOT
BRANCH   1   8
ATOM      8  C1  UNL d   1       3.289  -2.120  -0.302  0.00  0.00     0.053 C 
ATOM      9  C   UNL d   1       2.765  -2.671  -1.619  0.00  0.00     0.018 C 
ENDBRANCH   1   8
TORSDOF 1
ENDMDL
