MODEL 1
REMARK minimizedAffinity 19.3302231
REMARK minimizedRMSD -1
REMARK  1 active torsions:
REMARK  status: ('A' for Active; 'I' for Inactive)
REMARK    1  A    between atoms: C1_2  and  C2_3 
ROOT
ATOM      1  C2  UNL d   1       4.633   1.253  -1.063  0.00  0.00    -0.076 A 
ATOM      2  C3  UNL d   1       3.498   0.895  -1.811  0.00  0.00     0.004 A 
ATOM      3  C4  UNL d   1       2.577  -0.029  -1.322  0.00  0.00    -0.003 A 
ATOM      4  C5  UNL d   1       2.776  -0.612  -0.075  0.00  0.00     0.000 A 
ATOM      5  C6  UNL d   1       3.887  -0.256   0.689  0.00  0.00     0.000 A 
ATOM      6  C7  UNL d   1       4.816   0.687   0.217  0.00  0.00    -0.073 A 
ATOM      7  C8  UNL d   1       6.000   1.030   1.080  0.00  0.00     0.078 C 
ENDROOT
BRANCH   1   8
ATOM      8  C1  UNL d   1       5.611   2.241  -1.658  0.00  0.00     0.053 C 
ATOM      9  C   UNL d   1       5.217   3.685  -1.387  0.00  0.00     0.018 C 
ENDBRANCH   1   8
TORSDOF 1
ENDMDL
