MODEL 1
REMARK minimizedAffinity 11.5796652
REMARK minimizedRMSD -1
REMARK  1 active torsions:
REMARK  status: ('A' for Active; 'I' for Inactive)
REMARK    1  A    between atoms: C1_2  and  C2_3 
ROOT
ATOM      1  C2  UNL d   1       0.132   3.016   2.090  0.00  0.00    -0.076 A 
ATOM      2  C3  UNL d   1      -0.831   3.627   1.268  0.00  0.00     0.004 A 
ATOM      3  C4  UNL d   1      -1.720   2.861   0.516  0.00  0.00    -0.003 A 
ATOM      4  C5  UNL d   1      -1.662   1.473   0.574  0.00  0.00     0.000 A 
ATOM      5  C6  UNL d   1      -0.725   0.851   1.398  0.00  0.00     0.000 A 
ATOM      6  C7  UNL d   1       0.169   1.608   2.175  0.00  0.00    -0.073 A 
ATOM      7  C8  UNL d   1       1.163   0.885   3.042  0.00  0.00     0.078 C 
ENDROOT
BRANCH   1   8
ATOM      8  C1  UNL d   1       1.088   3.897   2.862  0.00  0.00     0.053 C 
ATOM      9  C   UNL d   1       0.610   5.338   2.952  0.00  0.00     0.018 C 
ENDBRANCH   1   8
TORSDOF 1
ENDMDL
