MODEL 1
REMARK minimizedAffinity 12.8689032
REMARK minimizedRMSD -1
REMARK  1 active torsions:
REMARK  status: ('A' for Active; 'I' for Inactive)
REMARK    1  A    between atoms: C1_2  and  C2_3 
ROOT
ATOM      1  C2  UNL d   1      -1.753   0.515  -3.605  0.00  0.00    -0.076 A 
ATOM      2  C3  UNL d   1      -1.412   1.399  -4.644  0.00  0.00     0.004 A 
ATOM      3  C4  UNL d   1      -2.354   1.786  -5.596  0.00  0.00    -0.003 A 
ATOM      4  C5  UNL d   1      -3.653   1.295  -5.524  0.00  0.00     0.000 A 
ATOM      5  C6  UNL d   1      -4.013   0.431  -4.491  0.00  0.00     0.000 A 
ATOM      6  C7  UNL d   1      -3.080   0.044  -3.514  0.00  0.00    -0.073 A 
ATOM      7  C8  UNL d   1      -3.522  -0.895  -2.425  0.00  0.00     0.078 C 
ENDROOT
BRANCH   1   8
ATOM      8  C1  UNL d   1      -0.682   0.110  -2.618  0.00  0.00     0.053 C 
ATOM      9  C   UNL d   1      -0.433   1.174  -1.559  0.00  0.00     0.018 C 
ENDBRANCH   1   8
TORSDOF 1
ENDMDL
