MODEL 1
REMARK minimizedAffinity 11.7407932
REMARK minimizedRMSD -1
REMARK  1 active torsions:
REMARK  status: ('A' for Active; 'I' for Inactive)
REMARK    1  A    between atoms: C1_2  and  C2_3 
ROOT
ATOM      1  C2  UNL d   1       1.380   0.486   0.131  0.00  0.00    -0.076 A 
ATOM      2  C3  UNL d   1       1.580   0.580   1.519  0.00  0.00     0.004 A 
ATOM      3  C4  UNL d   1       0.565   1.031   2.361  0.00  0.00    -0.003 A 
ATOM      4  C5  UNL d   1      -0.667   1.395   1.829  0.00  0.00     0.000 A 
ATOM      5  C6  UNL d   1      -0.889   1.290   0.456  0.00  0.00     0.000 A 
ATOM      6  C7  UNL d   1       0.118   0.822  -0.405  0.00  0.00    -0.073 A 
ATOM      7  C8  UNL d   1      -0.174   0.735  -1.878  0.00  0.00     0.078 C 
ENDROOT
BRANCH   1   8
ATOM      8  C1  UNL d   1       2.526   0.016  -0.736  0.00  0.00     0.053 C 
ATOM      9  C   UNL d   1       3.866   0.089  -0.020  0.00  0.00     0.018 C 
ENDBRANCH   1   8
TORSDOF 1
ENDMDL
