MODEL 1
REMARK minimizedAffinity 2.66430426
REMARK minimizedRMSD -1
REMARK  1 active torsions:
REMARK  status: ('A' for Active; 'I' for Inactive)
REMARK    1  A    between atoms: C1_2  and  C2_3 
ROOT
ATOM      1  C2  UNL d   1       2.014  -1.880  -0.553  0.00  0.00    -0.076 A 
ATOM      2  C3  UNL d   1       1.141  -1.592  -1.616  0.00  0.00     0.004 A 
ATOM      3  C4  UNL d   1       0.060  -2.424  -1.902  0.00  0.00    -0.003 A 
ATOM      4  C5  UNL d   1      -0.167  -3.557  -1.128  0.00  0.00     0.000 A 
ATOM      5  C6  UNL d   1       0.679  -3.848  -0.058  0.00  0.00     0.000 A 
ATOM      6  C7  UNL d   1       1.764  -3.011   0.253  0.00  0.00    -0.073 A 
ATOM      7  C8  UNL d   1       2.648  -3.377   1.415  0.00  0.00     0.078 C 
ENDROOT
BRANCH   1   8
ATOM      8  C1  UNL d   1       3.186  -0.956  -0.308  0.00  0.00     0.053 C 
ATOM      9  C   UNL d   1       2.791   0.511  -0.352  0.00  0.00     0.018 C 
ENDBRANCH   1   8
TORSDOF 1
ENDMDL
