MODEL 1
REMARK minimizedAffinity 13.5545387
REMARK minimizedRMSD -1
REMARK  1 active torsions:
REMARK  status: ('A' for Active; 'I' for Inactive)
REMARK    1  A    between atoms: C1_2  and  C2_3 
ROOT
ATOM      1  C2  UNL d   1      -0.952   1.434   1.588  0.00  0.00    -0.076 A 
ATOM      2  C3  UNL d   1      -2.051   0.561   1.652  0.00  0.00     0.004 A 
ATOM      3  C4  UNL d   1      -3.357   1.048   1.630  0.00  0.00    -0.003 A 
ATOM      4  C5  UNL d   1      -3.585   2.417   1.544  0.00  0.00     0.000 A 
ATOM      5  C6  UNL d   1      -2.506   3.297   1.463  0.00  0.00     0.000 A 
ATOM      6  C7  UNL d   1      -1.184   2.821   1.466  0.00  0.00    -0.073 A 
ATOM      7  C8  UNL d   1      -0.059   3.816   1.382  0.00  0.00     0.078 C 
ENDROOT
BRANCH   1   8
ATOM      8  C1  UNL d   1       0.442   0.850   1.642  0.00  0.00     0.053 C 
ATOM      9  C   UNL d   1       0.650  -0.047   2.852  0.00  0.00     0.018 C 
ENDBRANCH   1   8
TORSDOF 1
ENDMDL
