MODEL 1
REMARK minimizedAffinity -2.70408916
REMARK minimizedRMSD -1
REMARK  0 active torsions:
REMARK  status: ('A' for Active; 'I' for Inactive)
ROOT
ATOM      1  C2' OXE d   1      -2.195  -0.748  -0.465  0.00  0.00     0.078 C 
ATOM      2  C1' OXE d   1       0.493  -0.640  -1.269  0.00  0.00     0.078 C 
ATOM      3  C1  OXE d   1       0.113   0.059   0.013  0.00  0.00    -0.078 A 
ATOM      4  C2  OXE d   1      -1.213   0.041   0.374  0.00  0.00    -0.078 A 
ATOM      5  C3  OXE d   1      -1.608   0.624   1.575  0.00  0.00     0.003 A 
ATOM      6  C4  OXE d   1      -0.696   1.360   2.339  0.00  0.00    -0.002 A 
ATOM      7  C5  OXE d   1       0.652   1.425   1.969  0.00  0.00    -0.002 A 
ATOM      8  C6  OXE d   1       1.080   0.746   0.833  0.00  0.00     0.003 A 
ENDROOT
TORSDOF 0
ENDMDL
