MODEL 1
REMARK minimizedAffinity -1.57578981
REMARK minimizedRMSD -1
REMARK  0 active torsions:
REMARK  status: ('A' for Active; 'I' for Inactive)
ROOT
ATOM      1  C2' OXE d   1      -0.621  -1.017  -1.059  0.00  0.00     0.078 C 
ATOM      2  C1' OXE d   1       2.138  -1.046  -0.537  0.00  0.00     0.078 C 
ATOM      3  C1  OXE d   1       1.671  -0.405  -1.821  0.00  0.00    -0.078 A 
ATOM      4  C2  OXE d   1       0.324  -0.437  -2.090  0.00  0.00    -0.078 A 
ATOM      5  C3  OXE d   1      -0.166   0.187  -3.233  0.00  0.00     0.003 A 
ATOM      6  C4  OXE d   1       0.715   0.712  -4.187  0.00  0.00    -0.002 A 
ATOM      7  C5  OXE d   1       2.094   0.720  -3.951  0.00  0.00    -0.002 A 
ATOM      8  C6  OXE d   1       2.584   0.204  -2.756  0.00  0.00     0.003 A 
ENDROOT
TORSDOF 0
ENDMDL
