MODEL 1
REMARK minimizedAffinity -4.6278429
REMARK minimizedRMSD -1
REMARK  0 active torsions:
REMARK  status: ('A' for Active; 'I' for Inactive)
ROOT
ATOM      1  C2' OXE d   1       0.270  -0.729  -1.194  0.00  0.00     0.078 C 
ATOM      2  C1' OXE d   1      -2.364   0.013  -0.570  0.00  0.00     0.078 C 
ATOM      3  C1  OXE d   1      -1.288   0.322   0.441  0.00  0.00    -0.078 A 
ATOM      4  C2  OXE d   1      -0.009  -0.086   0.147  0.00  0.00    -0.078 A 
ATOM      5  C3  OXE d   1       1.031   0.223   1.019  0.00  0.00     0.003 A 
ATOM      6  C4  OXE d   1       0.762   0.809   2.262  0.00  0.00    -0.002 A 
ATOM      7  C5  OXE d   1      -0.539   1.197   2.598  0.00  0.00    -0.002 A 
ATOM      8  C6  OXE d   1      -1.567   1.000   1.683  0.00  0.00     0.003 A 
ENDROOT
TORSDOF 0
ENDMDL
