MODEL 1
REMARK minimizedAffinity 0.294943959
REMARK minimizedRMSD -1
REMARK  0 active torsions:
REMARK  status: ('A' for Active; 'I' for Inactive)
ROOT
ATOM      1  C2' OXE d   1       0.023  -0.023  -1.392  0.00  0.00     0.078 C 
ATOM      2  C1' OXE d   1       1.808  -0.532   0.713  0.00  0.00     0.078 C 
ATOM      3  C1  OXE d   1       0.372  -0.237   1.065  0.00  0.00    -0.078 A 
ATOM      4  C2  OXE d   1      -0.485   0.057   0.031  0.00  0.00    -0.078 A 
ATOM      5  C3  OXE d   1      -1.832   0.283   0.295  0.00  0.00     0.003 A 
ATOM      6  C4  OXE d   1      -2.292   0.365   1.616  0.00  0.00    -0.002 A 
ATOM      7  C5  OXE d   1      -1.427   0.108   2.685  0.00  0.00    -0.002 A 
ATOM      8  C6  OXE d   1      -0.105  -0.235   2.426  0.00  0.00     0.003 A 
ENDROOT
TORSDOF 0
ENDMDL
