MODEL 1
REMARK minimizedAffinity -3.89925265
REMARK minimizedRMSD -1
REMARK  0 active torsions:
REMARK  status: ('A' for Active; 'I' for Inactive)
ROOT
ATOM      1  C2' OXE d   1       1.296  -1.360   0.006  0.00  0.00     0.078 C 
ATOM      2  C1' OXE d   1       0.468   0.414  -2.006  0.00  0.00     0.078 C 
ATOM      3  C1  OXE d   1      -0.162   0.553  -0.642  0.00  0.00    -0.078 A 
ATOM      4  C2  OXE d   1       0.215  -0.349   0.323  0.00  0.00    -0.078 A 
ATOM      5  C3  OXE d   1      -0.295  -0.232   1.613  0.00  0.00     0.003 A 
ATOM      6  C4  OXE d   1      -1.302   0.699   1.895  0.00  0.00    -0.002 A 
ATOM      7  C5  OXE d   1      -1.729   1.602   0.915  0.00  0.00    -0.002 A 
ATOM      8  C6  OXE d   1      -1.140   1.570  -0.344  0.00  0.00     0.003 A 
ENDROOT
TORSDOF 0
ENDMDL
