MODEL 1
REMARK minimizedAffinity -5.28094864
REMARK minimizedRMSD -1
REMARK  0 active torsions:
REMARK  status: ('A' for Active; 'I' for Inactive)
ROOT
ATOM      1  C2' OXE d   1       0.513  -0.792  -1.697  0.00  0.00     0.078 C 
ATOM      2  C1' OXE d   1       1.465  -1.425   0.867  0.00  0.00     0.078 C 
ATOM      3  C1  OXE d   1       0.127  -0.736   0.763  0.00  0.00    -0.078 A 
ATOM      4  C2  OXE d   1      -0.310  -0.388  -0.492  0.00  0.00    -0.078 A 
ATOM      5  C3  OXE d   1      -1.561   0.200  -0.649  0.00  0.00     0.003 A 
ATOM      6  C4  OXE d   1      -2.311   0.579   0.471  0.00  0.00    -0.002 A 
ATOM      7  C5  OXE d   1      -1.867   0.270   1.761  0.00  0.00    -0.002 A 
ATOM      8  C6  OXE d   1      -0.673  -0.424   1.922  0.00  0.00     0.003 A 
ENDROOT
TORSDOF 0
ENDMDL
