MODEL 1
REMARK minimizedAffinity -2.89235687
REMARK minimizedRMSD -1
REMARK  0 active torsions:
REMARK  status: ('A' for Active; 'I' for Inactive)
ROOT
ATOM      1  C2' OXE d   1      -0.289   0.760   1.944  0.00  0.00     0.078 C 
ATOM      2  C1' OXE d   1      -1.493   0.411  -0.568  0.00  0.00     0.078 C 
ATOM      3  C1  OXE d   1      -0.194  -0.308  -0.304  0.00  0.00    -0.078 A 
ATOM      4  C2  OXE d   1       0.412  -0.095   0.911  0.00  0.00    -0.078 A 
ATOM      5  C3  OXE d   1       1.584  -0.777   1.226  0.00  0.00     0.003 A 
ATOM      6  C4  OXE d   1       2.231  -1.557   0.260  0.00  0.00    -0.002 A 
ATOM      7  C5  OXE d   1       1.652  -1.756  -0.997  0.00  0.00    -0.002 A 
ATOM      8  C6  OXE d   1       0.421  -1.174  -1.280  0.00  0.00     0.003 A 
ENDROOT
TORSDOF 0
ENDMDL
