MODEL 1
REMARK minimizedAffinity -4.41085911
REMARK minimizedRMSD -1
REMARK  0 active torsions:
REMARK  status: ('A' for Active; 'I' for Inactive)
ROOT
ATOM      1  C2' OXE d   1       0.142   1.766   2.074  0.00  0.00     0.078 C 
ATOM      2  C1' OXE d   1       2.502   0.249   1.977  0.00  0.00     0.078 C 
ATOM      3  C1  OXE d   1       1.471   0.015   0.902  0.00  0.00    -0.078 A 
ATOM      4  C2  OXE d   1       0.299   0.728   0.984  0.00  0.00    -0.078 A 
ATOM      5  C3  OXE d   1      -0.663   0.591  -0.013  0.00  0.00     0.003 A 
ATOM      6  C4  OXE d   1      -0.514  -0.378  -1.013  0.00  0.00    -0.002 A 
ATOM      7  C5  OXE d   1       0.654  -1.143  -1.092  0.00  0.00    -0.002 A 
ATOM      8  C6  OXE d   1       1.672  -0.930  -0.169  0.00  0.00     0.003 A 
ENDROOT
TORSDOF 0
ENDMDL
