MODEL 1
REMARK minimizedAffinity -0.265174955
REMARK minimizedRMSD -1
REMARK  0 active torsions:
REMARK  status: ('A' for Active; 'I' for Inactive)
ROOT
ATOM      1  C2' OXE d   1      -1.786  -0.482   0.563  0.00  0.00     0.078 C 
ATOM      2  C1' OXE d   1      -0.759   1.612  -1.000  0.00  0.00     0.078 C 
ATOM      3  C1  OXE d   1       0.222   0.753  -0.243  0.00  0.00    -0.078 A 
ATOM      4  C2  OXE d   1      -0.292  -0.240   0.556  0.00  0.00    -0.078 A 
ATOM      5  C3  OXE d   1       0.572  -1.096   1.233  0.00  0.00     0.003 A 
ATOM      6  C4  OXE d   1       1.952  -0.860   1.229  0.00  0.00    -0.002 A 
ATOM      7  C5  OXE d   1       2.494   0.171   0.454  0.00  0.00    -0.002 A 
ATOM      8  C6  OXE d   1       1.648   0.958  -0.320  0.00  0.00     0.003 A 
ENDROOT
TORSDOF 0
ENDMDL
