MODEL 1
REMARK minimizedAffinity -2.26288486
REMARK minimizedRMSD -1
REMARK  0 active torsions:
REMARK  status: ('A' for Active; 'I' for Inactive)
ROOT
ATOM      1  C2' OXE d   1       2.683  -1.285  -2.654  0.00  0.00     0.078 C 
ATOM      2  C1' OXE d   1       1.192   1.034  -3.182  0.00  0.00     0.078 C 
ATOM      3  C1  OXE d   1       1.104   0.441  -1.798  0.00  0.00    -0.078 A 
ATOM      4  C2  OXE d   1       1.800  -0.720  -1.563  0.00  0.00    -0.078 A 
ATOM      5  C3  OXE d   1       1.796  -1.279  -0.288  0.00  0.00     0.003 A 
ATOM      6  C4  OXE d   1       0.969  -0.756   0.713  0.00  0.00    -0.002 A 
ATOM      7  C5  OXE d   1       0.221   0.403   0.482  0.00  0.00    -0.002 A 
ATOM      8  C6  OXE d   1       0.310   1.037  -0.752  0.00  0.00     0.003 A 
ENDROOT
TORSDOF 0
ENDMDL
