MODEL 1
REMARK minimizedAffinity -5.55015135
REMARK minimizedRMSD -1
REMARK  0 active torsions:
REMARK  status: ('A' for Active; 'I' for Inactive)
ROOT
ATOM      1  C2' OXE d   1      -2.318  -0.377   0.075  0.00  0.00     0.078 C 
ATOM      2  C1' OXE d   1       0.320  -1.117  -0.538  0.00  0.00     0.078 C 
ATOM      3  C1  OXE d   1       0.077  -0.391   0.762  0.00  0.00    -0.078 A 
ATOM      4  C2  OXE d   1      -1.210   0.008   1.032  0.00  0.00    -0.078 A 
ATOM      5  C3  OXE d   1      -1.498   0.633   2.242  0.00  0.00     0.003 A 
ATOM      6  C4  OXE d   1      -0.466   0.995   3.116  0.00  0.00    -0.002 A 
ATOM      7  C5  OXE d   1       0.857   0.632   2.842  0.00  0.00    -0.002 A 
ATOM      8  C6  OXE d   1       1.139  -0.096   1.692  0.00  0.00     0.003 A 
ENDROOT
TORSDOF 0
ENDMDL
