MODEL 1
REMARK minimizedAffinity 3.21449685
REMARK minimizedRMSD -1
REMARK  0 active torsions:
REMARK  status: ('A' for Active; 'I' for Inactive)
ROOT
ATOM      1  C   UNL d   1      -2.184  -1.794   3.944  0.00  0.00     0.077 C 
ATOM      2  C1  UNL d   1      -1.837  -2.343   2.593  0.00  0.00    -0.074 A 
ATOM      3  C2  UNL d   1      -1.822  -1.518   1.464  0.00  0.00    -0.005 A 
ATOM      4  C3  UNL d   1      -1.488  -2.041   0.215  0.00  0.00     0.006 A 
ATOM      5  C4  UNL d   1      -1.166  -3.392   0.082  0.00  0.00    -0.005 A 
ATOM      6  C5  UNL d   1      -1.176  -4.233   1.200  0.00  0.00    -0.074 A 
ATOM      7  C6  UNL d   1      -0.823  -5.685   1.076  0.00  0.00     0.077 C 
ATOM      8  C7  UNL d   1      -1.505  -3.698   2.452  0.00  0.00    -0.001 A 
ENDROOT
TORSDOF 0
ENDMDL
