MODEL 1
REMARK minimizedAffinity 9.9125433
REMARK minimizedRMSD -1
REMARK  0 active torsions:
REMARK  status: ('A' for Active; 'I' for Inactive)
ROOT
ATOM      1  C   UNL d   1      -2.361  -1.793   3.264  0.00  0.00     0.077 C 
ATOM      2  C1  UNL d   1      -1.780  -2.617   2.154  0.00  0.00    -0.074 A 
ATOM      3  C2  UNL d   1      -1.767  -2.144   0.838  0.00  0.00    -0.005 A 
ATOM      4  C3  UNL d   1      -1.215  -2.918  -0.182  0.00  0.00     0.006 A 
ATOM      5  C4  UNL d   1      -0.670  -4.171   0.102  0.00  0.00    -0.005 A 
ATOM      6  C5  UNL d   1      -0.673  -4.660   1.413  0.00  0.00    -0.074 A 
ATOM      7  C6  UNL d   1      -0.083  -6.000   1.738  0.00  0.00     0.077 C 
ATOM      8  C7  UNL d   1      -1.224  -3.873   2.433  0.00  0.00    -0.001 A 
ENDROOT
TORSDOF 0
ENDMDL
