MODEL 1
REMARK minimizedAffinity 9.15151501
REMARK minimizedRMSD -1
REMARK  0 active torsions:
REMARK  status: ('A' for Active; 'I' for Inactive)
ROOT
ATOM      1  C   UNL d   1       3.652  -0.373  -3.204  0.00  0.00     0.077 C 
ATOM      2  C1  UNL d   1       2.915   0.093  -1.984  0.00  0.00    -0.074 A 
ATOM      3  C2  UNL d   1       1.649  -0.414  -1.672  0.00  0.00    -0.005 A 
ATOM      4  C3  UNL d   1       0.980   0.022  -0.528  0.00  0.00     0.006 A 
ATOM      5  C4  UNL d   1       1.568   0.966   0.314  0.00  0.00    -0.005 A 
ATOM      6  C5  UNL d   1       2.834   1.483   0.018  0.00  0.00    -0.074 A 
ATOM      7  C6  UNL d   1       3.485   2.492   0.918  0.00  0.00     0.077 C 
ATOM      8  C7  UNL d   1       3.503   1.036  -1.129  0.00  0.00    -0.001 A 
ENDROOT
TORSDOF 0
ENDMDL
