MODEL 1
REMARK minimizedAffinity 4.01196909
REMARK minimizedRMSD -1
REMARK  0 active torsions:
REMARK  status: ('A' for Active; 'I' for Inactive)
ROOT
ATOM      1  C   UNL d   1      -1.371  -3.115  -3.181  0.00  0.00     0.077 C 
ATOM      2  C1  UNL d   1      -1.520  -2.915  -1.702  0.00  0.00    -0.074 A 
ATOM      3  C2  UNL d   1      -2.297  -1.870  -1.193  0.00  0.00    -0.005 A 
ATOM      4  C3  UNL d   1      -2.434  -1.703   0.185  0.00  0.00     0.006 A 
ATOM      5  C4  UNL d   1      -1.797  -2.577   1.066  0.00  0.00    -0.005 A 
ATOM      6  C5  UNL d   1      -1.016  -3.629   0.575  0.00  0.00    -0.074 A 
ATOM      7  C6  UNL d   1      -0.332  -4.583   1.508  0.00  0.00     0.077 C 
ATOM      8  C7  UNL d   1      -0.889  -3.794  -0.811  0.00  0.00    -0.001 A 
ENDROOT
TORSDOF 0
ENDMDL
