MODEL 1
REMARK minimizedAffinity 6.45440578
REMARK minimizedRMSD -1
REMARK  0 active torsions:
REMARK  status: ('A' for Active; 'I' for Inactive)
ROOT
ATOM      1  C   UNL d   1       3.888  -0.136  -3.185  0.00  0.00     0.077 C 
ATOM      2  C1  UNL d   1       3.309   0.302  -1.872  0.00  0.00    -0.074 A 
ATOM      3  C2  UNL d   1       2.233  -0.381  -1.297  0.00  0.00    -0.005 A 
ATOM      4  C3  UNL d   1       1.713   0.032  -0.071  0.00  0.00     0.006 A 
ATOM      5  C4  UNL d   1       2.261   1.131   0.591  0.00  0.00    -0.005 A 
ATOM      6  C5  UNL d   1       3.338   1.826   0.031  0.00  0.00    -0.074 A 
ATOM      7  C6  UNL d   1       3.946   3.004   0.734  0.00  0.00     0.077 C 
ATOM      8  C7  UNL d   1       3.860   1.400  -1.198  0.00  0.00    -0.001 A 
ENDROOT
TORSDOF 0
ENDMDL
