MODEL 1
REMARK minimizedAffinity 6.92130852
REMARK minimizedRMSD -1
REMARK  0 active torsions:
REMARK  status: ('A' for Active; 'I' for Inactive)
ROOT
ATOM      1  C   UNL d   1       5.989   2.704  -1.018  0.00  0.00     0.077 C 
ATOM      2  C1  UNL d   1       5.979   1.431  -1.810  0.00  0.00    -0.074 A 
ATOM      3  C2  UNL d   1       5.995   1.454  -3.208  0.00  0.00    -0.005 A 
ATOM      4  C3  UNL d   1       5.995   0.261  -3.931  0.00  0.00     0.006 A 
ATOM      5  C4  UNL d   1       5.980  -0.965  -3.264  0.00  0.00    -0.005 A 
ATOM      6  C5  UNL d   1       5.966  -1.008  -1.867  0.00  0.00    -0.074 A 
ATOM      7  C6  UNL d   1       5.960  -2.317  -1.134  0.00  0.00     0.077 C 
ATOM      8  C7  UNL d   1       5.972   0.195  -1.147  0.00  0.00    -0.001 A 
ENDROOT
TORSDOF 0
ENDMDL
