MODEL 1
REMARK minimizedAffinity 11.0326452
REMARK minimizedRMSD -1
REMARK  0 active torsions:
REMARK  status: ('A' for Active; 'I' for Inactive)
ROOT
ATOM      1  C   UNL d   1      -0.415  -4.556   0.360  0.00  0.00     0.077 C 
ATOM      2  C1  UNL d   1      -1.007  -3.267   0.847  0.00  0.00    -0.074 A 
ATOM      3  C2  UNL d   1      -1.386  -2.265  -0.051  0.00  0.00    -0.005 A 
ATOM      4  C3  UNL d   1      -1.944  -1.075   0.416  0.00  0.00     0.006 A 
ATOM      5  C4  UNL d   1      -2.128  -0.876   1.785  0.00  0.00    -0.005 A 
ATOM      6  C5  UNL d   1      -1.756  -1.868   2.699  0.00  0.00    -0.074 A 
ATOM      7  C6  UNL d   1      -1.957  -1.674   4.172  0.00  0.00     0.077 C 
ATOM      8  C7  UNL d   1      -1.203  -3.063   2.220  0.00  0.00    -0.001 A 
ENDROOT
TORSDOF 0
ENDMDL
