MODEL 1
REMARK minimizedAffinity 9.4980526
REMARK minimizedRMSD -1
REMARK  0 active torsions:
REMARK  status: ('A' for Active; 'I' for Inactive)
ROOT
ATOM      1  C   UNL d   1      -2.338  -2.778   3.972  0.00  0.00     0.077 C 
ATOM      2  C1  UNL d   1      -1.872  -3.035   2.569  0.00  0.00    -0.074 A 
ATOM      3  C2  UNL d   1      -1.180  -4.206   2.244  0.00  0.00    -0.005 A 
ATOM      4  C3  UNL d   1      -0.761  -4.435   0.934  0.00  0.00     0.006 A 
ATOM      5  C4  UNL d   1      -1.029  -3.496  -0.063  0.00  0.00    -0.005 A 
ATOM      6  C5  UNL d   1      -1.720  -2.320   0.242  0.00  0.00    -0.074 A 
ATOM      7  C6  UNL d   1      -2.025  -1.305  -0.820  0.00  0.00     0.077 C 
ATOM      8  C7  UNL d   1      -2.144  -2.100   1.560  0.00  0.00    -0.001 A 
ENDROOT
TORSDOF 0
ENDMDL
