MODEL 1
REMARK minimizedAffinity 11.4528236
REMARK minimizedRMSD -1
REMARK  0 active torsions:
REMARK  status: ('A' for Active; 'I' for Inactive)
ROOT
ATOM      1  C   UNL d   1      -0.074  -5.884   1.179  0.00  0.00     0.077 C 
ATOM      2  C1  UNL d   1      -0.778  -4.564   1.074  0.00  0.00    -0.074 A 
ATOM      3  C2  UNL d   1      -0.642  -3.765  -0.066  0.00  0.00    -0.005 A 
ATOM      4  C3  UNL d   1      -1.310  -2.544  -0.153  0.00  0.00     0.006 A 
ATOM      5  C4  UNL d   1      -2.120  -2.110   0.897  0.00  0.00    -0.005 A 
ATOM      6  C5  UNL d   1      -2.269  -2.896   2.045  0.00  0.00    -0.074 A 
ATOM      7  C6  UNL d   1      -3.144  -2.449   3.178  0.00  0.00     0.077 C 
ATOM      8  C7  UNL d   1      -1.600  -4.125   2.122  0.00  0.00    -0.001 A 
ENDROOT
TORSDOF 0
ENDMDL
