MODEL 1
REMARK minimizedAffinity 14.3461742
REMARK minimizedRMSD -1
REMARK  0 active torsions:
REMARK  status: ('A' for Active; 'I' for Inactive)
ROOT
ATOM      1  C   UNL d   1       4.999   4.698   0.082  0.00  0.00     0.077 C 
ATOM      2  C1  UNL d   1       4.363   3.375   0.390  0.00  0.00    -0.074 A 
ATOM      3  C2  UNL d   1       3.300   2.892  -0.380  0.00  0.00    -0.005 A 
ATOM      4  C3  UNL d   1       2.724   1.656  -0.087  0.00  0.00     0.006 A 
ATOM      5  C4  UNL d   1       3.205   0.891   0.976  0.00  0.00    -0.005 A 
ATOM      6  C5  UNL d   1       4.268   1.357   1.756  0.00  0.00    -0.074 A 
ATOM      7  C6  UNL d   1       4.803   0.543   2.897  0.00  0.00     0.077 C 
ATOM      8  C7  UNL d   1       4.845   2.597   1.452  0.00  0.00    -0.001 A 
ENDROOT
TORSDOF 0
ENDMDL
