MODEL 1
REMARK minimizedAffinity 11.8925543
REMARK minimizedRMSD -1
REMARK  0 active torsions:
REMARK  status: ('A' for Active; 'I' for Inactive)
ROOT
ATOM      1  C   UNL d   1      -6.000   5.999   0.916  0.00  0.00     0.077 C 
ATOM      2  C1  UNL d   1      -4.808   5.092   0.999  0.00  0.00    -0.074 A 
ATOM      3  C2  UNL d   1      -3.646   5.492   1.667  0.00  0.00    -0.005 A 
ATOM      4  C3  UNL d   1      -2.549   4.634   1.745  0.00  0.00     0.006 A 
ATOM      5  C4  UNL d   1      -2.603   3.370   1.156  0.00  0.00    -0.005 A 
ATOM      6  C5  UNL d   1      -3.757   2.953   0.485  0.00  0.00    -0.074 A 
ATOM      7  C6  UNL d   1      -3.835   1.593  -0.144  0.00  0.00     0.077 C 
ATOM      8  C7  UNL d   1      -4.857   3.818   0.417  0.00  0.00    -0.001 A 
ENDROOT
TORSDOF 0
ENDMDL
