MODEL 1
REMARK minimizedAffinity 8.85973167
REMARK minimizedRMSD -1
REMARK  0 active torsions:
REMARK  status: ('A' for Active; 'I' for Inactive)
ROOT
ATOM      1  C   UNL d   1      -5.998   5.992   2.560  0.00  0.00     0.077 C 
ATOM      2  C1  UNL d   1      -5.517   5.231   1.361  0.00  0.00    -0.074 A 
ATOM      3  C2  UNL d   1      -5.548   3.833   1.336  0.00  0.00    -0.005 A 
ATOM      4  C3  UNL d   1      -5.105   3.140   0.209  0.00  0.00     0.006 A 
ATOM      5  C4  UNL d   1      -4.629   3.837  -0.902  0.00  0.00    -0.005 A 
ATOM      6  C5  UNL d   1      -4.591   5.235  -0.896  0.00  0.00    -0.074 A 
ATOM      7  C6  UNL d   1      -4.091   5.999  -2.086  0.00  0.00     0.077 C 
ATOM      8  C7  UNL d   1      -5.044   5.924   0.237  0.00  0.00    -0.001 A 
ENDROOT
TORSDOF 0
ENDMDL
