MODEL 1
REMARK minimizedAffinity 8.36358166
REMARK minimizedRMSD -1
REMARK  0 active torsions:
REMARK  status: ('A' for Active; 'I' for Inactive)
ROOT
ATOM      1  C   UNL d   1       5.239   4.258  -0.265  0.00  0.00     0.077 C 
ATOM      2  C1  UNL d   1       4.370   3.216   0.374  0.00  0.00    -0.074 A 
ATOM      3  C2  UNL d   1       4.249   3.134   1.765  0.00  0.00    -0.005 A 
ATOM      4  C3  UNL d   1       3.429   2.166   2.344  0.00  0.00     0.006 A 
ATOM      5  C4  UNL d   1       2.724   1.270   1.539  0.00  0.00    -0.005 A 
ATOM      6  C5  UNL d   1       2.831   1.337   0.146  0.00  0.00    -0.074 A 
ATOM      7  C6  UNL d   1       2.072   0.388  -0.733  0.00  0.00     0.077 C 
ATOM      8  C7  UNL d   1       3.652   2.318  -0.428  0.00  0.00    -0.001 A 
ENDROOT
TORSDOF 0
ENDMDL
