MODEL 1
REMARK minimizedAffinity 9.56742096
REMARK minimizedRMSD -1
REMARK  0 active torsions:
REMARK  status: ('A' for Active; 'I' for Inactive)
ROOT
ATOM      1  C   UNL d   1      -0.849  -5.083  -0.320  0.00  0.00     0.077 C 
ATOM      2  C1  UNL d   1      -1.222  -3.650  -0.079  0.00  0.00    -0.074 A 
ATOM      3  C2  UNL d   1      -2.515  -3.301   0.321  0.00  0.00    -0.005 A 
ATOM      4  C3  UNL d   1      -2.844  -1.965   0.550  0.00  0.00     0.006 A 
ATOM      5  C4  UNL d   1      -1.885  -0.967   0.381  0.00  0.00    -0.005 A 
ATOM      6  C5  UNL d   1      -0.585  -1.297  -0.018  0.00  0.00    -0.074 A 
ATOM      7  C6  UNL d   1       0.461  -0.237  -0.194  0.00  0.00     0.077 C 
ATOM      8  C7  UNL d   1      -0.261  -2.642  -0.239  0.00  0.00    -0.001 A 
ENDROOT
TORSDOF 0
ENDMDL
