MODEL 1
REMARK minimizedAffinity 8.07205963
REMARK minimizedRMSD -1
REMARK  0 active torsions:
REMARK  status: ('A' for Active; 'I' for Inactive)
ROOT
ATOM      1  C   UNL d   1       5.098   4.182  -0.635  0.00  0.00     0.077 C 
ATOM      2  C1  UNL d   1       4.078   3.344   0.076  0.00  0.00    -0.074 A 
ATOM      3  C2  UNL d   1       3.104   2.637  -0.638  0.00  0.00    -0.005 A 
ATOM      4  C3  UNL d   1       2.168   1.853   0.037  0.00  0.00     0.006 A 
ATOM      5  C4  UNL d   1       2.196   1.768   1.430  0.00  0.00    -0.005 A 
ATOM      6  C5  UNL d   1       3.163   2.467   2.160  0.00  0.00    -0.074 A 
ATOM      7  C6  UNL d   1       3.213   2.379   3.656  0.00  0.00     0.077 C 
ATOM      8  C7  UNL d   1       4.104   3.247   1.474  0.00  0.00    -0.001 A 
ENDROOT
TORSDOF 0
ENDMDL
