MODEL 1
REMARK minimizedAffinity 8.79585457
REMARK minimizedRMSD -1
REMARK  0 active torsions:
REMARK  status: ('A' for Active; 'I' for Inactive)
ROOT
ATOM      1  C   UNL d   1      -1.840  -4.959   4.442  0.00  0.00     0.077 C 
ATOM      2  C1  UNL d   1      -1.470  -4.926   2.989  0.00  0.00    -0.074 A 
ATOM      3  C2  UNL d   1      -0.794  -5.996   2.395  0.00  0.00    -0.005 A 
ATOM      4  C3  UNL d   1      -0.465  -5.955   1.040  0.00  0.00     0.006 A 
ATOM      5  C4  UNL d   1      -0.808  -4.845   0.267  0.00  0.00    -0.005 A 
ATOM      6  C5  UNL d   1      -1.485  -3.766   0.844  0.00  0.00    -0.074 A 
ATOM      7  C6  UNL d   1      -1.870  -2.570   0.025  0.00  0.00     0.077 C 
ATOM      8  C7  UNL d   1      -1.818  -3.818   2.204  0.00  0.00    -0.001 A 
ENDROOT
TORSDOF 0
ENDMDL
