MODEL 1
REMARK minimizedAffinity 0.255534351
REMARK minimizedRMSD -1
REMARK  0 active torsions:
REMARK  status: ('A' for Active; 'I' for Inactive)
ROOT
ATOM      1  C   UNL d   1      -2.277   4.062  -1.908  0.00  0.00     0.077 C 
ATOM      2  C1  UNL d   1      -2.496   2.996  -2.941  0.00  0.00    -0.074 A 
ATOM      3  C2  UNL d   1      -2.770   3.329  -4.271  0.00  0.00    -0.005 A 
ATOM      4  C3  UNL d   1      -2.962   2.327  -5.222  0.00  0.00     0.006 A 
ATOM      5  C4  UNL d   1      -2.883   0.984  -4.852  0.00  0.00    -0.005 A 
ATOM      6  C5  UNL d   1      -2.609   0.631  -3.527  0.00  0.00    -0.074 A 
ATOM      7  C6  UNL d   1      -2.510  -0.807  -3.115  0.00  0.00     0.077 C 
ATOM      8  C7  UNL d   1      -2.410   1.644  -2.579  0.00  0.00    -0.001 A 
ENDROOT
TORSDOF 0
ENDMDL
