MODEL 1
REMARK minimizedAffinity -1.31873751
REMARK minimizedRMSD -1
REMARK  0 active torsions:
REMARK  status: ('A' for Active; 'I' for Inactive)
ROOT
ATOM      1  C   UNL d   1      -0.960   0.367  -0.155  0.00  0.00     0.077 C 
ATOM      2  C1  UNL d   1      -1.561   0.128   1.199  0.00  0.00    -0.074 A 
ATOM      3  C2  UNL d   1      -0.836  -0.524   2.202  0.00  0.00    -0.005 A 
ATOM      4  C3  UNL d   1      -1.404  -0.731   3.458  0.00  0.00     0.006 A 
ATOM      5  C4  UNL d   1      -2.701  -0.289   3.725  0.00  0.00    -0.005 A 
ATOM      6  C5  UNL d   1      -3.440   0.365   2.735  0.00  0.00    -0.074 A 
ATOM      7  C6  UNL d   1      -4.831   0.855   3.008  0.00  0.00     0.077 C 
ATOM      8  C7  UNL d   1      -2.860   0.576   1.477  0.00  0.00    -0.001 A 
ENDROOT
TORSDOF 0
ENDMDL
