MODEL 1
REMARK minimizedAffinity 1.63140297
REMARK minimizedRMSD -1
REMARK  0 active torsions:
REMARK  status: ('A' for Active; 'I' for Inactive)
ROOT
ATOM      1  C   UNL d   1       1.174   2.559   2.531  0.00  0.00     0.077 C 
ATOM      2  C1  UNL d   1       1.063   3.761   3.422  0.00  0.00    -0.074 A 
ATOM      3  C2  UNL d   1      -0.180   4.337   3.700  0.00  0.00    -0.005 A 
ATOM      4  C3  UNL d   1      -0.268   5.449   4.538  0.00  0.00     0.006 A 
ATOM      5  C4  UNL d   1       0.884   5.995   5.105  0.00  0.00    -0.005 A 
ATOM      6  C5  UNL d   1       2.136   5.432   4.838  0.00  0.00    -0.074 A 
ATOM      7  C6  UNL d   1       3.383   6.000   5.447  0.00  0.00     0.077 C 
ATOM      8  C7  UNL d   1       2.216   4.310   4.001  0.00  0.00    -0.001 A 
ENDROOT
TORSDOF 0
ENDMDL
