MODEL 1
REMARK minimizedAffinity 3.39022231
REMARK minimizedRMSD -1
REMARK  0 active torsions:
REMARK  status: ('A' for Active; 'I' for Inactive)
ROOT
ATOM      1  C   UNL d   1       1.280  -1.006   0.770  0.00  0.00     0.077 C 
ATOM      2  C1  UNL d   1       0.007  -0.774   0.011  0.00  0.00    -0.074 A 
ATOM      3  C2  UNL d   1       0.018  -0.609  -1.377  0.00  0.00    -0.005 A 
ATOM      4  C3  UNL d   1      -1.175  -0.404  -2.071  0.00  0.00     0.006 A 
ATOM      5  C4  UNL d   1      -2.389  -0.362  -1.384  0.00  0.00    -0.005 A 
ATOM      6  C5  UNL d   1      -2.420  -0.527   0.005  0.00  0.00    -0.074 A 
ATOM      7  C6  UNL d   1      -3.717  -0.495   0.757  0.00  0.00     0.077 C 
ATOM      8  C7  UNL d   1      -1.217  -0.739   0.694  0.00  0.00    -0.001 A 
ENDROOT
TORSDOF 0
ENDMDL
