MODEL 1
REMARK minimizedAffinity -2.84122849
REMARK minimizedRMSD -1
REMARK  0 active torsions:
REMARK  status: ('A' for Active; 'I' for Inactive)
ROOT
ATOM      1  C   UNL d   1      -3.889  -0.389   1.896  0.00  0.00     0.077 C 
ATOM      2  C1  UNL d   1      -2.441  -0.779   1.895  0.00  0.00    -0.074 A 
ATOM      3  C2  UNL d   1      -1.879  -1.458   2.981  0.00  0.00    -0.005 A 
ATOM      4  C3  UNL d   1      -0.533  -1.824   2.962  0.00  0.00     0.006 A 
ATOM      5  C4  UNL d   1       0.264  -1.514   1.859  0.00  0.00    -0.005 A 
ATOM      6  C5  UNL d   1      -0.281  -0.837   0.764  0.00  0.00    -0.074 A 
ATOM      7  C6  UNL d   1       0.559  -0.505  -0.434  0.00  0.00     0.077 C 
ATOM      8  C7  UNL d   1      -1.636  -0.479   0.787  0.00  0.00    -0.001 A 
ENDROOT
TORSDOF 0
ENDMDL
