MODEL 1
REMARK minimizedAffinity 4.86640215
REMARK minimizedRMSD -1
REMARK  0 active torsions:
REMARK  status: ('A' for Active; 'I' for Inactive)
ROOT
ATOM      1  C   UNL d   1      -0.001  -0.798  -0.568  0.00  0.00     0.077 C 
ATOM      2  C1  UNL d   1      -0.986  -0.607   0.547  0.00  0.00    -0.074 A 
ATOM      3  C2  UNL d   1      -0.622   0.061   1.720  0.00  0.00    -0.005 A 
ATOM      4  C3  UNL d   1      -1.552   0.240   2.745  0.00  0.00     0.006 A 
ATOM      5  C4  UNL d   1      -2.852  -0.248   2.607  0.00  0.00    -0.005 A 
ATOM      6  C5  UNL d   1      -3.234  -0.917   1.440  0.00  0.00    -0.074 A 
ATOM      7  C6  UNL d   1      -4.630  -1.439   1.271  0.00  0.00     0.077 C 
ATOM      8  C7  UNL d   1      -2.296  -1.087   0.412  0.00  0.00    -0.001 A 
ENDROOT
TORSDOF 0
ENDMDL
