MODEL 1
REMARK minimizedAffinity -0.208615735
REMARK minimizedRMSD -1
REMARK  0 active torsions:
REMARK  status: ('A' for Active; 'I' for Inactive)
ROOT
ATOM      1  C4' PXY d   1       1.490   5.386  -0.892  0.00  0.00     0.077 C 
ATOM      2  C1' PXY d   1       0.778  -0.334  -0.467  0.00  0.00     0.077 C 
ATOM      3  C1  PXY d   1       0.966   1.165  -0.592  0.00  0.00    -0.082 A 
ATOM      4  C2  PXY d   1       1.371   1.862   0.457  0.00  0.00     0.003 A 
ATOM      5  C3  PXY d   1       1.515   3.223   0.372  0.00  0.00     0.003 A 
ATOM      6  C4  PXY d   1       1.295   3.870  -0.815  0.00  0.00    -0.082 A 
ATOM      7  C5  PXY d   1       0.892   3.164  -1.893  0.00  0.00     0.003 A 
ATOM      8  C6  PXY d   1       0.712   1.789  -1.774  0.00  0.00     0.003 A 
ENDROOT
TORSDOF 0
ENDMDL
