MODEL 1
REMARK minimizedAffinity -0.582597017
REMARK minimizedRMSD -1
REMARK  0 active torsions:
REMARK  status: ('A' for Active; 'I' for Inactive)
ROOT
ATOM      1  C4' PXY d   1       1.384   3.977   1.451  0.00  0.00     0.077 C 
ATOM      2  C1' PXY d   1       0.581  -0.905  -1.539  0.00  0.00     0.077 C 
ATOM      3  C1  PXY d   1       0.785   0.370  -0.745  0.00  0.00    -0.082 A 
ATOM      4  C2  PXY d   1       0.961   1.517  -1.382  0.00  0.00     0.003 A 
ATOM      5  C3  PXY d   1       1.180   2.674  -0.679  0.00  0.00     0.003 A 
ATOM      6  C4  PXY d   1       1.164   2.666   0.690  0.00  0.00    -0.082 A 
ATOM      7  C5  PXY d   1       0.975   1.502   1.347  0.00  0.00     0.003 A 
ATOM      8  C6  PXY d   1       0.796   0.332   0.615  0.00  0.00     0.003 A 
ENDROOT
TORSDOF 0
ENDMDL
