MODEL 1
REMARK minimizedAffinity -2.74713421
REMARK minimizedRMSD -1
REMARK  0 active torsions:
REMARK  status: ('A' for Active; 'I' for Inactive)
ROOT
ATOM      1  C4' PXY d   1       1.613  -0.834  -2.369  0.00  0.00     0.077 C 
ATOM      2  C1' PXY d   1       0.630   3.841   0.887  0.00  0.00     0.077 C 
ATOM      3  C1  PXY d   1       0.893   2.609   0.043  0.00  0.00    -0.082 A 
ATOM      4  C2  PXY d   1       0.987   2.724  -1.271  0.00  0.00     0.003 A 
ATOM      5  C3  PXY d   1       1.193   1.616  -2.052  0.00  0.00     0.003 A 
ATOM      6  C4  PXY d   1       1.357   0.384  -1.477  0.00  0.00    -0.082 A 
ATOM      7  C5  PXY d   1       1.274   0.260  -0.135  0.00  0.00     0.003 A 
ATOM      8  C6  PXY d   1       1.023   1.391   0.636  0.00  0.00     0.003 A 
ENDROOT
TORSDOF 0
ENDMDL
