MODEL 1
REMARK minimizedAffinity -2.71362829
REMARK minimizedRMSD -1
REMARK  0 active torsions:
REMARK  status: ('A' for Active; 'I' for Inactive)
ROOT
ATOM      1  C4' PXY d   1       1.098  -1.954  -0.341  0.00  0.00     0.077 C 
ATOM      2  C1' PXY d   1       1.165   3.807  -0.817  0.00  0.00     0.077 C 
ATOM      3  C1  PXY d   1       1.151   2.297  -0.680  0.00  0.00    -0.082 A 
ATOM      4  C2  PXY d   1       1.266   1.541  -1.759  0.00  0.00     0.003 A 
ATOM      5  C3  PXY d   1       1.223   0.175  -1.657  0.00  0.00     0.003 A 
ATOM      6  C4  PXY d   1       1.116  -0.425  -0.431  0.00  0.00    -0.082 A 
ATOM      7  C5  PXY d   1       1.010   0.339   0.677  0.00  0.00     0.003 A 
ATOM      8  C6  PXY d   1       1.013   1.725   0.547  0.00  0.00     0.003 A 
ENDROOT
TORSDOF 0
ENDMDL
