MODEL 1
REMARK minimizedAffinity -0.579392314
REMARK minimizedRMSD -1
REMARK  0 active torsions:
REMARK  status: ('A' for Active; 'I' for Inactive)
ROOT
ATOM      1  C4' PXY d   1       0.908   4.423   0.962  0.00  0.00     0.077 C 
ATOM      2  C1' PXY d   1       1.216  -1.091  -0.746  0.00  0.00     0.077 C 
ATOM      3  C1  PXY d   1       1.136   0.351  -0.286  0.00  0.00    -0.082 A 
ATOM      4  C2  PXY d   1       0.558   1.254  -1.061  0.00  0.00     0.003 A 
ATOM      5  C3  PXY d   1       0.505   2.569  -0.674  0.00  0.00     0.003 A 
ATOM      6  C4  PXY d   1       1.003   2.953   0.542  0.00  0.00    -0.082 A 
ATOM      7  C5  PXY d   1       1.585   2.036   1.343  0.00  0.00     0.003 A 
ATOM      8  C6  PXY d   1       1.665   0.714   0.914  0.00  0.00     0.003 A 
ENDROOT
TORSDOF 0
ENDMDL
