MODEL 1
REMARK minimizedAffinity 4.96125889
REMARK minimizedRMSD -1
REMARK  0 active torsions:
REMARK  status: ('A' for Active; 'I' for Inactive)
ROOT
ATOM      1  C4' PXY d   1       1.105   4.132  -2.045  0.00  0.00     0.077 C 
ATOM      2  C1' PXY d   1       1.448  -1.097   0.394  0.00  0.00     0.077 C 
ATOM      3  C1  PXY d   1       1.368   0.271  -0.253  0.00  0.00    -0.082 A 
ATOM      4  C2  PXY d   1       0.788   1.268   0.395  0.00  0.00     0.003 A 
ATOM      5  C3  PXY d   1       0.679   2.504  -0.188  0.00  0.00     0.003 A 
ATOM      6  C4  PXY d   1       1.216   2.736  -1.426  0.00  0.00    -0.082 A 
ATOM      7  C5  PXY d   1       1.818   1.726  -2.090  0.00  0.00     0.003 A 
ATOM      8  C6  PXY d   1       1.882   0.469  -1.497  0.00  0.00     0.003 A 
ENDROOT
TORSDOF 0
ENDMDL
