MODEL 1
REMARK minimizedAffinity 12.3678818
REMARK minimizedRMSD -1
REMARK  0 active torsions:
REMARK  status: ('A' for Active; 'I' for Inactive)
ROOT
ATOM      1  C4' PXY d   1       0.048   2.943  -2.606  0.00  0.00     0.077 C 
ATOM      2  C1' PXY d   1       3.091   0.120   1.417  0.00  0.00     0.077 C 
ATOM      3  C1  PXY d   1       2.288   0.868   0.371  0.00  0.00    -0.082 A 
ATOM      4  C2  PXY d   1       1.975   0.268  -0.766  0.00  0.00     0.003 A 
ATOM      5  C3  PXY d   1       1.277   0.941  -1.736  0.00  0.00     0.003 A 
ATOM      6  C4  PXY d   1       0.849   2.223  -1.518  0.00  0.00    -0.082 A 
ATOM      7  C5  PXY d   1       1.155   2.838  -0.356  0.00  0.00     0.003 A 
ATOM      8  C6  PXY d   1       1.900   2.152   0.599  0.00  0.00     0.003 A 
ENDROOT
TORSDOF 0
ENDMDL
