MODEL 1
REMARK minimizedAffinity 1.39340103
REMARK minimizedRMSD -1
REMARK  0 active torsions:
REMARK  status: ('A' for Active; 'I' for Inactive)
ROOT
ATOM      1  C4' PXY d   1       0.299   3.975   0.988  0.00  0.00     0.077 C 
ATOM      2  C1' PXY d   1       2.006  -0.387  -2.400  0.00  0.00     0.077 C 
ATOM      3  C1  PXY d   1       1.552   0.748  -1.503  0.00  0.00    -0.082 A 
ATOM      4  C2  PXY d   1       1.429   1.967  -2.003  0.00  0.00     0.003 A 
ATOM      5  C3  PXY d   1       1.050   3.011  -1.199  0.00  0.00     0.003 A 
ATOM      6  C4  PXY d   1       0.744   2.796   0.118  0.00  0.00    -0.082 A 
ATOM      7  C5  PXY d   1       0.858   1.554   0.633  0.00  0.00     0.003 A 
ATOM      8  C6  PXY d   1       1.283   0.515  -0.190  0.00  0.00     0.003 A 
ENDROOT
TORSDOF 0
ENDMDL
