MODEL 1
REMARK minimizedAffinity -0.942652822
REMARK minimizedRMSD -1
REMARK  0 active torsions:
REMARK  status: ('A' for Active; 'I' for Inactive)
ROOT
ATOM      1  C4' PXY d   1       1.232   5.396  -0.742  0.00  0.00     0.077 C 
ATOM      2  C1' PXY d   1       0.741  -0.354  -1.070  0.00  0.00     0.077 C 
ATOM      3  C1  PXY d   1       0.865   1.154  -0.972  0.00  0.00    -0.082 A 
ATOM      4  C2  PXY d   1       0.915   1.879  -2.077  0.00  0.00     0.003 A 
ATOM      5  C3  PXY d   1       1.059   3.241  -2.007  0.00  0.00     0.003 A 
ATOM      6  C4  PXY d   1       1.098   3.872  -0.793  0.00  0.00    -0.082 A 
ATOM      7  C5  PXY d   1       1.036   3.140   0.340  0.00  0.00     0.003 A 
ATOM      8  C6  PXY d   1       0.932   1.755   0.247  0.00  0.00     0.003 A 
ENDROOT
TORSDOF 0
ENDMDL
