MODEL 1
REMARK minimizedAffinity -4.60043097
REMARK minimizedRMSD -1
REMARK  0 active torsions:
REMARK  status: ('A' for Active; 'I' for Inactive)
ROOT
ATOM      1  C4' PXY d   1       1.267   5.267  -0.692  0.00  0.00     0.077 C 
ATOM      2  C1' PXY d   1       0.702  -0.472  -0.301  0.00  0.00     0.077 C 
ATOM      3  C1  PXY d   1       0.845   1.034  -0.392  0.00  0.00    -0.082 A 
ATOM      4  C2  PXY d   1       0.917   1.614  -1.579  0.00  0.00     0.003 A 
ATOM      5  C3  PXY d   1       1.078   2.972  -1.679  0.00  0.00     0.003 A 
ATOM      6  C4  PXY d   1       1.113   3.750  -0.552  0.00  0.00    -0.082 A 
ATOM      7  C5  PXY d   1       1.029   3.167   0.662  0.00  0.00     0.003 A 
ATOM      8  C6  PXY d   1       0.907   1.783   0.743  0.00  0.00     0.003 A 
ENDROOT
TORSDOF 0
ENDMDL
