MODEL 1
REMARK minimizedAffinity 3.87420464
REMARK minimizedRMSD -1
REMARK  0 active torsions:
REMARK  status: ('A' for Active; 'I' for Inactive)
ROOT
ATOM      1  C4' PXY d   1       0.842   2.535   1.458  0.00  0.00     0.077 C 
ATOM      2  C1' PXY d   1       1.346  -0.832  -3.214  0.00  0.00     0.077 C 
ATOM      3  C1  PXY d   1       1.214   0.061  -1.996  0.00  0.00    -0.082 A 
ATOM      4  C2  PXY d   1       1.595  -0.387  -0.811  0.00  0.00     0.003 A 
ATOM      5  C3  PXY d   1       1.453   0.396   0.305  0.00  0.00     0.003 A 
ATOM      6  C4  PXY d   1       0.966   1.671   0.200  0.00  0.00    -0.082 A 
ATOM      7  C5  PXY d   1       0.585   2.140  -1.007  0.00  0.00     0.003 A 
ATOM      8  C6  PXY d   1       0.699   1.314  -2.122  0.00  0.00     0.003 A 
ENDROOT
TORSDOF 0
ENDMDL
