MODEL 1
REMARK minimizedAffinity 4.04951382
REMARK minimizedRMSD -1
REMARK  0 active torsions:
REMARK  status: ('A' for Active; 'I' for Inactive)
ROOT
ATOM      1  C4' PXY d   1       1.097   4.578  -1.243  0.00  0.00     0.077 C 
ATOM      2  C1' PXY d   1       1.249  -1.064   0.006  0.00  0.00     0.077 C 
ATOM      3  C1  PXY d   1       1.217   0.414  -0.331  0.00  0.00    -0.082 A 
ATOM      4  C2  PXY d   1       0.932   1.295   0.613  0.00  0.00     0.003 A 
ATOM      5  C3  PXY d   1       0.867   2.632   0.318  0.00  0.00     0.003 A 
ATOM      6  C4  PXY d   1       1.150   3.077  -0.946  0.00  0.00    -0.082 A 
ATOM      7  C5  PXY d   1       1.452   2.185  -1.913  0.00  0.00     0.003 A 
ATOM      8  C6  PXY d   1       1.472   0.829  -1.602  0.00  0.00     0.003 A 
ENDROOT
TORSDOF 0
ENDMDL
