MODEL 1
REMARK minimizedAffinity 1.6713717
REMARK minimizedRMSD -1
REMARK  0 active torsions:
REMARK  status: ('A' for Active; 'I' for Inactive)
ROOT
ATOM      1  C4' PXY d   1      -0.158   2.663   1.803  0.00  0.00     0.077 C 
ATOM      2  C1' PXY d   1       1.986  -0.569  -2.484  0.00  0.00     0.077 C 
ATOM      3  C1  PXY d   1       1.427   0.290  -1.366  0.00  0.00    -0.082 A 
ATOM      4  C2  PXY d   1       1.315  -0.214  -0.147  0.00  0.00     0.003 A 
ATOM      5  C3  PXY d   1       0.783   0.538   0.868  0.00  0.00     0.003 A 
ATOM      6  C4  PXY d   1       0.409   1.836   0.646  0.00  0.00    -0.082 A 
ATOM      7  C5  PXY d   1       0.530   2.361  -0.592  0.00  0.00     0.003 A 
ATOM      8  C6  PXY d   1       1.035   1.568  -1.618  0.00  0.00     0.003 A 
ENDROOT
TORSDOF 0
ENDMDL
