MODEL 1
REMARK minimizedAffinity -2.94219065
REMARK minimizedRMSD -1
REMARK  0 active torsions:
REMARK  status: ('A' for Active; 'I' for Inactive)
ROOT
ATOM      1  C4' PXY d   1       1.374   5.087  -0.973  0.00  0.00     0.077 C 
ATOM      2  C1' PXY d   1       0.600  -0.616  -0.426  0.00  0.00     0.077 C 
ATOM      3  C1  PXY d   1       0.796   0.882  -0.559  0.00  0.00    -0.082 A 
ATOM      4  C2  PXY d   1       1.075   1.403  -1.743  0.00  0.00     0.003 A 
ATOM      5  C3  PXY d   1       1.287   2.751  -1.875  0.00  0.00     0.003 A 
ATOM      6  C4  PXY d   1       1.159   3.581  -0.794  0.00  0.00    -0.082 A 
ATOM      7  C5  PXY d   1       0.864   3.059   0.416  0.00  0.00     0.003 A 
ATOM      8  C6  PXY d   1       0.694   1.683   0.536  0.00  0.00     0.003 A 
ENDROOT
TORSDOF 0
ENDMDL
