MODEL 1
REMARK minimizedAffinity 1.60591853
REMARK minimizedRMSD -1
REMARK  0 active torsions:
REMARK  status: ('A' for Active; 'I' for Inactive)
ROOT
ATOM      1  C4' PXY d   1       0.933   4.002  -1.916  0.00  0.00     0.077 C 
ATOM      2  C1' PXY d   1       1.156  -1.365   0.220  0.00  0.00     0.077 C 
ATOM      3  C1  PXY d   1       1.109   0.041  -0.346  0.00  0.00    -0.082 A 
ATOM      4  C2  PXY d   1       0.351   0.956   0.237  0.00  0.00     0.003 A 
ATOM      5  C3  PXY d   1       0.272   2.223  -0.281  0.00  0.00     0.003 A 
ATOM      6  C4  PXY d   1       1.018   2.573  -1.374  0.00  0.00    -0.082 A 
ATOM      7  C5  PXY d   1       1.802   1.648  -1.968  0.00  0.00     0.003 A 
ATOM      8  C6  PXY d   1       1.836   0.356  -1.452  0.00  0.00     0.003 A 
ENDROOT
TORSDOF 0
ENDMDL
