MODEL 1
REMARK minimizedAffinity 1.40086508
REMARK minimizedRMSD -1
REMARK  0 active torsions:
REMARK  status: ('A' for Active; 'I' for Inactive)
ROOT
ATOM      1  C4' PXY d   1       0.059   2.997  -2.769  0.00  0.00     0.077 C 
ATOM      2  C1' PXY d   1       1.965   0.060   1.830  0.00  0.00     0.077 C 
ATOM      3  C1  PXY d   1       1.466   0.820   0.617  0.00  0.00    -0.082 A 
ATOM      4  C2  PXY d   1       1.591   2.136   0.572  0.00  0.00     0.003 A 
ATOM      5  C3  PXY d   1       1.117   2.842  -0.504  0.00  0.00     0.003 A 
ATOM      6  C4  PXY d   1       0.557   2.188  -1.568  0.00  0.00    -0.082 A 
ATOM      7  C5  PXY d   1       0.435   0.844  -1.535  0.00  0.00     0.003 A 
ATOM      8  C6  PXY d   1       0.886   0.150  -0.416  0.00  0.00     0.003 A 
ENDROOT
TORSDOF 0
ENDMDL
