MODEL 1
REMARK minimizedAffinity -4.94502735
REMARK minimizedRMSD -1
REMARK  0 active torsions:
REMARK  status: ('A' for Active; 'I' for Inactive)
ROOT
ATOM      1  C4' PXY d   1       1.391  -0.711  -0.363  0.00  0.00     0.077 C 
ATOM      2  C1' PXY d   1       0.932   5.048  -0.564  0.00  0.00     0.077 C 
ATOM      3  C1  PXY d   1       1.053   3.539  -0.498  0.00  0.00    -0.082 A 
ATOM      4  C2  PXY d   1       1.526   2.874  -1.540  0.00  0.00     0.003 A 
ATOM      5  C3  PXY d   1       1.611   1.506  -1.509  0.00  0.00     0.003 A 
ATOM      6  C4  PXY d   1       1.260   0.815  -0.381  0.00  0.00    -0.082 A 
ATOM      7  C5  PXY d   1       0.787   1.486   0.690  0.00  0.00     0.003 A 
ATOM      8  C6  PXY d   1       0.669   2.872   0.624  0.00  0.00     0.003 A 
ENDROOT
TORSDOF 0
ENDMDL
