MODEL 1
REMARK minimizedAffinity 2.29060912
REMARK minimizedRMSD -1
REMARK  0 active torsions:
REMARK  status: ('A' for Active; 'I' for Inactive)
ROOT
ATOM      1  C4' PXY d   1      -2.924  -0.537   6.000  0.00  0.00     0.077 C 
ATOM      2  C1' PXY d   1      -3.005   2.970   1.405  0.00  0.00     0.077 C 
ATOM      3  C1  PXY d   1      -2.971   2.054   2.612  0.00  0.00    -0.082 A 
ATOM      4  C2  PXY d   1      -3.797   1.022   2.674  0.00  0.00     0.003 A 
ATOM      5  C3  PXY d   1      -3.802   0.202   3.773  0.00  0.00     0.003 A 
ATOM      6  C4  PXY d   1      -2.916   0.409   4.796  0.00  0.00    -0.082 A 
ATOM      7  C5  PXY d   1      -2.063   1.454   4.736  0.00  0.00     0.003 A 
ATOM      8  C6  PXY d   1      -2.102   2.299   3.631  0.00  0.00     0.003 A 
ENDROOT
TORSDOF 0
ENDMDL
