MODEL 1
REMARK minimizedAffinity 4.49073029
REMARK minimizedRMSD -1
REMARK  0 active torsions:
REMARK  status: ('A' for Active; 'I' for Inactive)
ROOT
ATOM      1  C4' PXY d   1       1.036   4.644  -1.104  0.00  0.00     0.077 C 
ATOM      2  C1' PXY d   1       1.594  -1.062  -0.364  0.00  0.00     0.077 C 
ATOM      3  C1  PXY d   1       1.457   0.435  -0.567  0.00  0.00    -0.082 A 
ATOM      4  C2  PXY d   1       0.932   1.180   0.392  0.00  0.00     0.003 A 
ATOM      5  C3  PXY d   1       0.772   2.530   0.213  0.00  0.00     0.003 A 
ATOM      6  C4  PXY d   1       1.202   3.131  -0.939  0.00  0.00    -0.082 A 
ATOM      7  C5  PXY d   1       1.749   2.379  -1.918  0.00  0.00     0.003 A 
ATOM      8  C6  PXY d   1       1.865   1.005  -1.733  0.00  0.00     0.003 A 
ENDROOT
TORSDOF 0
ENDMDL
