MODEL 1
REMARK minimizedAffinity 13.1496201
REMARK minimizedRMSD -1
REMARK  1 active torsions:
REMARK  status: ('A' for Active; 'I' for Inactive)
REMARK    1  A    between atoms: N_2  and  C1_3 
ROOT
ATOM      1  C1  UNL d   1       0.327   2.958   0.422  0.00  0.00     0.143 A 
ATOM      2  C2  UNL d   1       1.001   3.970  -0.269  0.00  0.00    -0.057 A 
ATOM      3  C3  UNL d   1       0.732   4.232  -1.618  0.00  0.00     0.033 A 
ATOM      4  C4  UNL d   1      -0.200   3.464  -2.309  0.00  0.00    -0.042 A 
ATOM      5  C5  UNL d   1      -0.863   2.436  -1.649  0.00  0.00     0.033 A 
ATOM      6  C6  UNL d   1      -0.595   2.184  -0.300  0.00  0.00    -0.057 A 
ENDROOT
BRANCH   1   7
ATOM      7  N   UNL d   1       0.621   2.584   1.736  0.00  0.00    -0.732 N 
ATOM      8  C   UNL d   1       1.993   2.503   2.190  0.00  0.00     0.284 C 
ATOM      9  H3  UNL d   1      -0.016   3.001   2.410  0.00  0.00     0.395 HD
ENDBRANCH   1   7
TORSDOF 1
ENDMDL
