MODEL 1
REMARK minimizedAffinity -1.47149599
REMARK minimizedRMSD -1
REMARK  1 active torsions:
REMARK  status: ('A' for Active; 'I' for Inactive)
REMARK    1  A    between atoms: N_2  and  C1_3 
ROOT
ATOM      1  C1  UNL d   1       0.019   2.742   0.286  0.00  0.00     0.143 A 
ATOM      2  C2  UNL d   1      -0.643   1.522   0.465  0.00  0.00    -0.057 A 
ATOM      3  C3  UNL d   1      -0.717   0.915   1.725  0.00  0.00     0.033 A 
ATOM      4  C4  UNL d   1      -0.104   1.505   2.825  0.00  0.00    -0.042 A 
ATOM      5  C5  UNL d   1       0.581   2.704   2.665  0.00  0.00     0.033 A 
ATOM      6  C6  UNL d   1       0.646   3.309   1.406  0.00  0.00    -0.057 A 
ENDROOT
BRANCH   1   7
ATOM      7  N   UNL d   1       0.212   3.346  -0.959  0.00  0.00    -0.732 N 
ATOM      8  C   UNL d   1       0.665   4.717  -1.050  0.00  0.00     0.284 C 
ATOM      9  H3  UNL d   1       0.646   2.719  -1.632  0.00  0.00     0.395 HD
ENDBRANCH   1   7
TORSDOF 1
ENDMDL
