MODEL 1
REMARK minimizedAffinity 4.76466322
REMARK minimizedRMSD -1
REMARK  1 active torsions:
REMARK  status: ('A' for Active; 'I' for Inactive)
REMARK    1  A    between atoms: N_2  and  C1_3 
ROOT
ATOM      1  C1  UNL d   1      -1.268   3.236  -1.698  0.00  0.00     0.143 A 
ATOM      2  C2  UNL d   1      -0.130   3.923  -2.133  0.00  0.00    -0.057 A 
ATOM      3  C3  UNL d   1       1.007   4.033  -1.323  0.00  0.00     0.033 A 
ATOM      4  C4  UNL d   1       1.014   3.480  -0.047  0.00  0.00    -0.042 A 
ATOM      5  C5  UNL d   1      -0.115   2.814   0.417  0.00  0.00     0.033 A 
ATOM      6  C6  UNL d   1      -1.244   2.702  -0.400  0.00  0.00    -0.057 A 
ENDROOT
BRANCH   1   7
ATOM      7  N   UNL d   1      -2.464   3.176  -2.417  0.00  0.00    -0.732 N 
ATOM      8  C   UNL d   1      -3.333   2.025  -2.309  0.00  0.00     0.284 C 
ATOM      9  H3  UNL d   1      -2.954   4.068  -2.430  0.00  0.00     0.395 HD
ENDBRANCH   1   7
TORSDOF 1
ENDMDL
