MODEL 1
REMARK minimizedAffinity 15.3803835
REMARK minimizedRMSD -1
REMARK  1 active torsions:
REMARK  status: ('A' for Active; 'I' for Inactive)
REMARK    1  A    between atoms: N_2  and  C1_3 
ROOT
ATOM      1  C1  UNL d   1      -4.308   1.946  -3.698  0.00  0.00     0.143 A 
ATOM      2  C2  UNL d   1      -3.871   2.721  -4.778  0.00  0.00    -0.057 A 
ATOM      3  C3  UNL d   1      -3.006   3.806  -4.590  0.00  0.00     0.033 A 
ATOM      4  C4  UNL d   1      -2.586   4.155  -3.311  0.00  0.00    -0.042 A 
ATOM      5  C5  UNL d   1      -3.028   3.414  -2.220  0.00  0.00     0.033 A 
ATOM      6  C6  UNL d   1      -3.886   2.328  -2.415  0.00  0.00    -0.057 A 
ENDROOT
BRANCH   1   7
ATOM      7  N   UNL d   1      -5.246   0.916  -3.809  0.00  0.00    -0.732 N 
ATOM      8  C   UNL d   1      -5.999   0.477  -2.653  0.00  0.00     0.284 C 
ATOM      9  H3  UNL d   1      -5.795   0.981  -4.663  0.00  0.00     0.395 HD
ENDBRANCH   1   7
TORSDOF 1
ENDMDL
