MODEL 1
REMARK minimizedAffinity 12.6903343
REMARK minimizedRMSD -1
REMARK  1 active torsions:
REMARK  status: ('A' for Active; 'I' for Inactive)
REMARK    1  A    between atoms: N_2  and  C1_3 
ROOT
ATOM      1  C1  UNL d   1      -2.911  -4.975  -4.917  0.00  0.00     0.143 A 
ATOM      2  C2  UNL d   1      -3.756  -4.575  -3.876  0.00  0.00    -0.057 A 
ATOM      3  C3  UNL d   1      -5.117  -4.902  -3.879  0.00  0.00     0.033 A 
ATOM      4  C4  UNL d   1      -5.665  -5.613  -4.942  0.00  0.00    -0.042 A 
ATOM      5  C5  UNL d   1      -4.850  -5.999  -6.000  0.00  0.00     0.033 A 
ATOM      6  C6  UNL d   1      -3.490  -5.675  -5.988  0.00  0.00    -0.057 A 
ENDROOT
BRANCH   1   7
ATOM      7  N   UNL d   1      -1.570  -4.596  -5.020  0.00  0.00    -0.732 N 
ATOM      8  C   UNL d   1      -0.718  -4.576  -3.851  0.00  0.00     0.284 C 
ATOM      9  H3  UNL d   1      -1.124  -4.971  -5.854  0.00  0.00     0.395 HD
ENDBRANCH   1   7
TORSDOF 1
ENDMDL
