MODEL 1
REMARK minimizedAffinity 9.77600861
REMARK minimizedRMSD -1
REMARK  1 active torsions:
REMARK  status: ('A' for Active; 'I' for Inactive)
REMARK    1  A    between atoms: N_2  and  C1_3 
ROOT
ATOM      1  C1  UNL d   1       0.728   3.934  -1.251  0.00  0.00     0.143 A 
ATOM      2  C2  UNL d   1       0.898   2.945  -0.275  0.00  0.00    -0.057 A 
ATOM      3  C3  UNL d   1      -0.198   2.400   0.405  0.00  0.00     0.033 A 
ATOM      4  C4  UNL d   1      -1.485   2.856   0.140  0.00  0.00    -0.042 A 
ATOM      5  C5  UNL d   1      -1.675   3.855  -0.808  0.00  0.00     0.033 A 
ATOM      6  C6  UNL d   1      -0.577   4.391  -1.488  0.00  0.00    -0.057 A 
ENDROOT
BRANCH   1   7
ATOM      7  N   UNL d   1       1.786   4.585  -1.890  0.00  0.00    -0.732 N 
ATOM      8  C   UNL d   1       1.667   5.972  -2.284  0.00  0.00     0.284 C 
ATOM      9  H3  UNL d   1       2.690   4.342  -1.491  0.00  0.00     0.395 HD
ENDBRANCH   1   7
TORSDOF 1
ENDMDL
