MODEL 1
REMARK minimizedAffinity -5.75386429
REMARK minimizedRMSD -1
REMARK  1 active torsions:
REMARK  status: ('A' for Active; 'I' for Inactive)
REMARK    1  A    between atoms: C1_2  and  C2_3 
ROOT
ATOM      1  C2  UNL d   1      -0.068  -0.323   0.114  0.00  0.00    -0.073 A 
ATOM      2  C3  UNL d   1      -0.846   0.432   0.999  0.00  0.00    -0.002 A 
ATOM      3  C4  UNL d   1      -0.261   1.440   1.767  0.00  0.00     0.004 A 
ATOM      4  C5  UNL d   1       1.103   1.708   1.653  0.00  0.00    -0.004 A 
ATOM      5  C6  UNL d   1       1.895   0.971   0.766  0.00  0.00    -0.075 A 
ATOM      6  C7  UNL d   1       3.364   1.245   0.633  0.00  0.00     0.076 C 
ATOM      7  C8  UNL d   1       1.301  -0.041  -0.000  0.00  0.00     0.001 A 
ENDROOT
BRANCH   1   8
ATOM      8  C1  UNL d   1      -0.696  -1.408  -0.722  0.00  0.00     0.053 C 
ATOM      9  C   UNL d   1      -1.397  -0.848  -1.950  0.00  0.00     0.018 C 
ENDBRANCH   1   8
TORSDOF 1
ENDMDL
