MODEL 1
REMARK minimizedAffinity -4.11220121
REMARK minimizedRMSD -1
REMARK  1 active torsions:
REMARK  status: ('A' for Active; 'I' for Inactive)
REMARK    1  A    between atoms: C1_2  and  C2_3 
ROOT
ATOM      1  C2  UNL d   1      -0.008   0.121  -0.090  0.00  0.00    -0.073 A 
ATOM      2  C3  UNL d   1      -0.825   0.950   0.687  0.00  0.00    -0.002 A 
ATOM      3  C4  UNL d   1      -0.262   1.814   1.627  0.00  0.00     0.004 A 
ATOM      4  C5  UNL d   1       1.121   1.863   1.796  0.00  0.00    -0.004 A 
ATOM      5  C6  UNL d   1       1.956   1.051   1.021  0.00  0.00    -0.075 A 
ATOM      6  C7  UNL d   1       3.446   1.090   1.192  0.00  0.00     0.076 C 
ATOM      7  C8  UNL d   1       1.383   0.184   0.080  0.00  0.00     0.001 A 
ENDROOT
BRANCH   1   8
ATOM      8  C1  UNL d   1      -0.611  -0.809  -1.111  0.00  0.00     0.053 C 
ATOM      9  C   UNL d   1      -0.114  -2.236  -0.946  0.00  0.00     0.018 C 
ENDBRANCH   1   8
TORSDOF 1
ENDMDL
