MODEL 1
REMARK minimizedAffinity -4.06180906
REMARK minimizedRMSD -1
REMARK  1 active torsions:
REMARK  status: ('A' for Active; 'I' for Inactive)
REMARK    1  A    between atoms: C1_2  and  C2_3 
ROOT
ATOM      1  C2  UNL d   1       0.098  -0.339  -0.385  0.00  0.00    -0.073 A 
ATOM      2  C3  UNL d   1       1.192  -1.075  -0.854  0.00  0.00    -0.002 A 
ATOM      3  C4  UNL d   1       2.490  -0.586  -0.699  0.00  0.00     0.004 A 
ATOM      4  C5  UNL d   1       2.707   0.639  -0.067  0.00  0.00    -0.004 A 
ATOM      5  C6  UNL d   1       1.628   1.383   0.420  0.00  0.00    -0.075 A 
ATOM      6  C7  UNL d   1       1.845   2.703   1.100  0.00  0.00     0.076 C 
ATOM      7  C8  UNL d   1       0.328   0.887   0.257  0.00  0.00     0.001 A 
ENDROOT
BRANCH   1   8
ATOM      8  C1  UNL d   1      -1.304  -0.866  -0.545  0.00  0.00     0.053 C 
ATOM      9  C   UNL d   1      -1.630  -1.187  -1.995  0.00  0.00     0.018 C 
ENDBRANCH   1   8
TORSDOF 1
ENDMDL
