MODEL 1
REMARK minimizedAffinity -0.362483114
REMARK minimizedRMSD -1
REMARK  1 active torsions:
REMARK  status: ('A' for Active; 'I' for Inactive)
REMARK    1  A    between atoms: C1_2  and  C2_3 
ROOT
ATOM      1  C2  UNL d   1      -0.460  -0.646  -0.025  0.00  0.00    -0.073 A 
ATOM      2  C3  UNL d   1      -1.201   0.359   0.609  0.00  0.00    -0.002 A 
ATOM      3  C4  UNL d   1      -0.555   1.454   1.184  0.00  0.00     0.004 A 
ATOM      4  C5  UNL d   1       0.835   1.560   1.125  0.00  0.00    -0.004 A 
ATOM      5  C6  UNL d   1       1.591   0.573   0.486  0.00  0.00    -0.075 A 
ATOM      6  C7  UNL d   1       3.087   0.671   0.416  0.00  0.00     0.076 C 
ATOM      7  C8  UNL d   1       0.935  -0.526  -0.087  0.00  0.00     0.001 A 
ENDROOT
BRANCH   1   8
ATOM      8  C1  UNL d   1      -1.154  -1.827  -0.652  0.00  0.00     0.053 C 
ATOM      9  C   UNL d   1      -1.856  -1.454  -1.948  0.00  0.00     0.018 C 
ENDBRANCH   1   8
TORSDOF 1
ENDMDL
