MODEL 1
REMARK minimizedAffinity 1.25017524
REMARK minimizedRMSD -1
REMARK  1 active torsions:
REMARK  status: ('A' for Active; 'I' for Inactive)
REMARK    1  A    between atoms: C1_2  and  C2_3 
ROOT
ATOM      1  C2  UNL d   1      -1.504  -0.186  -0.821  0.00  0.00    -0.073 A 
ATOM      2  C3  UNL d   1      -1.780   0.091   0.523  0.00  0.00    -0.002 A 
ATOM      3  C4  UNL d   1      -0.741   0.224   1.444  0.00  0.00     0.004 A 
ATOM      4  C5  UNL d   1       0.585   0.090   1.030  0.00  0.00    -0.004 A 
ATOM      5  C6  UNL d   1       0.882  -0.174  -0.310  0.00  0.00    -0.075 A 
ATOM      6  C7  UNL d   1       2.303  -0.323  -0.771  0.00  0.00     0.076 C 
ATOM      7  C8  UNL d   1      -0.168  -0.309  -1.229  0.00  0.00     0.001 A 
ENDROOT
BRANCH   1   8
ATOM      8  C1  UNL d   1      -2.623  -0.324  -1.820  0.00  0.00     0.053 C 
ATOM      9  C   UNL d   1      -3.215  -1.725  -1.822  0.00  0.00     0.018 C 
ENDBRANCH   1   8
TORSDOF 1
ENDMDL
