MODEL 1
REMARK minimizedAffinity -2.02284646
REMARK minimizedRMSD -1
REMARK  1 active torsions:
REMARK  status: ('A' for Active; 'I' for Inactive)
REMARK    1  A    between atoms: C1_2  and  C2_3 
ROOT
ATOM      1  C2  UNL d   1       0.054   0.681  -0.319  0.00  0.00    -0.073 A 
ATOM      2  C3  UNL d   1       0.499  -0.408   0.439  0.00  0.00    -0.002 A 
ATOM      3  C4  UNL d   1       0.178  -1.711   0.056  0.00  0.00     0.004 A 
ATOM      4  C5  UNL d   1      -0.584  -1.939  -1.090  0.00  0.00    -0.004 A 
ATOM      5  C6  UNL d   1      -1.027  -0.864  -1.867  0.00  0.00    -0.075 A 
ATOM      6  C7  UNL d   1      -1.849  -1.092  -3.102  0.00  0.00     0.076 C 
ATOM      7  C8  UNL d   1      -0.703   0.442  -1.475  0.00  0.00     0.001 A 
ENDROOT
BRANCH   1   8
ATOM      8  C1  UNL d   1       0.403   2.090   0.086  0.00  0.00     0.053 C 
ATOM      9  C   UNL d   1       1.055   2.143   1.459  0.00  0.00     0.018 C 
ENDBRANCH   1   8
TORSDOF 1
ENDMDL
