MODEL 1
REMARK minimizedAffinity -5.05902958
REMARK minimizedRMSD -1
REMARK  1 active torsions:
REMARK  status: ('A' for Active; 'I' for Inactive)
REMARK    1  A    between atoms: C1_2  and  C2_3 
ROOT
ATOM      1  C2  UNL d   1       0.089  -0.340   0.044  0.00  0.00    -0.073 A 
ATOM      2  C3  UNL d   1      -0.923  -0.085   0.976  0.00  0.00    -0.002 A 
ATOM      3  C4  UNL d   1      -0.767   0.927   1.925  0.00  0.00     0.004 A 
ATOM      4  C5  UNL d   1       0.395   1.697   1.946  0.00  0.00    -0.004 A 
ATOM      5  C6  UNL d   1       1.412   1.465   1.014  0.00  0.00    -0.075 A 
ATOM      6  C7  UNL d   1       2.670   2.283   1.025  0.00  0.00     0.076 C 
ATOM      7  C8  UNL d   1       1.250   0.445   0.067  0.00  0.00     0.001 A 
ENDROOT
BRANCH   1   8
ATOM      8  C1  UNL d   1      -0.077  -1.428  -0.986  0.00  0.00     0.053 C 
ATOM      9  C   UNL d   1      -1.537  -1.655  -1.346  0.00  0.00     0.018 C 
ENDBRANCH   1   8
TORSDOF 1
ENDMDL
