MODEL 1
REMARK minimizedAffinity -3.82784629
REMARK minimizedRMSD -1
REMARK  1 active torsions:
REMARK  status: ('A' for Active; 'I' for Inactive)
REMARK    1  A    between atoms: C1_2  and  C2_3 
ROOT
ATOM      1  C2  UNL d   1      -0.362   0.087  -0.174  0.00  0.00    -0.073 A 
ATOM      2  C3  UNL d   1      -0.780   1.146   0.640  0.00  0.00    -0.002 A 
ATOM      3  C4  UNL d   1       0.150   2.051   1.152  0.00  0.00     0.004 A 
ATOM      4  C5  UNL d   1       1.505   1.912   0.852  0.00  0.00    -0.004 A 
ATOM      5  C6  UNL d   1       1.941   0.866   0.031  0.00  0.00    -0.075 A 
ATOM      6  C7  UNL d   1       3.395   0.701  -0.300  0.00  0.00     0.076 C 
ATOM      7  C8  UNL d   1       1.001  -0.040  -0.478  0.00  0.00     0.001 A 
ENDROOT
BRANCH   1   8
ATOM      8  C1  UNL d   1      -1.363  -0.889  -0.735  0.00  0.00     0.053 C 
ATOM      9  C   UNL d   1      -1.750  -0.550  -2.165  0.00  0.00     0.018 C 
ENDBRANCH   1   8
TORSDOF 1
ENDMDL
