MODEL 1
REMARK minimizedAffinity -2.60621214
REMARK minimizedRMSD -1
REMARK  0 active torsions:
REMARK  status: ('A' for Active; 'I' for Inactive)
ROOT
ATOM      1  C2' OXE d   1       1.832   3.170   1.267  0.00  0.00     0.078 C 
ATOM      2  C1' OXE d   1       2.874   0.706   0.418  0.00  0.00     0.078 C 
ATOM      3  C1  OXE d   1       1.376   0.829   0.549  0.00  0.00    -0.078 A 
ATOM      4  C2  OXE d   1       0.878   2.024   1.009  0.00  0.00    -0.078 A 
ATOM      5  C3  OXE d   1      -0.499   2.209   1.096  0.00  0.00     0.003 A 
ATOM      6  C4  OXE d   1      -1.374   1.140   0.865  0.00  0.00    -0.002 A 
ATOM      7  C5  OXE d   1      -0.885  -0.097   0.434  0.00  0.00    -0.002 A 
ATOM      8  C6  OXE d   1       0.482  -0.256   0.230  0.00  0.00     0.003 A 
ENDROOT
TORSDOF 0
ENDMDL
