MODEL 1
REMARK minimizedAffinity -3.46344519
REMARK minimizedRMSD -1
REMARK  0 active torsions:
REMARK  status: ('A' for Active; 'I' for Inactive)
ROOT
ATOM      1  C2' OXE d   1      -0.743  -1.720  -0.289  0.00  0.00     0.078 C 
ATOM      2  C1' OXE d   1      -2.781   0.185   0.023  0.00  0.00     0.078 C 
ATOM      3  C1  OXE d   1      -1.355   0.646   0.191  0.00  0.00    -0.078 A 
ATOM      4  C2  OXE d   1      -0.367  -0.302   0.083  0.00  0.00    -0.078 A 
ATOM      5  C3  OXE d   1       0.969   0.080   0.175  0.00  0.00     0.003 A 
ATOM      6  C4  OXE d   1       1.308   1.391   0.530  0.00  0.00    -0.002 A 
ATOM      7  C5  OXE d   1       0.315   2.364   0.684  0.00  0.00    -0.002 A 
ATOM      8  C6  OXE d   1      -1.016   2.018   0.477  0.00  0.00     0.003 A 
ENDROOT
TORSDOF 0
ENDMDL
