MODEL 1
REMARK minimizedAffinity -4.70762253
REMARK minimizedRMSD -1
REMARK  0 active torsions:
REMARK  status: ('A' for Active; 'I' for Inactive)
ROOT
ATOM      1  C2' OXE d   1       0.282  -1.130   0.210  0.00  0.00     0.078 C 
ATOM      2  C1' OXE d   1      -1.771   0.737   0.634  0.00  0.00     0.078 C 
ATOM      3  C1  OXE d   1      -0.348   1.229   0.704  0.00  0.00    -0.078 A 
ATOM      4  C2  OXE d   1       0.651   0.300   0.542  0.00  0.00    -0.078 A 
ATOM      5  C3  OXE d   1       1.982   0.710   0.543  0.00  0.00     0.003 A 
ATOM      6  C4  OXE d   1       2.315   2.032   0.860  0.00  0.00    -0.002 A 
ATOM      7  C5  OXE d   1       1.314   2.987   1.069  0.00  0.00    -0.002 A 
ATOM      8  C6  OXE d   1      -0.020   2.611   0.952  0.00  0.00     0.003 A 
ENDROOT
TORSDOF 0
ENDMDL
