MODEL 1
REMARK minimizedAffinity 0.752547741
REMARK minimizedRMSD -1
REMARK  0 active torsions:
REMARK  status: ('A' for Active; 'I' for Inactive)
ROOT
ATOM      1  C2' OXE d   1      -1.741   1.572   0.444  0.00  0.00     0.078 C 
ATOM      2  C1' OXE d   1      -0.216  -0.730  -0.061  0.00  0.00     0.078 C 
ATOM      3  C1  OXE d   1       0.507   0.498   0.435  0.00  0.00    -0.078 A 
ATOM      4  C2  OXE d   1      -0.241   1.633   0.635  0.00  0.00    -0.078 A 
ATOM      5  C3  OXE d   1       0.367   2.778   1.144  0.00  0.00     0.003 A 
ATOM      6  C4  OXE d   1       1.756   2.829   1.308  0.00  0.00    -0.002 A 
ATOM      7  C5  OXE d   1       2.542   1.695   1.073  0.00  0.00    -0.002 A 
ATOM      8  C6  OXE d   1       1.928   0.512   0.678  0.00  0.00     0.003 A 
ENDROOT
TORSDOF 0
ENDMDL
