MODEL 1
REMARK minimizedAffinity -4.41954899
REMARK minimizedRMSD -1
REMARK  0 active torsions:
REMARK  status: ('A' for Active; 'I' for Inactive)
ROOT
ATOM      1  C2' OXE d   1      -0.431  -1.180  -0.065  0.00  0.00     0.078 C 
ATOM      2  C1' OXE d   1      -2.617   0.474   0.541  0.00  0.00     0.078 C 
ATOM      3  C1  OXE d   1      -1.263   1.122   0.394  0.00  0.00    -0.078 A 
ATOM      4  C2  OXE d   1      -0.192   0.299   0.144  0.00  0.00    -0.078 A 
ATOM      5  C3  OXE d   1       1.070   0.852  -0.055  0.00  0.00     0.003 A 
ATOM      6  C4  OXE d   1       1.285   2.220   0.150  0.00  0.00    -0.002 A 
ATOM      7  C5  OXE d   1       0.214   3.071   0.445  0.00  0.00    -0.002 A 
ATOM      8  C6  OXE d   1      -1.070   2.545   0.529  0.00  0.00     0.003 A 
ENDROOT
TORSDOF 0
ENDMDL
