MODEL 1
REMARK minimizedAffinity -3.73136616
REMARK minimizedRMSD -1
REMARK  0 active torsions:
REMARK  status: ('A' for Active; 'I' for Inactive)
ROOT
ATOM      1  C2' OXE d   1      -0.667  -2.038  -3.390  0.00  0.00     0.078 C 
ATOM      2  C1' OXE d   1      -0.571  -4.297  -1.727  0.00  0.00     0.078 C 
ATOM      3  C1  OXE d   1      -0.322  -2.950  -1.098  0.00  0.00    -0.078 A 
ATOM      4  C2  OXE d   1      -0.325  -1.854  -1.928  0.00  0.00    -0.078 A 
ATOM      5  C3  OXE d   1      -0.155  -0.582  -1.390  0.00  0.00     0.003 A 
ATOM      6  C4  OXE d   1       0.171  -0.421  -0.038  0.00  0.00    -0.002 A 
ATOM      7  C5  OXE d   1       0.218  -1.528   0.817  0.00  0.00    -0.002 A 
ATOM      8  C6  OXE d   1      -0.067  -2.791   0.313  0.00  0.00     0.003 A 
ENDROOT
TORSDOF 0
ENDMDL
