MODEL 1
REMARK minimizedAffinity -2.05680919
REMARK minimizedRMSD -1
REMARK  0 active torsions:
REMARK  status: ('A' for Active; 'I' for Inactive)
ROOT
ATOM      1  C2' OXE d   1       0.556  -1.510   0.040  0.00  0.00     0.078 C 
ATOM      2  C1' OXE d   1       2.333   0.651   0.265  0.00  0.00     0.078 C 
ATOM      3  C1  OXE d   1       0.860   0.934   0.419  0.00  0.00    -0.078 A 
ATOM      4  C2  OXE d   1      -0.006  -0.122   0.261  0.00  0.00    -0.078 A 
ATOM      5  C3  OXE d   1      -1.372   0.073   0.446  0.00  0.00     0.003 A 
ATOM      6  C4  OXE d   1      -1.884   1.362   0.640  0.00  0.00    -0.002 A 
ATOM      7  C5  OXE d   1      -1.022   2.457   0.765  0.00  0.00    -0.002 A 
ATOM      8  C6  OXE d   1       0.352   2.254   0.699  0.00  0.00     0.003 A 
ENDROOT
TORSDOF 0
ENDMDL
