MODEL 1
REMARK minimizedAffinity -0.304349303
REMARK minimizedRMSD -1
REMARK  0 active torsions:
REMARK  status: ('A' for Active; 'I' for Inactive)
ROOT
ATOM      1  C2' OXE d   1       0.115  -1.597   0.215  0.00  0.00     0.078 C 
ATOM      2  C1' OXE d   1       2.290   0.176   0.262  0.00  0.00     0.078 C 
ATOM      3  C1  OXE d   1       0.908   0.753   0.442  0.00  0.00    -0.078 A 
ATOM      4  C2  OXE d   1      -0.154  -0.116   0.371  0.00  0.00    -0.078 A 
ATOM      5  C3  OXE d   1      -1.446   0.355   0.585  0.00  0.00     0.003 A 
ATOM      6  C4  OXE d   1      -1.686   1.728   0.719  0.00  0.00    -0.002 A 
ATOM      7  C5  OXE d   1      -0.622   2.635   0.754  0.00  0.00    -0.002 A 
ATOM      8  C6  OXE d   1       0.682   2.160   0.660  0.00  0.00     0.003 A 
ENDROOT
TORSDOF 0
ENDMDL
