MODEL 1
REMARK minimizedAffinity -4.56938505
REMARK minimizedRMSD -1
REMARK  0 active torsions:
REMARK  status: ('A' for Active; 'I' for Inactive)
ROOT
ATOM      1  C2' OXE d   1      -1.736   0.774   0.578  0.00  0.00     0.078 C 
ATOM      2  C1' OXE d   1       0.114  -1.216  -0.127  0.00  0.00     0.078 C 
ATOM      3  C1  OXE d   1       0.653   0.130   0.289  0.00  0.00    -0.078 A 
ATOM      4  C2  OXE d   1      -0.261   1.112   0.588  0.00  0.00    -0.078 A 
ATOM      5  C3  OXE d   1       0.183   2.355   1.030  0.00  0.00     0.003 A 
ATOM      6  C4  OXE d   1       1.549   2.663   1.026  0.00  0.00    -0.002 A 
ATOM      7  C5  OXE d   1       2.495   1.690   0.688  0.00  0.00    -0.002 A 
ATOM      8  C6  OXE d   1       2.066   0.408   0.359  0.00  0.00     0.003 A 
ENDROOT
TORSDOF 0
ENDMDL
