MODEL 1
REMARK minimizedAffinity -3.04489446
REMARK minimizedRMSD -1
REMARK  0 active torsions:
REMARK  status: ('A' for Active; 'I' for Inactive)
ROOT
ATOM      1  C2' OXE d   1      -1.616   0.866   0.196  0.00  0.00     0.078 C 
ATOM      2  C1' OXE d   1       0.291  -1.147  -0.240  0.00  0.00     0.078 C 
ATOM      3  C1  OXE d   1       0.772   0.166   0.325  0.00  0.00    -0.078 A 
ATOM      4  C2  OXE d   1      -0.161   1.162   0.491  0.00  0.00    -0.078 A 
ATOM      5  C3  OXE d   1       0.219   2.374   1.060  0.00  0.00     0.003 A 
ATOM      6  C4  OXE d   1       1.568   2.643   1.321  0.00  0.00    -0.002 A 
ATOM      7  C5  OXE d   1       2.540   1.657   1.121  0.00  0.00    -0.002 A 
ATOM      8  C6  OXE d   1       2.153   0.402   0.665  0.00  0.00     0.003 A 
ENDROOT
TORSDOF 0
ENDMDL
