MODEL 1
REMARK minimizedAffinity 0.91223371
REMARK minimizedRMSD -1
REMARK  0 active torsions:
REMARK  status: ('A' for Active; 'I' for Inactive)
ROOT
ATOM      1  C2' OXE d   1       2.353  -0.220   0.681  0.00  0.00     0.078 C 
ATOM      2  C1' OXE d   1       2.213   2.388   1.710  0.00  0.00     0.078 C 
ATOM      3  C1  OXE d   1       0.936   1.759   1.211  0.00  0.00    -0.078 A 
ATOM      4  C2  OXE d   1       1.022   0.500   0.666  0.00  0.00    -0.078 A 
ATOM      5  C3  OXE d   1      -0.135  -0.147   0.240  0.00  0.00     0.003 A 
ATOM      6  C4  OXE d   1      -1.360   0.530   0.221  0.00  0.00    -0.002 A 
ATOM      7  C5  OXE d   1      -1.462   1.828   0.735  0.00  0.00    -0.002 A 
ATOM      8  C6  OXE d   1      -0.334   2.439   1.271  0.00  0.00     0.003 A 
ENDROOT
TORSDOF 0
ENDMDL
