MODEL 1
REMARK minimizedAffinity -4.02252722
REMARK minimizedRMSD -1
REMARK  0 active torsions:
REMARK  status: ('A' for Active; 'I' for Inactive)
ROOT
ATOM      1  C2' OXE d   1      -2.493   0.432   0.668  0.00  0.00     0.078 C 
ATOM      2  C1' OXE d   1      -0.718   2.606   0.723  0.00  0.00     0.078 C 
ATOM      3  C1  OXE d   1      -0.130   1.220   0.624  0.00  0.00    -0.078 A 
ATOM      4  C2  OXE d   1      -1.004   0.160   0.645  0.00  0.00    -0.078 A 
ATOM      5  C3  OXE d   1      -0.518  -1.137   0.501  0.00  0.00     0.003 A 
ATOM      6  C4  OXE d   1       0.861  -1.380   0.490  0.00  0.00    -0.002 A 
ATOM      7  C5  OXE d   1       1.769  -0.316   0.507  0.00  0.00    -0.002 A 
ATOM      8  C6  OXE d   1       1.290   0.989   0.531  0.00  0.00     0.003 A 
ENDROOT
TORSDOF 0
ENDMDL
