MODEL 1
REMARK minimizedAffinity -1.57693756
REMARK minimizedRMSD -1
REMARK  0 active torsions:
REMARK  status: ('A' for Active; 'I' for Inactive)
ROOT
ATOM      1  C2' OXE d   1       1.896  -0.712  -0.272  0.00  0.00     0.078 C 
ATOM      2  C1' OXE d   1      -0.762   0.189  -0.211  0.00  0.00     0.078 C 
ATOM      3  C1  OXE d   1       0.312   1.134   0.266  0.00  0.00    -0.078 A 
ATOM      4  C2  OXE d   1       1.605   0.668   0.277  0.00  0.00    -0.078 A 
ATOM      5  C3  OXE d   1       2.641   1.518   0.656  0.00  0.00     0.003 A 
ATOM      6  C4  OXE d   1       2.362   2.789   1.171  0.00  0.00    -0.002 A 
ATOM      7  C5  OXE d   1       1.048   3.269   1.207  0.00  0.00    -0.002 A 
ATOM      8  C6  OXE d   1       0.018   2.471   0.719  0.00  0.00     0.003 A 
ENDROOT
TORSDOF 0
ENDMDL
