MODEL 1
REMARK minimizedAffinity -5.62067938
REMARK minimizedRMSD -1
REMARK  0 active torsions:
REMARK  status: ('A' for Active; 'I' for Inactive)
ROOT
ATOM      1  C2' OXE d   1      -1.181   0.439  -0.259  0.00  0.00     0.078 C 
ATOM      2  C1' OXE d   1       1.100  -1.196  -0.191  0.00  0.00     0.078 C 
ATOM      3  C1  OXE d   1       1.268   0.262   0.159  0.00  0.00    -0.078 A 
ATOM      4  C2  OXE d   1       0.155   1.064   0.078  0.00  0.00    -0.078 A 
ATOM      5  C3  OXE d   1       0.244   2.404   0.443  0.00  0.00     0.003 A 
ATOM      6  C4  OXE d   1       1.486   2.977   0.743  0.00  0.00    -0.002 A 
ATOM      7  C5  OXE d   1       2.638   2.186   0.793  0.00  0.00    -0.002 A 
ATOM      8  C6  OXE d   1       2.540   0.821   0.545  0.00  0.00     0.003 A 
ENDROOT
TORSDOF 0
ENDMDL
