MODEL 1
REMARK minimizedAffinity -4.29991531
REMARK minimizedRMSD -1
REMARK  0 active torsions:
REMARK  status: ('A' for Active; 'I' for Inactive)
ROOT
ATOM      1  C2' OXE d   1      -0.128  -1.016   0.215  0.00  0.00     0.078 C 
ATOM      2  C1' OXE d   1       2.543  -0.415   0.834  0.00  0.00     0.078 C 
ATOM      3  C1  OXE d   1       1.550   0.720   0.828  0.00  0.00    -0.078 A 
ATOM      4  C2  OXE d   1       0.254   0.425   0.478  0.00  0.00    -0.078 A 
ATOM      5  C3  OXE d   1      -0.714   1.425   0.510  0.00  0.00     0.003 A 
ATOM      6  C4  OXE d   1      -0.350   2.756   0.745  0.00  0.00    -0.002 A 
ATOM      7  C5  OXE d   1       0.972   3.085   1.064  0.00  0.00    -0.002 A 
ATOM      8  C6  OXE d   1       1.924   2.075   1.151  0.00  0.00     0.003 A 
ENDROOT
TORSDOF 0
ENDMDL
