MODEL 1
REMARK minimizedAffinity -2.56251311
REMARK minimizedRMSD -1
REMARK  0 active torsions:
REMARK  status: ('A' for Active; 'I' for Inactive)
ROOT
ATOM      1  C2' OXE d   1      -0.105  -0.921  -0.167  0.00  0.00     0.078 C 
ATOM      2  C1' OXE d   1      -2.222   0.902  -0.443  0.00  0.00     0.078 C 
ATOM      3  C1  OXE d   1      -0.922   1.414   0.127  0.00  0.00    -0.078 A 
ATOM      4  C2  OXE d   1       0.093   0.504   0.302  0.00  0.00    -0.078 A 
ATOM      5  C3  OXE d   1       1.330   0.935   0.773  0.00  0.00     0.003 A 
ATOM      6  C4  OXE d   1       1.501   2.253   1.214  0.00  0.00    -0.002 A 
ATOM      7  C5  OXE d   1       0.467   3.186   1.081  0.00  0.00    -0.002 A 
ATOM      8  C6  OXE d   1      -0.734   2.794   0.501  0.00  0.00     0.003 A 
ENDROOT
TORSDOF 0
ENDMDL
