MODEL 1
REMARK minimizedAffinity 0.536456704
REMARK minimizedRMSD -1
REMARK  0 active torsions:
REMARK  status: ('A' for Active; 'I' for Inactive)
ROOT
ATOM      1  C2' OXE d   1      -0.222  -1.621  -0.615  0.00  0.00     0.078 C 
ATOM      2  C1' OXE d   1       2.008  -0.199   0.327  0.00  0.00     0.078 C 
ATOM      3  C1  OXE d   1       0.669   0.494   0.354  0.00  0.00    -0.078 A 
ATOM      4  C2  OXE d   1      -0.409  -0.192  -0.152  0.00  0.00    -0.078 A 
ATOM      5  C3  OXE d   1      -1.676   0.381  -0.100  0.00  0.00     0.003 A 
ATOM      6  C4  OXE d   1      -1.839   1.706   0.320  0.00  0.00    -0.002 A 
ATOM      7  C5  OXE d   1      -0.748   2.437   0.803  0.00  0.00    -0.002 A 
ATOM      8  C6  OXE d   1       0.503   1.832   0.866  0.00  0.00     0.003 A 
ENDROOT
TORSDOF 0
ENDMDL
