MODEL 1
REMARK minimizedAffinity -3.5413866
REMARK minimizedRMSD -1
REMARK  0 active torsions:
REMARK  status: ('A' for Active; 'I' for Inactive)
ROOT
ATOM      1  C2' OXE d   1      -1.116   1.390  -0.418  0.00  0.00     0.078 C 
ATOM      2  C1' OXE d   1      -2.082  -0.430   1.488  0.00  0.00     0.078 C 
ATOM      3  C1  OXE d   1      -1.328  -0.985   0.305  0.00  0.00    -0.078 A 
ATOM      4  C2  OXE d   1      -0.900  -0.091  -0.647  0.00  0.00    -0.078 A 
ATOM      5  C3  OXE d   1      -0.153  -0.543  -1.731  0.00  0.00     0.003 A 
ATOM      6  C4  OXE d   1       0.034  -1.915  -1.940  0.00  0.00    -0.002 A 
ATOM      7  C5  OXE d   1      -0.428  -2.845  -1.003  0.00  0.00    -0.002 A 
ATOM      8  C6  OXE d   1      -1.073  -2.395   0.144  0.00  0.00     0.003 A 
ENDROOT
TORSDOF 0
ENDMDL
