MODEL 1
REMARK minimizedAffinity -2.73341918
REMARK minimizedRMSD -1
REMARK  0 active torsions:
REMARK  status: ('A' for Active; 'I' for Inactive)
ROOT
ATOM      1  C2' OXE d   1       1.489  -2.253   1.131  0.00  0.00     0.078 C 
ATOM      2  C1' OXE d   1      -0.464  -0.343   0.482  0.00  0.00     0.078 C 
ATOM      3  C1  OXE d   1      -0.430  -1.618  -0.324  0.00  0.00    -0.078 A 
ATOM      4  C2  OXE d   1       0.558  -2.526  -0.031  0.00  0.00    -0.078 A 
ATOM      5  C3  OXE d   1       0.601  -3.742  -0.707  0.00  0.00     0.003 A 
ATOM      6  C4  OXE d   1      -0.258  -3.982  -1.787  0.00  0.00    -0.002 A 
ATOM      7  C5  OXE d   1      -1.246  -3.053  -2.128  0.00  0.00    -0.002 A 
ATOM      8  C6  OXE d   1      -1.373  -1.887  -1.382  0.00  0.00     0.003 A 
ENDROOT
TORSDOF 0
ENDMDL
