MODEL 1
REMARK minimizedAffinity 5.27886343
REMARK minimizedRMSD -1
REMARK  1 active torsions:
REMARK  status: ('A' for Active; 'I' for Inactive)
REMARK    1  A    between atoms: C1_2  and  C2_3 
ROOT
ATOM      1  C2  UNL d   1       0.094  -1.065  -0.071  0.00  0.00    -0.076 A 
ATOM      2  C3  UNL d   1       0.055  -2.470  -0.059  0.00  0.00     0.004 A 
ATOM      3  C4  UNL d   1      -0.775  -3.172  -0.930  0.00  0.00    -0.003 A 
ATOM      4  C5  UNL d   1      -1.580  -2.481  -1.829  0.00  0.00     0.000 A 
ATOM      5  C6  UNL d   1      -1.541  -1.087  -1.867  0.00  0.00     0.000 A 
ATOM      6  C7  UNL d   1      -0.697  -0.365  -1.006  0.00  0.00    -0.073 A 
ATOM      7  C8  UNL d   1      -0.700   1.137  -1.086  0.00  0.00     0.078 C 
ENDROOT
BRANCH   1   8
ATOM      8  C1  UNL d   1       0.994  -0.357   0.917  0.00  0.00     0.053 C 
ATOM      9  C   UNL d   1       0.293  -0.056   2.233  0.00  0.00     0.018 C 
ENDBRANCH   1   8
TORSDOF 1
ENDMDL
