MODEL 1
REMARK minimizedAffinity 2.34882784
REMARK minimizedRMSD -1
REMARK  1 active torsions:
REMARK  status: ('A' for Active; 'I' for Inactive)
REMARK    1  A    between atoms: C1_2  and  C2_3 
ROOT
ATOM      1  C2  UNL d   1      -5.821   2.789  -4.801  0.00  0.00    -0.076 A 
ATOM      2  C3  UNL d   1      -5.974   2.050  -5.987  0.00  0.00     0.004 A 
ATOM      3  C4  UNL d   1      -5.801   0.667  -5.998  0.00  0.00    -0.003 A 
ATOM      4  C5  UNL d   1      -5.473   0.000  -4.823  0.00  0.00     0.000 A 
ATOM      5  C6  UNL d   1      -5.335   0.715  -3.634  0.00  0.00     0.000 A 
ATOM      6  C7  UNL d   1      -5.522   2.108  -3.602  0.00  0.00    -0.073 A 
ATOM      7  C8  UNL d   1      -5.354   2.829  -2.293  0.00  0.00     0.078 C 
ENDROOT
BRANCH   1   8
ATOM      8  C1  UNL d   1      -5.994   4.290  -4.856  0.00  0.00     0.053 C 
ATOM      9  C   UNL d   1      -5.214   4.925  -5.996  0.00  0.00     0.018 C 
ENDBRANCH   1   8
TORSDOF 1
ENDMDL
