MODEL 1
REMARK minimizedAffinity 4.45338488
REMARK minimizedRMSD -1
REMARK  1 active torsions:
REMARK  status: ('A' for Active; 'I' for Inactive)
REMARK    1  A    between atoms: C1_2  and  C2_3 
ROOT
ATOM      1  C2  UNL d   1      -2.982  -0.173   0.432  0.00  0.00    -0.076 A 
ATOM      2  C3  UNL d   1      -2.897   1.205   0.167  0.00  0.00     0.004 A 
ATOM      3  C4  UNL d   1      -1.714   1.775  -0.298  0.00  0.00    -0.003 A 
ATOM      4  C5  UNL d   1      -0.595   0.975  -0.507  0.00  0.00     0.000 A 
ATOM      5  C6  UNL d   1      -0.666  -0.396  -0.266  0.00  0.00     0.000 A 
ATOM      6  C7  UNL d   1      -1.857  -0.989   0.188  0.00  0.00    -0.073 A 
ATOM      7  C8  UNL d   1      -1.875  -2.472   0.437  0.00  0.00     0.078 C 
ENDROOT
BRANCH   1   8
ATOM      8  C1  UNL d   1      -4.284  -0.730   0.961  0.00  0.00     0.053 C 
ATOM      9  C   UNL d   1      -5.481  -0.310   0.122  0.00  0.00     0.018 C 
ENDBRANCH   1   8
TORSDOF 1
ENDMDL
