MODEL 1
REMARK minimizedAffinity 3.66046858
REMARK minimizedRMSD -1
REMARK  1 active torsions:
REMARK  status: ('A' for Active; 'I' for Inactive)
REMARK    1  A    between atoms: C1_2  and  C2_3 
ROOT
ATOM      1  C2  UNL d   1      -1.238  -1.459   0.170  0.00  0.00    -0.076 A 
ATOM      2  C3  UNL d   1      -0.055  -1.458   0.928  0.00  0.00     0.004 A 
ATOM      3  C4  UNL d   1       0.880  -0.432   0.798  0.00  0.00    -0.003 A 
ATOM      4  C5  UNL d   1       0.645   0.610  -0.092  0.00  0.00     0.000 A 
ATOM      5  C6  UNL d   1      -0.532   0.634  -0.839  0.00  0.00     0.000 A 
ATOM      6  C7  UNL d   1      -1.491  -0.384  -0.708  0.00  0.00    -0.073 A 
ATOM      7  C8  UNL d   1      -2.740  -0.311  -1.544  0.00  0.00     0.078 C 
ENDROOT
BRANCH   1   8
ATOM      8  C1  UNL d   1      -2.202  -2.613   0.333  0.00  0.00     0.053 C 
ATOM      9  C   UNL d   1      -2.105  -3.619  -0.803  0.00  0.00     0.018 C 
ENDBRANCH   1   8
TORSDOF 1
ENDMDL
