MODEL 1
REMARK minimizedAffinity 2.92920899
REMARK minimizedRMSD -1
REMARK  1 active torsions:
REMARK  status: ('A' for Active; 'I' for Inactive)
REMARK    1  A    between atoms: C1_2  and  C2_3 
ROOT
ATOM      1  C2  UNL d   1      -5.577   3.003  -4.706  0.00  0.00    -0.076 A 
ATOM      2  C3  UNL d   1      -5.601   2.316  -3.481  0.00  0.00     0.004 A 
ATOM      3  C4  UNL d   1      -5.810   2.994  -2.281  0.00  0.00    -0.003 A 
ATOM      4  C5  UNL d   1      -6.000   4.372  -2.289  0.00  0.00     0.000 A 
ATOM      5  C6  UNL d   1      -5.997   5.067  -3.497  0.00  0.00     0.000 A 
ATOM      6  C7  UNL d   1      -5.804   4.396  -4.717  0.00  0.00    -0.073 A 
ATOM      7  C8  UNL d   1      -5.804   5.197  -5.990  0.00  0.00     0.078 C 
ENDROOT
BRANCH   1   8
ATOM      8  C1  UNL d   1      -5.319   2.217  -5.972  0.00  0.00     0.053 C 
ATOM      9  C   UNL d   1      -5.999   0.857  -5.963  0.00  0.00     0.018 C 
ENDBRANCH   1   8
TORSDOF 1
ENDMDL
