MODEL 1
REMARK minimizedAffinity 0.949114144
REMARK minimizedRMSD -1
REMARK  1 active torsions:
REMARK  status: ('A' for Active; 'I' for Inactive)
REMARK    1  A    between atoms: C1_2  and  C2_3 
ROOT
ATOM      1  C2  UNL d   1       0.611  -0.581   1.893  0.00  0.00    -0.076 A 
ATOM      2  C3  UNL d   1      -0.439  -1.300   2.489  0.00  0.00     0.004 A 
ATOM      3  C4  UNL d   1      -1.351  -2.014   1.714  0.00  0.00    -0.003 A 
ATOM      4  C5  UNL d   1      -1.227  -2.021   0.329  0.00  0.00     0.000 A 
ATOM      5  C6  UNL d   1      -0.181  -1.328  -0.279  0.00  0.00     0.000 A 
ATOM      6  C7  UNL d   1       0.757  -0.616   0.489  0.00  0.00    -0.073 A 
ATOM      7  C8  UNL d   1       1.862   0.118  -0.219  0.00  0.00     0.078 C 
ENDROOT
BRANCH   1   8
ATOM      8  C1  UNL d   1       1.554   0.197   2.783  0.00  0.00     0.053 C 
ATOM      9  C   UNL d   1       0.965   1.523   3.238  0.00  0.00     0.018 C 
ENDBRANCH   1   8
TORSDOF 1
ENDMDL
