MODEL 1
REMARK minimizedAffinity -4.01357555
REMARK minimizedRMSD -1
REMARK  1 active torsions:
REMARK  status: ('A' for Active; 'I' for Inactive)
REMARK    1  A    between atoms: C1_2  and  C2_3 
ROOT
ATOM      1  C2  UNL d   1       0.343  -1.307  -0.721  0.00  0.00    -0.077 A 
ATOM      2  C3  UNL d   1      -0.594  -1.635  -1.711  0.00  0.00     0.002 A 
ATOM      3  C4  UNL d   1      -0.330  -2.660  -2.621  0.00  0.00     0.002 A 
ATOM      4  C5  UNL d   1       0.867  -3.369  -2.547  0.00  0.00    -0.004 A 
ATOM      5  C6  UNL d   1       1.806  -3.049  -1.567  0.00  0.00     0.002 A 
ATOM      6  C7  UNL d   1       1.545  -2.023  -0.657  0.00  0.00     0.002 A 
ENDROOT
BRANCH   1   7
ATOM      7  C1  UNL d   1       0.040  -0.234   0.292  0.00  0.00     0.055 C 
ATOM      8  C   UNL d   1      -0.083  -0.814   1.693  0.00  0.00     0.019 C 
ENDBRANCH   1   7
TORSDOF 1
ENDMDL
