MODEL 1
REMARK minimizedAffinity -2.12050819
REMARK minimizedRMSD -1
REMARK  1 active torsions:
REMARK  status: ('A' for Active; 'I' for Inactive)
REMARK    1  A    between atoms: C1_2  and  C2_3 
ROOT
ATOM      1  C2  UNL d   1       0.104   1.266  -0.254  0.00  0.00    -0.077 A 
ATOM      2  C3  UNL d   1       0.110   2.653  -0.458  0.00  0.00     0.002 A 
ATOM      3  C4  UNL d   1      -0.493   3.507   0.468  0.00  0.00     0.002 A 
ATOM      4  C5  UNL d   1      -1.101   2.983   1.607  0.00  0.00    -0.004 A 
ATOM      5  C6  UNL d   1      -1.113   1.605   1.819  0.00  0.00     0.002 A 
ATOM      6  C7  UNL d   1      -0.513   0.751   0.893  0.00  0.00     0.002 A 
ENDROOT
BRANCH   1   7
ATOM      7  C1  UNL d   1       0.796   0.348  -1.227  0.00  0.00     0.055 C 
ATOM      8  C   UNL d   1       1.346  -0.886  -0.528  0.00  0.00     0.019 C 
ENDBRANCH   1   7
TORSDOF 1
ENDMDL
