MODEL 1
REMARK minimizedAffinity -2.18493986
REMARK minimizedRMSD -1
REMARK  1 active torsions:
REMARK  status: ('A' for Active; 'I' for Inactive)
REMARK    1  A    between atoms: C1_2  and  C2_3 
ROOT
ATOM      1  C2  UNL d   1       0.401  -1.187  -0.703  0.00  0.00    -0.077 A 
ATOM      2  C3  UNL d   1       1.172  -2.303  -0.346  0.00  0.00     0.002 A 
ATOM      3  C4  UNL d   1       1.234  -3.416  -1.186  0.00  0.00     0.002 A 
ATOM      4  C5  UNL d   1       0.533  -3.423  -2.390  0.00  0.00    -0.004 A 
ATOM      5  C6  UNL d   1      -0.238  -2.319  -2.753  0.00  0.00     0.002 A 
ATOM      6  C7  UNL d   1      -0.303  -1.206  -1.914  0.00  0.00     0.002 A 
ENDROOT
BRANCH   1   7
ATOM      7  C1  UNL d   1       0.372   0.034   0.179  0.00  0.00     0.055 C 
ATOM      8  C   UNL d   1      -0.386  -0.234   1.471  0.00  0.00     0.019 C 
ENDBRANCH   1   7
TORSDOF 1
ENDMDL
