MODEL 1
REMARK minimizedAffinity -4.56689835
REMARK minimizedRMSD -1
REMARK  1 active torsions:
REMARK  status: ('A' for Active; 'I' for Inactive)
REMARK    1  A    between atoms: C1_2  and  C2_3 
ROOT
ATOM      1  C2  UNL d   1      -0.572   0.750   0.848  0.00  0.00    -0.077 A 
ATOM      2  C3  UNL d   1      -0.239   1.544  -0.258  0.00  0.00     0.002 A 
ATOM      3  C4  UNL d   1      -0.694   2.861  -0.344  0.00  0.00     0.002 A 
ATOM      4  C5  UNL d   1      -1.481   3.396   0.674  0.00  0.00    -0.004 A 
ATOM      5  C6  UNL d   1      -1.820   2.613   1.777  0.00  0.00     0.002 A 
ATOM      6  C7  UNL d   1      -1.367   1.296   1.864  0.00  0.00     0.002 A 
ENDROOT
BRANCH   1   7
ATOM      7  C1  UNL d   1      -0.041  -0.655   0.966  0.00  0.00     0.055 C 
ATOM      8  C   UNL d   1       0.948  -0.969  -0.147  0.00  0.00     0.019 C 
ENDBRANCH   1   7
TORSDOF 1
ENDMDL
