MODEL 1
REMARK minimizedAffinity -2.87170982
REMARK minimizedRMSD -1
REMARK  1 active torsions:
REMARK  status: ('A' for Active; 'I' for Inactive)
REMARK    1  A    between atoms: C1_2  and  C2_3 
ROOT
ATOM      1  C2  UNL d   1       0.582  -1.242  -1.066  0.00  0.00    -0.077 A 
ATOM      2  C3  UNL d   1       0.052  -1.245  -2.364  0.00  0.00     0.002 A 
ATOM      3  C4  UNL d   1       0.076  -2.409  -3.134  0.00  0.00     0.002 A 
ATOM      4  C5  UNL d   1       0.624  -3.580  -2.613  0.00  0.00    -0.004 A 
ATOM      5  C6  UNL d   1       1.155  -3.587  -1.324  0.00  0.00     0.002 A 
ATOM      6  C7  UNL d   1       1.133  -2.423  -0.554  0.00  0.00     0.002 A 
ENDROOT
BRANCH   1   7
ATOM      7  C1  UNL d   1       0.513  -0.000  -0.216  0.00  0.00     0.055 C 
ATOM      8  C   UNL d   1      -0.448  -0.181   0.951  0.00  0.00     0.019 C 
ENDBRANCH   1   7
TORSDOF 1
ENDMDL
