MODEL 1
REMARK minimizedAffinity -3.42803502
REMARK minimizedRMSD -1
REMARK  1 active torsions:
REMARK  status: ('A' for Active; 'I' for Inactive)
REMARK    1  A    between atoms: C1_2  and  C2_3 
ROOT
ATOM      1  C2  UNL d   1       0.302   1.570   0.179  0.00  0.00    -0.077 A 
ATOM      2  C3  UNL d   1      -0.424   1.250   1.334  0.00  0.00     0.002 A 
ATOM      3  C4  UNL d   1      -0.374  -0.040   1.866  0.00  0.00     0.002 A 
ATOM      4  C5  UNL d   1       0.404  -1.019   1.251  0.00  0.00    -0.004 A 
ATOM      5  C6  UNL d   1       1.129  -0.711   0.100  0.00  0.00     0.002 A 
ATOM      6  C7  UNL d   1       1.079   0.578  -0.433  0.00  0.00     0.002 A 
ENDROOT
BRANCH   1   7
ATOM      7  C1  UNL d   1       0.288   2.974  -0.367  0.00  0.00     0.055 C 
ATOM      8  C   UNL d   1       0.119   3.999   0.745  0.00  0.00     0.019 C 
ENDBRANCH   1   7
TORSDOF 1
ENDMDL
