MODEL 1
REMARK minimizedAffinity -5.42249918
REMARK minimizedRMSD -1
REMARK  1 active torsions:
REMARK  status: ('A' for Active; 'I' for Inactive)
REMARK    1  A    between atoms: C1_2  and  C2_3 
ROOT
ATOM      1  C2  UNL d   1       0.170  -1.228  -0.137  0.00  0.00    -0.077 A 
ATOM      2  C3  UNL d   1      -0.891  -1.528  -1.002  0.00  0.00     0.002 A 
ATOM      3  C4  UNL d   1      -0.705  -2.407  -2.071  0.00  0.00     0.002 A 
ATOM      4  C5  UNL d   1       0.540  -2.997  -2.281  0.00  0.00    -0.004 A 
ATOM      5  C6  UNL d   1       1.603  -2.703  -1.427  0.00  0.00     0.002 A 
ATOM      6  C7  UNL d   1       1.418  -1.823  -0.360  0.00  0.00     0.002 A 
ENDROOT
BRANCH   1   7
ATOM      7  C1  UNL d   1      -0.042  -0.318   1.044  0.00  0.00     0.055 C 
ATOM      8  C   UNL d   1      -1.061  -0.898   2.014  0.00  0.00     0.019 C 
ENDBRANCH   1   7
TORSDOF 1
ENDMDL
