MODEL 1
REMARK minimizedAffinity -3.78509259
REMARK minimizedRMSD -1
REMARK  1 active torsions:
REMARK  status: ('A' for Active; 'I' for Inactive)
REMARK    1  A    between atoms: C1_2  and  C2_3 
ROOT
ATOM      1  C2  UNL d   1       0.585  -1.217  -0.817  0.00  0.00    -0.077 A 
ATOM      2  C3  UNL d   1      -0.550  -1.420  -1.616  0.00  0.00     0.002 A 
ATOM      3  C4  UNL d   1      -0.649  -2.553  -2.426  0.00  0.00     0.002 A 
ATOM      4  C5  UNL d   1       0.379  -3.493  -2.443  0.00  0.00    -0.004 A 
ATOM      5  C6  UNL d   1       1.513  -3.298  -1.654  0.00  0.00     0.002 A 
ATOM      6  C7  UNL d   1       1.614  -2.166  -0.844  0.00  0.00     0.002 A 
ENDROOT
BRANCH   1   7
ATOM      7  C1  UNL d   1       0.672  -0.021   0.094  0.00  0.00     0.055 C 
ATOM      8  C   UNL d   1      -0.297  -0.143   1.261  0.00  0.00     0.019 C 
ENDBRANCH   1   7
TORSDOF 1
ENDMDL
