MODEL 1
REMARK minimizedAffinity -3.91146469
REMARK minimizedRMSD -1
REMARK  0 active torsions:
REMARK  status: ('A' for Active; 'I' for Inactive)
ROOT
ATOM      1  C   UNL d   1      -5.780  -1.274  -4.837  0.00  0.00     0.020 A 
ATOM      2  C1  UNL d   1      -4.493  -0.840  -4.521  0.00  0.00     0.020 A 
ATOM      3  C2  UNL d   1      -3.424  -1.738  -4.559  0.00  0.00     0.034 A 
ATOM      4  C3  UNL d   1      -3.640  -3.075  -4.915  0.00  0.00     0.017 A 
ATOM      5  C4  UNL d   1      -4.932  -3.509  -5.232  0.00  0.00     0.017 A 
ATOM      6  C5  UNL d   1      -5.999  -2.606  -5.191  0.00  0.00     0.034 A 
ATOM      7 Cl   UNL d   1      -5.277  -5.143  -5.679  0.00  0.00    -0.070 Cl
ATOM      8 Cl1  UNL d   1      -2.272  -4.130  -4.942  0.00  0.00    -0.070 Cl
ENDROOT
TORSDOF 0
ENDMDL
