MODEL 1
REMARK minimizedAffinity -1.08523357
REMARK minimizedRMSD -1
REMARK  0 active torsions:
REMARK  status: ('A' for Active; 'I' for Inactive)
ROOT
ATOM      1  C   UNL d   1      -2.956  -5.953  -4.844  0.00  0.00     0.020 A 
ATOM      2  C1  UNL d   1      -2.605  -5.060  -5.855  0.00  0.00     0.020 A 
ATOM      3  C2  UNL d   1      -3.305  -3.860  -6.000  0.00  0.00     0.034 A 
ATOM      4  C3  UNL d   1      -4.359  -3.551  -5.133  0.00  0.00     0.017 A 
ATOM      5  C4  UNL d   1      -4.710  -4.448  -4.118  0.00  0.00     0.017 A 
ATOM      6  C5  UNL d   1      -4.006  -5.648  -3.977  0.00  0.00     0.034 A 
ATOM      7 Cl   UNL d   1      -5.999  -4.136  -3.009  0.00  0.00    -0.070 Cl
ATOM      8 Cl1  UNL d   1      -5.180  -2.049  -5.370  0.00  0.00    -0.070 Cl
ENDROOT
TORSDOF 0
ENDMDL
