MODEL 1
REMARK minimizedAffinity -1.99587512
REMARK minimizedRMSD -1
REMARK  0 active torsions:
REMARK  status: ('A' for Active; 'I' for Inactive)
ROOT
ATOM      1  C   UNL d   1      -2.064  -5.338  -5.998  0.00  0.00     0.020 A 
ATOM      2  C1  UNL d   1      -1.968  -3.947  -5.985  0.00  0.00     0.020 A 
ATOM      3  C2  UNL d   1      -3.126  -3.167  -5.937  0.00  0.00     0.034 A 
ATOM      4  C3  UNL d   1      -4.384  -3.778  -5.901  0.00  0.00     0.017 A 
ATOM      5  C4  UNL d   1      -4.480  -5.174  -5.914  0.00  0.00     0.017 A 
ATOM      6  C5  UNL d   1      -3.318  -5.950  -5.962  0.00  0.00     0.034 A 
ATOM      7 Cl   UNL d   1      -5.998  -5.999  -5.872  0.00  0.00    -0.070 Cl
ATOM      8 Cl1  UNL d   1      -5.774  -2.752  -5.841  0.00  0.00    -0.070 Cl
ENDROOT
TORSDOF 0
ENDMDL
