MODEL 1
REMARK minimizedAffinity -0.582067549
REMARK minimizedRMSD -1
REMARK  0 active torsions:
REMARK  status: ('A' for Active; 'I' for Inactive)
ROOT
ATOM      1  C   UNL d   1      -5.524  -5.319  -6.000  0.00  0.00     0.020 A 
ATOM      2  C1  UNL d   1      -4.594  -5.999  -5.214  0.00  0.00     0.020 A 
ATOM      3  C2  UNL d   1      -4.044  -5.380  -4.090  0.00  0.00     0.034 A 
ATOM      4  C3  UNL d   1      -4.423  -4.077  -3.748  0.00  0.00     0.017 A 
ATOM      5  C4  UNL d   1      -5.357  -3.395  -4.538  0.00  0.00     0.017 A 
ATOM      6  C5  UNL d   1      -5.904  -4.020  -5.662  0.00  0.00     0.034 A 
ATOM      7 Cl   UNL d   1      -5.874  -1.785  -4.179  0.00  0.00    -0.070 Cl
ATOM      8 Cl1  UNL d   1      -3.703  -3.372  -2.344  0.00  0.00    -0.070 Cl
ENDROOT
TORSDOF 0
ENDMDL
