MODEL 1
REMARK minimizedAffinity -1.88674092
REMARK minimizedRMSD -1
REMARK  0 active torsions:
REMARK  status: ('A' for Active; 'I' for Inactive)
ROOT
ATOM      1  C   UNL d   1      -5.072  -2.576  -4.736  0.00  0.00     0.020 A 
ATOM      2  C1  UNL d   1      -4.209  -1.936  -5.625  0.00  0.00     0.020 A 
ATOM      3  C2  UNL d   1      -3.012  -2.550  -5.999  0.00  0.00     0.034 A 
ATOM      4  C3  UNL d   1      -2.674  -3.807  -5.484  0.00  0.00     0.017 A 
ATOM      5  C4  UNL d   1      -3.542  -4.448  -4.592  0.00  0.00     0.017 A 
ATOM      6  C5  UNL d   1      -4.739  -3.829  -4.221  0.00  0.00     0.034 A 
ATOM      7 Cl   UNL d   1      -3.194  -6.000  -3.915  0.00  0.00    -0.070 Cl
ATOM      8 Cl1  UNL d   1      -1.178  -4.508  -5.990  0.00  0.00    -0.070 Cl
ENDROOT
TORSDOF 0
ENDMDL
