MODEL 1
REMARK minimizedAffinity 0.384854972
REMARK minimizedRMSD -1
REMARK  0 active torsions:
REMARK  status: ('A' for Active; 'I' for Inactive)
ROOT
ATOM      1  C   UNL d   1      -5.639  -4.135  -5.987  0.00  0.00     0.020 A 
ATOM      2  C1  UNL d   1      -5.985  -3.397  -4.855  0.00  0.00     0.020 A 
ATOM      3  C2  UNL d   1      -5.151  -3.402  -3.736  0.00  0.00     0.034 A 
ATOM      4  C3  UNL d   1      -3.966  -4.148  -3.744  0.00  0.00     0.017 A 
ATOM      5  C4  UNL d   1      -3.619  -4.888  -4.880  0.00  0.00     0.017 A 
ATOM      6  C5  UNL d   1      -4.458  -4.879  -5.999  0.00  0.00     0.034 A 
ATOM      7 Cl   UNL d   1      -2.174  -5.832  -4.965  0.00  0.00    -0.070 Cl
ATOM      8 Cl1  UNL d   1      -2.982  -4.108  -2.324  0.00  0.00    -0.070 Cl
ENDROOT
TORSDOF 0
ENDMDL
