MODEL 1
REMARK minimizedAffinity -0.0550942756
REMARK minimizedRMSD -1
REMARK  0 active torsions:
REMARK  status: ('A' for Active; 'I' for Inactive)
ROOT
ATOM      1  C   UNL d   1       0.271  -1.913   2.410  0.00  0.00     0.020 A 
ATOM      2  C1  UNL d   1       0.278  -2.117   1.030  0.00  0.00     0.020 A 
ATOM      3  C2  UNL d   1      -0.857  -1.817   0.275  0.00  0.00     0.034 A 
ATOM      4  C3  UNL d   1      -2.005  -1.312   0.898  0.00  0.00     0.017 A 
ATOM      5  C4  UNL d   1      -2.011  -1.108   2.282  0.00  0.00     0.017 A 
ATOM      6  C5  UNL d   1      -0.871  -1.410   3.034  0.00  0.00     0.034 A 
ATOM      7 Cl   UNL d   1      -3.388  -0.489   3.122  0.00  0.00    -0.070 Cl
ATOM      8 Cl1  UNL d   1      -3.372  -0.963  -0.099  0.00  0.00    -0.070 Cl
ENDROOT
TORSDOF 0
ENDMDL
