MODEL 1
REMARK minimizedAffinity -0.264338911
REMARK minimizedRMSD -1
REMARK  0 active torsions:
REMARK  status: ('A' for Active; 'I' for Inactive)
ROOT
ATOM      1  C   UNL d   1      -3.262  -6.000  -5.937  0.00  0.00     0.020 A 
ATOM      2  C1  UNL d   1      -4.643  -5.818  -6.000  0.00  0.00     0.020 A 
ATOM      3  C2  UNL d   1      -5.244  -4.780  -5.284  0.00  0.00     0.034 A 
ATOM      4  C3  UNL d   1      -4.463  -3.921  -4.502  0.00  0.00     0.017 A 
ATOM      5  C4  UNL d   1      -3.077  -4.104  -4.440  0.00  0.00     0.017 A 
ATOM      6  C5  UNL d   1      -2.481  -5.145  -5.159  0.00  0.00     0.034 A 
ATOM      7 Cl   UNL d   1      -2.049  -3.084  -3.497  0.00  0.00    -0.070 Cl
ATOM      8 Cl1  UNL d   1      -5.273  -2.659  -3.644  0.00  0.00    -0.070 Cl
ENDROOT
TORSDOF 0
ENDMDL
