MODEL 1
REMARK minimizedAffinity -2.93636179
REMARK minimizedRMSD -1
REMARK  0 active torsions:
REMARK  status: ('A' for Active; 'I' for Inactive)
ROOT
ATOM      1  C   UNL d   1      -5.908  -2.185  -5.978  0.00  0.00     0.020 A 
ATOM      2  C1  UNL d   1      -4.764  -1.476  -5.615  0.00  0.00     0.020 A 
ATOM      3  C2  UNL d   1      -3.600  -2.162  -5.261  0.00  0.00     0.034 A 
ATOM      4  C3  UNL d   1      -3.578  -3.562  -5.271  0.00  0.00     0.017 A 
ATOM      5  C4  UNL d   1      -4.727  -4.273  -5.636  0.00  0.00     0.017 A 
ATOM      6  C5  UNL d   1      -5.890  -3.580  -5.989  0.00  0.00     0.034 A 
ATOM      7 Cl   UNL d   1      -4.776  -6.000  -5.671  0.00  0.00    -0.070 Cl
ATOM      8 Cl1  UNL d   1      -2.104  -4.344  -4.823  0.00  0.00    -0.070 Cl
ENDROOT
TORSDOF 0
ENDMDL
