MODEL 1
REMARK minimizedAffinity 10.3703709
REMARK minimizedRMSD -1
REMARK  0 active torsions:
REMARK  status: ('A' for Active; 'I' for Inactive)
ROOT
ATOM      1  C   UNL d   1       0.211  -1.063  -0.041  0.00  0.00     0.020 A 
ATOM      2  C1  UNL d   1      -0.176  -0.417   1.133  0.00  0.00     0.020 A 
ATOM      3  C2  UNL d   1      -1.496  -0.511   1.579  0.00  0.00     0.034 A 
ATOM      4  C3  UNL d   1      -2.434  -1.253   0.852  0.00  0.00     0.017 A 
ATOM      5  C4  UNL d   1      -2.045  -1.901  -0.325  0.00  0.00     0.017 A 
ATOM      6  C5  UNL d   1      -0.722  -1.804  -0.768  0.00  0.00     0.034 A 
ATOM      7 Cl   UNL d   1      -3.145  -2.835  -1.276  0.00  0.00    -0.070 Cl
ATOM      8 Cl1  UNL d   1      -4.048  -1.326   1.463  0.00  0.00    -0.070 Cl
ENDROOT
TORSDOF 0
ENDMDL
