MODEL 1
REMARK minimizedAffinity 1.10298753
REMARK minimizedRMSD -1
REMARK  0 active torsions:
REMARK  status: ('A' for Active; 'I' for Inactive)
ROOT
ATOM      1  C   UNL d   1      -2.635  -4.663  -2.414  0.00  0.00     0.020 A 
ATOM      2  C1  UNL d   1      -2.414  -5.735  -3.278  0.00  0.00     0.020 A 
ATOM      3  C2  UNL d   1      -3.256  -5.934  -4.373  0.00  0.00     0.034 A 
ATOM      4  C3  UNL d   1      -4.324  -5.060  -4.608  0.00  0.00     0.017 A 
ATOM      5  C4  UNL d   1      -4.545  -3.984  -3.741  0.00  0.00     0.017 A 
ATOM      6  C5  UNL d   1      -3.698  -3.789  -2.645  0.00  0.00     0.034 A 
ATOM      7 Cl   UNL d   1      -5.841  -2.864  -3.966  0.00  0.00    -0.070 Cl
ATOM      8 Cl1  UNL d   1      -5.325  -5.366  -5.983  0.00  0.00    -0.070 Cl
ENDROOT
TORSDOF 0
ENDMDL
