MODEL 1
REMARK minimizedAffinity 0.32051602
REMARK minimizedRMSD -1
REMARK  0 active torsions:
REMARK  status: ('A' for Active; 'I' for Inactive)
ROOT
ATOM      1  C   UNL d   1      -5.264  -2.690  -4.841  0.00  0.00     0.020 A 
ATOM      2  C1  UNL d   1      -4.897  -3.372  -6.000  0.00  0.00     0.020 A 
ATOM      3  C2  UNL d   1      -3.764  -4.189  -6.000  0.00  0.00     0.034 A 
ATOM      4  C3  UNL d   1      -2.995  -4.325  -4.839  0.00  0.00     0.017 A 
ATOM      5  C4  UNL d   1      -3.364  -3.639  -3.676  0.00  0.00     0.017 A 
ATOM      6  C5  UNL d   1      -4.499  -2.823  -3.682  0.00  0.00     0.034 A 
ATOM      7 Cl   UNL d   1      -2.464  -3.757  -2.205  0.00  0.00    -0.070 Cl
ATOM      8 Cl1  UNL d   1      -1.607  -5.352  -4.910  0.00  0.00    -0.070 Cl
ENDROOT
TORSDOF 0
ENDMDL
