MODEL 1
REMARK minimizedAffinity -2.96715593
REMARK minimizedRMSD -1
REMARK  0 active torsions:
REMARK  status: ('A' for Active; 'I' for Inactive)
ROOT
ATOM      1  C   UNL d   1      -4.471  -1.583  -5.440  0.00  0.00     0.020 A 
ATOM      2  C1  UNL d   1      -5.772  -2.059  -5.594  0.00  0.00     0.020 A 
ATOM      3  C2  UNL d   1      -6.000  -3.426  -5.762  0.00  0.00     0.034 A 
ATOM      4  C3  UNL d   1      -4.925  -4.322  -5.777  0.00  0.00     0.017 A 
ATOM      5  C4  UNL d   1      -3.619  -3.844  -5.623  0.00  0.00     0.017 A 
ATOM      6  C5  UNL d   1      -3.396  -2.473  -5.455  0.00  0.00     0.034 A 
ATOM      7 Cl   UNL d   1      -2.242  -4.888  -5.631  0.00  0.00    -0.070 Cl
ATOM      8 Cl1  UNL d   1      -5.280  -6.000  -5.989  0.00  0.00    -0.070 Cl
ENDROOT
TORSDOF 0
ENDMDL
