MODEL 1
REMARK minimizedAffinity 5.82799625
REMARK minimizedRMSD -1
REMARK  0 active torsions:
REMARK  status: ('A' for Active; 'I' for Inactive)
ROOT
ATOM      1  C   UNL d   1      -5.998  -4.839  -5.999  0.00  0.00     0.020 A 
ATOM      2  C1  UNL d   1      -5.479  -5.999  -5.427  0.00  0.00     0.020 A 
ATOM      3  C2  UNL d   1      -4.427  -5.917  -4.512  0.00  0.00     0.034 A 
ATOM      4  C3  UNL d   1      -3.892  -4.671  -4.165  0.00  0.00     0.017 A 
ATOM      5  C4  UNL d   1      -4.415  -3.506  -4.739  0.00  0.00     0.017 A 
ATOM      6  C5  UNL d   1      -5.468  -3.595  -5.655  0.00  0.00     0.034 A 
ATOM      7 Cl   UNL d   1      -3.807  -1.933  -4.361  0.00  0.00    -0.070 Cl
ATOM      8 Cl1  UNL d   1      -2.593  -4.643  -3.026  0.00  0.00    -0.070 Cl
ENDROOT
TORSDOF 0
ENDMDL
