MODEL 1
REMARK minimizedAffinity 3.26359892
REMARK minimizedRMSD -1
REMARK  0 active torsions:
REMARK  status: ('A' for Active; 'I' for Inactive)
ROOT
ATOM      1  C   UNL d   1      -6.000  -2.231  -4.750  0.00  0.00     0.020 A 
ATOM      2  C1  UNL d   1      -4.803  -1.598  -4.418  0.00  0.00     0.020 A 
ATOM      3  C2  UNL d   1      -3.605  -2.316  -4.433  0.00  0.00     0.034 A 
ATOM      4  C3  UNL d   1      -3.602  -3.672  -4.782  0.00  0.00     0.017 A 
ATOM      5  C4  UNL d   1      -4.804  -4.306  -5.115  0.00  0.00     0.017 A 
ATOM      6  C5  UNL d   1      -6.000  -3.583  -5.098  0.00  0.00     0.034 A 
ATOM      7 Cl   UNL d   1      -4.879  -5.976  -5.555  0.00  0.00    -0.070 Cl
ATOM      8 Cl1  UNL d   1      -2.084  -4.498  -4.780  0.00  0.00    -0.070 Cl
ENDROOT
TORSDOF 0
ENDMDL
