MODEL 1
REMARK minimizedAffinity -2.24815822
REMARK minimizedRMSD -1
REMARK  0 active torsions:
REMARK  status: ('A' for Active; 'I' for Inactive)
ROOT
ATOM      1  C   UNL d   1      -5.654  -3.682  -4.544  0.00  0.00     0.020 A 
ATOM      2  C1  UNL d   1      -5.012  -3.368  -5.741  0.00  0.00     0.020 A 
ATOM      3  C2  UNL d   1      -3.734  -3.868  -6.000  0.00  0.00     0.034 A 
ATOM      4  C3  UNL d   1      -3.093  -4.683  -5.060  0.00  0.00     0.017 A 
ATOM      5  C4  UNL d   1      -3.738  -4.997  -3.858  0.00  0.00     0.017 A 
ATOM      6  C5  UNL d   1      -5.018  -4.494  -3.604  0.00  0.00     0.034 A 
ATOM      7 Cl   UNL d   1      -3.012  -5.996  -2.650  0.00  0.00    -0.070 Cl
ATOM      8 Cl1  UNL d   1      -1.513  -5.265  -5.446  0.00  0.00    -0.070 Cl
ENDROOT
TORSDOF 0
ENDMDL
