MODEL 1
REMARK minimizedAffinity -0.751032591
REMARK minimizedRMSD -1
REMARK  0 active torsions:
REMARK  status: ('A' for Active; 'I' for Inactive)
ROOT
ATOM      1  C   UNL d   1      -5.999  -4.937  -5.687  0.00  0.00     0.020 A 
ATOM      2  C1  UNL d   1      -5.098  -6.000  -5.741  0.00  0.00     0.020 A 
ATOM      3  C2  UNL d   1      -3.755  -5.794  -5.421  0.00  0.00     0.034 A 
ATOM      4  C3  UNL d   1      -3.308  -4.522  -5.045  0.00  0.00     0.017 A 
ATOM      5  C4  UNL d   1      -4.213  -3.455  -4.991  0.00  0.00     0.017 A 
ATOM      6  C5  UNL d   1      -5.557  -3.667  -5.313  0.00  0.00     0.034 A 
ATOM      7 Cl   UNL d   1      -3.736  -1.857  -4.537  0.00  0.00    -0.070 Cl
ATOM      8 Cl1  UNL d   1      -1.633  -4.339  -4.662  0.00  0.00    -0.070 Cl
ENDROOT
TORSDOF 0
ENDMDL
