MODEL 1
REMARK minimizedAffinity -4.5178647
REMARK minimizedRMSD -1
REMARK  0 active torsions:
REMARK  status: ('A' for Active; 'I' for Inactive)
ROOT
ATOM      1  C   UNL d   1      -0.753  -6.000  -4.866  0.00  0.00     0.020 A 
ATOM      2  C1  UNL d   1      -1.563  -5.946  -6.000  0.00  0.00     0.020 A 
ATOM      3  C2  UNL d   1      -2.729  -5.179  -5.989  0.00  0.00     0.034 A 
ATOM      4  C3  UNL d   1      -3.090  -4.462  -4.842  0.00  0.00     0.017 A 
ATOM      5  C4  UNL d   1      -2.277  -4.516  -3.704  0.00  0.00     0.017 A 
ATOM      6  C5  UNL d   1      -1.110  -5.286  -3.721  0.00  0.00     0.034 A 
ATOM      7 Cl   UNL d   1      -2.656  -3.659  -2.252  0.00  0.00    -0.070 Cl
ATOM      8 Cl1  UNL d   1      -4.546  -3.533  -4.900  0.00  0.00    -0.070 Cl
ENDROOT
TORSDOF 0
ENDMDL
