MODEL 1
REMARK minimizedAffinity -1.68448389
REMARK minimizedRMSD -1
REMARK  0 active torsions:
REMARK  status: ('A' for Active; 'I' for Inactive)
ROOT
ATOM      1  C   UNL d   1      -5.244  -5.468  -5.528  0.00  0.00     0.020 A 
ATOM      2  C1  UNL d   1      -5.335  -4.644  -4.407  0.00  0.00     0.020 A 
ATOM      3  C2  UNL d   1      -4.175  -4.219  -3.757  0.00  0.00     0.034 A 
ATOM      4  C3  UNL d   1      -2.918  -4.618  -4.227  0.00  0.00     0.017 A 
ATOM      5  C4  UNL d   1      -2.828  -5.446  -5.352  0.00  0.00     0.017 A 
ATOM      6  C5  UNL d   1      -3.993  -5.868  -5.999  0.00  0.00     0.034 A 
ATOM      7 Cl   UNL d   1      -1.313  -5.979  -5.990  0.00  0.00    -0.070 Cl
ATOM      8 Cl1  UNL d   1      -1.525  -4.055  -3.373  0.00  0.00    -0.070 Cl
ENDROOT
TORSDOF 0
ENDMDL
