MODEL 1
REMARK minimizedAffinity -1.36262774
REMARK minimizedRMSD -1
REMARK  0 active torsions:
REMARK  status: ('A' for Active; 'I' for Inactive)
ROOT
ATOM      1  C1  BNZ d   1       1.093   3.260  -0.032  0.00  0.00     0.000 A 
ATOM      2  C2  BNZ d   1       1.256   4.471  -0.649  0.00  0.00     0.000 A 
ATOM      3  C3  BNZ d   1       0.194   5.114  -1.221  0.00  0.00     0.000 A 
ATOM      4  C4  BNZ d   1      -1.020   4.527  -1.210  0.00  0.00     0.000 A 
ATOM      5  C5  BNZ d   1      -1.198   3.301  -0.600  0.00  0.00     0.000 A 
ATOM      6  C6  BNZ d   1      -0.135   2.675   0.009  0.00  0.00     0.000 A 
ENDROOT
TORSDOF 0
ENDMDL
