MODEL 1
REMARK minimizedAffinity 6.9327755
REMARK minimizedRMSD -1
REMARK  0 active torsions:
REMARK  status: ('A' for Active; 'I' for Inactive)
ROOT
ATOM      1  C1  BNZ d   1      -3.066   0.808  -2.560  0.00  0.00     0.000 A 
ATOM      2  C2  BNZ d   1      -4.002  -0.153  -2.284  0.00  0.00     0.000 A 
ATOM      3  C3  BNZ d   1      -5.332   0.087  -2.488  0.00  0.00     0.000 A 
ATOM      4  C4  BNZ d   1      -5.728   1.298  -2.929  0.00  0.00     0.000 A 
ATOM      5  C5  BNZ d   1      -4.797   2.281  -3.202  0.00  0.00     0.000 A 
ATOM      6  C6  BNZ d   1      -3.456   2.023  -3.032  0.00  0.00     0.000 A 
ENDROOT
TORSDOF 0
ENDMDL
