MODEL 1
REMARK minimizedAffinity 4.37879181
REMARK minimizedRMSD -1
REMARK  0 active torsions:
REMARK  status: ('A' for Active; 'I' for Inactive)
ROOT
ATOM      1  C1  BNZ d   1      -4.029   5.233  -3.557  0.00  0.00     0.000 A 
ATOM      2  C2  BNZ d   1      -5.352   5.520  -3.766  0.00  0.00     0.000 A 
ATOM      3  C3  BNZ d   1      -5.998   5.071  -4.883  0.00  0.00     0.000 A 
ATOM      4  C4  BNZ d   1      -5.312   4.369  -5.809  0.00  0.00     0.000 A 
ATOM      5  C5  BNZ d   1      -3.976   4.079  -5.617  0.00  0.00     0.000 A 
ATOM      6  C6  BNZ d   1      -3.338   4.500  -4.473  0.00  0.00     0.000 A 
ENDROOT
TORSDOF 0
ENDMDL
