MODEL 1
REMARK minimizedAffinity -2.26516819
REMARK minimizedRMSD -1
REMARK  0 active torsions:
REMARK  status: ('A' for Active; 'I' for Inactive)
ROOT
ATOM      1  C1  BNZ d   1      -5.312   3.365  -5.992  0.00  0.00     0.000 A 
ATOM      2  C2  BNZ d   1      -4.536   2.301  -5.614  0.00  0.00     0.000 A 
ATOM      3  C3  BNZ d   1      -3.773   2.359  -4.482  0.00  0.00     0.000 A 
ATOM      4  C4  BNZ d   1      -3.756   3.492  -3.751  0.00  0.00     0.000 A 
ATOM      5  C5  BNZ d   1      -4.525   4.576  -4.123  0.00  0.00     0.000 A 
ATOM      6  C6  BNZ d   1      -5.322   4.501  -5.243  0.00  0.00     0.000 A 
ENDROOT
TORSDOF 0
ENDMDL
