MODEL 1
REMARK minimizedAffinity 5.34062004
REMARK minimizedRMSD -1
REMARK  0 active torsions:
REMARK  status: ('A' for Active; 'I' for Inactive)
ROOT
ATOM      1  C1  BNZ d   1      -1.199   3.912  -0.551  0.00  0.00     0.000 A 
ATOM      2  C2  BNZ d   1      -0.914   4.933  -1.418  0.00  0.00     0.000 A 
ATOM      3  C3  BNZ d   1       0.358   5.422  -1.529  0.00  0.00     0.000 A 
ATOM      4  C4  BNZ d   1       1.333   4.918  -0.745  0.00  0.00     0.000 A 
ATOM      5  C5  BNZ d   1       1.059   3.895   0.141  0.00  0.00     0.000 A 
ATOM      6  C6  BNZ d   1      -0.214   3.379   0.222  0.00  0.00     0.000 A 
ENDROOT
TORSDOF 0
ENDMDL
