MODEL 1
REMARK minimizedAffinity -0.216907918
REMARK minimizedRMSD -1
REMARK  0 active torsions:
REMARK  status: ('A' for Active; 'I' for Inactive)
ROOT
ATOM      1  C1  BNZ d   1       3.755  -0.871  -0.267  0.00  0.00     0.000 A 
ATOM      2  C2  BNZ d   1       4.561  -1.943  -0.544  0.00  0.00     0.000 A 
ATOM      3  C3  BNZ d   1       4.183  -3.210  -0.197  0.00  0.00     0.000 A 
ATOM      4  C4  BNZ d   1       3.021  -3.399   0.461  0.00  0.00     0.000 A 
ATOM      5  C5  BNZ d   1       2.202  -2.327   0.756  0.00  0.00     0.000 A 
ATOM      6  C6  BNZ d   1       2.567  -1.057   0.371  0.00  0.00     0.000 A 
ENDROOT
TORSDOF 0
ENDMDL
