MODEL 1
REMARK minimizedAffinity 8.90085125
REMARK minimizedRMSD -1
REMARK  1 active torsions:
REMARK  status: ('A' for Active; 'I' for Inactive)
REMARK    1  A    between atoms: C1_2  and  C2_3 
ROOT
ATOM      1  C2  UNL d   1       4.043  -0.554  -2.253  0.00  0.00    -0.076 A 
ATOM      2  C3  UNL d   1       3.113  -1.564  -1.954  0.00  0.00     0.004 A 
ATOM      3  C4  UNL d   1       2.589  -1.700  -0.669  0.00  0.00    -0.003 A 
ATOM      4  C5  UNL d   1       2.987  -0.827   0.337  0.00  0.00     0.000 A 
ATOM      5  C6  UNL d   1       3.896   0.192   0.054  0.00  0.00     0.000 A 
ATOM      6  C7  UNL d   1       4.421   0.353  -1.240  0.00  0.00    -0.073 A 
ATOM      7  C8  UNL d   1       5.402   1.466  -1.488  0.00  0.00     0.078 C 
ENDROOT
BRANCH   1   8
ATOM      8  C1  UNL d   1       4.597  -0.472  -3.658  0.00  0.00     0.053 C 
ATOM      9  C   UNL d   1       6.000  -1.050  -3.765  0.00  0.00     0.018 C 
ENDBRANCH   1   8
TORSDOF 1
ENDMDL
