MODEL 1
REMARK minimizedAffinity 15.2869864
REMARK minimizedRMSD -1
REMARK  1 active torsions:
REMARK  status: ('A' for Active; 'I' for Inactive)
REMARK    1  A    between atoms: C1_2  and  C2_3 
ROOT
ATOM      1  C2  UNL d   1       1.192   0.588   0.473  0.00  0.00    -0.076 A 
ATOM      2  C3  UNL d   1       0.532   0.932  -0.719  0.00  0.00     0.004 A 
ATOM      3  C4  UNL d   1      -0.696   1.590  -0.696  0.00  0.00    -0.003 A 
ATOM      4  C5  UNL d   1      -1.285   1.916   0.521  0.00  0.00     0.000 A 
ATOM      5  C6  UNL d   1      -0.636   1.599   1.714  0.00  0.00     0.000 A 
ATOM      6  C7  UNL d   1       0.611   0.950   1.708  0.00  0.00    -0.073 A 
ATOM      7  C8  UNL d   1       1.263   0.626   3.024  0.00  0.00     0.078 C 
ENDROOT
BRANCH   1   8
ATOM      8  C1  UNL d   1       2.509  -0.149   0.386  0.00  0.00     0.053 C 
ATOM      9  C   UNL d   1       3.402   0.382  -0.725  0.00  0.00     0.018 C 
ENDBRANCH   1   8
TORSDOF 1
ENDMDL
