MODEL 1
REMARK minimizedAffinity 13.4556198
REMARK minimizedRMSD -1
REMARK  1 active torsions:
REMARK  status: ('A' for Active; 'I' for Inactive)
REMARK    1  A    between atoms: C1_2  and  C2_3 
ROOT
ATOM      1  C2  UNL d   1       2.933   0.138  -0.263  0.00  0.00    -0.076 A 
ATOM      2  C3  UNL d   1       3.586   1.342  -0.578  0.00  0.00     0.004 A 
ATOM      3  C4  UNL d   1       4.973   1.448  -0.499  0.00  0.00    -0.003 A 
ATOM      4  C5  UNL d   1       5.731   0.350  -0.104  0.00  0.00     0.000 A 
ATOM      5  C6  UNL d   1       5.101  -0.857   0.195  0.00  0.00     0.000 A 
ATOM      6  C7  UNL d   1       3.704  -0.985   0.105  0.00  0.00    -0.073 A 
ATOM      7  C8  UNL d   1       3.078  -2.310   0.445  0.00  0.00     0.078 C 
ENDROOT
BRANCH   1   8
ATOM      8  C1  UNL d   1       1.424   0.090  -0.340  0.00  0.00     0.053 C 
ATOM      9  C   UNL d   1       0.759   0.582   0.937  0.00  0.00     0.018 C 
ENDBRANCH   1   8
TORSDOF 1
ENDMDL
