MODEL 1
REMARK minimizedAffinity 17.5236282
REMARK minimizedRMSD -1
REMARK  1 active torsions:
REMARK  status: ('A' for Active; 'I' for Inactive)
REMARK    1  A    between atoms: C1_2  and  C2_3 
ROOT
ATOM      1  C2  UNL d   1      -5.772   3.541   5.086  0.00  0.00    -0.076 A 
ATOM      2  C3  UNL d   1      -5.999   4.815   5.635  0.00  0.00     0.004 A 
ATOM      3  C4  UNL d   1      -5.920   5.961   4.845  0.00  0.00    -0.003 A 
ATOM      4  C5  UNL d   1      -5.613   5.851   3.494  0.00  0.00     0.000 A 
ATOM      5  C6  UNL d   1      -5.401   4.594   2.929  0.00  0.00     0.000 A 
ATOM      6  C7  UNL d   1      -5.493   3.428   3.708  0.00  0.00    -0.073 A 
ATOM      7  C8  UNL d   1      -5.250   2.098   3.048  0.00  0.00     0.078 C 
ENDROOT
BRANCH   1   8
ATOM      8  C1  UNL d   1      -5.845   2.337   5.998  0.00  0.00     0.053 C 
ATOM      9  C   UNL d   1      -5.942   1.029   5.228  0.00  0.00     0.018 C 
ENDBRANCH   1   8
TORSDOF 1
ENDMDL
