MODEL 1
REMARK minimizedAffinity 13.5583639
REMARK minimizedRMSD -1
REMARK  1 active torsions:
REMARK  status: ('A' for Active; 'I' for Inactive)
REMARK    1  A    between atoms: C1_2  and  C2_3 
ROOT
ATOM      1  C2  UNL d   1       5.414   2.470  -0.264  0.00  0.00    -0.076 A 
ATOM      2  C3  UNL d   1       5.466   3.011  -1.561  0.00  0.00     0.004 A 
ATOM      3  C4  UNL d   1       5.677   4.374  -1.761  0.00  0.00    -0.003 A 
ATOM      4  C5  UNL d   1       5.841   5.218  -0.669  0.00  0.00     0.000 A 
ATOM      5  C6  UNL d   1       5.810   4.696   0.624  0.00  0.00     0.000 A 
ATOM      6  C7  UNL d   1       5.614   3.322   0.843  0.00  0.00    -0.073 A 
ATOM      7  C8  UNL d   1       5.584   2.814   2.259  0.00  0.00     0.078 C 
ENDROOT
BRANCH   1   8
ATOM      8  C1  UNL d   1       5.155   0.989  -0.107  0.00  0.00     0.053 C 
ATOM      9  C   UNL d   1       3.996   0.506  -0.966  0.00  0.00     0.018 C 
ENDBRANCH   1   8
TORSDOF 1
ENDMDL
