MODEL 1
REMARK minimizedAffinity 14.351985
REMARK minimizedRMSD -1
REMARK  1 active torsions:
REMARK  status: ('A' for Active; 'I' for Inactive)
REMARK    1  A    between atoms: C1_2  and  C2_3 
ROOT
ATOM      1  C2  UNL d   1       1.037   0.482   0.115  0.00  0.00    -0.076 A 
ATOM      2  C3  UNL d   1       1.133   0.581   1.514  0.00  0.00     0.004 A 
ATOM      3  C4  UNL d   1       0.169   1.267   2.252  0.00  0.00    -0.003 A 
ATOM      4  C5  UNL d   1      -0.906   1.864   1.603  0.00  0.00     0.000 A 
ATOM      5  C6  UNL d   1      -1.026   1.760   0.217  0.00  0.00     0.000 A 
ATOM      6  C7  UNL d   1      -0.072   1.059  -0.540  0.00  0.00    -0.073 A 
ATOM      7  C8  UNL d   1      -0.248   0.984  -2.032  0.00  0.00     0.078 C 
ENDROOT
BRANCH   1   8
ATOM      8  C1  UNL d   1       2.127  -0.250  -0.635  0.00  0.00     0.053 C 
ATOM      9  C   UNL d   1       3.425   0.540  -0.696  0.00  0.00     0.018 C 
ENDBRANCH   1   8
TORSDOF 1
ENDMDL
