MODEL 1
REMARK minimizedAffinity 11.7115078
REMARK minimizedRMSD -1
REMARK  1 active torsions:
REMARK  status: ('A' for Active; 'I' for Inactive)
REMARK    1  A    between atoms: C1_2  and  C2_3 
ROOT
ATOM      1  C2  UNL d   1       2.057  -3.253  -1.780  0.00  0.00    -0.076 A 
ATOM      2  C3  UNL d   1       2.859  -2.762  -2.825  0.00  0.00     0.004 A 
ATOM      3  C4  UNL d   1       2.690  -3.215  -4.133  0.00  0.00    -0.003 A 
ATOM      4  C5  UNL d   1       1.716  -4.165  -4.417  0.00  0.00     0.000 A 
ATOM      5  C6  UNL d   1       0.899  -4.650  -3.395  0.00  0.00     0.000 A 
ATOM      6  C7  UNL d   1       1.046  -4.193  -2.075  0.00  0.00    -0.073 A 
ATOM      7  C8  UNL d   1       0.142  -4.754  -1.011  0.00  0.00     0.078 C 
ENDROOT
BRANCH   1   8
ATOM      8  C1  UNL d   1       2.305  -2.745  -0.378  0.00  0.00     0.053 C 
ATOM      9  C   UNL d   1       3.039  -1.414  -0.361  0.00  0.00     0.018 C 
ENDBRANCH   1   8
TORSDOF 1
ENDMDL
