MODEL 1
REMARK minimizedAffinity 1.30583966
REMARK minimizedRMSD -1
REMARK  1 active torsions:
REMARK  status: ('A' for Active; 'I' for Inactive)
REMARK    1  A    between atoms: N_2  and  C1_3 
ROOT
ATOM      1  C1  UNL d   1       3.424  -1.187   0.942  0.00  0.00     0.143 A 
ATOM      2  C2  UNL d   1       3.401  -2.379   1.675  0.00  0.00    -0.057 A 
ATOM      3  C3  UNL d   1       2.246  -3.168   1.741  0.00  0.00     0.033 A 
ATOM      4  C4  UNL d   1       1.082  -2.763   1.097  0.00  0.00    -0.042 A 
ATOM      5  C5  UNL d   1       1.075  -1.570   0.384  0.00  0.00     0.033 A 
ATOM      6  C6  UNL d   1       2.233  -0.789   0.316  0.00  0.00    -0.057 A 
ENDROOT
BRANCH   1   7
ATOM      7  N   UNL d   1       4.511  -0.310   0.919  0.00  0.00    -0.732 N 
ATOM      8  C   UNL d   1       5.826  -0.775   0.535  0.00  0.00     0.284 C 
ATOM      9  H3  UNL d   1       4.266   0.602   0.540  0.00  0.00     0.395 HD
ENDBRANCH   1   7
TORSDOF 1
ENDMDL
