MODEL 1
REMARK minimizedAffinity 2.67382479
REMARK minimizedRMSD -1
REMARK  1 active torsions:
REMARK  status: ('A' for Active; 'I' for Inactive)
REMARK    1  A    between atoms: N_2  and  C1_3 
ROOT
ATOM      1  C1  UNL d   1       0.190  -1.905   2.215  0.00  0.00     0.143 A 
ATOM      2  C2  UNL d   1       0.999  -3.046   2.239  0.00  0.00    -0.057 A 
ATOM      3  C3  UNL d   1       1.893  -3.324   1.198  0.00  0.00     0.033 A 
ATOM      4  C4  UNL d   1       1.972  -2.479   0.097  0.00  0.00    -0.042 A 
ATOM      5  C5  UNL d   1       1.160  -1.352   0.039  0.00  0.00     0.033 A 
ATOM      6  C6  UNL d   1       0.274  -1.076   1.085  0.00  0.00    -0.057 A 
ENDROOT
BRANCH   1   7
ATOM      7  N   UNL d   1      -0.789  -1.625   3.171  0.00  0.00    -0.732 N 
ATOM      8  C   UNL d   1      -1.889  -0.737   2.862  0.00  0.00     0.284 C 
ATOM      9  H3  UNL d   1      -1.057  -2.448   3.706  0.00  0.00     0.395 HD
ENDBRANCH   1   7
TORSDOF 1
ENDMDL
