MODEL 1
REMARK minimizedAffinity 2.37177873
REMARK minimizedRMSD -1
REMARK  1 active torsions:
REMARK  status: ('A' for Active; 'I' for Inactive)
REMARK    1  A    between atoms: N_2  and  C1_3 
ROOT
ATOM      1  C1  UNL d   1       0.527  -1.853   2.233  0.00  0.00     0.143 A 
ATOM      2  C2  UNL d   1       0.329  -1.642   0.864  0.00  0.00    -0.057 A 
ATOM      3  C3  UNL d   1       1.247  -2.114  -0.083  0.00  0.00     0.033 A 
ATOM      4  C4  UNL d   1       2.397  -2.780   0.326  0.00  0.00    -0.042 A 
ATOM      5  C5  UNL d   1       2.627  -2.979   1.683  0.00  0.00     0.033 A 
ATOM      6  C6  UNL d   1       1.704  -2.511   2.623  0.00  0.00    -0.057 A 
ENDROOT
BRANCH   1   7
ATOM      7  N   UNL d   1      -0.297  -1.323   3.229  0.00  0.00    -0.732 N 
ATOM      8  C   UNL d   1      -1.535  -0.657   2.883  0.00  0.00     0.284 C 
ATOM      9  H3  UNL d   1      -0.366  -1.932   4.041  0.00  0.00     0.395 HD
ENDBRANCH   1   7
TORSDOF 1
ENDMDL
