MODEL 1
REMARK minimizedAffinity -0.623230517
REMARK minimizedRMSD -1
REMARK  1 active torsions:
REMARK  status: ('A' for Active; 'I' for Inactive)
REMARK    1  A    between atoms: N_2  and  C1_3 
ROOT
ATOM      1  C1  UNL d   1       6.000  -0.429  -1.834  0.00  0.00     0.143 A 
ATOM      2  C2  UNL d   1       5.974  -1.426  -2.815  0.00  0.00    -0.057 A 
ATOM      3  C3  UNL d   1       5.987  -1.105  -4.177  0.00  0.00     0.033 A 
ATOM      4  C4  UNL d   1       5.998   0.225  -4.585  0.00  0.00    -0.042 A 
ATOM      5  C5  UNL d   1       5.999   1.233  -3.627  0.00  0.00     0.033 A 
ATOM      6  C6  UNL d   1       5.992   0.906  -2.268  0.00  0.00    -0.057 A 
ENDROOT
BRANCH   1   7
ATOM      7  N   UNL d   1       5.888  -0.682  -0.465  0.00  0.00    -0.732 N 
ATOM      8  C   UNL d   1       5.268  -1.899   0.012  0.00  0.00     0.284 C 
ATOM      9  H3  UNL d   1       6.724  -0.413   0.049  0.00  0.00     0.395 HD
ENDBRANCH   1   7
TORSDOF 1
ENDMDL
