MODEL 1
REMARK minimizedAffinity 9.9244194
REMARK minimizedRMSD -1
REMARK  1 active torsions:
REMARK  status: ('A' for Active; 'I' for Inactive)
REMARK    1  A    between atoms: N_2  and  C1_3 
ROOT
ATOM      1  C1  UNL d   1       0.386  -3.139   2.032  0.00  0.00     0.143 A 
ATOM      2  C2  UNL d   1       0.173  -1.875   2.592  0.00  0.00    -0.057 A 
ATOM      3  C3  UNL d   1      -1.005  -1.580   3.289  0.00  0.00     0.033 A 
ATOM      4  C4  UNL d   1      -2.006  -2.538   3.413  0.00  0.00    -0.042 A 
ATOM      5  C5  UNL d   1      -1.826  -3.793   2.844  0.00  0.00     0.033 A 
ATOM      6  C6  UNL d   1      -0.644  -4.084   2.155  0.00  0.00    -0.057 A 
ENDROOT
BRANCH   1   7
ATOM      7  N   UNL d   1       1.493  -3.464   1.244  0.00  0.00    -0.732 N 
ATOM      8  C   UNL d   1       1.943  -4.835   1.133  0.00  0.00     0.284 C 
ATOM      9  H3  UNL d   1       1.509  -2.949   0.366  0.00  0.00     0.395 HD
ENDBRANCH   1   7
TORSDOF 1
ENDMDL
