MODEL 1
REMARK minimizedAffinity 2.44351792
REMARK minimizedRMSD -1
REMARK  1 active torsions:
REMARK  status: ('A' for Active; 'I' for Inactive)
REMARK    1  A    between atoms: N_2  and  C1_3 
ROOT
ATOM      1  C1  UNL d   1      -0.248   2.303  -3.631  0.00  0.00     0.143 A 
ATOM      2  C2  UNL d   1      -0.049   1.715  -4.884  0.00  0.00    -0.057 A 
ATOM      3  C3  UNL d   1       0.957   2.166  -5.747  0.00  0.00     0.033 A 
ATOM      4  C4  UNL d   1       1.766   3.237  -5.381  0.00  0.00    -0.042 A 
ATOM      5  C5  UNL d   1       1.570   3.853  -4.151  0.00  0.00     0.033 A 
ATOM      6  C6  UNL d   1       0.568   3.394  -3.291  0.00  0.00    -0.057 A 
ENDROOT
BRANCH   1   7
ATOM      7  N   UNL d   1      -1.295   1.964  -2.770  0.00  0.00    -0.732 N 
ATOM      8  C   UNL d   1      -2.583   2.613  -2.885  0.00  0.00     0.284 C 
ATOM      9  H3  UNL d   1      -1.347   0.963  -2.597  0.00  0.00     0.395 HD
ENDBRANCH   1   7
TORSDOF 1
ENDMDL
