MODEL 1
REMARK minimizedAffinity -4.49112034
REMARK minimizedRMSD -1
REMARK  1 active torsions:
REMARK  status: ('A' for Active; 'I' for Inactive)
REMARK    1  A    between atoms: C1_2  and  C2_3 
ROOT
ATOM      1  C2  UNL d   1       0.165  -1.623  -0.291  0.00  0.00    -0.077 A 
ATOM      2  C3  UNL d   1       0.409  -1.721  -1.668  0.00  0.00     0.002 A 
ATOM      3  C4  UNL d   1       0.569  -2.970  -2.270  0.00  0.00     0.002 A 
ATOM      4  C5  UNL d   1       0.483  -4.131  -1.503  0.00  0.00    -0.004 A 
ATOM      5  C6  UNL d   1       0.243  -4.044  -0.133  0.00  0.00     0.002 A 
ATOM      6  C7  UNL d   1       0.083  -2.795   0.471  0.00  0.00     0.002 A 
ENDROOT
BRANCH   1   7
ATOM      7  C1  UNL d   1      -0.058  -0.278   0.351  0.00  0.00     0.055 C 
ATOM      8  C   UNL d   1       0.145   0.852  -0.647  0.00  0.00     0.019 C 
ENDBRANCH   1   7
TORSDOF 1
ENDMDL
