MODEL 1
REMARK minimizedAffinity -4.65706491
REMARK minimizedRMSD -1
REMARK  1 active torsions:
REMARK  status: ('A' for Active; 'I' for Inactive)
REMARK    1  A    between atoms: C1_2  and  C2_3 
ROOT
ATOM      1  C2  UNL d   1      -0.165  -0.407  -0.065  0.00  0.00    -0.077 A 
ATOM      2  C3  UNL d   1       0.522  -1.236  -0.964  0.00  0.00     0.002 A 
ATOM      3  C4  UNL d   1       0.541  -2.619  -0.774  0.00  0.00     0.002 A 
ATOM      4  C5  UNL d   1      -0.126  -3.185   0.311  0.00  0.00    -0.004 A 
ATOM      5  C6  UNL d   1      -0.810  -2.368   1.211  0.00  0.00     0.002 A 
ATOM      6  C7  UNL d   1      -0.830  -0.985   1.023  0.00  0.00     0.002 A 
ENDROOT
BRANCH   1   7
ATOM      7  C1  UNL d   1      -0.228   1.081  -0.296  0.00  0.00     0.055 C 
ATOM      8  C   UNL d   1       1.120   1.739  -0.040  0.00  0.00     0.019 C 
ENDBRANCH   1   7
TORSDOF 1
ENDMDL
