MODEL 1
REMARK minimizedAffinity -4.33424425
REMARK minimizedRMSD -1
REMARK  1 active torsions:
REMARK  status: ('A' for Active; 'I' for Inactive)
REMARK    1  A    between atoms: C1_2  and  C2_3 
ROOT
ATOM      1  C2  UNL d   1      -0.227  -1.074  -0.414  0.00  0.00    -0.077 A 
ATOM      2  C3  UNL d   1       0.274  -0.879  -1.709  0.00  0.00     0.002 A 
ATOM      3  C4  UNL d   1       0.304  -1.936  -2.621  0.00  0.00     0.002 A 
ATOM      4  C5  UNL d   1      -0.170  -3.192  -2.250  0.00  0.00    -0.004 A 
ATOM      5  C6  UNL d   1      -0.669  -3.397  -0.965  0.00  0.00     0.002 A 
ATOM      6  C7  UNL d   1      -0.698  -2.343  -0.051  0.00  0.00     0.002 A 
ENDROOT
BRANCH   1   7
ATOM      7  C1  UNL d   1      -0.306   0.076   0.555  0.00  0.00     0.055 C 
ATOM      8  C   UNL d   1      -0.178   1.413  -0.160  0.00  0.00     0.019 C 
ENDBRANCH   1   7
TORSDOF 1
ENDMDL
