MODEL 1
REMARK minimizedAffinity -3.84443164
REMARK minimizedRMSD -1
REMARK  1 active torsions:
REMARK  status: ('A' for Active; 'I' for Inactive)
REMARK    1  A    between atoms: C1_2  and  C2_3 
ROOT
ATOM      1  C2  UNL d   1      -0.228   0.693  -0.051  0.00  0.00    -0.077 A 
ATOM      2  C3  UNL d   1      -0.505   0.810   1.319  0.00  0.00     0.002 A 
ATOM      3  C4  UNL d   1      -0.937  -0.298   2.049  0.00  0.00     0.002 A 
ATOM      4  C5  UNL d   1      -1.093  -1.532   1.420  0.00  0.00    -0.004 A 
ATOM      5  C6  UNL d   1      -0.822  -1.658   0.058  0.00  0.00     0.002 A 
ATOM      6  C7  UNL d   1      -0.391  -0.551  -0.674  0.00  0.00     0.002 A 
ENDROOT
BRANCH   1   7
ATOM      7  C1  UNL d   1       0.286   1.876  -0.830  0.00  0.00     0.055 C 
ATOM      8  C   UNL d   1       0.771   2.980   0.098  0.00  0.00     0.019 C 
ENDBRANCH   1   7
TORSDOF 1
ENDMDL
