MODEL 1
REMARK minimizedAffinity -4.63998985
REMARK minimizedRMSD -1
REMARK  1 active torsions:
REMARK  status: ('A' for Active; 'I' for Inactive)
REMARK    1  A    between atoms: C1_2  and  C2_3 
ROOT
ATOM      1  C2  UNL d   1       0.138  -0.691   0.038  0.00  0.00    -0.077 A 
ATOM      2  C3  UNL d   1      -0.231  -1.464   1.148  0.00  0.00     0.002 A 
ATOM      3  C4  UNL d   1      -0.380  -2.847   1.027  0.00  0.00     0.002 A 
ATOM      4  C5  UNL d   1      -0.158  -3.469  -0.200  0.00  0.00    -0.004 A 
ATOM      5  C6  UNL d   1       0.208  -2.708  -1.310  0.00  0.00     0.002 A 
ATOM      6  C7  UNL d   1       0.356  -1.325  -1.191  0.00  0.00     0.002 A 
ENDROOT
BRANCH   1   7
ATOM      7  C1  UNL d   1       0.346   0.795   0.178  0.00  0.00     0.055 C 
ATOM      8  C   UNL d   1      -0.001   1.526  -1.110  0.00  0.00     0.019 C 
ENDBRANCH   1   7
TORSDOF 1
ENDMDL
