MODEL 1
REMARK minimizedAffinity -6.09592247
REMARK minimizedRMSD -1
REMARK  1 active torsions:
REMARK  status: ('A' for Active; 'I' for Inactive)
REMARK    1  A    between atoms: C1_2  and  C2_3 
ROOT
ATOM      1  C2  UNL d   1      -0.200  -1.377   0.155  0.00  0.00    -0.077 A 
ATOM      2  C3  UNL d   1       0.021  -1.433  -1.228  0.00  0.00     0.002 A 
ATOM      3  C4  UNL d   1       0.202  -2.663  -1.865  0.00  0.00     0.002 A 
ATOM      4  C5  UNL d   1       0.159  -3.844  -1.128  0.00  0.00    -0.004 A 
ATOM      5  C6  UNL d   1      -0.058  -3.798   0.249  0.00  0.00     0.002 A 
ATOM      6  C7  UNL d   1      -0.238  -2.570   0.887  0.00  0.00     0.002 A 
ENDROOT
BRANCH   1   7
ATOM      7  C1  UNL d   1      -0.444  -0.056   0.836  0.00  0.00     0.055 C 
ATOM      8  C   UNL d   1      -0.135   1.111  -0.092  0.00  0.00     0.019 C 
ENDBRANCH   1   7
TORSDOF 1
ENDMDL
