MODEL 1
REMARK minimizedAffinity -2.95689583
REMARK minimizedRMSD -1
REMARK  1 active torsions:
REMARK  status: ('A' for Active; 'I' for Inactive)
REMARK    1  A    between atoms: C1_2  and  C2_3 
ROOT
ATOM      1  C2  UNL d   1       0.675   1.117  -0.123  0.00  0.00    -0.077 A 
ATOM      2  C3  UNL d   1       2.073   1.224  -0.128  0.00  0.00     0.002 A 
ATOM      3  C4  UNL d   1       2.687   2.467   0.036  0.00  0.00     0.002 A 
ATOM      4  C5  UNL d   1       1.911   3.612   0.210  0.00  0.00    -0.004 A 
ATOM      5  C6  UNL d   1       0.520   3.516   0.214  0.00  0.00     0.002 A 
ATOM      6  C7  UNL d   1      -0.095   2.274   0.050  0.00  0.00     0.002 A 
ENDROOT
BRANCH   1   7
ATOM      7  C1  UNL d   1       0.012  -0.230  -0.250  0.00  0.00     0.055 C 
ATOM      8  C   UNL d   1      -0.759  -0.588   1.012  0.00  0.00     0.019 C 
ENDBRANCH   1   7
TORSDOF 1
ENDMDL
