MODEL 1
REMARK minimizedAffinity -5.35607815
REMARK minimizedRMSD -1
REMARK  1 active torsions:
REMARK  status: ('A' for Active; 'I' for Inactive)
REMARK    1  A    between atoms: C1_2  and  C2_3 
ROOT
ATOM      1  C2  UNL d   1      -0.352  -1.947  -1.385  0.00  0.00    -0.077 A 
ATOM      2  C3  UNL d   1      -0.454  -2.087   0.006  0.00  0.00     0.002 A 
ATOM      3  C4  UNL d   1      -0.487  -0.960   0.829  0.00  0.00     0.002 A 
ATOM      4  C5  UNL d   1      -0.422   0.315   0.270  0.00  0.00    -0.004 A 
ATOM      5  C6  UNL d   1      -0.318   0.465  -1.112  0.00  0.00     0.002 A 
ATOM      6  C7  UNL d   1      -0.284  -0.661  -1.936  0.00  0.00     0.002 A 
ENDROOT
BRANCH   1   7
ATOM      7  C1  UNL d   1      -0.366  -3.161  -2.277  0.00  0.00     0.055 C 
ATOM      8  C   UNL d   1      -1.415  -3.030  -3.372  0.00  0.00     0.019 C 
ENDBRANCH   1   7
TORSDOF 1
ENDMDL
