MODEL 1
REMARK minimizedAffinity -3.95633173
REMARK minimizedRMSD -1
REMARK  1 active torsions:
REMARK  status: ('A' for Active; 'I' for Inactive)
REMARK    1  A    between atoms: C1_2  and  C2_3 
ROOT
ATOM      1  C2  UNL d   1      -0.050   0.140  -0.149  0.00  0.00    -0.077 A 
ATOM      2  C3  UNL d   1      -0.796   0.251   1.033  0.00  0.00     0.002 A 
ATOM      3  C4  UNL d   1      -1.084  -0.882   1.796  0.00  0.00     0.002 A 
ATOM      4  C5  UNL d   1      -0.625  -2.133   1.389  0.00  0.00    -0.004 A 
ATOM      5  C6  UNL d   1       0.116  -2.255   0.214  0.00  0.00     0.002 A 
ATOM      6  C7  UNL d   1       0.404  -1.123  -0.550  0.00  0.00     0.002 A 
ENDROOT
BRANCH   1   7
ATOM      7  C1  UNL d   1       0.303   1.367  -0.947  0.00  0.00     0.055 C 
ATOM      8  C   UNL d   1       1.148   2.335  -0.130  0.00  0.00     0.019 C 
ENDBRANCH   1   7
TORSDOF 1
ENDMDL
