MODEL 1
REMARK minimizedAffinity -4.68137693
REMARK minimizedRMSD -1
REMARK  1 active torsions:
REMARK  status: ('A' for Active; 'I' for Inactive)
REMARK    1  A    between atoms: C1_2  and  C2_3 
ROOT
ATOM      1  C2  UNL d   1      -0.309  -1.557  -0.547  0.00  0.00    -0.077 A 
ATOM      2  C3  UNL d   1      -0.603  -1.732   0.812  0.00  0.00     0.002 A 
ATOM      3  C4  UNL d   1      -0.952  -0.638   1.606  0.00  0.00     0.002 A 
ATOM      4  C5  UNL d   1      -1.015   0.637   1.049  0.00  0.00    -0.004 A 
ATOM      5  C6  UNL d   1      -0.723   0.822  -0.301  0.00  0.00     0.002 A 
ATOM      6  C7  UNL d   1      -0.372  -0.270  -1.096  0.00  0.00     0.002 A 
ENDROOT
BRANCH   1   7
ATOM      7  C1  UNL d   1       0.021  -2.742  -1.416  0.00  0.00     0.055 C 
ATOM      8  C   UNL d   1      -0.092  -2.394  -2.893  0.00  0.00     0.019 C 
ENDBRANCH   1   7
TORSDOF 1
ENDMDL
