MODEL 1
REMARK minimizedAffinity -1.93029547
REMARK minimizedRMSD -1
REMARK  1 active torsions:
REMARK  status: ('A' for Active; 'I' for Inactive)
REMARK    1  A    between atoms: C1_2  and  C2_3 
ROOT
ATOM      1  C2  UNL d   1      -0.441  -2.046  -0.094  0.00  0.00    -0.077 A 
ATOM      2  C3  UNL d   1      -0.771  -0.874   0.602  0.00  0.00     0.002 A 
ATOM      3  C4  UNL d   1      -0.483   0.377   0.053  0.00  0.00     0.002 A 
ATOM      4  C5  UNL d   1       0.132   0.469  -1.193  0.00  0.00    -0.004 A 
ATOM      5  C6  UNL d   1       0.466  -0.691  -1.892  0.00  0.00     0.002 A 
ATOM      6  C7  UNL d   1       0.180  -1.942  -1.345  0.00  0.00     0.002 A 
ENDROOT
BRANCH   1   7
ATOM      7  C1  UNL d   1      -0.795  -3.396   0.474  0.00  0.00     0.055 C 
ATOM      8  C   UNL d   1       0.348  -4.385   0.304  0.00  0.00     0.019 C 
ENDBRANCH   1   7
TORSDOF 1
ENDMDL
