MODEL 1
REMARK minimizedAffinity 3.2916019
REMARK minimizedRMSD -1
REMARK  0 active torsions:
REMARK  status: ('A' for Active; 'I' for Inactive)
ROOT
ATOM      1  C   UNL d   1       1.331  -0.419  -1.902  0.00  0.00     0.124 A 
ATOM      2  C1  UNL d   1       1.783  -0.923  -0.691  0.00  0.00     0.062 A 
ATOM      3  C2  UNL d   1       1.050  -0.711   0.473  0.00  0.00     0.162 A 
ATOM      4  C3  UNL d   1      -0.144   0.008   0.431  0.00  0.00    -0.034 A 
ATOM      5  C4  UNL d   1      -0.592   0.513  -0.791  0.00  0.00     0.162 A 
ATOM      6  C5  UNL d   1       0.145   0.299  -1.951  0.00  0.00     0.062 A 
ATOM      7  F   UNL d   1      -0.294   0.787  -3.121  0.00  0.00    -0.097 F 
ATOM      8  F1  UNL d   1      -1.736   1.209  -0.867  0.00  0.00    -0.096 F 
ATOM      9  I   UNL d   1      -1.244   0.327   2.169  0.00  0.00    -0.060 I 
ATOM     10  F2  UNL d   1       1.511  -1.210   1.630  0.00  0.00    -0.096 F 
ATOM     11  F3  UNL d   1       2.930  -1.616  -0.640  0.00  0.00    -0.097 F 
ATOM     12  F4  UNL d   1       2.040  -0.623  -3.020  0.00  0.00    -0.092 F 
ENDROOT
TORSDOF 0
ENDMDL
