MODEL 1
REMARK minimizedAffinity -5.42506313
REMARK minimizedRMSD -1
REMARK  0 active torsions:
REMARK  status: ('A' for Active; 'I' for Inactive)
ROOT
ATOM      1  C   UNL d   1       0.504  -1.303  -1.445  0.00  0.00     0.124 A 
ATOM      2  C1  UNL d   1       0.092  -2.453  -2.103  0.00  0.00     0.062 A 
ATOM      3  C2  UNL d   1      -0.619  -2.360  -3.296  0.00  0.00     0.162 A 
ATOM      4  C3  UNL d   1      -0.923  -1.111  -3.839  0.00  0.00    -0.034 A 
ATOM      5  C4  UNL d   1      -0.506   0.041  -3.170  0.00  0.00     0.162 A 
ATOM      6  C5  UNL d   1       0.204  -0.057  -1.978  0.00  0.00     0.062 A 
ATOM      7  F   UNL d   1       0.601   1.055  -1.343  0.00  0.00    -0.097 F 
ATOM      8  F1  UNL d   1      -0.782   1.258  -3.664  0.00  0.00    -0.096 F 
ATOM      9  I   UNL d   1      -1.987  -0.968  -5.622  0.00  0.00    -0.060 I 
ATOM     10  F2  UNL d   1      -1.004  -3.488  -3.911  0.00  0.00    -0.096 F 
ATOM     11  F3  UNL d   1       0.380  -3.657  -1.589  0.00  0.00    -0.097 F 
ATOM     12  F4  UNL d   1       1.187  -1.395  -0.297  0.00  0.00    -0.092 F 
ENDROOT
TORSDOF 0
ENDMDL
