MODEL 1
REMARK minimizedAffinity 1.13623893
REMARK minimizedRMSD -1
REMARK  0 active torsions:
REMARK  status: ('A' for Active; 'I' for Inactive)
ROOT
ATOM      1  C   UNL d   1      -0.517   0.142   1.589  0.00  0.00     0.124 A 
ATOM      2  C1  UNL d   1       0.623  -0.434   1.044  0.00  0.00     0.062 A 
ATOM      3  C2  UNL d   1       0.849  -0.375  -0.328  0.00  0.00     0.162 A 
ATOM      4  C3  UNL d   1      -0.066   0.264  -1.165  0.00  0.00    -0.034 A 
ATOM      5  C4  UNL d   1      -1.210   0.840  -0.610  0.00  0.00     0.162 A 
ATOM      6  C5  UNL d   1      -1.431   0.778   0.762  0.00  0.00     0.062 A 
ATOM      7  F   UNL d   1      -2.533   1.335   1.286  0.00  0.00    -0.097 F 
ATOM      8  F1  UNL d   1      -2.109   1.462  -1.386  0.00  0.00    -0.096 F 
ATOM      9  I   UNL d   1       0.269   0.354  -3.217  0.00  0.00    -0.060 I 
ATOM     10  F2  UNL d   1       1.958  -0.940  -0.827  0.00  0.00    -0.096 F 
ATOM     11  F3  UNL d   1       1.507  -1.050   1.841  0.00  0.00    -0.097 F 
ATOM     12  F4  UNL d   1      -0.732   0.083   2.909  0.00  0.00    -0.092 F 
ENDROOT
TORSDOF 0
ENDMDL
