MODEL 1
REMARK minimizedAffinity 2.61598349
REMARK minimizedRMSD -1
REMARK  0 active torsions:
REMARK  status: ('A' for Active; 'I' for Inactive)
ROOT
ATOM      1  C   UNL d   1      -0.659   0.736   3.279  0.00  0.00     0.124 A 
ATOM      2  C1  UNL d   1       0.290   1.485   2.597  0.00  0.00     0.062 A 
ATOM      3  C2  UNL d   1       0.503   1.275   1.238  0.00  0.00     0.162 A 
ATOM      4  C3  UNL d   1      -0.236   0.313   0.550  0.00  0.00    -0.034 A 
ATOM      5  C4  UNL d   1      -1.189  -0.437   1.243  0.00  0.00     0.162 A 
ATOM      6  C5  UNL d   1      -1.398  -0.223   2.601  0.00  0.00     0.062 A 
ATOM      7  F   UNL d   1      -2.316  -0.947   3.258  0.00  0.00    -0.097 F 
ATOM      8  F1  UNL d   1      -1.918  -1.370   0.612  0.00  0.00    -0.096 F 
ATOM      9  I   UNL d   1       0.079  -0.004  -1.482  0.00  0.00    -0.060 I 
ATOM     10  F2  UNL d   1       1.427   2.012   0.605  0.00  0.00    -0.096 F 
ATOM     11  F3  UNL d   1       1.006   2.412   3.250  0.00  0.00    -0.097 F 
ATOM     12  F4  UNL d   1      -0.861   0.940   4.587  0.00  0.00    -0.092 F 
ENDROOT
TORSDOF 0
ENDMDL
