MODEL 1
REMARK minimizedAffinity 3.65130997
REMARK minimizedRMSD -1
REMARK  0 active torsions:
REMARK  status: ('A' for Active; 'I' for Inactive)
ROOT
ATOM      1  C   UNL d   1      -0.987   0.168   1.530  0.00  0.00     0.124 A 
ATOM      2  C1  UNL d   1       0.269  -0.182   1.053  0.00  0.00     0.062 A 
ATOM      3  C2  UNL d   1       0.597   0.035  -0.282  0.00  0.00     0.162 A 
ATOM      4  C3  UNL d   1      -0.333   0.607  -1.151  0.00  0.00    -0.034 A 
ATOM      5  C4  UNL d   1      -1.594   0.955  -0.665  0.00  0.00     0.162 A 
ATOM      6  C5  UNL d   1      -1.917   0.736   0.671  0.00  0.00     0.062 A 
ATOM      7  F   UNL d   1      -3.131   1.075   1.129  0.00  0.00    -0.097 F 
ATOM      8  F1  UNL d   1      -2.512   1.507  -1.473  0.00  0.00    -0.096 F 
ATOM      9  I   UNL d   1       0.153   0.933  -3.148  0.00  0.00    -0.060 I 
ATOM     10  F2  UNL d   1       1.817  -0.313  -0.715  0.00  0.00    -0.096 F 
ATOM     11  F3  UNL d   1       1.169  -0.732   1.881  0.00  0.00    -0.097 F 
ATOM     12  F4  UNL d   1      -1.299  -0.042   2.815  0.00  0.00    -0.092 F 
ENDROOT
TORSDOF 0
ENDMDL
