MODEL 1
REMARK minimizedAffinity -0.287904739
REMARK minimizedRMSD -1
REMARK  0 active torsions:
REMARK  status: ('A' for Active; 'I' for Inactive)
ROOT
ATOM      1  C   UNL d   1       0.746  -0.359  -1.583  0.00  0.00     0.124 A 
ATOM      2  C1  UNL d   1       0.985  -1.013  -0.382  0.00  0.00     0.062 A 
ATOM      3  C2  UNL d   1       0.489  -0.493   0.809  0.00  0.00     0.162 A 
ATOM      4  C3  UNL d   1      -0.254   0.688   0.806  0.00  0.00    -0.034 A 
ATOM      5  C4  UNL d   1      -0.490   1.341  -0.405  0.00  0.00     0.162 A 
ATOM      6  C5  UNL d   1       0.009   0.817  -1.594  0.00  0.00     0.062 A 
ATOM      7  F   UNL d   1      -0.223   1.450  -2.753  0.00  0.00    -0.097 F 
ATOM      8  F1  UNL d   1      -1.199   2.478  -0.445  0.00  0.00    -0.096 F 
ATOM      9  I   UNL d   1      -0.998   1.470   2.586  0.00  0.00    -0.060 I 
ATOM     10  F2  UNL d   1       0.735  -1.145   1.955  0.00  0.00    -0.096 F 
ATOM     11  F3  UNL d   1       1.697  -2.149  -0.369  0.00  0.00    -0.097 F 
ATOM     12  F4  UNL d   1       1.225  -0.862  -2.728  0.00  0.00    -0.092 F 
ENDROOT
TORSDOF 0
ENDMDL
