MODEL 1
REMARK minimizedAffinity -0.644873321
REMARK minimizedRMSD -1
REMARK  0 active torsions:
REMARK  status: ('A' for Active; 'I' for Inactive)
ROOT
ATOM      1  C   UNL d   1       0.691   0.659   1.709  0.00  0.00     0.124 A 
ATOM      2  C1  UNL d   1       1.495  -0.302   1.113  0.00  0.00     0.062 A 
ATOM      3  C2  UNL d   1       1.304  -0.646  -0.222  0.00  0.00     0.162 A 
ATOM      4  C3  UNL d   1       0.304  -0.026  -0.972  0.00  0.00    -0.034 A 
ATOM      5  C4  UNL d   1      -0.502   0.940  -0.365  0.00  0.00     0.162 A 
ATOM      6  C5  UNL d   1      -0.306   1.279   0.970  0.00  0.00     0.062 A 
ATOM      7  F   UNL d   1      -1.084   2.209   1.543  0.00  0.00    -0.097 F 
ATOM      8  F1  UNL d   1      -1.472   1.555  -1.057  0.00  0.00    -0.096 F 
ATOM      9  I   UNL d   1       0.015  -0.536  -2.968  0.00  0.00    -0.060 I 
ATOM     10  F2  UNL d   1       2.096  -1.578  -0.772  0.00  0.00    -0.096 F 
ATOM     11  F3  UNL d   1       2.459  -0.903   1.826  0.00  0.00    -0.097 F 
ATOM     12  F4  UNL d   1       0.877   0.987   2.994  0.00  0.00    -0.092 F 
ENDROOT
TORSDOF 0
ENDMDL
