MODEL 1
REMARK minimizedAffinity -1.30174911
REMARK minimizedRMSD -1
REMARK  0 active torsions:
REMARK  status: ('A' for Active; 'I' for Inactive)
ROOT
ATOM      1  C   UNL d   1       0.906  -1.185  -1.466  0.00  0.00     0.124 A 
ATOM      2  C1  UNL d   1       1.333  -1.514  -0.187  0.00  0.00     0.062 A 
ATOM      3  C2  UNL d   1       0.849  -0.815   0.914  0.00  0.00     0.162 A 
ATOM      4  C3  UNL d   1      -0.069   0.221   0.742  0.00  0.00    -0.034 A 
ATOM      5  C4  UNL d   1      -0.493   0.548  -0.547  0.00  0.00     0.162 A 
ATOM      6  C5  UNL d   1      -0.007  -0.155  -1.645  0.00  0.00     0.062 A 
ATOM      7  F   UNL d   1      -0.421   0.165  -2.880  0.00  0.00    -0.097 F 
ATOM      8  F1  UNL d   1      -1.375   1.538  -0.748  0.00  0.00    -0.096 F 
ATOM      9  I   UNL d   1      -0.795   1.270   2.387  0.00  0.00    -0.060 I 
ATOM     10  F2  UNL d   1       1.280  -1.154   2.138  0.00  0.00    -0.096 F 
ATOM     11  F3  UNL d   1       2.216  -2.508  -0.012  0.00  0.00    -0.097 F 
ATOM     12  F4  UNL d   1       1.374  -1.859  -2.525  0.00  0.00    -0.092 F 
ENDROOT
TORSDOF 0
ENDMDL
