MODEL 1
REMARK minimizedAffinity 5.70179558
REMARK minimizedRMSD -1
REMARK  0 active torsions:
REMARK  status: ('A' for Active; 'I' for Inactive)
ROOT
ATOM      1  N1  IND d   1      -0.036   2.408   4.151  0.00  0.00    -0.196 N 
ATOM      2  C2  IND d   1      -1.185   2.655   3.452  0.00  0.00     0.054 A 
ATOM      3  C3  IND d   1      -0.939   2.639   2.123  0.00  0.00    -0.031 A 
ATOM      4  C4  IND d   1       1.252   2.127   0.871  0.00  0.00     0.051 A 
ATOM      5  C5  IND d   1       2.579   1.879   1.080  0.00  0.00    -0.031 A 
ATOM      6  C6  IND d   1       3.113   1.790   2.350  0.00  0.00     0.015 A 
ATOM      7  C7  IND d   1       2.333   1.935   3.462  0.00  0.00    -0.016 A 
ATOM      8  C8  IND d   1       0.986   2.194   3.253  0.00  0.00    -0.047 A 
ATOM      9  C9  IND d   1       0.447   2.328   1.968  0.00  0.00    -0.096 A 
ATOM     10  HN1 IND d   1       0.035   2.389   5.008  0.00  0.00     0.298 HD
ENDROOT
TORSDOF 0
ENDMDL
