MODEL 1
REMARK minimizedAffinity 13.5135927
REMARK minimizedRMSD -1
REMARK  0 active torsions:
REMARK  status: ('A' for Active; 'I' for Inactive)
ROOT
ATOM      1  N1  IND d   1       2.569   1.923   4.212  0.00  0.00    -0.196 N 
ATOM      2  C2  IND d   1       3.009   1.640   2.949  0.00  0.00     0.054 A 
ATOM      3  C3  IND d   1       3.897   2.573   2.540  0.00  0.00    -0.031 A 
ATOM      4  C4  IND d   1       4.851   4.594   3.818  0.00  0.00     0.051 A 
ATOM      5  C5  IND d   1       4.724   5.285   4.990  0.00  0.00    -0.031 A 
ATOM      6  C6  IND d   1       3.857   4.881   5.984  0.00  0.00     0.015 A 
ATOM      7  C7  IND d   1       3.089   3.759   5.847  0.00  0.00    -0.016 A 
ATOM      8  C8  IND d   1       3.210   3.059   4.655  0.00  0.00    -0.047 A 
ATOM      9  C9  IND d   1       4.057   3.488   3.625  0.00  0.00    -0.096 A 
ATOM     10  HN1 IND d   1       1.989   1.468   4.655  0.00  0.00     0.298 HD
ENDROOT
TORSDOF 0
ENDMDL
