MODEL 1
REMARK minimizedAffinity 14.7027025
REMARK minimizedRMSD -1
REMARK  0 active torsions:
REMARK  status: ('A' for Active; 'I' for Inactive)
ROOT
ATOM      1  N1  IND d   1       2.076   1.465   2.266  0.00  0.00    -0.196 N 
ATOM      2  C2  IND d   1       3.088   1.768   1.399  0.00  0.00     0.054 A 
ATOM      3  C3  IND d   1       2.601   2.405   0.311  0.00  0.00    -0.031 A 
ATOM      4  C4  IND d   1       0.190   3.143  -0.208  0.00  0.00     0.051 A 
ATOM      5  C5  IND d   1      -1.089   3.058   0.267  0.00  0.00    -0.031 A 
ATOM      6  C6  IND d   1      -1.384   2.426   1.458  0.00  0.00     0.015 A 
ATOM      7  C7  IND d   1      -0.405   1.864   2.227  0.00  0.00    -0.016 A 
ATOM      8  C8  IND d   1       0.894   1.943   1.745  0.00  0.00    -0.047 A 
ATOM      9  C9  IND d   1       1.194   2.545   0.516  0.00  0.00    -0.096 A 
ATOM     10  HN1 IND d   1       2.163   1.045   3.012  0.00  0.00     0.298 HD
ENDROOT
TORSDOF 0
ENDMDL
