MODEL 1
REMARK minimizedAffinity 18.5410118
REMARK minimizedRMSD -1
REMARK  0 active torsions:
REMARK  status: ('A' for Active; 'I' for Inactive)
ROOT
ATOM      1  N1  IND d   1       4.467   1.135   2.955  0.00  0.00    -0.196 N 
ATOM      2  C2  IND d   1       3.143   1.289   2.648  0.00  0.00     0.054 A 
ATOM      3  C3  IND d   1       2.588   2.244   3.428  0.00  0.00    -0.031 A 
ATOM      4  C4  IND d   1       3.688   3.751   5.201  0.00  0.00     0.051 A 
ATOM      5  C5  IND d   1       4.869   3.957   5.858  0.00  0.00    -0.031 A 
ATOM      6  C6  IND d   1       6.000   3.219   5.573  0.00  0.00     0.015 A 
ATOM      7  C7  IND d   1       5.995   2.251   4.608  0.00  0.00    -0.016 A 
ATOM      8  C8  IND d   1       4.795   2.035   3.944  0.00  0.00    -0.047 A 
ATOM      9  C9  IND d   1       3.634   2.752   4.259  0.00  0.00    -0.096 A 
ATOM     10  HN1 IND d   1       5.003   0.570   2.591  0.00  0.00     0.298 HD
ENDROOT
TORSDOF 0
ENDMDL
