MODEL 1
REMARK minimizedAffinity 1.62523699
REMARK minimizedRMSD -1
REMARK  0 active torsions:
REMARK  status: ('A' for Active; 'I' for Inactive)
ROOT
ATOM      1  N1  IND d   1      -2.378   4.206  -5.627  0.00  0.00    -0.196 N 
ATOM      2  C2  IND d   1      -1.546   3.373  -4.933  0.00  0.00     0.054 A 
ATOM      3  C3  IND d   1      -2.257   2.389  -4.336  0.00  0.00    -0.031 A 
ATOM      4  C4  IND d   1      -4.781   1.896  -4.449  0.00  0.00     0.051 A 
ATOM      5  C5  IND d   1      -5.956   2.400  -4.930  0.00  0.00    -0.031 A 
ATOM      6  C6  IND d   1      -6.000   3.553  -5.686  0.00  0.00     0.015 A 
ATOM      7  C7  IND d   1      -4.863   4.243  -6.000  0.00  0.00    -0.016 A 
ATOM      8  C8  IND d   1      -3.668   3.738  -5.507  0.00  0.00    -0.047 A 
ATOM      9  C9  IND d   1      -3.622   2.591  -4.703  0.00  0.00    -0.096 A 
ATOM     10  HN1 IND d   1      -2.136   4.905  -6.066  0.00  0.00     0.298 HD
ENDROOT
TORSDOF 0
ENDMDL
