MODEL 1
REMARK minimizedAffinity 4.11100912
REMARK minimizedRMSD -1
REMARK  0 active torsions:
REMARK  status: ('A' for Active; 'I' for Inactive)
ROOT
ATOM      1  N1  IND d   1       5.073  -5.434  -6.000  0.00  0.00    -0.196 N 
ATOM      2  C2  IND d   1       5.900  -4.844  -5.084  0.00  0.00     0.054 A 
ATOM      3  C3  IND d   1       5.207  -4.508  -3.973  0.00  0.00    -0.031 A 
ATOM      4  C4  IND d   1       2.731  -4.924  -3.401  0.00  0.00     0.051 A 
ATOM      5  C5  IND d   1       1.567  -5.397  -3.937  0.00  0.00    -0.031 A 
ATOM      6  C6  IND d   1       1.511  -5.920  -5.213  0.00  0.00     0.015 A 
ATOM      7  C7  IND d   1       2.625  -6.000  -6.000  0.00  0.00    -0.016 A 
ATOM      8  C8  IND d   1       3.808  -5.514  -5.461  0.00  0.00    -0.047 A 
ATOM      9  C9  IND d   1       3.862  -4.943  -4.183  0.00  0.00    -0.096 A 
ATOM     10  HN1 IND d   1       5.305  -5.709  -6.781  0.00  0.00     0.298 HD
ENDROOT
TORSDOF 0
ENDMDL
