MODEL 1
REMARK minimizedAffinity 5.96731567
REMARK minimizedRMSD -1
REMARK  0 active torsions:
REMARK  status: ('A' for Active; 'I' for Inactive)
ROOT
ATOM      1  N1  IND d   1       2.477  -4.228  -3.937  0.00  0.00    -0.196 N 
ATOM      2  C2  IND d   1       1.633  -5.194  -4.410  0.00  0.00     0.054 A 
ATOM      3  C3  IND d   1       2.281  -5.999  -5.281  0.00  0.00    -0.031 A 
ATOM      4  C4  IND d   1       4.753  -5.977  -5.999  0.00  0.00     0.051 A 
ATOM      5  C5  IND d   1       5.908  -5.259  -5.864  0.00  0.00    -0.031 A 
ATOM      6  C6  IND d   1       5.981  -4.140  -5.060  0.00  0.00     0.015 A 
ATOM      7  C7  IND d   1       4.899  -3.701  -4.350  0.00  0.00    -0.016 A 
ATOM      8  C8  IND d   1       3.722  -4.424  -4.492  0.00  0.00    -0.047 A 
ATOM      9  C9  IND d   1       3.632  -5.536  -5.339  0.00  0.00    -0.096 A 
ATOM     10  HN1 IND d   1       2.265  -3.603  -3.385  0.00  0.00     0.298 HD
ENDROOT
TORSDOF 0
ENDMDL
