MODEL 1
REMARK minimizedAffinity 20.2759266
REMARK minimizedRMSD -1
REMARK  0 active torsions:
REMARK  status: ('A' for Active; 'I' for Inactive)
ROOT
ATOM      1  N1  IND d   1      -2.275  -3.924   1.020  0.00  0.00    -0.196 N 
ATOM      2  C2  IND d   1      -1.532  -2.794   1.220  0.00  0.00     0.054 A 
ATOM      3  C3  IND d   1      -1.285  -2.620   2.538  0.00  0.00    -0.031 A 
ATOM      4  C4  IND d   1      -1.916  -4.120   4.532  0.00  0.00     0.051 A 
ATOM      5  C5  IND d   1      -2.627  -5.243   4.853  0.00  0.00    -0.031 A 
ATOM      6  C6  IND d   1      -3.268  -6.000   3.893  0.00  0.00     0.015 A 
ATOM      7  C7  IND d   1      -3.211  -5.667   2.569  0.00  0.00    -0.016 A 
ATOM      8  C8  IND d   1      -2.496  -4.524   2.240  0.00  0.00    -0.047 A 
ATOM      9  C9  IND d   1      -1.880  -3.729   3.215  0.00  0.00    -0.096 A 
ATOM     10  HN1 IND d   1      -2.556  -4.212   0.261  0.00  0.00     0.298 HD
ENDROOT
TORSDOF 0
ENDMDL
