MODEL 1
REMARK minimizedAffinity -0.650054336
REMARK minimizedRMSD -1
REMARK  0 active torsions:
REMARK  status: ('A' for Active; 'I' for Inactive)
ROOT
ATOM      1  N1  IND d   1       2.330  -4.851  -3.804  0.00  0.00    -0.196 N 
ATOM      2  C2  IND d   1       1.538  -5.469  -4.731  0.00  0.00     0.054 A 
ATOM      3  C3  IND d   1       2.293  -5.975  -5.732  0.00  0.00    -0.031 A 
ATOM      4  C4  IND d   1       4.853  -5.996  -6.000  0.00  0.00     0.051 A 
ATOM      5  C5  IND d   1       6.000  -5.524  -5.426  0.00  0.00    -0.031 A 
ATOM      6  C6  IND d   1       5.982  -4.791  -4.257  0.00  0.00     0.015 A 
ATOM      7  C7  IND d   1       4.812  -4.511  -3.609  0.00  0.00    -0.016 A 
ATOM      8  C8  IND d   1       3.645  -4.983  -4.193  0.00  0.00    -0.047 A 
ATOM      9  C9  IND d   1       3.653  -5.691  -5.401  0.00  0.00    -0.096 A 
ATOM     10  HN1 IND d   1       2.053  -4.448  -3.096  0.00  0.00     0.298 HD
ENDROOT
TORSDOF 0
ENDMDL
