MODEL 1
REMARK minimizedAffinity 14.2399063
REMARK minimizedRMSD -1
REMARK  0 active torsions:
REMARK  status: ('A' for Active; 'I' for Inactive)
ROOT
ATOM      1  N1  IND d   1       2.639   1.916   2.170  0.00  0.00    -0.196 N 
ATOM      2  C2  IND d   1       1.618   1.543   1.341  0.00  0.00     0.054 A 
ATOM      3  C3  IND d   1       1.991   1.674   0.048  0.00  0.00    -0.031 A 
ATOM      4  C4  IND d   1       4.261   2.387  -0.935  0.00  0.00     0.051 A 
ATOM      5  C5  IND d   1       5.492   2.859  -0.573  0.00  0.00    -0.031 A 
ATOM      6  C6  IND d   1       5.842   3.042   0.749  0.00  0.00     0.015 A 
ATOM      7  C7  IND d   1       4.975   2.747   1.763  0.00  0.00    -0.016 A 
ATOM      8  C8  IND d   1       3.722   2.275   1.399  0.00  0.00    -0.047 A 
ATOM      9  C9  IND d   1       3.346   2.127   0.057  0.00  0.00    -0.096 A 
ATOM     10  HN1 IND d   1       2.609   1.926   3.030  0.00  0.00     0.298 HD
ENDROOT
TORSDOF 0
ENDMDL
