MODEL 1
REMARK minimizedAffinity 21.2623653
REMARK minimizedRMSD -1
REMARK  0 active torsions:
REMARK  status: ('A' for Active; 'I' for Inactive)
ROOT
ATOM      1  N1  IND d   1       3.854   3.411  -5.201  0.00  0.00    -0.196 N 
ATOM      2  C2  IND d   1       3.045   2.391  -5.619  0.00  0.00     0.054 A 
ATOM      3  C3  IND d   1       3.037   1.393  -4.707  0.00  0.00    -0.031 A 
ATOM      4  C4  IND d   1       4.197   1.265  -2.412  0.00  0.00     0.051 A 
ATOM      5  C5  IND d   1       5.073   1.940  -1.608  0.00  0.00    -0.031 A 
ATOM      6  C6  IND d   1       5.596   3.165  -1.968  0.00  0.00     0.015 A 
ATOM      7  C7  IND d   1       5.252   3.770  -3.144  0.00  0.00    -0.016 A 
ATOM      8  C8  IND d   1       4.368   3.084  -3.965  0.00  0.00    -0.047 A 
ATOM      9  C9  IND d   1       3.867   1.821  -3.625  0.00  0.00    -0.096 A 
ATOM     10  HN1 IND d   1       4.015   4.134  -5.636  0.00  0.00     0.298 HD
ENDROOT
TORSDOF 0
ENDMDL
