MODEL 1
REMARK minimizedAffinity 20.8009167
REMARK minimizedRMSD -1
REMARK  0 active torsions:
REMARK  status: ('A' for Active; 'I' for Inactive)
ROOT
ATOM      1  N1  IND d   1      -1.663  -1.990   0.153  0.00  0.00    -0.196 N 
ATOM      2  C2  IND d   1      -1.926  -1.916   1.492  0.00  0.00     0.054 A 
ATOM      3  C3  IND d   1      -2.211  -3.143   1.984  0.00  0.00    -0.031 A 
ATOM      4  C4  IND d   1      -2.203  -5.425   0.792  0.00  0.00     0.051 A 
ATOM      5  C5  IND d   1      -2.058  -5.995  -0.441  0.00  0.00    -0.031 A 
ATOM      6  C6  IND d   1      -1.766  -5.245  -1.562  0.00  0.00     0.015 A 
ATOM      7  C7  IND d   1      -1.595  -3.892  -1.488  0.00  0.00    -0.016 A 
ATOM      8  C8  IND d   1      -1.748  -3.308  -0.239  0.00  0.00    -0.047 A 
ATOM      9  C9  IND d   1      -2.087  -4.059   0.894  0.00  0.00    -0.096 A 
ATOM     10  HN1 IND d   1      -1.475  -1.325  -0.359  0.00  0.00     0.298 HD
ENDROOT
TORSDOF 0
ENDMDL
