MODEL 1
REMARK minimizedAffinity 5.92679453
REMARK minimizedRMSD -1
REMARK  0 active torsions:
REMARK  status: ('A' for Active; 'I' for Inactive)
ROOT
ATOM      1  N1  IND d   1       2.835   1.516  -4.613  0.00  0.00    -0.196 N 
ATOM      2  C2  IND d   1       3.053   0.979  -3.375  0.00  0.00     0.054 A 
ATOM      3  C3  IND d   1       4.180   1.492  -2.832  0.00  0.00    -0.031 A 
ATOM      4  C4  IND d   1       5.765   3.298  -3.755  0.00  0.00     0.051 A 
ATOM      5  C5  IND d   1       6.000   4.060  -4.865  0.00  0.00    -0.031 A 
ATOM      6  C6  IND d   1       5.173   4.014  -5.969  0.00  0.00     0.015 A 
ATOM      7  C7  IND d   1       4.070   3.209  -6.000  0.00  0.00    -0.016 A 
ATOM      8  C8  IND d   1       3.832   2.429  -4.877  0.00  0.00    -0.047 A 
ATOM      9  C9  IND d   1       4.692   2.439  -3.771  0.00  0.00    -0.096 A 
ATOM     10  HN1 IND d   1       2.184   1.316  -5.139  0.00  0.00     0.298 HD
ENDROOT
TORSDOF 0
ENDMDL
