MODEL 1
REMARK minimizedAffinity 17.8426571
REMARK minimizedRMSD -1
REMARK  0 active torsions:
REMARK  status: ('A' for Active; 'I' for Inactive)
ROOT
ATOM      1  N1  IND d   1       2.062   1.564   2.268  0.00  0.00    -0.196 N 
ATOM      2  C2  IND d   1       3.044   1.828   1.354  0.00  0.00     0.054 A 
ATOM      3  C3  IND d   1       2.514   2.394   0.246  0.00  0.00    -0.031 A 
ATOM      4  C4  IND d   1       0.078   3.072  -0.239  0.00  0.00     0.051 A 
ATOM      5  C5  IND d   1      -1.184   2.998   0.279  0.00  0.00    -0.031 A 
ATOM      6  C6  IND d   1      -1.433   2.434   1.514  0.00  0.00     0.015 A 
ATOM      7  C7  IND d   1      -0.424   1.931   2.284  0.00  0.00    -0.016 A 
ATOM      8  C8  IND d   1       0.859   1.997   1.757  0.00  0.00    -0.047 A 
ATOM      9  C9  IND d   1       1.112   2.529   0.487  0.00  0.00    -0.096 A 
ATOM     10  HN1 IND d   1       2.178   1.190   3.034  0.00  0.00     0.298 HD
ENDROOT
TORSDOF 0
ENDMDL
