MODEL 1
REMARK minimizedAffinity 0.121748716
REMARK minimizedRMSD -1
REMARK  3 active torsions:
REMARK  status: ('A' for Active; 'I' for Inactive)
REMARK    1  A    between atoms: C3'_2  and  C2'_3 
REMARK    2  A    between atoms: C2'_3  and  C1'_4 
REMARK    3  A    between atoms: C1'_4  and  C1_5 
ROOT
ATOM      1  C1  N4B d   1      -4.328   1.607   3.849  0.00  0.00    -0.075 A 
ATOM      2  C2  N4B d   1      -4.923   0.408   3.397  0.00  0.00     0.002 A 
ATOM      3  C3  N4B d   1      -5.671  -0.355   4.260  0.00  0.00     0.002 A 
ATOM      4  C4  N4B d   1      -5.822   0.049   5.578  0.00  0.00    -0.004 A 
ATOM      5  C5  N4B d   1      -5.265   1.221   6.000  0.00  0.00     0.002 A 
ATOM      6  C6  N4B d   1      -4.514   2.000   5.143  0.00  0.00     0.002 A 
ENDROOT
BRANCH   1   7
ATOM      7  C1' N4B d   1      -3.431   2.431   2.966  0.00  0.00     0.057 C 
BRANCH   7   8
ATOM      8  C2' N4B d   1      -2.175   1.628   2.641  0.00  0.00     0.009 C 
BRANCH   8   9
ATOM      9  C3' N4B d   1      -1.002   2.527   2.289  0.00  0.00     0.004 C 
ATOM     10  C4' N4B d   1       0.241   1.756   1.956  0.00  0.00     0.003 C 
ENDBRANCH   8   9
ENDBRANCH   7   8
ENDBRANCH   1   7
TORSDOF 3
ENDMDL
