MODEL 1
REMARK minimizedAffinity 4.86222982
REMARK minimizedRMSD -1
REMARK  3 active torsions:
REMARK  status: ('A' for Active; 'I' for Inactive)
REMARK    1  A    between atoms: C3'_2  and  C2'_3 
REMARK    2  A    between atoms: C2'_3  and  C1'_4 
REMARK    3  A    between atoms: C1'_4  and  C1_5 
ROOT
ATOM      1  C1  N4B d   1       1.800   0.378  -0.435  0.00  0.00    -0.075 A 
ATOM      2  C2  N4B d   1       3.084   0.189  -0.992  0.00  0.00     0.002 A 
ATOM      3  C3  N4B d   1       4.162   0.869  -0.480  0.00  0.00     0.002 A 
ATOM      4  C4  N4B d   1       3.978   1.754   0.572  0.00  0.00    -0.004 A 
ATOM      5  C5  N4B d   1       2.739   1.912   1.121  0.00  0.00     0.002 A 
ATOM      6  C6  N4B d   1       1.647   1.232   0.619  0.00  0.00     0.002 A 
ENDROOT
BRANCH   1   7
ATOM      7  C1' N4B d   1       0.578  -0.278  -1.017  0.00  0.00     0.057 C 
BRANCH   7   8
ATOM      8  C2' N4B d   1       0.290   0.326  -2.388  0.00  0.00     0.009 C 
BRANCH   8   9
ATOM      9  C3' N4B d   1      -0.374   1.688  -2.282  0.00  0.00     0.004 C 
ATOM     10  C4' N4B d   1       0.511   2.804  -2.749  0.00  0.00     0.003 C 
ENDBRANCH   8   9
ENDBRANCH   7   8
ENDBRANCH   1   7
TORSDOF 3
ENDMDL
