MODEL 1
REMARK minimizedAffinity 5.11616707
REMARK minimizedRMSD -1
REMARK  3 active torsions:
REMARK  status: ('A' for Active; 'I' for Inactive)
REMARK    1  A    between atoms: C3'_2  and  C2'_3 
REMARK    2  A    between atoms: C2'_3  and  C1'_4 
REMARK    3  A    between atoms: C1'_4  and  C1_5 
ROOT
ATOM      1  C1  N4B d   1       2.122   1.208  -0.303  0.00  0.00    -0.075 A 
ATOM      2  C2  N4B d   1       1.816   1.137   1.074  0.00  0.00     0.002 A 
ATOM      3  C3  N4B d   1       1.429   2.268   1.750  0.00  0.00     0.002 A 
ATOM      4  C4  N4B d   1       1.360   3.479   1.077  0.00  0.00    -0.004 A 
ATOM      5  C5  N4B d   1       1.632   3.534  -0.258  0.00  0.00     0.002 A 
ATOM      6  C6  N4B d   1       2.018   2.405  -0.951  0.00  0.00     0.002 A 
ENDROOT
BRANCH   1   7
ATOM      7  C1' N4B d   1       2.632   0.016  -1.066  0.00  0.00     0.057 C 
BRANCH   7   8
ATOM      8  C2' N4B d   1       1.490  -0.977  -1.265  0.00  0.00     0.009 C 
BRANCH   8   9
ATOM      9  C3' N4B d   1       1.178  -1.197  -2.735  0.00  0.00     0.004 C 
ATOM     10  C4' N4B d   1       0.404  -0.063  -3.340  0.00  0.00     0.003 C 
ENDBRANCH   8   9
ENDBRANCH   7   8
ENDBRANCH   1   7
TORSDOF 3
ENDMDL
