MODEL 1
REMARK minimizedAffinity 3.3697679
REMARK minimizedRMSD -1
REMARK  3 active torsions:
REMARK  status: ('A' for Active; 'I' for Inactive)
REMARK    1  A    between atoms: C3'_2  and  C2'_3 
REMARK    2  A    between atoms: C2'_3  and  C1'_4 
REMARK    3  A    between atoms: C1'_4  and  C1_5 
ROOT
ATOM      1  C1  N4B d   1       1.353   0.539   0.935  0.00  0.00    -0.075 A 
ATOM      2  C2  N4B d   1       2.084   1.527   1.630  0.00  0.00     0.002 A 
ATOM      3  C3  N4B d   1       1.435   2.400   2.469  0.00  0.00     0.002 A 
ATOM      4  C4  N4B d   1       0.058   2.315   2.614  0.00  0.00    -0.004 A 
ATOM      5  C5  N4B d   1      -0.638   1.342   1.959  0.00  0.00     0.002 A 
ATOM      6  C6  N4B d   1       0.002   0.456   1.115  0.00  0.00     0.002 A 
ENDROOT
BRANCH   1   7
ATOM      7  C1' N4B d   1       2.007  -0.381  -0.059  0.00  0.00     0.057 C 
BRANCH   7   8
ATOM      8  C2' N4B d   1       2.007   0.284  -1.432  0.00  0.00     0.009 C 
BRANCH   8   9
ATOM      9  C3' N4B d   1       1.610  -0.685  -2.532  0.00  0.00     0.004 C 
ATOM     10  C4' N4B d   1       0.767  -0.044  -3.594  0.00  0.00     0.003 C 
ENDBRANCH   8   9
ENDBRANCH   7   8
ENDBRANCH   1   7
TORSDOF 3
ENDMDL
