MODEL 1
REMARK minimizedAffinity 2.52354765
REMARK minimizedRMSD -1
REMARK  3 active torsions:
REMARK  status: ('A' for Active; 'I' for Inactive)
REMARK    1  A    between atoms: C3'_2  and  C2'_3 
REMARK    2  A    between atoms: C2'_3  and  C1'_4 
REMARK    3  A    between atoms: C1'_4  and  C1_5 
ROOT
ATOM      1  C1  N4B d   1       0.367  -0.274   0.011  0.00  0.00    -0.075 A 
ATOM      2  C2  N4B d   1      -0.188  -1.163   0.957  0.00  0.00     0.002 A 
ATOM      3  C3  N4B d   1      -0.105  -0.879   2.298  0.00  0.00     0.002 A 
ATOM      4  C4  N4B d   1       0.542   0.274   2.716  0.00  0.00    -0.004 A 
ATOM      5  C5  N4B d   1       1.053   1.141   1.795  0.00  0.00     0.002 A 
ATOM      6  C6  N4B d   1       0.974   0.870   0.444  0.00  0.00     0.002 A 
ENDROOT
BRANCH   1   7
ATOM      7  C1' N4B d   1       0.376  -0.584  -1.461  0.00  0.00     0.057 C 
BRANCH   7   8
ATOM      8  C2' N4B d   1       1.046   0.564  -2.210  0.00  0.00     0.009 C 
BRANCH   8   9
ATOM      9  C3' N4B d   1       0.119   1.188  -3.240  0.00  0.00     0.004 C 
ATOM     10  C4' N4B d   1      -0.624   2.377  -2.708  0.00  0.00     0.003 C 
ENDBRANCH   8   9
ENDBRANCH   7   8
ENDBRANCH   1   7
TORSDOF 3
ENDMDL
