MODEL 1
REMARK minimizedAffinity 9.23766327
REMARK minimizedRMSD -1
REMARK  2 active torsions:
REMARK  status: ('A' for Active; 'I' for Inactive)
REMARK    1  A    between atoms: C1_2  and  C2_3 
REMARK    2  A    between atoms: C2_3  and  C3_4 
ROOT
ATOM      1  C3  UNL d   1       4.629  -1.812   0.346  0.00  0.00    -0.075 A 
ATOM      2  C4  UNL d   1       3.455  -2.567   0.483  0.00  0.00     0.002 A 
ATOM      3  C5  UNL d   1       2.207  -1.983   0.264  0.00  0.00     0.002 A 
ATOM      4  C6  UNL d   1       2.116  -0.637  -0.083  0.00  0.00    -0.004 A 
ATOM      5  C7  UNL d   1       3.275   0.127  -0.206  0.00  0.00     0.002 A 
ATOM      6  C8  UNL d   1       4.525  -0.456   0.008  0.00  0.00     0.002 A 
ENDROOT
BRANCH   1   7
ATOM      7  C2  UNL d   1       5.984  -2.445   0.552  0.00  0.00     0.056 C 
BRANCH   7   8
ATOM      8  C1  UNL d   1       5.955  -3.715   1.410  0.00  0.00     0.007 C 
ATOM      9  C   UNL d   1       5.986  -4.996   0.588  0.00  0.00     0.009 C 
ENDBRANCH   7   8
ENDBRANCH   1   7
TORSDOF 2
ENDMDL
