MODEL 1
REMARK minimizedAffinity 2.55598807
REMARK minimizedRMSD -1
REMARK  2 active torsions:
REMARK  status: ('A' for Active; 'I' for Inactive)
REMARK    1  A    between atoms: C1_2  and  C2_3 
REMARK    2  A    between atoms: C2_3  and  C3_4 
ROOT
ATOM      1  C3  UNL d   1      -4.175  -0.564  -3.854  0.00  0.00    -0.075 A 
ATOM      2  C4  UNL d   1      -3.181  -0.064  -4.707  0.00  0.00     0.002 A 
ATOM      3  C5  UNL d   1      -3.516   0.777  -5.769  0.00  0.00     0.002 A 
ATOM      4  C6  UNL d   1      -4.847   1.120  -5.997  0.00  0.00    -0.004 A 
ATOM      5  C7  UNL d   1      -5.844   0.615  -5.166  0.00  0.00     0.002 A 
ATOM      6  C8  UNL d   1      -5.512  -0.223  -4.100  0.00  0.00     0.002 A 
ENDROOT
BRANCH   1   7
ATOM      7  C2  UNL d   1      -3.816  -1.451  -2.686  0.00  0.00     0.056 C 
BRANCH   7   8
ATOM      8  C1  UNL d   1      -3.164  -0.708  -1.516  0.00  0.00     0.007 C 
ATOM      9  C   UNL d   1      -3.573   0.757  -1.433  0.00  0.00     0.009 C 
ENDBRANCH   7   8
ENDBRANCH   1   7
TORSDOF 2
ENDMDL
