MODEL 1
REMARK minimizedAffinity 3.80425143
REMARK minimizedRMSD -1
REMARK  2 active torsions:
REMARK  status: ('A' for Active; 'I' for Inactive)
REMARK    1  A    between atoms: C1_2  and  C2_3 
REMARK    2  A    between atoms: C2_3  and  C3_4 
ROOT
ATOM      1  C3  UNL d   1       3.736  -3.087   1.103  0.00  0.00    -0.075 A 
ATOM      2  C4  UNL d   1       4.113  -1.946   0.379  0.00  0.00     0.002 A 
ATOM      3  C5  UNL d   1       3.160  -0.997   0.006  0.00  0.00     0.002 A 
ATOM      4  C6  UNL d   1       1.820  -1.182   0.341  0.00  0.00    -0.004 A 
ATOM      5  C7  UNL d   1       1.433  -2.320   1.045  0.00  0.00     0.002 A 
ATOM      6  C8  UNL d   1       2.384  -3.268   1.424  0.00  0.00     0.002 A 
ENDROOT
BRANCH   1   7
ATOM      7  C2  UNL d   1       4.767  -4.102   1.535  0.00  0.00     0.056 C 
BRANCH   7   8
ATOM      8  C1  UNL d   1       5.769  -4.480   0.439  0.00  0.00     0.007 C 
ATOM      9  C   UNL d   1       5.873  -5.982   0.213  0.00  0.00     0.009 C 
ENDBRANCH   7   8
ENDBRANCH   1   7
TORSDOF 2
ENDMDL
