MODEL 1
REMARK minimizedAffinity 0.994971514
REMARK minimizedRMSD -1
REMARK  2 active torsions:
REMARK  status: ('A' for Active; 'I' for Inactive)
REMARK    1  A    between atoms: C1_2  and  C2_3 
REMARK    2  A    between atoms: C2_3  and  C3_4 
ROOT
ATOM      1  C3  UNL d   1      -4.223  -0.364  -4.731  0.00  0.00    -0.075 A 
ATOM      2  C4  UNL d   1      -5.225  -1.123  -4.109  0.00  0.00     0.002 A 
ATOM      3  C5  UNL d   1      -4.940  -1.873  -2.968  0.00  0.00     0.002 A 
ATOM      4  C6  UNL d   1      -3.651  -1.883  -2.441  0.00  0.00    -0.004 A 
ATOM      5  C7  UNL d   1      -2.643  -1.146  -3.060  0.00  0.00     0.002 A 
ATOM      6  C8  UNL d   1      -2.926  -0.391  -4.200  0.00  0.00     0.002 A 
ENDROOT
BRANCH   1   7
ATOM      7  C2  UNL d   1      -4.531   0.473  -5.949  0.00  0.00     0.056 C 
BRANCH   7   8
ATOM      8  C1  UNL d   1      -3.799   1.819  -5.983  0.00  0.00     0.007 C 
ATOM      9  C   UNL d   1      -3.647   2.455  -4.608  0.00  0.00     0.009 C 
ENDBRANCH   7   8
ENDBRANCH   1   7
TORSDOF 2
ENDMDL
