MODEL 1
REMARK minimizedAffinity -3.31528616
REMARK minimizedRMSD -1
REMARK  2 active torsions:
REMARK  status: ('A' for Active; 'I' for Inactive)
REMARK    1  A    between atoms: C1_2  and  C2_3 
REMARK    2  A    between atoms: C2_3  and  C3_4 
ROOT
ATOM      1  C3  UNL d   1      -3.714  -0.860  -3.556  0.00  0.00    -0.075 A 
ATOM      2  C4  UNL d   1      -2.697  -0.429  -4.420  0.00  0.00     0.002 A 
ATOM      3  C5  UNL d   1      -3.011   0.187  -5.632  0.00  0.00     0.002 A 
ATOM      4  C6  UNL d   1      -4.342   0.369  -6.000  0.00  0.00    -0.004 A 
ATOM      5  C7  UNL d   1      -5.360  -0.071  -5.157  0.00  0.00     0.002 A 
ATOM      6  C8  UNL d   1      -5.049  -0.683  -3.942  0.00  0.00     0.002 A 
ENDROOT
BRANCH   1   7
ATOM      7  C2  UNL d   1      -3.381  -1.501  -2.230  0.00  0.00     0.056 C 
BRANCH   7   8
ATOM      8  C1  UNL d   1      -2.748  -0.542  -1.216  0.00  0.00     0.007 C 
ATOM      9  C   UNL d   1      -3.089   0.919  -1.477  0.00  0.00     0.009 C 
ENDBRANCH   7   8
ENDBRANCH   1   7
TORSDOF 2
ENDMDL
