MODEL 1
REMARK minimizedAffinity 4.56696987
REMARK minimizedRMSD -1
REMARK  2 active torsions:
REMARK  status: ('A' for Active; 'I' for Inactive)
REMARK    1  A    between atoms: C1_2  and  C2_3 
REMARK    2  A    between atoms: C2_3  and  C3_4 
ROOT
ATOM      1  C3  UNL d   1      -3.609  -0.482  -4.000  0.00  0.00    -0.075 A 
ATOM      2  C4  UNL d   1      -3.344   0.601  -4.851  0.00  0.00     0.002 A 
ATOM      3  C5  UNL d   1      -4.390   1.316  -5.435  0.00  0.00     0.002 A 
ATOM      4  C6  UNL d   1      -5.712   0.952  -5.184  0.00  0.00    -0.004 A 
ATOM      5  C7  UNL d   1      -5.986  -0.133  -4.353  0.00  0.00     0.002 A 
ATOM      6  C8  UNL d   1      -4.941  -0.847  -3.765  0.00  0.00     0.002 A 
ENDROOT
BRANCH   1   7
ATOM      7  C2  UNL d   1      -2.481  -1.241  -3.342  0.00  0.00     0.056 C 
BRANCH   7   8
ATOM      8  C1  UNL d   1      -1.368  -1.665  -4.307  0.00  0.00     0.007 C 
ATOM      9  C   UNL d   1      -1.893  -2.302  -5.586  0.00  0.00     0.009 C 
ENDBRANCH   7   8
ENDBRANCH   1   7
TORSDOF 2
ENDMDL
