MODEL 1
REMARK minimizedAffinity -2.16347671
REMARK minimizedRMSD -1
REMARK  0 active torsions:
REMARK  status: ('A' for Active; 'I' for Inactive)
ROOT
ATOM      1  C1  BNZ d   1       1.965  -0.959   0.306  0.00  0.00     0.000 A 
ATOM      2  C2  BNZ d   1       3.038  -1.770   0.045  0.00  0.00     0.000 A 
ATOM      3  C3  BNZ d   1       2.880  -3.121  -0.084  0.00  0.00     0.000 A 
ATOM      4  C4  BNZ d   1       1.657  -3.664   0.086  0.00  0.00     0.000 A 
ATOM      5  C5  BNZ d   1       0.567  -2.862   0.358  0.00  0.00     0.000 A 
ATOM      6  C6  BNZ d   1       0.724  -1.498   0.449  0.00  0.00     0.000 A 
ENDROOT
TORSDOF 0
ENDMDL
