MODEL 1
REMARK minimizedAffinity 0.82023114
REMARK minimizedRMSD -1
REMARK  0 active torsions:
REMARK  status: ('A' for Active; 'I' for Inactive)
ROOT
ATOM      1  C1  BNZ d   1       2.918   4.875   0.582  0.00  0.00     0.000 A 
ATOM      2  C2  BNZ d   1       2.785   4.874   1.945  0.00  0.00     0.000 A 
ATOM      3  C3  BNZ d   1       3.732   5.455   2.741  0.00  0.00     0.000 A 
ATOM      4  C4  BNZ d   1       4.829   6.000   2.177  0.00  0.00     0.000 A 
ATOM      5  C5  BNZ d   1       4.982   6.000   0.805  0.00  0.00     0.000 A 
ATOM      6  C6  BNZ d   1       4.008   5.449   0.004  0.00  0.00     0.000 A 
ENDROOT
TORSDOF 0
ENDMDL
