MODEL 1
REMARK minimizedAffinity 0.108118571
REMARK minimizedRMSD -1
REMARK  0 active torsions:
REMARK  status: ('A' for Active; 'I' for Inactive)
ROOT
ATOM      1  C1  BNZ d   1       1.314  -0.454   2.799  0.00  0.00     0.000 A 
ATOM      2  C2  BNZ d   1       0.040  -0.628   2.328  0.00  0.00     0.000 A 
ATOM      3  C3  BNZ d   1      -0.183  -0.972   1.024  0.00  0.00     0.000 A 
ATOM      4  C4  BNZ d   1       0.864  -1.100   0.184  0.00  0.00     0.000 A 
ATOM      5  C5  BNZ d   1       2.154  -0.918   0.642  0.00  0.00     0.000 A 
ATOM      6  C6  BNZ d   1       2.377  -0.611   1.964  0.00  0.00     0.000 A 
ENDROOT
TORSDOF 0
ENDMDL
