MODEL 1
REMARK minimizedAffinity -2.9278214
REMARK minimizedRMSD -1
REMARK  0 active torsions:
REMARK  status: ('A' for Active; 'I' for Inactive)
ROOT
ATOM      1  C1  BNZ d   1       0.176  -0.555   1.104  0.00  0.00     0.000 A 
ATOM      2  C2  BNZ d   1      -0.468  -1.642   0.575  0.00  0.00     0.000 A 
ATOM      3  C3  BNZ d   1       0.212  -2.562  -0.173  0.00  0.00     0.000 A 
ATOM      4  C4  BNZ d   1       1.523  -2.374  -0.426  0.00  0.00     0.000 A 
ATOM      5  C5  BNZ d   1       2.184  -1.278   0.093  0.00  0.00     0.000 A 
ATOM      6  C6  BNZ d   1       1.506  -0.374   0.878  0.00  0.00     0.000 A 
ENDROOT
TORSDOF 0
ENDMDL
