MODEL 1
REMARK minimizedAffinity -1.34234095
REMARK minimizedRMSD -1
REMARK  0 active torsions:
REMARK  status: ('A' for Active; 'I' for Inactive)
ROOT
ATOM      1  C1  BNZ d   1       2.556  -1.073   0.497  0.00  0.00     0.000 A 
ATOM      2  C2  BNZ d   1       1.539  -1.787  -0.078  0.00  0.00     0.000 A 
ATOM      3  C3  BNZ d   1       0.261  -1.695   0.399  0.00  0.00     0.000 A 
ATOM      4  C4  BNZ d   1       0.009  -0.921   1.474  0.00  0.00     0.000 A 
ATOM      5  C5  BNZ d   1       1.026  -0.202   2.071  0.00  0.00     0.000 A 
ATOM      6  C6  BNZ d   1       2.303  -0.267   1.564  0.00  0.00     0.000 A 
ENDROOT
TORSDOF 0
ENDMDL
