MODEL 1
REMARK minimizedAffinity -1.79756284
REMARK minimizedRMSD -1
REMARK  0 active torsions:
REMARK  status: ('A' for Active; 'I' for Inactive)
ROOT
ATOM      1  C1  BNZ d   1       0.463  -2.809   0.015  0.00  0.00     0.000 A 
ATOM      2  C2  BNZ d   1       1.235  -3.907  -0.254  0.00  0.00     0.000 A 
ATOM      3  C3  BNZ d   1       2.592  -3.863  -0.103  0.00  0.00     0.000 A 
ATOM      4  C4  BNZ d   1       3.180  -2.710   0.278  0.00  0.00     0.000 A 
ATOM      5  C5  BNZ d   1       2.416  -1.591   0.544  0.00  0.00     0.000 A 
ATOM      6  C6  BNZ d   1       1.046  -1.651   0.429  0.00  0.00     0.000 A 
ENDROOT
TORSDOF 0
ENDMDL
