MODEL 1
REMARK minimizedAffinity -3.29789233
REMARK minimizedRMSD -1
REMARK  0 active torsions:
REMARK  status: ('A' for Active; 'I' for Inactive)
ROOT
ATOM      1  C1  BNZ d   1       2.988   6.000  -0.027  0.00  0.00     0.000 A 
ATOM      2  C2  BNZ d   1       3.814   5.648  -1.061  0.00  0.00     0.000 A 
ATOM      3  C3  BNZ d   1       5.110   5.281  -0.828  0.00  0.00     0.000 A 
ATOM      4  C4  BNZ d   1       5.589   5.304   0.433  0.00  0.00     0.000 A 
ATOM      5  C5  BNZ d   1       4.771   5.665   1.485  0.00  0.00     0.000 A 
ATOM      6  C6  BNZ d   1       3.456   5.996   1.251  0.00  0.00     0.000 A 
ENDROOT
TORSDOF 0
ENDMDL
