MODEL 1
REMARK minimizedAffinity -1.14648557
REMARK minimizedRMSD -1
REMARK  0 active torsions:
REMARK  status: ('A' for Active; 'I' for Inactive)
ROOT
ATOM      1  C1  BNZ d   1      -0.668  -1.254   0.423  0.00  0.00     0.000 A 
ATOM      2  C2  BNZ d   1      -0.139  -2.409  -0.088  0.00  0.00     0.000 A 
ATOM      3  C3  BNZ d   1       1.178  -2.721   0.106  0.00  0.00     0.000 A 
ATOM      4  C4  BNZ d   1       1.972  -1.859   0.774  0.00  0.00     0.000 A 
ATOM      5  C5  BNZ d   1       1.455  -0.686   1.287  0.00  0.00     0.000 A 
ATOM      6  C6  BNZ d   1       0.120  -0.395   1.123  0.00  0.00     0.000 A 
ENDROOT
TORSDOF 0
ENDMDL
