MODEL 1
REMARK minimizedAffinity -4.29634714
REMARK minimizedRMSD -1
REMARK  0 active torsions:
REMARK  status: ('A' for Active; 'I' for Inactive)
ROOT
ATOM      1  C1  BNZ d   1       1.037  -0.827   0.599  0.00  0.00     0.000 A 
ATOM      2  C2  BNZ d   1       2.081  -1.469  -0.012  0.00  0.00     0.000 A 
ATOM      3  C3  BNZ d   1       2.029  -2.812  -0.259  0.00  0.00     0.000 A 
ATOM      4  C4  BNZ d   1       0.951  -3.519   0.140  0.00  0.00     0.000 A 
ATOM      5  C5  BNZ d   1      -0.106  -2.888   0.765  0.00  0.00     0.000 A 
ATOM      6  C6  BNZ d   1      -0.067  -1.529   0.977  0.00  0.00     0.000 A 
ENDROOT
TORSDOF 0
ENDMDL
