MODEL 1
REMARK minimizedAffinity -4.12296152
REMARK minimizedRMSD -1
REMARK  0 active torsions:
REMARK  status: ('A' for Active; 'I' for Inactive)
ROOT
ATOM      1  C1  BNZ d   1       1.112  -4.080   0.230  0.00  0.00     0.000 A 
ATOM      2  C2  BNZ d   1       0.182  -3.094   0.424  0.00  0.00     0.000 A 
ATOM      3  C3  BNZ d   1       0.556  -1.781   0.487  0.00  0.00     0.000 A 
ATOM      4  C4  BNZ d   1       1.863  -1.460   0.395  0.00  0.00     0.000 A 
ATOM      5  C5  BNZ d   1       2.813  -2.443   0.208  0.00  0.00     0.000 A 
ATOM      6  C6  BNZ d   1       2.429  -3.760   0.106  0.00  0.00     0.000 A 
ENDROOT
TORSDOF 0
ENDMDL
