MODEL 1
REMARK minimizedAffinity -3.64233661
REMARK minimizedRMSD -1
REMARK  0 active torsions:
REMARK  status: ('A' for Active; 'I' for Inactive)
ROOT
ATOM      1  C1  BNZ d   1       5.390   5.999   0.156  0.00  0.00     0.000 A 
ATOM      2  C2  BNZ d   1       5.349   5.990   1.524  0.00  0.00     0.000 A 
ATOM      3  C3  BNZ d   1       4.155   5.932   2.188  0.00  0.00     0.000 A 
ATOM      4  C4  BNZ d   1       3.005   5.922   1.484  0.00  0.00     0.000 A 
ATOM      5  C5  BNZ d   1       3.030   5.940   0.104  0.00  0.00     0.000 A 
ATOM      6  C6  BNZ d   1       4.234   5.960  -0.561  0.00  0.00     0.000 A 
ENDROOT
TORSDOF 0
ENDMDL
