MODEL 1
REMARK minimizedAffinity -2.95640373
REMARK minimizedRMSD -1
REMARK  0 active torsions:
REMARK  status: ('A' for Active; 'I' for Inactive)
ROOT
ATOM      1  C1  BNZ d   1       0.458  -0.318   1.550  0.00  0.00     0.000 A 
ATOM      2  C2  BNZ d   1       1.794  -0.206   1.270  0.00  0.00     0.000 A 
ATOM      3  C3  BNZ d   1       2.426  -1.134   0.489  0.00  0.00     0.000 A 
ATOM      4  C4  BNZ d   1       1.731  -2.191   0.023  0.00  0.00     0.000 A 
ATOM      5  C5  BNZ d   1       0.386  -2.323   0.304  0.00  0.00     0.000 A 
ATOM      6  C6  BNZ d   1      -0.255  -1.368   1.058  0.00  0.00     0.000 A 
ENDROOT
TORSDOF 0
ENDMDL
