MODEL 1
REMARK minimizedAffinity 1.40022254
REMARK minimizedRMSD -1
REMARK  0 active torsions:
REMARK  status: ('A' for Active; 'I' for Inactive)
ROOT
ATOM      1  C1  BNZ d   1       2.936   0.834  -3.454  0.00  0.00     0.000 A 
ATOM      2  C2  BNZ d   1       2.241   1.814  -4.111  0.00  0.00     0.000 A 
ATOM      3  C3  BNZ d   1       2.399   3.129  -3.774  0.00  0.00     0.000 A 
ATOM      4  C4  BNZ d   1       3.220   3.459  -2.756  0.00  0.00     0.000 A 
ATOM      5  C5  BNZ d   1       3.921   2.482  -2.078  0.00  0.00     0.000 A 
ATOM      6  C6  BNZ d   1       3.789   1.162  -2.445  0.00  0.00     0.000 A 
ENDROOT
TORSDOF 0
ENDMDL
