MODEL 1
REMARK minimizedAffinity -4.82050085
REMARK minimizedRMSD -1
REMARK  0 active torsions:
REMARK  status: ('A' for Active; 'I' for Inactive)
ROOT
ATOM      1  C1  BNZ d   1      -0.859  -0.134   1.463  0.00  0.00     0.000 A 
ATOM      2  C2  BNZ d   1       0.307  -0.816   1.237  0.00  0.00     0.000 A 
ATOM      3  C3  BNZ d   1       0.297  -2.029   0.608  0.00  0.00     0.000 A 
ATOM      4  C4  BNZ d   1      -0.880  -2.577   0.242  0.00  0.00     0.000 A 
ATOM      5  C5  BNZ d   1      -2.064  -1.906   0.471  0.00  0.00     0.000 A 
ATOM      6  C6  BNZ d   1      -2.047  -0.667   1.070  0.00  0.00     0.000 A 
ENDROOT
TORSDOF 0
ENDMDL
