MODEL 1
REMARK minimizedAffinity -4.91277695
REMARK minimizedRMSD -1
REMARK  0 active torsions:
REMARK  status: ('A' for Active; 'I' for Inactive)
ROOT
ATOM      1  C1  BNZ d   1       2.066  -2.913  -0.457  0.00  0.00     0.000 A 
ATOM      2  C2  BNZ d   1       0.810  -3.234  -0.016  0.00  0.00     0.000 A 
ATOM      3  C3  BNZ d   1       0.133  -2.402   0.832  0.00  0.00     0.000 A 
ATOM      4  C4  BNZ d   1       0.727  -1.273   1.268  0.00  0.00     0.000 A 
ATOM      5  C5  BNZ d   1       1.997  -0.940   0.839  0.00  0.00     0.000 A 
ATOM      6  C6  BNZ d   1       2.660  -1.760  -0.045  0.00  0.00     0.000 A 
ENDROOT
TORSDOF 0
ENDMDL
