MODEL 1
REMARK minimizedAffinity -1.6254952
REMARK minimizedRMSD -1
REMARK  0 active torsions:
REMARK  status: ('A' for Active; 'I' for Inactive)
ROOT
ATOM      1  C1  BNZ d   1       1.267  -2.633  -0.261  0.00  0.00     0.000 A 
ATOM      2  C2  BNZ d   1      -0.050  -2.726   0.101  0.00  0.00     0.000 A 
ATOM      3  C3  BNZ d   1      -0.658  -1.719   0.796  0.00  0.00     0.000 A 
ATOM      4  C4  BNZ d   1       0.061  -0.639   1.164  0.00  0.00     0.000 A 
ATOM      5  C5  BNZ d   1       1.393  -0.534   0.815  0.00  0.00     0.000 A 
ATOM      6  C6  BNZ d   1       1.991  -1.532   0.081  0.00  0.00     0.000 A 
ENDROOT
TORSDOF 0
ENDMDL
