MODEL 1
REMARK minimizedAffinity 1.86842501
REMARK minimizedRMSD -1
REMARK  0 active torsions:
REMARK  status: ('A' for Active; 'I' for Inactive)
ROOT
ATOM      1  C1  BNZ d   1       1.049  -0.326   0.816  0.00  0.00     0.000 A 
ATOM      2  C2  BNZ d   1      -0.212  -0.479   1.327  0.00  0.00     0.000 A 
ATOM      3  C3  BNZ d   1      -0.747  -1.723   1.511  0.00  0.00     0.000 A 
ATOM      4  C4  BNZ d   1      -0.036  -2.811   1.147  0.00  0.00     0.000 A 
ATOM      5  C5  BNZ d   1       1.233  -2.673   0.622  0.00  0.00     0.000 A 
ATOM      6  C6  BNZ d   1       1.783  -1.420   0.474  0.00  0.00     0.000 A 
ENDROOT
TORSDOF 0
ENDMDL
