MODEL 1
REMARK minimizedAffinity -0.0332687311
REMARK minimizedRMSD -1
REMARK  0 active torsions:
REMARK  status: ('A' for Active; 'I' for Inactive)
ROOT
ATOM      1  C1  BNZ d   1       1.408  -1.901  -0.061  0.00  0.00     0.000 A 
ATOM      2  C2  BNZ d   1       0.085  -1.629   0.167  0.00  0.00     0.000 A 
ATOM      3  C3  BNZ d   1      -0.286  -0.620   1.012  0.00  0.00     0.000 A 
ATOM      4  C4  BNZ d   1       0.664   0.088   1.656  0.00  0.00     0.000 A 
ATOM      5  C5  BNZ d   1       2.002  -0.181   1.444  0.00  0.00     0.000 A 
ATOM      6  C6  BNZ d   1       2.372  -1.171   0.564  0.00  0.00     0.000 A 
ENDROOT
TORSDOF 0
ENDMDL
