MODEL 1
REMARK minimizedAffinity 5.63883162
REMARK minimizedRMSD -1
REMARK  0 active torsions:
REMARK  status: ('A' for Active; 'I' for Inactive)
ROOT
ATOM      1  C   UNL d   1       4.674   0.064   1.986  0.00  0.00    -0.002 A 
ATOM      2  C1  UNL d   1       4.460   1.038   1.021  0.00  0.00     0.010 A 
ATOM      3  C2  UNL d   1       3.170   1.495   0.747  0.00  0.00     0.041 A 
ATOM      4  C3  UNL d   1       2.087   0.953   1.468  0.00  0.00    -0.075 A 
ATOM      5  S   UNL d   1       0.420   1.362   1.304  0.00  0.00     0.015 SA
ATOM      6  C4  UNL d   1      -0.047   0.254   2.512  0.00  0.00     0.022 A 
ATOM      7  C5  UNL d   1       1.030  -0.420   3.038  0.00  0.00     0.026 A 
ATOM      8  C6  UNL d   1       2.278  -0.027   2.446  0.00  0.00    -0.082 A 
ATOM      9  C7  UNL d   1       3.598  -0.471   2.699  0.00  0.00     0.045 A 
ENDROOT
TORSDOF 0
ENDMDL
