MODEL 1
REMARK minimizedAffinity 7.9361949
REMARK minimizedRMSD -1
REMARK  0 active torsions:
REMARK  status: ('A' for Active; 'I' for Inactive)
ROOT
ATOM      1  C   UNL d   1      -1.555   1.545   1.858  0.00  0.00    -0.002 A 
ATOM      2  C1  UNL d   1      -0.654   0.543   2.192  0.00  0.00     0.010 A 
ATOM      3  C2  UNL d   1      -0.884  -0.279   3.297  0.00  0.00     0.041 A 
ATOM      4  C3  UNL d   1      -2.047  -0.077   4.066  0.00  0.00    -0.075 A 
ATOM      5  S   UNL d   1      -2.537  -0.963   5.462  0.00  0.00     0.015 SA
ATOM      6  C4  UNL d   1      -3.953  -0.034   5.647  0.00  0.00     0.022 A 
ATOM      7  C5  UNL d   1      -4.066   0.933   4.676  0.00  0.00     0.026 A 
ATOM      8  C6  UNL d   1      -2.969   0.924   3.749  0.00  0.00    -0.082 A 
ATOM      9  C7  UNL d   1      -2.707   1.742   2.623  0.00  0.00     0.045 A 
ENDROOT
TORSDOF 0
ENDMDL
