MODEL 1
REMARK minimizedAffinity 11.7763577
REMARK minimizedRMSD -1
REMARK  0 active torsions:
REMARK  status: ('A' for Active; 'I' for Inactive)
ROOT
ATOM      1  C   UNL d   1      -2.804   0.888   1.049  0.00  0.00    -0.002 A 
ATOM      2  C1  UNL d   1      -3.000   1.712   2.148  0.00  0.00     0.010 A 
ATOM      3  C2  UNL d   1      -1.948   1.995   3.021  0.00  0.00     0.041 A 
ATOM      4  C3  UNL d   1      -0.681   1.432   2.767  0.00  0.00    -0.075 A 
ATOM      5  S   UNL d   1       0.754   1.640   3.698  0.00  0.00     0.015 SA
ATOM      6  C4  UNL d   1       1.663   0.641   2.658  0.00  0.00     0.022 A 
ATOM      7  C5  UNL d   1       0.905   0.152   1.621  0.00  0.00     0.026 A 
ATOM      8  C6  UNL d   1      -0.459   0.600   1.666  0.00  0.00    -0.082 A 
ATOM      9  C7  UNL d   1      -1.546   0.332   0.800  0.00  0.00     0.045 A 
ENDROOT
TORSDOF 0
ENDMDL
