MODEL 1
REMARK minimizedAffinity 11.6148815
REMARK minimizedRMSD -1
REMARK  0 active torsions:
REMARK  status: ('A' for Active; 'I' for Inactive)
ROOT
ATOM      1  C   UNL d   1       0.895   1.379   3.548  0.00  0.00    -0.002 A 
ATOM      2  C1  UNL d   1       1.332   0.540   2.532  0.00  0.00     0.010 A 
ATOM      3  C2  UNL d   1       0.468   0.162   1.503  0.00  0.00     0.041 A 
ATOM      4  C3  UNL d   1      -0.855   0.647   1.510  0.00  0.00    -0.075 A 
ATOM      5  S   UNL d   1      -2.089   0.318   0.352  0.00  0.00     0.015 SA
ATOM      6  C4  UNL d   1      -3.225   1.284   1.178  0.00  0.00     0.022 A 
ATOM      7  C5  UNL d   1      -2.692   1.851   2.312  0.00  0.00     0.026 A 
ATOM      8  C6  UNL d   1      -1.317   1.493   2.522  0.00  0.00    -0.082 A 
ATOM      9  C7  UNL d   1      -0.417   1.858   3.552  0.00  0.00     0.045 A 
ENDROOT
TORSDOF 0
ENDMDL
