MODEL 1
REMARK minimizedAffinity 8.51705456
REMARK minimizedRMSD -1
REMARK  0 active torsions:
REMARK  status: ('A' for Active; 'I' for Inactive)
ROOT
ATOM      1  C   UNL d   1       3.376  -1.047  -3.352  0.00  0.00    -0.002 A 
ATOM      2  C1  UNL d   1       2.335  -1.540  -4.125  0.00  0.00     0.010 A 
ATOM      3  C2  UNL d   1       1.619  -0.693  -4.974  0.00  0.00     0.041 A 
ATOM      4  C3  UNL d   1       1.971   0.670  -5.033  0.00  0.00    -0.075 A 
ATOM      5  S   UNL d   1       1.235   1.893  -6.000  0.00  0.00     0.015 SA
ATOM      6  C4  UNL d   1       2.286   3.097  -5.409  0.00  0.00     0.022 A 
ATOM      7  C5  UNL d   1       3.182   2.596  -4.496  0.00  0.00     0.026 A 
ATOM      8  C6  UNL d   1       3.016   1.189  -4.264  0.00  0.00    -0.082 A 
ATOM      9  C7  UNL d   1       3.723   0.305  -3.413  0.00  0.00     0.045 A 
ENDROOT
TORSDOF 0
ENDMDL
