MODEL 1
REMARK minimizedAffinity 8.51273632
REMARK minimizedRMSD -1
REMARK  0 active torsions:
REMARK  status: ('A' for Active; 'I' for Inactive)
ROOT
ATOM      1  C   UNL d   1      -3.149   1.253   1.975  0.00  0.00    -0.002 A 
ATOM      2  C1  UNL d   1      -2.431   0.528   1.036  0.00  0.00     0.010 A 
ATOM      3  C2  UNL d   1      -1.038   0.614   0.985  0.00  0.00     0.041 A 
ATOM      4  C3  UNL d   1      -0.373   1.448   1.905  0.00  0.00    -0.075 A 
ATOM      5  S   UNL d   1       1.326   1.710   2.031  0.00  0.00     0.015 SA
ATOM      6  C4  UNL d   1       1.138   2.791   3.335  0.00  0.00     0.022 A 
ATOM      7  C5  UNL d   1      -0.182   2.959   3.679  0.00  0.00     0.026 A 
ATOM      8  C6  UNL d   1      -1.075   2.188   2.861  0.00  0.00    -0.082 A 
ATOM      9  C7  UNL d   1      -2.486   2.080   2.886  0.00  0.00     0.045 A 
ENDROOT
TORSDOF 0
ENDMDL
