MODEL 1
REMARK minimizedAffinity 9.32926655
REMARK minimizedRMSD -1
REMARK  0 active torsions:
REMARK  status: ('A' for Active; 'I' for Inactive)
ROOT
ATOM      1  C   UNL d   1      -0.890   0.860   2.225  0.00  0.00    -0.002 A 
ATOM      2  C1  UNL d   1      -1.444   0.548   0.992  0.00  0.00     0.010 A 
ATOM      3  C2  UNL d   1      -2.815   0.315   0.868  0.00  0.00     0.041 A 
ATOM      4  C3  UNL d   1      -3.628   0.404   2.016  0.00  0.00    -0.075 A 
ATOM      5  S   UNL d   1      -5.332   0.160   2.103  0.00  0.00     0.015 SA
ATOM      6  C4  UNL d   1      -5.365   0.466   3.780  0.00  0.00     0.022 A 
ATOM      7  C5  UNL d   1      -4.115   0.748   4.277  0.00  0.00     0.026 A 
ATOM      8  C6  UNL d   1      -3.093   0.718   3.268  0.00  0.00    -0.082 A 
ATOM      9  C7  UNL d   1      -1.699   0.948   3.361  0.00  0.00     0.045 A 
ENDROOT
TORSDOF 0
ENDMDL
