MODEL 1
REMARK minimizedAffinity 17.025774
REMARK minimizedRMSD -1
REMARK  0 active torsions:
REMARK  status: ('A' for Active; 'I' for Inactive)
ROOT
ATOM      1  C   UNL d   1       5.098  -0.342  -2.307  0.00  0.00    -0.002 A 
ATOM      2  C1  UNL d   1       6.000  -0.879  -3.215  0.00  0.00     0.010 A 
ATOM      3  C2  UNL d   1       5.549  -1.492  -4.386  0.00  0.00     0.041 A 
ATOM      4  C3  UNL d   1       4.164  -1.554  -4.632  0.00  0.00    -0.075 A 
ATOM      5  S   UNL d   1       3.382  -2.255  -6.000  0.00  0.00     0.015 SA
ATOM      6  C4  UNL d   1       1.833  -1.857  -5.412  0.00  0.00     0.022 A 
ATOM      7  C5  UNL d   1       1.892  -1.205  -4.203  0.00  0.00     0.026 A 
ATOM      8  C6  UNL d   1       3.236  -1.019  -3.734  0.00  0.00    -0.082 A 
ATOM      9  C7  UNL d   1       3.724  -0.406  -2.555  0.00  0.00     0.045 A 
ENDROOT
TORSDOF 0
ENDMDL
