MODEL 1
REMARK minimizedAffinity 8.32989788
REMARK minimizedRMSD -1
REMARK  0 active torsions:
REMARK  status: ('A' for Active; 'I' for Inactive)
ROOT
ATOM      1  C   UNL d   1      -0.109   1.129   1.586  0.00  0.00    -0.002 A 
ATOM      2  C1  UNL d   1      -0.902   0.604   0.575  0.00  0.00     0.010 A 
ATOM      3  C2  UNL d   1      -2.294   0.654   0.666  0.00  0.00     0.041 A 
ATOM      4  C3  UNL d   1      -2.882   1.248   1.800  0.00  0.00    -0.075 A 
ATOM      5  S   UNL d   1      -4.566   1.423   2.127  0.00  0.00     0.015 SA
ATOM      6  C4  UNL d   1      -4.273   2.200   3.615  0.00  0.00     0.022 A 
ATOM      7  C5  UNL d   1      -2.929   2.330   3.873  0.00  0.00     0.026 A 
ATOM      8  C6  UNL d   1      -2.105   1.785   2.831  0.00  0.00    -0.082 A 
ATOM      9  C7  UNL d   1      -0.696   1.718   2.709  0.00  0.00     0.045 A 
ENDROOT
TORSDOF 0
ENDMDL
