MODEL 1
REMARK minimizedAffinity -4.29735565
REMARK minimizedRMSD -1
REMARK  1 active torsions:
REMARK  status: ('A' for Active; 'I' for Inactive)
REMARK    1  A    between atoms: C3_4  and  O_7 
ROOT
ATOM      1  C   UNL d   1       0.586  -0.216   0.432  0.00  0.00    -0.033 A 
ATOM      2  C1  UNL d   1       0.751   0.099   1.782  0.00  0.00     0.039 A 
ATOM      3  C2  UNL d   1      -0.026   1.101   2.367  0.00  0.00    -0.080 A 
ATOM      4  C3  UNL d   1      -0.963   1.779   1.592  0.00  0.00     0.150 A 
ATOM      5  C4  UNL d   1      -1.135   1.468   0.247  0.00  0.00    -0.007 A 
ATOM      6  C5  UNL d   1      -0.358   0.468  -0.335  0.00  0.00     0.039 A 
ENDROOT
BRANCH   4   7
ATOM      7  O   UNL d   1      -1.740   2.768   2.118  0.00  0.00    -0.526 OA
ATOM      8  H5  UNL d   1      -1.491   2.894   3.048  0.00  0.00     0.418 HD
ENDBRANCH   4   7
TORSDOF 1
ENDMDL
