MODEL 1
REMARK minimizedAffinity -4.41890717
REMARK minimizedRMSD -1
REMARK  1 active torsions:
REMARK  status: ('A' for Active; 'I' for Inactive)
REMARK    1  A    between atoms: C3_4  and  O_7 
ROOT
ATOM      1  C   UNL d   1      -0.136  -0.228   0.632  0.00  0.00    -0.033 A 
ATOM      2  C1  UNL d   1      -0.852   0.964   0.512  0.00  0.00     0.039 A 
ATOM      3  C2  UNL d   1      -0.873   1.649  -0.705  0.00  0.00    -0.080 A 
ATOM      4  C3  UNL d   1      -0.175   1.131  -1.792  0.00  0.00     0.150 A 
ATOM      5  C4  UNL d   1       0.537  -0.058  -1.681  0.00  0.00    -0.007 A 
ATOM      6  C5  UNL d   1       0.558  -0.740  -0.466  0.00  0.00     0.039 A 
ENDROOT
BRANCH   4   7
ATOM      7  O   UNL d   1      -0.162   1.767  -2.998  0.00  0.00    -0.526 OA
ATOM      8  H5  UNL d   1      -0.673   2.590  -2.918  0.00  0.00     0.418 HD
ENDBRANCH   4   7
TORSDOF 1
ENDMDL
