MODEL 1
REMARK minimizedAffinity -4.11490059
REMARK minimizedRMSD -1
REMARK  1 active torsions:
REMARK  status: ('A' for Active; 'I' for Inactive)
REMARK    1  A    between atoms: C3_4  and  O_7 
ROOT
ATOM      1  C   UNL d   1       0.648  -0.014   0.374  0.00  0.00    -0.033 A 
ATOM      2  C1  UNL d   1       0.847   0.356   1.705  0.00  0.00     0.039 A 
ATOM      3  C2  UNL d   1       0.022   1.314   2.297  0.00  0.00    -0.080 A 
ATOM      4  C3  UNL d   1      -0.998   1.894   1.547  0.00  0.00     0.150 A 
ATOM      5  C4  UNL d   1      -1.204   1.528   0.221  0.00  0.00    -0.007 A 
ATOM      6  C5  UNL d   1      -0.378   0.571  -0.368  0.00  0.00     0.039 A 
ENDROOT
BRANCH   4   7
ATOM      7  O   UNL d   1      -1.826   2.837   2.079  0.00  0.00    -0.526 OA
ATOM      8  H5  UNL d   1      -1.546   3.011   2.994  0.00  0.00     0.418 HD
ENDBRANCH   4   7
TORSDOF 1
ENDMDL
