MODEL 1
REMARK minimizedAffinity -5.12216663
REMARK minimizedRMSD -1
REMARK  1 active torsions:
REMARK  status: ('A' for Active; 'I' for Inactive)
REMARK    1  A    between atoms: C3_4  and  O_7 
ROOT
ATOM      1  C   UNL d   1       0.697  -0.459   0.312  0.00  0.00    -0.033 A 
ATOM      2  C1  UNL d   1      -0.402   0.002  -0.414  0.00  0.00     0.039 A 
ATOM      3  C2  UNL d   1      -1.249   0.968   0.135  0.00  0.00    -0.080 A 
ATOM      4  C3  UNL d   1      -0.984   1.464   1.408  0.00  0.00     0.150 A 
ATOM      5  C4  UNL d   1       0.112   1.012   2.136  0.00  0.00    -0.007 A 
ATOM      6  C5  UNL d   1       0.956   0.047   1.586  0.00  0.00     0.039 A 
ENDROOT
BRANCH   4   7
ATOM      7  O   UNL d   1      -1.784   2.404   1.987  0.00  0.00    -0.526 OA
ATOM      8  H5  UNL d   1      -2.517   2.600   1.380  0.00  0.00     0.418 HD
ENDBRANCH   4   7
TORSDOF 1
ENDMDL
