MODEL 1
REMARK minimizedAffinity -0.134029835
REMARK minimizedRMSD -1
REMARK  0 active torsions:
REMARK  status: ('A' for Active; 'I' for Inactive)
ROOT
ATOM      1  C   UNL d   1      -1.398  -0.601   0.872  0.00  0.00     0.077 C 
ATOM      2  C1  UNL d   1      -0.235  -0.750  -0.063  0.00  0.00    -0.074 A 
ATOM      3  C2  UNL d   1       0.980  -0.105   0.193  0.00  0.00    -0.005 A 
ATOM      4  C3  UNL d   1       2.056  -0.260  -0.681  0.00  0.00     0.006 A 
ATOM      5  C4  UNL d   1       1.928  -1.060  -1.818  0.00  0.00    -0.005 A 
ATOM      6  C5  UNL d   1       0.722  -1.713  -2.089  0.00  0.00    -0.074 A 
ATOM      7  C6  UNL d   1       0.571  -2.584  -3.301  0.00  0.00     0.077 C 
ATOM      8  C7  UNL d   1      -0.353  -1.558  -1.203  0.00  0.00    -0.001 A 
ENDROOT
TORSDOF 0
ENDMDL
