MODEL 1
REMARK minimizedAffinity -3.67718959
REMARK minimizedRMSD -1
REMARK  0 active torsions:
REMARK  status: ('A' for Active; 'I' for Inactive)
ROOT
ATOM      1  C   UNL d   1       0.155   0.553   1.474  0.00  0.00     0.077 C 
ATOM      2  C1  UNL d   1      -0.154  -0.671   0.663  0.00  0.00    -0.074 A 
ATOM      3  C2  UNL d   1      -1.311  -1.418   0.902  0.00  0.00    -0.005 A 
ATOM      4  C3  UNL d   1      -1.590  -2.549   0.134  0.00  0.00     0.006 A 
ATOM      5  C4  UNL d   1      -0.715  -2.943  -0.879  0.00  0.00    -0.005 A 
ATOM      6  C5  UNL d   1       0.448  -2.207  -1.133  0.00  0.00    -0.074 A 
ATOM      7  C6  UNL d   1       1.394  -2.611  -2.225  0.00  0.00     0.077 C 
ATOM      8  C7  UNL d   1       0.717  -1.069  -0.361  0.00  0.00    -0.001 A 
ENDROOT
TORSDOF 0
ENDMDL
