MODEL 1
REMARK minimizedAffinity -2.26483727
REMARK minimizedRMSD -1
REMARK  0 active torsions:
REMARK  status: ('A' for Active; 'I' for Inactive)
ROOT
ATOM      1  C   UNL d   1      -0.692  -0.209   1.431  0.00  0.00     0.077 C 
ATOM      2  C1  UNL d   1      -0.009  -0.755   0.213  0.00  0.00    -0.074 A 
ATOM      3  C2  UNL d   1       0.890   0.029  -0.519  0.00  0.00    -0.005 A 
ATOM      4  C3  UNL d   1       1.525  -0.496  -1.644  0.00  0.00     0.006 A 
ATOM      5  C4  UNL d   1       1.270  -1.807  -2.049  0.00  0.00    -0.005 A 
ATOM      6  C5  UNL d   1       0.375  -2.605  -1.329  0.00  0.00    -0.074 A 
ATOM      7  C6  UNL d   1       0.097  -4.019  -1.744  0.00  0.00     0.077 C 
ATOM      8  C7  UNL d   1      -0.254  -2.073  -0.195  0.00  0.00    -0.001 A 
ENDROOT
TORSDOF 0
ENDMDL
