MODEL 1
REMARK minimizedAffinity -2.54821062
REMARK minimizedRMSD -1
REMARK  0 active torsions:
REMARK  status: ('A' for Active; 'I' for Inactive)
ROOT
ATOM      1  C   UNL d   1      -1.121  -0.082   1.737  0.00  0.00     0.077 C 
ATOM      2  C1  UNL d   1      -0.225  -0.519   0.616  0.00  0.00    -0.074 A 
ATOM      3  C2  UNL d   1       1.022   0.081   0.417  0.00  0.00    -0.005 A 
ATOM      4  C3  UNL d   1       1.849  -0.343  -0.624  0.00  0.00     0.006 A 
ATOM      5  C4  UNL d   1       1.437  -1.369  -1.475  0.00  0.00    -0.005 A 
ATOM      6  C5  UNL d   1       0.193  -1.982  -1.291  0.00  0.00    -0.074 A 
ATOM      7  C6  UNL d   1      -0.261  -3.093  -2.190  0.00  0.00     0.077 C 
ATOM      8  C7  UNL d   1      -0.629  -1.555  -0.238  0.00  0.00    -0.001 A 
ENDROOT
TORSDOF 0
ENDMDL
