MODEL 1
REMARK minimizedAffinity -0.171352983
REMARK minimizedRMSD -1
REMARK  0 active torsions:
REMARK  status: ('A' for Active; 'I' for Inactive)
ROOT
ATOM      1  C   UNL d   1       0.835  -1.198  -0.498  0.00  0.00     0.077 C 
ATOM      2  C1  UNL d   1       0.111  -0.152   0.296  0.00  0.00    -0.074 A 
ATOM      3  C2  UNL d   1      -0.700  -0.506   1.379  0.00  0.00    -0.005 A 
ATOM      4  C3  UNL d   1      -1.360   0.479   2.115  0.00  0.00     0.006 A 
ATOM      5  C4  UNL d   1      -1.216   1.825   1.775  0.00  0.00    -0.005 A 
ATOM      6  C5  UNL d   1      -0.408   2.197   0.695  0.00  0.00    -0.074 A 
ATOM      7  C6  UNL d   1      -0.235   3.640   0.323  0.00  0.00     0.077 C 
ATOM      8  C7  UNL d   1       0.257   1.202  -0.034  0.00  0.00    -0.001 A 
ENDROOT
TORSDOF 0
ENDMDL
