MODEL 1
REMARK minimizedAffinity -1.33774257
REMARK minimizedRMSD -1
REMARK  0 active torsions:
REMARK  status: ('A' for Active; 'I' for Inactive)
ROOT
ATOM      1  C   UNL d   1       0.443  -1.518  -0.950  0.00  0.00     0.077 C 
ATOM      2  C1  UNL d   1      -0.121  -0.471  -0.036  0.00  0.00    -0.074 A 
ATOM      3  C2  UNL d   1      -0.896  -0.827   1.073  0.00  0.00    -0.005 A 
ATOM      4  C3  UNL d   1      -1.406   0.157   1.920  0.00  0.00     0.006 A 
ATOM      5  C4  UNL d   1      -1.147   1.505   1.667  0.00  0.00    -0.005 A 
ATOM      6  C5  UNL d   1      -0.373   1.880   0.564  0.00  0.00    -0.074 A 
ATOM      7  C6  UNL d   1      -0.077   3.323   0.283  0.00  0.00     0.077 C 
ATOM      8  C7  UNL d   1       0.141   0.885  -0.279  0.00  0.00    -0.001 A 
ENDROOT
TORSDOF 0
ENDMDL
