MODEL 1
REMARK minimizedAffinity -3.61935163
REMARK minimizedRMSD -1
REMARK  0 active torsions:
REMARK  status: ('A' for Active; 'I' for Inactive)
ROOT
ATOM      1  C   UNL d   1      -0.887   0.028   1.318  0.00  0.00     0.077 C 
ATOM      2  C1  UNL d   1      -0.014  -0.435   0.190  0.00  0.00    -0.074 A 
ATOM      3  C2  UNL d   1       1.049   0.352  -0.267  0.00  0.00    -0.005 A 
ATOM      4  C3  UNL d   1       1.858  -0.097  -1.310  0.00  0.00     0.006 A 
ATOM      5  C4  UNL d   1       1.614  -1.334  -1.907  0.00  0.00    -0.005 A 
ATOM      6  C5  UNL d   1       0.557  -2.135  -1.463  0.00  0.00    -0.074 A 
ATOM      7  C6  UNL d   1       0.287  -3.472  -2.087  0.00  0.00     0.077 C 
ATOM      8  C7  UNL d   1      -0.247  -1.681  -0.409  0.00  0.00    -0.001 A 
ENDROOT
TORSDOF 0
ENDMDL
