MODEL 1
REMARK minimizedAffinity -0.319841087
REMARK minimizedRMSD -1
REMARK  0 active torsions:
REMARK  status: ('A' for Active; 'I' for Inactive)
ROOT
ATOM      1  C   UNL d   1       0.486  -3.776  -1.516  0.00  0.00     0.077 C 
ATOM      2  C1  UNL d   1       0.492  -2.350  -1.052  0.00  0.00    -0.074 A 
ATOM      3  C2  UNL d   1       1.218  -1.373  -1.741  0.00  0.00    -0.005 A 
ATOM      4  C3  UNL d   1       1.207  -0.048  -1.303  0.00  0.00     0.006 A 
ATOM      5  C4  UNL d   1       0.471   0.312  -0.173  0.00  0.00    -0.005 A 
ATOM      6  C5  UNL d   1      -0.262  -0.651   0.528  0.00  0.00    -0.074 A 
ATOM      7  C6  UNL d   1      -1.066  -0.280   1.738  0.00  0.00     0.077 C 
ATOM      8  C7  UNL d   1      -0.251  -1.979   0.077  0.00  0.00    -0.001 A 
ENDROOT
TORSDOF 0
ENDMDL
