MODEL 1
REMARK minimizedAffinity -2.21492982
REMARK minimizedRMSD -1
REMARK  0 active torsions:
REMARK  status: ('A' for Active; 'I' for Inactive)
ROOT
ATOM      1  C   UNL d   1       0.409  -3.379  -2.580  0.00  0.00     0.077 C 
ATOM      2  C1  UNL d   1       0.693  -2.300  -1.578  0.00  0.00    -0.074 A 
ATOM      3  C2  UNL d   1       1.897  -1.589  -1.609  0.00  0.00    -0.005 A 
ATOM      4  C3  UNL d   1       2.142  -0.581  -0.676  0.00  0.00     0.006 A 
ATOM      5  C4  UNL d   1       1.188  -0.275   0.295  0.00  0.00    -0.005 A 
ATOM      6  C5  UNL d   1      -0.022  -0.974   0.340  0.00  0.00    -0.074 A 
ATOM      7  C6  UNL d   1      -1.063  -0.651   1.371  0.00  0.00     0.077 C 
ATOM      8  C7  UNL d   1      -0.264  -1.981  -0.605  0.00  0.00    -0.001 A 
ENDROOT
TORSDOF 0
ENDMDL
