MODEL 1
REMARK minimizedAffinity -3.84136057
REMARK minimizedRMSD -1
REMARK  0 active torsions:
REMARK  status: ('A' for Active; 'I' for Inactive)
ROOT
ATOM      1  C   UNL d   1      -1.140   0.011   1.389  0.00  0.00     0.077 C 
ATOM      2  C1  UNL d   1      -0.196  -0.545   0.364  0.00  0.00    -0.074 A 
ATOM      3  C2  UNL d   1       0.998   0.114   0.055  0.00  0.00    -0.005 A 
ATOM      4  C3  UNL d   1       1.871  -0.419  -0.894  0.00  0.00     0.006 A 
ATOM      5  C4  UNL d   1       1.558  -1.615  -1.541  0.00  0.00    -0.005 A 
ATOM      6  C5  UNL d   1       0.369  -2.289  -1.244  0.00  0.00    -0.074 A 
ATOM      7  C6  UNL d   1       0.023  -3.580  -1.924  0.00  0.00     0.077 C 
ATOM      8  C7  UNL d   1      -0.499  -1.750  -0.285  0.00  0.00    -0.001 A 
ENDROOT
TORSDOF 0
ENDMDL
