MODEL 1
REMARK minimizedAffinity -1.71130264
REMARK minimizedRMSD -1
REMARK  0 active torsions:
REMARK  status: ('A' for Active; 'I' for Inactive)
ROOT
ATOM      1  C   UNL d   1      -1.153   1.572   2.556  0.00  0.00     0.077 C 
ATOM      2  C1  UNL d   1      -0.480   0.668   1.567  0.00  0.00    -0.074 A 
ATOM      3  C2  UNL d   1      -0.555  -0.723   1.697  0.00  0.00    -0.005 A 
ATOM      4  C3  UNL d   1       0.069  -1.551   0.763  0.00  0.00     0.006 A 
ATOM      5  C4  UNL d   1       0.772  -0.998  -0.307  0.00  0.00    -0.005 A 
ATOM      6  C5  UNL d   1       0.857   0.390  -0.454  0.00  0.00    -0.074 A 
ATOM      7  C6  UNL d   1       1.601   1.001  -1.604  0.00  0.00     0.077 C 
ATOM      8  C7  UNL d   1       0.222   1.216   0.484  0.00  0.00    -0.001 A 
ENDROOT
TORSDOF 0
ENDMDL
