MODEL 1
REMARK minimizedAffinity -2.17696357
REMARK minimizedRMSD -1
REMARK  0 active torsions:
REMARK  status: ('A' for Active; 'I' for Inactive)
ROOT
ATOM      1  C   UNL d   1      -1.578   0.413   2.104  0.00  0.00     0.077 C 
ATOM      2  C1  UNL d   1      -0.705  -0.076   0.987  0.00  0.00    -0.074 A 
ATOM      3  C2  UNL d   1       0.361   0.698   0.516  0.00  0.00    -0.005 A 
ATOM      4  C3  UNL d   1       1.170   0.226  -0.517  0.00  0.00     0.006 A 
ATOM      5  C4  UNL d   1       0.922  -1.023  -1.089  0.00  0.00    -0.005 A 
ATOM      6  C5  UNL d   1      -0.138  -1.811  -0.630  0.00  0.00    -0.074 A 
ATOM      7  C6  UNL d   1      -0.412  -3.160  -1.227  0.00  0.00     0.077 C 
ATOM      8  C7  UNL d   1      -0.942  -1.333   0.413  0.00  0.00    -0.001 A 
ENDROOT
TORSDOF 0
ENDMDL
