MODEL 1
REMARK minimizedAffinity 3.76522779
REMARK minimizedRMSD -1
REMARK  0 active torsions:
REMARK  status: ('A' for Active; 'I' for Inactive)
ROOT
ATOM      1  C4' PXY d   1      -1.660  -3.289   3.983  0.00  0.00     0.077 C 
ATOM      2  C1' PXY d   1       2.731  -1.693   0.579  0.00  0.00     0.077 C 
ATOM      3  C1  PXY d   1       1.579  -2.100   1.477  0.00  0.00    -0.082 A 
ATOM      4  C2  PXY d   1       1.362  -3.382   1.722  0.00  0.00     0.003 A 
ATOM      5  C3  PXY d   1       0.306  -3.769   2.506  0.00  0.00     0.003 A 
ATOM      6  C4  PXY d   1      -0.504  -2.832   3.089  0.00  0.00    -0.082 A 
ATOM      7  C5  PXY d   1      -0.282  -1.521   2.853  0.00  0.00     0.003 A 
ATOM      8  C6  PXY d   1       0.770  -1.151   2.021  0.00  0.00     0.003 A 
ENDROOT
TORSDOF 0
ENDMDL
