MODEL 1
REMARK minimizedAffinity 0.0827448517
REMARK minimizedRMSD -1
REMARK  0 active torsions:
REMARK  status: ('A' for Active; 'I' for Inactive)
ROOT
ATOM      1  C4' PXY d   1       0.204   4.791  -5.726  0.00  0.00     0.077 C 
ATOM      2  C1' PXY d   1       5.984   4.833  -5.833  0.00  0.00     0.077 C 
ATOM      3  C1  PXY d   1       4.468   4.834  -5.802  0.00  0.00    -0.082 A 
ATOM      4  C2  PXY d   1       3.817   3.702  -5.590  0.00  0.00     0.003 A 
ATOM      5  C3  PXY d   1       2.446   3.680  -5.591  0.00  0.00     0.003 A 
ATOM      6  C4  PXY d   1       1.735   4.838  -5.757  0.00  0.00    -0.082 A 
ATOM      7  C5  PXY d   1       2.392   5.999  -5.963  0.00  0.00     0.003 A 
ATOM      8  C6  PXY d   1       3.783   5.993  -6.000  0.00  0.00     0.003 A 
ENDROOT
TORSDOF 0
ENDMDL
