MODEL 1
REMARK minimizedAffinity 7.2732091
REMARK minimizedRMSD -1
REMARK  0 active torsions:
REMARK  status: ('A' for Active; 'I' for Inactive)
ROOT
ATOM      1  C4' PXY d   1      -5.231   5.509   6.000  0.00  0.00     0.077 C 
ATOM      2  C1' PXY d   1      -1.583   1.613   3.779  0.00  0.00     0.077 C 
ATOM      3  C1  PXY d   1      -2.534   2.634   4.373  0.00  0.00    -0.082 A 
ATOM      4  C2  PXY d   1      -3.731   2.803   3.836  0.00  0.00     0.003 A 
ATOM      5  C3  PXY d   1      -4.591   3.745   4.340  0.00  0.00     0.003 A 
ATOM      6  C4  PXY d   1      -4.242   4.483   5.439  0.00  0.00    -0.082 A 
ATOM      7  C5  PXY d   1      -3.026   4.309   5.999  0.00  0.00     0.003 A 
ATOM      8  C6  PXY d   1      -2.152   3.378   5.447  0.00  0.00     0.003 A 
ENDROOT
TORSDOF 0
ENDMDL
