MODEL 1
REMARK minimizedAffinity 8.94858646
REMARK minimizedRMSD -1
REMARK  0 active torsions:
REMARK  status: ('A' for Active; 'I' for Inactive)
ROOT
ATOM      1  C4' PXY d   1       0.693   0.732  -3.657  0.00  0.00     0.077 C 
ATOM      2  C1' PXY d   1       0.704  -2.573   1.086  0.00  0.00     0.077 C 
ATOM      3  C1  PXY d   1       0.690  -1.712  -0.163  0.00  0.00    -0.082 A 
ATOM      4  C2  PXY d   1       1.809  -1.138  -0.573  0.00  0.00     0.003 A 
ATOM      5  C3  PXY d   1       1.808  -0.331  -1.682  0.00  0.00     0.003 A 
ATOM      6  C4  PXY d   1       0.661  -0.152  -2.408  0.00  0.00    -0.082 A 
ATOM      7  C5  PXY d   1      -0.482  -0.743  -2.001  0.00  0.00     0.003 A 
ATOM      8  C6  PXY d   1      -0.469  -1.526  -0.850  0.00  0.00     0.003 A 
ENDROOT
TORSDOF 0
ENDMDL
