MODEL 1
REMARK minimizedAffinity 4.7216568
REMARK minimizedRMSD -1
REMARK  0 active torsions:
REMARK  status: ('A' for Active; 'I' for Inactive)
ROOT
ATOM      1  C4' PXY d   1      -6.000   4.491  -5.355  0.00  0.00     0.077 C 
ATOM      2  C1' PXY d   1      -1.462   1.722  -3.084  0.00  0.00     0.077 C 
ATOM      3  C1  PXY d   1      -2.651   2.441  -3.690  0.00  0.00    -0.082 A 
ATOM      4  C2  PXY d   1      -2.970   3.653  -3.265  0.00  0.00     0.003 A 
ATOM      5  C3  PXY d   1      -4.061   4.304  -3.780  0.00  0.00     0.003 A 
ATOM      6  C4  PXY d   1      -4.802   3.731  -4.778  0.00  0.00    -0.082 A 
ATOM      7  C5  PXY d   1      -4.477   2.500  -5.226  0.00  0.00     0.003 A 
ATOM      8  C6  PXY d   1      -3.390   1.838  -4.661  0.00  0.00     0.003 A 
ENDROOT
TORSDOF 0
ENDMDL
