MODEL 1
REMARK minimizedAffinity 7.4582243
REMARK minimizedRMSD -1
REMARK  0 active torsions:
REMARK  status: ('A' for Active; 'I' for Inactive)
ROOT
ATOM      1  C4' PXY d   1      -0.533   0.105   3.427  0.00  0.00     0.077 C 
ATOM      2  C1' PXY d   1       2.044  -3.284  -0.482  0.00  0.00     0.077 C 
ATOM      3  C1  PXY d   1       1.379  -2.396   0.550  0.00  0.00    -0.082 A 
ATOM      4  C2  PXY d   1       0.058  -2.351   0.621  0.00  0.00     0.003 A 
ATOM      5  C3  PXY d   1      -0.560  -1.528   1.528  0.00  0.00     0.003 A 
ATOM      6  C4  PXY d   1       0.182  -0.785   2.407  0.00  0.00    -0.082 A 
ATOM      7  C5  PXY d   1       1.529  -0.834   2.348  0.00  0.00     0.003 A 
ATOM      8  C6  PXY d   1       2.137  -1.644   1.393  0.00  0.00     0.003 A 
ENDROOT
TORSDOF 0
ENDMDL
