MODEL 1
REMARK minimizedAffinity 13.1298046
REMARK minimizedRMSD -1
REMARK  0 active torsions:
REMARK  status: ('A' for Active; 'I' for Inactive)
ROOT
ATOM      1  C4' PXY d   1      -2.469   0.567   3.411  0.00  0.00     0.077 C 
ATOM      2  C1' PXY d   1       2.137  -2.248   1.344  0.00  0.00     0.077 C 
ATOM      3  C1  PXY d   1       0.922  -1.515   1.877  0.00  0.00    -0.082 A 
ATOM      4  C2  PXY d   1       1.082  -0.398   2.568  0.00  0.00     0.003 A 
ATOM      5  C3  PXY d   1      -0.004   0.260   3.085  0.00  0.00     0.003 A 
ATOM      6  C4  PXY d   1      -1.271  -0.201   2.846  0.00  0.00    -0.082 A 
ATOM      7  C5  PXY d   1      -1.444  -1.334   2.133  0.00  0.00     0.003 A 
ATOM      8  C6  PXY d   1      -0.326  -2.009   1.652  0.00  0.00     0.003 A 
ENDROOT
TORSDOF 0
ENDMDL
