MODEL 1
REMARK minimizedAffinity 12.0069752
REMARK minimizedRMSD -1
REMARK  2 active torsions:
REMARK  status: ('A' for Active; 'I' for Inactive)
REMARK    1  A    between atoms: C2'_3  and  C1'_4 
REMARK    2  A    between atoms: C1'_4  and  C1_5 
ROOT
ATOM      1  C1  I4B d   1       2.476   1.049   1.687  0.00  0.00    -0.075 A 
ATOM      2  C2  I4B d   1       2.588   1.863   2.786  0.00  0.00     0.003 A 
ATOM      3  C3  I4B d   1       2.369   1.343   4.084  0.00  0.00     0.002 A 
ATOM      4  C4  I4B d   1       1.991   0.024   4.233  0.00  0.00    -0.004 A 
ATOM      5  C5  I4B d   1       1.900  -0.806   3.120  0.00  0.00     0.002 A 
ATOM      6  C6  I4B d   1       2.156  -0.294   1.839  0.00  0.00     0.003 A 
ENDROOT
BRANCH   1   7
ATOM      7  C1' I4B d   1       2.683   1.639   0.328  0.00  0.00     0.060 C 
BRANCH   7   8
ATOM      8  C2' I4B d   1       1.876   2.918   0.247  0.00  0.00    -0.013 C 
ATOM      9  C4' I4B d   1       1.991   3.550  -1.115  0.00  0.00     0.013 C 
ATOM     10  C3' I4B d   1       0.450   2.588   0.572  0.00  0.00     0.013 C 
ENDBRANCH   7   8
ENDBRANCH   1   7
TORSDOF 2
ENDMDL
