MODEL 1
REMARK minimizedAffinity 6.74012995
REMARK minimizedRMSD -1
REMARK  2 active torsions:
REMARK  status: ('A' for Active; 'I' for Inactive)
REMARK    1  A    between atoms: C2'_3  and  C1'_4 
REMARK    2  A    between atoms: C1'_4  and  C1_5 
ROOT
ATOM      1  C1  I4B d   1       2.013  -0.533   2.180  0.00  0.00    -0.075 A 
ATOM      2  C2  I4B d   1       2.336  -1.289   3.279  0.00  0.00     0.003 A 
ATOM      3  C3  I4B d   1       1.780  -2.581   3.444  0.00  0.00     0.002 A 
ATOM      4  C4  I4B d   1       0.874  -3.054   2.517  0.00  0.00    -0.004 A 
ATOM      5  C5  I4B d   1       0.565  -2.295   1.392  0.00  0.00     0.002 A 
ATOM      6  C6  I4B d   1       1.148  -1.032   1.215  0.00  0.00     0.003 A 
ENDROOT
BRANCH   1   7
ATOM      7  C1' I4B d   1       2.592   0.841   2.054  0.00  0.00     0.060 C 
BRANCH   7   8
ATOM      8  C2' I4B d   1       2.810   1.123   0.582  0.00  0.00    -0.013 C 
ATOM      9  C4' I4B d   1       2.928   2.601   0.321  0.00  0.00     0.013 C 
ATOM     10  C3' I4B d   1       4.048   0.395   0.149  0.00  0.00     0.013 C 
ENDBRANCH   7   8
ENDBRANCH   1   7
TORSDOF 2
ENDMDL
