MODEL 1
REMARK minimizedAffinity 0.237895325
REMARK minimizedRMSD -1
REMARK  2 active torsions:
REMARK  status: ('A' for Active; 'I' for Inactive)
REMARK    1  A    between atoms: C2'_3  and  C1'_4 
REMARK    2  A    between atoms: C1'_4  and  C1_5 
ROOT
ATOM      1  C1  I4B d   1       4.349  -5.792  -3.585  0.00  0.00    -0.075 A 
ATOM      2  C2  I4B d   1       4.971  -5.518  -4.777  0.00  0.00     0.003 A 
ATOM      3  C3  I4B d   1       4.209  -5.381  -5.963  0.00  0.00     0.002 A 
ATOM      4  C4  I4B d   1       2.844  -5.576  -5.920  0.00  0.00    -0.004 A 
ATOM      5  C5  I4B d   1       2.213  -5.832  -4.707  0.00  0.00     0.002 A 
ATOM      6  C6  I4B d   1       2.968  -5.928  -3.529  0.00  0.00     0.003 A 
ENDROOT
BRANCH   1   7
ATOM      7  C1' I4B d   1       5.187  -5.962  -2.357  0.00  0.00     0.060 C 
BRANCH   7   8
ATOM      8  C2' I4B d   1       4.599  -5.091  -1.266  0.00  0.00    -0.013 C 
ATOM      9  C4' I4B d   1       3.888  -3.896  -1.846  0.00  0.00     0.013 C 
ATOM     10  C3' I4B d   1       3.663  -5.935  -0.453  0.00  0.00     0.013 C 
ENDBRANCH   7   8
ENDBRANCH   1   7
TORSDOF 2
ENDMDL
