MODEL 1
REMARK minimizedAffinity 9.72455025
REMARK minimizedRMSD -1
REMARK  2 active torsions:
REMARK  status: ('A' for Active; 'I' for Inactive)
REMARK    1  A    between atoms: C2'_3  and  C1'_4 
REMARK    2  A    between atoms: C1'_4  and  C1_5 
ROOT
ATOM      1  C1  I4B d   1       1.957  -0.343   2.302  0.00  0.00    -0.075 A 
ATOM      2  C2  I4B d   1       2.180   0.287   1.103  0.00  0.00     0.003 A 
ATOM      3  C3  I4B d   1       2.741   1.587   1.075  0.00  0.00     0.002 A 
ATOM      4  C4  I4B d   1       3.015   2.235   2.262  0.00  0.00    -0.004 A 
ATOM      5  C5  I4B d   1       2.809   1.586   3.476  0.00  0.00     0.002 A 
ATOM      6  C6  I4B d   1       2.288   0.284   3.496  0.00  0.00     0.003 A 
ENDROOT
BRANCH   1   7
ATOM      7  C1' I4B d   1       1.332  -1.702   2.296  0.00  0.00     0.060 C 
BRANCH   7   8
ATOM      8  C2' I4B d   1       1.013  -2.063   0.859  0.00  0.00    -0.013 C 
ATOM      9  C4' I4B d   1       1.578  -3.411   0.497  0.00  0.00     0.013 C 
ATOM     10  C3' I4B d   1      -0.477  -2.039   0.696  0.00  0.00     0.013 C 
ENDBRANCH   7   8
ENDBRANCH   1   7
TORSDOF 2
ENDMDL
