MODEL 1
REMARK minimizedAffinity 7.44977331
REMARK minimizedRMSD -1
REMARK  2 active torsions:
REMARK  status: ('A' for Active; 'I' for Inactive)
REMARK    1  A    between atoms: C2'_3  and  C1'_4 
REMARK    2  A    between atoms: C1'_4  and  C1_5 
ROOT
ATOM      1  C1  I4B d   1       1.428  -0.397   1.884  0.00  0.00    -0.075 A 
ATOM      2  C2  I4B d   1       2.025  -0.909   3.009  0.00  0.00     0.003 A 
ATOM      3  C3  I4B d   1       1.980  -2.300   3.270  0.00  0.00     0.002 A 
ATOM      4  C4  I4B d   1       1.288  -3.130   2.411  0.00  0.00    -0.004 A 
ATOM      5  C5  I4B d   1       0.703  -2.612   1.260  0.00  0.00     0.002 A 
ATOM      6  C6  I4B d   1       0.784  -1.239   0.987  0.00  0.00     0.003 A 
ENDROOT
BRANCH   1   7
ATOM      7  C1' I4B d   1       1.467   1.081   1.657  0.00  0.00     0.060 C 
BRANCH   7   8
ATOM      8  C2' I4B d   1       2.921   1.504   1.586  0.00  0.00    -0.013 C 
ATOM      9  C4' I4B d   1       3.305   1.905   0.187  0.00  0.00     0.013 C 
ATOM     10  C3' I4B d   1       3.120   2.637   2.548  0.00  0.00     0.013 C 
ENDBRANCH   7   8
ENDBRANCH   1   7
TORSDOF 2
ENDMDL
