MODEL 1
REMARK minimizedAffinity 6.85732508
REMARK minimizedRMSD -1
REMARK  2 active torsions:
REMARK  status: ('A' for Active; 'I' for Inactive)
REMARK    1  A    between atoms: C2'_3  and  C1'_4 
REMARK    2  A    between atoms: C1'_4  and  C1_5 
ROOT
ATOM      1  C1  I4B d   1       2.442  -0.302   1.486  0.00  0.00    -0.075 A 
ATOM      2  C2  I4B d   1       3.389  -1.015   2.179  0.00  0.00     0.003 A 
ATOM      3  C3  I4B d   1       3.002  -2.096   3.008  0.00  0.00     0.002 A 
ATOM      4  C4  I4B d   1       1.663  -2.396   3.153  0.00  0.00    -0.004 A 
ATOM      5  C5  I4B d   1       0.706  -1.687   2.431  0.00  0.00     0.002 A 
ATOM      6  C6  I4B d   1       1.099  -0.641   1.583  0.00  0.00     0.003 A 
ENDROOT
BRANCH   1   7
ATOM      7  C1' I4B d   1       2.883   0.855   0.646  0.00  0.00     0.060 C 
BRANCH   7   8
ATOM      8  C2' I4B d   1       2.158   2.091   1.137  0.00  0.00    -0.013 C 
ATOM      9  C4' I4B d   1       2.539   2.420   2.556  0.00  0.00     0.013 C 
ATOM     10  C3' I4B d   1       2.492   3.222   0.210  0.00  0.00     0.013 C 
ENDBRANCH   7   8
ENDBRANCH   1   7
TORSDOF 2
ENDMDL
