MODEL 1
REMARK minimizedAffinity 12.1945181
REMARK minimizedRMSD -1
REMARK  2 active torsions:
REMARK  status: ('A' for Active; 'I' for Inactive)
REMARK    1  A    between atoms: C2'_3  and  C1'_4 
REMARK    2  A    between atoms: C1'_4  and  C1_5 
ROOT
ATOM      1  C1  I4B d   1       2.300   1.016   1.302  0.00  0.00    -0.075 A 
ATOM      2  C2  I4B d   1       3.128   1.558   0.350  0.00  0.00     0.003 A 
ATOM      3  C3  I4B d   1       2.863   2.846  -0.175  0.00  0.00     0.002 A 
ATOM      4  C4  I4B d   1       1.740   3.532   0.241  0.00  0.00    -0.004 A 
ATOM      5  C5  I4B d   1       0.915   2.991   1.223  0.00  0.00     0.002 A 
ATOM      6  C6  I4B d   1       1.203   1.730   1.766  0.00  0.00     0.003 A 
ENDROOT
BRANCH   1   7
ATOM      7  C1' I4B d   1       2.591  -0.360   1.810  0.00  0.00     0.060 C 
BRANCH   7   8
ATOM      8  C2' I4B d   1       1.283  -0.976   2.263  0.00  0.00    -0.013 C 
ATOM      9  C4' I4B d   1       0.543  -1.596   1.106  0.00  0.00     0.013 C 
ATOM     10  C3' I4B d   1       1.592  -1.997   3.317  0.00  0.00     0.013 C 
ENDBRANCH   7   8
ENDBRANCH   1   7
TORSDOF 2
ENDMDL
