MODEL 1
REMARK minimizedAffinity 13.6064968
REMARK minimizedRMSD -1
REMARK  2 active torsions:
REMARK  status: ('A' for Active; 'I' for Inactive)
REMARK    1  A    between atoms: C2'_3  and  C1'_4 
REMARK    2  A    between atoms: C1'_4  and  C1_5 
ROOT
ATOM      1  C1  I4B d   1      -3.600  -0.837  -3.196  0.00  0.00    -0.075 A 
ATOM      2  C2  I4B d   1      -4.501   0.059  -3.716  0.00  0.00     0.003 A 
ATOM      3  C3  I4B d   1      -4.341   1.447  -3.485  0.00  0.00     0.002 A 
ATOM      4  C4  I4B d   1      -3.302   1.888  -2.692  0.00  0.00    -0.004 A 
ATOM      5  C5  I4B d   1      -2.377   0.981  -2.184  0.00  0.00     0.002 A 
ATOM      6  C6  I4B d   1      -2.519  -0.389  -2.448  0.00  0.00     0.003 A 
ENDROOT
BRANCH   1   7
ATOM      7  C1' I4B d   1      -3.818  -2.298  -3.432  0.00  0.00     0.060 C 
BRANCH   7   8
ATOM      8  C2' I4B d   1      -4.501  -2.872  -2.207  0.00  0.00    -0.013 C 
ATOM      9  C4' I4B d   1      -6.000  -2.802  -2.336  0.00  0.00     0.013 C 
ATOM     10  C3' I4B d   1      -4.037  -4.288  -2.039  0.00  0.00     0.013 C 
ENDBRANCH   7   8
ENDBRANCH   1   7
TORSDOF 2
ENDMDL
