MODEL 1
REMARK minimizedAffinity 6.20544291
REMARK minimizedRMSD -1
REMARK  2 active torsions:
REMARK  status: ('A' for Active; 'I' for Inactive)
REMARK    1  A    between atoms: C2'_3  and  C1'_4 
REMARK    2  A    between atoms: C1'_4  and  C1_5 
ROOT
ATOM      1  C1  I4B d   1       4.371  -5.994  -2.716  0.00  0.00    -0.075 A 
ATOM      2  C2  I4B d   1       3.285  -5.996  -3.555  0.00  0.00     0.003 A 
ATOM      3  C3  I4B d   1       3.469  -5.985  -4.959  0.00  0.00     0.002 A 
ATOM      4  C4  I4B d   1       4.746  -5.922  -5.477  0.00  0.00    -0.004 A 
ATOM      5  C5  I4B d   1       5.847  -5.943  -4.625  0.00  0.00     0.002 A 
ATOM      6  C6  I4B d   1       5.659  -5.991  -3.236  0.00  0.00     0.003 A 
ENDROOT
BRANCH   1   7
ATOM      7  C1' I4B d   1       4.140  -5.972  -1.238  0.00  0.00     0.060 C 
BRANCH   7   8
ATOM      8  C2' I4B d   1       2.856  -5.211  -0.978  0.00  0.00    -0.013 C 
ATOM      9  C4' I4B d   1       2.929  -3.812  -1.531  0.00  0.00     0.013 C 
ATOM     10  C3' I4B d   1       1.728  -5.980  -1.598  0.00  0.00     0.013 C 
ENDBRANCH   7   8
ENDBRANCH   1   7
TORSDOF 2
ENDMDL
