MODEL 1
REMARK minimizedAffinity 12.4703054
REMARK minimizedRMSD -1
REMARK  0 active torsions:
REMARK  status: ('A' for Active; 'I' for Inactive)
ROOT
ATOM      1  C   UNL d   1      -1.130  -0.020  -1.144  0.00  0.00    -0.002 A 
ATOM      2  C1  UNL d   1       0.212  -0.292  -0.921  0.00  0.00     0.010 A 
ATOM      3  C2  UNL d   1       0.703  -0.426   0.379  0.00  0.00     0.041 A 
ATOM      4  C3  UNL d   1      -0.187  -0.282   1.462  0.00  0.00    -0.075 A 
ATOM      5  S   UNL d   1       0.189  -0.406   3.140  0.00  0.00     0.015 SA
ATOM      6  C4  UNL d   1      -1.423  -0.101   3.600  0.00  0.00     0.022 A 
ATOM      7  C5  UNL d   1      -2.242   0.092   2.512  0.00  0.00     0.026 A 
ATOM      8  C6  UNL d   1      -1.543  -0.010   1.262  0.00  0.00    -0.082 A 
ATOM      9  C7  UNL d   1      -2.010   0.121  -0.068  0.00  0.00     0.045 A 
ENDROOT
TORSDOF 0
ENDMDL
