MODEL 1
REMARK minimizedAffinity 3.79797029
REMARK minimizedRMSD -1
REMARK  0 active torsions:
REMARK  status: ('A' for Active; 'I' for Inactive)
ROOT
ATOM      1  C   UNL d   1      -2.678  -0.992   3.364  0.00  0.00    -0.002 A 
ATOM      2  C1  UNL d   1      -1.415  -0.905   3.931  0.00  0.00     0.010 A 
ATOM      3  C2  UNL d   1      -0.320  -0.496   3.167  0.00  0.00     0.041 A 
ATOM      4  C3  UNL d   1      -0.519  -0.172   1.811  0.00  0.00    -0.075 A 
ATOM      5  S   UNL d   1       0.674   0.354   0.682  0.00  0.00     0.015 SA
ATOM      6  C4  UNL d   1      -0.465   0.476  -0.579  0.00  0.00     0.022 A 
ATOM      7  C5  UNL d   1      -1.730   0.128  -0.167  0.00  0.00     0.026 A 
ATOM      8  C6  UNL d   1      -1.782  -0.251   1.217  0.00  0.00    -0.082 A 
ATOM      9  C7  UNL d   1      -2.872  -0.669   2.018  0.00  0.00     0.045 A 
ENDROOT
TORSDOF 0
ENDMDL
