MODEL 1
REMARK minimizedAffinity 7.57035685
REMARK minimizedRMSD -1
REMARK  0 active torsions:
REMARK  status: ('A' for Active; 'I' for Inactive)
ROOT
ATOM      1  C   UNL d   1      -2.014  -2.060   4.222  0.00  0.00    -0.002 A 
ATOM      2  C1  UNL d   1      -0.793  -1.462   4.498  0.00  0.00     0.010 A 
ATOM      3  C2  UNL d   1      -0.376  -0.335   3.786  0.00  0.00     0.041 A 
ATOM      4  C3  UNL d   1      -1.217   0.186   2.783  0.00  0.00    -0.075 A 
ATOM      5  S   UNL d   1      -0.915   1.558   1.783  0.00  0.00     0.015 SA
ATOM      6  C4  UNL d   1      -2.400   1.383   0.966  0.00  0.00     0.022 A 
ATOM      7  C5  UNL d   1      -3.121   0.309   1.431  0.00  0.00     0.026 A 
ATOM      8  C6  UNL d   1      -2.452  -0.398   2.487  0.00  0.00    -0.082 A 
ATOM      9  C7  UNL d   1      -2.845  -1.540   3.226  0.00  0.00     0.045 A 
ENDROOT
TORSDOF 0
ENDMDL
