MODEL 1
REMARK minimizedAffinity 8.77404404
REMARK minimizedRMSD -1
REMARK  0 active torsions:
REMARK  status: ('A' for Active; 'I' for Inactive)
ROOT
ATOM      1  C   UNL d   1      -2.701   0.722   1.223  0.00  0.00    -0.002 A 
ATOM      2  C1  UNL d   1      -2.459   0.404   2.552  0.00  0.00     0.010 A 
ATOM      3  C2  UNL d   1      -1.188  -0.001   2.965  0.00  0.00     0.041 A 
ATOM      4  C3  UNL d   1      -0.155  -0.082   2.011  0.00  0.00    -0.075 A 
ATOM      5  S   UNL d   1       1.480  -0.554   2.287  0.00  0.00     0.015 SA
ATOM      6  C4  UNL d   1       1.896  -0.344   0.647  0.00  0.00     0.022 A 
ATOM      7  C5  UNL d   1       0.825   0.075  -0.107  0.00  0.00     0.026 A 
ATOM      8  C6  UNL d   1      -0.374   0.234   0.667  0.00  0.00    -0.082 A 
ATOM      9  C7  UNL d   1      -1.674   0.641   0.279  0.00  0.00     0.045 A 
ENDROOT
TORSDOF 0
ENDMDL
