MODEL 1
REMARK minimizedAffinity 6.09132624
REMARK minimizedRMSD -1
REMARK  0 active torsions:
REMARK  status: ('A' for Active; 'I' for Inactive)
ROOT
ATOM      1  C   UNL d   1      -3.215   0.017   0.936  0.00  0.00    -0.002 A 
ATOM      2  C1  UNL d   1      -2.338   0.029  -0.140  0.00  0.00     0.010 A 
ATOM      3  C2  UNL d   1      -0.981  -0.242   0.048  0.00  0.00     0.041 A 
ATOM      4  C3  UNL d   1      -0.516  -0.529   1.346  0.00  0.00    -0.075 A 
ATOM      5  S   UNL d   1       1.103  -0.891   1.814  0.00  0.00     0.015 SA
ATOM      6  C4  UNL d   1       0.669  -1.071   3.452  0.00  0.00     0.022 A 
ATOM      7  C5  UNL d   1      -0.674  -0.862   3.655  0.00  0.00     0.026 A 
ATOM      8  C6  UNL d   1      -1.380  -0.547   2.445  0.00  0.00    -0.082 A 
ATOM      9  C7  UNL d   1      -2.750  -0.268   2.222  0.00  0.00     0.045 A 
ENDROOT
TORSDOF 0
ENDMDL
