MODEL 1
REMARK minimizedAffinity 9.36162949
REMARK minimizedRMSD -1
REMARK  0 active torsions:
REMARK  status: ('A' for Active; 'I' for Inactive)
ROOT
ATOM      1  C   UNL d   1      -1.889  -1.148   4.447  0.00  0.00    -0.002 A 
ATOM      2  C1  UNL d   1      -3.080  -1.197   3.737  0.00  0.00     0.010 A 
ATOM      3  C2  UNL d   1      -3.089  -1.023   2.352  0.00  0.00     0.041 A 
ATOM      4  C3  UNL d   1      -1.868  -0.798   1.685  0.00  0.00    -0.075 A 
ATOM      5  S   UNL d   1      -1.636  -0.558  -0.006  0.00  0.00     0.015 SA
ATOM      6  C4  UNL d   1       0.050  -0.386   0.174  0.00  0.00     0.022 A 
ATOM      7  C5  UNL d   1       0.443  -0.505   1.486  0.00  0.00     0.026 A 
ATOM      8  C6  UNL d   1      -0.656  -0.745   2.379  0.00  0.00    -0.082 A 
ATOM      9  C7  UNL d   1      -0.680  -0.925   3.783  0.00  0.00     0.045 A 
ENDROOT
TORSDOF 0
ENDMDL
