MODEL 1
REMARK minimizedAffinity 1.2015059
REMARK minimizedRMSD -1
REMARK  0 active torsions:
REMARK  status: ('A' for Active; 'I' for Inactive)
ROOT
ATOM      1  C   UNL d   1      -0.474   1.700   3.432  0.00  0.00    -0.002 A 
ATOM      2  C1  UNL d   1      -1.004   0.464   3.776  0.00  0.00     0.010 A 
ATOM      3  C2  UNL d   1      -1.456  -0.415   2.789  0.00  0.00     0.041 A 
ATOM      4  C3  UNL d   1      -1.363  -0.027   1.438  0.00  0.00    -0.075 A 
ATOM      5  S   UNL d   1      -1.853  -0.940   0.059  0.00  0.00     0.015 SA
ATOM      6  C4  UNL d   1      -1.369   0.289  -1.019  0.00  0.00     0.022 A 
ATOM      7  C5  UNL d   1      -0.846   1.376  -0.360  0.00  0.00     0.026 A 
ATOM      8  C6  UNL d   1      -0.833   1.211   1.066  0.00  0.00    -0.082 A 
ATOM      9  C7  UNL d   1      -0.384   2.080   2.090  0.00  0.00     0.045 A 
ENDROOT
TORSDOF 0
ENDMDL
