MODEL 1
REMARK minimizedAffinity 14.3442535
REMARK minimizedRMSD -1
REMARK  0 active torsions:
REMARK  status: ('A' for Active; 'I' for Inactive)
ROOT
ATOM      1  C   UNL d   1      -3.042   0.145   0.262  0.00  0.00    -0.002 A 
ATOM      2  C1  UNL d   1      -2.703  -0.692  -0.792  0.00  0.00     0.010 A 
ATOM      3  C2  UNL d   1      -1.375  -1.068  -1.002  0.00  0.00     0.041 A 
ATOM      4  C3  UNL d   1      -0.383  -0.587  -0.124  0.00  0.00    -0.075 A 
ATOM      5  S   UNL d   1       1.308  -0.917  -0.185  0.00  0.00     0.015 SA
ATOM      6  C4  UNL d   1       1.620   0.044   1.188  0.00  0.00     0.022 A 
ATOM      7  C5  UNL d   1       0.474   0.610   1.693  0.00  0.00     0.026 A 
ATOM      8  C6  UNL d   1      -0.700   0.255   0.946  0.00  0.00    -0.082 A 
ATOM      9  C7  UNL d   1      -2.055   0.620   1.131  0.00  0.00     0.045 A 
ENDROOT
TORSDOF 0
ENDMDL
