MODEL 1
REMARK minimizedAffinity 0.393700093
REMARK minimizedRMSD -1
REMARK  1 active torsions:
REMARK  status: ('A' for Active; 'I' for Inactive)
REMARK    1  A    between atoms: C1_2  and  C2_3 
ROOT
ATOM      1  C2  UNL d   1       5.149   2.629  -0.951  0.00  0.00    -0.073 A 
ATOM      2  C3  UNL d   1       4.972   2.981   0.392  0.00  0.00    -0.002 A 
ATOM      3  C4  UNL d   1       4.188   2.189   1.232  0.00  0.00     0.004 A 
ATOM      4  C5  UNL d   1       3.580   1.033   0.740  0.00  0.00    -0.004 A 
ATOM      5  C6  UNL d   1       3.755   0.658  -0.595  0.00  0.00    -0.075 A 
ATOM      6  C7  UNL d   1       3.106  -0.581  -1.140  0.00  0.00     0.076 C 
ATOM      7  C8  UNL d   1       4.541   1.461  -1.433  0.00  0.00     0.001 A 
ENDROOT
BRANCH   1   8
ATOM      8  C1  UNL d   1       5.999   3.478  -1.859  0.00  0.00     0.053 C 
ATOM      9  C   UNL d   1       6.000   4.939  -1.438  0.00  0.00     0.018 C 
ENDBRANCH   1   8
TORSDOF 1
ENDMDL
