MODEL 1
REMARK minimizedAffinity -1.74234045
REMARK minimizedRMSD -1
REMARK  1 active torsions:
REMARK  status: ('A' for Active; 'I' for Inactive)
REMARK    1  A    between atoms: C1_2  and  C2_3 
ROOT
ATOM      1  C2  UNL d   1       4.700   1.258   0.191  0.00  0.00    -0.073 A 
ATOM      2  C3  UNL d   1       4.417   1.664  -1.118  0.00  0.00    -0.002 A 
ATOM      3  C4  UNL d   1       3.627   0.868  -1.948  0.00  0.00     0.004 A 
ATOM      4  C5  UNL d   1       3.107  -0.338  -1.476  0.00  0.00    -0.004 A 
ATOM      5  C6  UNL d   1       3.369  -0.755  -0.167  0.00  0.00    -0.075 A 
ATOM      6  C7  UNL d   1       2.819  -2.050   0.354  0.00  0.00     0.076 C 
ATOM      7  C8  UNL d   1       4.165   0.049   0.659  0.00  0.00     0.001 A 
ENDROOT
BRANCH   1   8
ATOM      8  C1  UNL d   1       5.547   2.118   1.093  0.00  0.00     0.053 C 
ATOM      9  C   UNL d   1       5.948   3.423   0.424  0.00  0.00     0.018 C 
ENDBRANCH   1   8
TORSDOF 1
ENDMDL
