MODEL 1
REMARK minimizedAffinity 3.95497251
REMARK minimizedRMSD -1
REMARK  1 active torsions:
REMARK  status: ('A' for Active; 'I' for Inactive)
REMARK    1  A    between atoms: C1_2  and  C2_3 
ROOT
ATOM      1  C2  UNL d   1       4.027   0.703  -0.896  0.00  0.00    -0.073 A 
ATOM      2  C3  UNL d   1       4.471   0.623  -2.221  0.00  0.00    -0.002 A 
ATOM      3  C4  UNL d   1       4.282  -0.547  -2.958  0.00  0.00     0.004 A 
ATOM      4  C5  UNL d   1       3.642  -1.644  -2.382  0.00  0.00    -0.004 A 
ATOM      5  C6  UNL d   1       3.181  -1.579  -1.064  0.00  0.00    -0.075 A 
ATOM      6  C7  UNL d   1       2.493  -2.752  -0.429  0.00  0.00     0.076 C 
ATOM      7  C8  UNL d   1       3.376  -0.402  -0.329  0.00  0.00     0.001 A 
ENDROOT
BRANCH   1   8
ATOM      8  C1  UNL d   1       4.223   1.966  -0.098  0.00  0.00     0.053 C 
ATOM      9  C   UNL d   1       5.692   2.251   0.167  0.00  0.00     0.018 C 
ENDBRANCH   1   8
TORSDOF 1
ENDMDL
