MODEL 1
REMARK minimizedAffinity 14.3051672
REMARK minimizedRMSD -1
REMARK  0 active torsions:
REMARK  status: ('A' for Active; 'I' for Inactive)
ROOT
ATOM      1  C   UNL d   1      -0.573   0.852   1.831  0.00  0.00     0.124 A 
ATOM      2  C1  UNL d   1      -1.508  -0.046   2.328  0.00  0.00     0.062 A 
ATOM      3  C2  UNL d   1      -2.641   0.419   2.989  0.00  0.00     0.162 A 
ATOM      4  C3  UNL d   1      -2.846   1.788   3.157  0.00  0.00    -0.034 A 
ATOM      5  C4  UNL d   1      -1.901   2.685   2.656  0.00  0.00     0.162 A 
ATOM      6  C5  UNL d   1      -0.770   2.216   1.995  0.00  0.00     0.062 A 
ATOM      7  F   UNL d   1       0.132   3.084   1.515  0.00  0.00    -0.097 F 
ATOM      8  F1  UNL d   1      -2.067   4.008   2.800  0.00  0.00    -0.096 F 
ATOM      9  I   UNL d   1      -4.539   2.487   4.146  0.00  0.00    -0.060 I 
ATOM     10  F2  UNL d   1      -3.528  -0.471   3.459  0.00  0.00    -0.096 F 
ATOM     11  F3  UNL d   1      -1.319  -1.364   2.171  0.00  0.00    -0.097 F 
ATOM     12  F4  UNL d   1       0.517   0.402   1.195  0.00  0.00    -0.092 F 
ENDROOT
TORSDOF 0
ENDMDL
