MODEL 1
REMARK minimizedAffinity -4.52263451
REMARK minimizedRMSD -1
REMARK  0 active torsions:
REMARK  status: ('A' for Active; 'I' for Inactive)
ROOT
ATOM      1  C   UNL d   1      -0.073  -0.348   0.821  0.00  0.00     0.124 A 
ATOM      2  C1  UNL d   1       0.066   0.902   1.409  0.00  0.00     0.062 A 
ATOM      3  C2  UNL d   1      -0.971   1.439   2.166  0.00  0.00     0.162 A 
ATOM      4  C3  UNL d   1      -2.157   0.725   2.341  0.00  0.00    -0.034 A 
ATOM      5  C4  UNL d   1      -2.290  -0.530   1.746  0.00  0.00     0.162 A 
ATOM      6  C5  UNL d   1      -1.250  -1.062   0.990  0.00  0.00     0.062 A 
ATOM      7  F   UNL d   1      -1.387  -2.270   0.423  0.00  0.00    -0.097 F 
ATOM      8  F1  UNL d   1      -3.416  -1.243   1.894  0.00  0.00    -0.096 F 
ATOM      9  I   UNL d   1      -3.710   1.524   3.473  0.00  0.00    -0.060 I 
ATOM     10  F2  UNL d   1      -0.809   2.648   2.723  0.00  0.00    -0.096 F 
ATOM     11  F3  UNL d   1       1.202   1.595   1.246  0.00  0.00    -0.097 F 
ATOM     12  F4  UNL d   1       0.926  -0.861   0.092  0.00  0.00    -0.092 F 
ENDROOT
TORSDOF 0
ENDMDL
