MODEL 1
REMARK minimizedAffinity -0.799330413
REMARK minimizedRMSD -1
REMARK  0 active torsions:
REMARK  status: ('A' for Active; 'I' for Inactive)
ROOT
ATOM      1  C   UNL d   1       0.386   0.078   0.973  0.00  0.00     0.124 A 
ATOM      2  C1  UNL d   1       0.237   1.458   1.006  0.00  0.00     0.062 A 
ATOM      3  C2  UNL d   1      -0.818   2.032   1.709  0.00  0.00     0.162 A 
ATOM      4  C3  UNL d   1      -1.733   1.226   2.387  0.00  0.00    -0.034 A 
ATOM      5  C4  UNL d   1      -1.577  -0.161   2.349  0.00  0.00     0.162 A 
ATOM      6  C5  UNL d   1      -0.521  -0.730   1.645  0.00  0.00     0.062 A 
ATOM      7  F   UNL d   1      -0.379  -2.063   1.615  0.00  0.00    -0.097 F 
ATOM      8  F1  UNL d   1      -2.439  -0.965   2.989  0.00  0.00    -0.096 F 
ATOM      9  I   UNL d   1      -3.312   2.080   3.439  0.00  0.00    -0.060 I 
ATOM     10  F2  UNL d   1      -0.937   3.368   1.723  0.00  0.00    -0.096 F 
ATOM     11  F3  UNL d   1       1.112   2.240   0.357  0.00  0.00    -0.097 F 
ATOM     12  F4  UNL d   1       1.402  -0.472   0.295  0.00  0.00    -0.092 F 
ENDROOT
TORSDOF 0
ENDMDL
