MODEL 1
REMARK minimizedAffinity 4.55314875
REMARK minimizedRMSD -1
REMARK  0 active torsions:
REMARK  status: ('A' for Active; 'I' for Inactive)
ROOT
ATOM      1  C   UNL d   1       0.337   0.152   1.138  0.00  0.00     0.124 A 
ATOM      2  C1  UNL d   1       0.173   1.530   1.081  0.00  0.00     0.062 A 
ATOM      3  C2  UNL d   1      -0.957   2.124   1.635  0.00  0.00     0.162 A 
ATOM      4  C3  UNL d   1      -1.932   1.341   2.252  0.00  0.00    -0.034 A 
ATOM      5  C4  UNL d   1      -1.761  -0.044   2.305  0.00  0.00     0.162 A 
ATOM      6  C5  UNL d   1      -0.630  -0.633   1.749  0.00  0.00     0.062 A 
ATOM      7  F   UNL d   1      -0.474  -1.963   1.805  0.00  0.00    -0.097 F 
ATOM      8  F1  UNL d   1      -2.680  -0.826   2.891  0.00  0.00    -0.096 F 
ATOM      9  I   UNL d   1      -3.624   2.225   3.082  0.00  0.00    -0.060 I 
ATOM     10  F2  UNL d   1      -1.089   3.457   1.565  0.00  0.00    -0.096 F 
ATOM     11  F3  UNL d   1       1.106   2.290   0.489  0.00  0.00    -0.097 F 
ATOM     12  F4  UNL d   1       1.425  -0.417   0.603  0.00  0.00    -0.092 F 
ENDROOT
TORSDOF 0
ENDMDL
