MODEL 1
REMARK minimizedAffinity 4.64043427
REMARK minimizedRMSD -1
REMARK  0 active torsions:
REMARK  status: ('A' for Active; 'I' for Inactive)
ROOT
ATOM      1  C   UNL d   1      -0.057  -0.065   1.370  0.00  0.00     0.124 A 
ATOM      2  C1  UNL d   1      -0.202   1.316   1.395  0.00  0.00     0.062 A 
ATOM      3  C2  UNL d   1      -1.253   1.896   2.098  0.00  0.00     0.162 A 
ATOM      4  C3  UNL d   1      -2.167   1.097   2.784  0.00  0.00    -0.034 A 
ATOM      5  C4  UNL d   1      -2.016  -0.290   2.754  0.00  0.00     0.162 A 
ATOM      6  C5  UNL d   1      -0.963  -0.866   2.049  0.00  0.00     0.062 A 
ATOM      7  F   UNL d   1      -0.825  -2.200   2.026  0.00  0.00    -0.097 F 
ATOM      8  F1  UNL d   1      -2.877  -1.089   3.402  0.00  0.00    -0.096 F 
ATOM      9  I   UNL d   1      -3.741   1.962   3.837  0.00  0.00    -0.060 I 
ATOM     10  F2  UNL d   1      -1.368   3.233   2.105  0.00  0.00    -0.096 F 
ATOM     11  F3  UNL d   1       0.673   2.092   0.739  0.00  0.00    -0.097 F 
ATOM     12  F4  UNL d   1       0.955  -0.621   0.691  0.00  0.00    -0.092 F 
ENDROOT
TORSDOF 0
ENDMDL
