MODEL 1
REMARK minimizedAffinity -0.555487871
REMARK minimizedRMSD -1
REMARK  0 active torsions:
REMARK  status: ('A' for Active; 'I' for Inactive)
ROOT
ATOM      1  C   UNL d   1      -1.214   3.087   1.881  0.00  0.00     0.124 A 
ATOM      2  C1  UNL d   1      -2.217   2.487   2.630  0.00  0.00     0.062 A 
ATOM      3  C2  UNL d   1      -2.176   1.120   2.889  0.00  0.00     0.162 A 
ATOM      4  C3  UNL d   1      -1.126   0.343   2.399  0.00  0.00    -0.034 A 
ATOM      5  C4  UNL d   1      -0.121   0.953   1.646  0.00  0.00     0.162 A 
ATOM      6  C5  UNL d   1      -0.167   2.319   1.390  0.00  0.00     0.062 A 
ATOM      7  F   UNL d   1       0.803   2.896   0.666  0.00  0.00    -0.097 F 
ATOM      8  F1  UNL d   1       0.902   0.235   1.160  0.00  0.00    -0.096 F 
ATOM      9  I   UNL d   1      -1.060  -1.701   2.784  0.00  0.00    -0.060 I 
ATOM     10  F2  UNL d   1      -3.159   0.568   3.615  0.00  0.00    -0.096 F 
ATOM     11  F3  UNL d   1      -3.230   3.226   3.105  0.00  0.00    -0.097 F 
ATOM     12  F4  UNL d   1      -1.257   4.402   1.632  0.00  0.00    -0.092 F 
ENDROOT
TORSDOF 0
ENDMDL
