MODEL 1
REMARK minimizedAffinity 2.56297994
REMARK minimizedRMSD -1
REMARK  0 active torsions:
REMARK  status: ('A' for Active; 'I' for Inactive)
ROOT
ATOM      1  C   UNL d   1      -1.717   1.709   2.398  0.00  0.00     0.124 A 
ATOM      2  C1  UNL d   1      -1.544   0.338   2.529  0.00  0.00     0.062 A 
ATOM      3  C2  UNL d   1      -0.373  -0.266   2.082  0.00  0.00     0.162 A 
ATOM      4  C3  UNL d   1       0.637   0.501   1.500  0.00  0.00    -0.034 A 
ATOM      5  C4  UNL d   1       0.455   1.879   1.370  0.00  0.00     0.162 A 
ATOM      6  C5  UNL d   1      -0.718   2.478   1.818  0.00  0.00     0.062 A 
ATOM      7  F   UNL d   1      -0.883   3.803   1.690  0.00  0.00    -0.097 F 
ATOM      8  F1  UNL d   1       1.405   2.646   0.815  0.00  0.00    -0.096 F 
ATOM      9  I   UNL d   1       2.390  -0.398   0.831  0.00  0.00    -0.060 I 
ATOM     10  F2  UNL d   1      -0.233  -1.593   2.223  0.00  0.00    -0.096 F 
ATOM     11  F3  UNL d   1      -2.509  -0.407   3.088  0.00  0.00    -0.097 F 
ATOM     12  F4  UNL d   1      -2.846   2.287   2.827  0.00  0.00    -0.092 F 
ENDROOT
TORSDOF 0
ENDMDL
