MODEL 1
REMARK minimizedAffinity 7.91434145
REMARK minimizedRMSD -1
REMARK  0 active torsions:
REMARK  status: ('A' for Active; 'I' for Inactive)
ROOT
ATOM      1  C   UNL d   1       0.200   0.003   1.288  0.00  0.00     0.124 A 
ATOM      2  C1  UNL d   1      -0.763  -0.809   1.872  0.00  0.00     0.062 A 
ATOM      3  C2  UNL d   1      -1.814  -0.243   2.588  0.00  0.00     0.162 A 
ATOM      4  C3  UNL d   1      -1.910   1.142   2.723  0.00  0.00    -0.034 A 
ATOM      5  C4  UNL d   1      -0.937   1.951   2.133  0.00  0.00     0.162 A 
ATOM      6  C5  UNL d   1       0.112   1.382   1.419  0.00  0.00     0.062 A 
ATOM      7  F   UNL d   1       1.041   2.167   0.855  0.00  0.00    -0.097 F 
ATOM      8  F1  UNL d   1      -0.998   3.287   2.243  0.00  0.00    -0.096 F 
ATOM      9  I   UNL d   1      -3.480   1.991   3.792  0.00  0.00    -0.060 I 
ATOM     10  F2  UNL d   1      -2.730  -1.052   3.142  0.00  0.00    -0.096 F 
ATOM     11  F3  UNL d   1      -0.680  -2.141   1.748  0.00  0.00    -0.097 F 
ATOM     12  F4  UNL d   1       1.211  -0.544   0.600  0.00  0.00    -0.092 F 
ENDROOT
TORSDOF 0
ENDMDL
