MODEL 1
REMARK minimizedAffinity 10.5438585
REMARK minimizedRMSD -1
REMARK  0 active torsions:
REMARK  status: ('A' for Active; 'I' for Inactive)
ROOT
ATOM      1  C   UNL d   1      -0.512   3.103   1.647  0.00  0.00     0.124 A 
ATOM      2  C1  UNL d   1       0.463   2.184   1.286  0.00  0.00     0.062 A 
ATOM      3  C2  UNL d   1       0.240   0.821   1.461  0.00  0.00     0.162 A 
ATOM      4  C3  UNL d   1      -0.965   0.369   1.999  0.00  0.00    -0.034 A 
ATOM      5  C4  UNL d   1      -1.941   1.299   2.360  0.00  0.00     0.162 A 
ATOM      6  C5  UNL d   1      -1.713   2.660   2.184  0.00  0.00     0.062 A 
ATOM      7  F   UNL d   1      -2.656   3.546   2.533  0.00  0.00    -0.097 F 
ATOM      8  F1  UNL d   1      -3.111   0.898   2.880  0.00  0.00    -0.096 F 
ATOM      9  I   UNL d   1      -1.303  -1.668   2.261  0.00  0.00    -0.060 I 
ATOM     10  F2  UNL d   1       1.200  -0.045   1.103  0.00  0.00    -0.096 F 
ATOM     11  F3  UNL d   1       1.625   2.609   0.769  0.00  0.00    -0.097 F 
ATOM     12  F4  UNL d   1      -0.294   4.413   1.479  0.00  0.00    -0.092 F 
ENDROOT
TORSDOF 0
ENDMDL
