MODEL 1
REMARK minimizedAffinity 1.95970047
REMARK minimizedRMSD -1
REMARK  0 active torsions:
REMARK  status: ('A' for Active; 'I' for Inactive)
ROOT
ATOM      1  C   UNL d   1      -0.385   0.431   1.351  0.00  0.00     0.124 A 
ATOM      2  C1  UNL d   1      -1.467  -0.355   1.720  0.00  0.00     0.062 A 
ATOM      3  C2  UNL d   1      -2.501   0.188   2.477  0.00  0.00     0.162 A 
ATOM      4  C3  UNL d   1      -2.459   1.525   2.870  0.00  0.00    -0.034 A 
ATOM      5  C4  UNL d   1      -1.366   2.310   2.496  0.00  0.00     0.162 A 
ATOM      6  C5  UNL d   1      -0.335   1.763   1.739  0.00  0.00     0.062 A 
ATOM      7  F   UNL d   1       0.710   2.524   1.384  0.00  0.00    -0.097 F 
ATOM      8  F1  UNL d   1      -1.293   3.600   2.856  0.00  0.00    -0.096 F 
ATOM      9  I   UNL d   1      -4.003   2.341   4.002  0.00  0.00    -0.060 I 
ATOM     10  F2  UNL d   1      -3.535  -0.596   2.820  0.00  0.00    -0.096 F 
ATOM     11  F3  UNL d   1      -1.517  -1.642   1.347  0.00  0.00    -0.097 F 
ATOM     12  F4  UNL d   1       0.609  -0.094   0.623  0.00  0.00    -0.092 F 
ENDROOT
TORSDOF 0
ENDMDL
