MODEL 1
REMARK minimizedAffinity -3.2763021
REMARK minimizedRMSD -1
REMARK  0 active torsions:
REMARK  status: ('A' for Active; 'I' for Inactive)
ROOT
ATOM      1  C   UNL d   1       0.258  -0.160   0.936  0.00  0.00     0.124 A 
ATOM      2  C1  UNL d   1      -0.710  -0.975   1.504  0.00  0.00     0.062 A 
ATOM      3  C2  UNL d   1      -1.824  -0.413   2.122  0.00  0.00     0.162 A 
ATOM      4  C3  UNL d   1      -1.976   0.972   2.173  0.00  0.00    -0.034 A 
ATOM      5  C4  UNL d   1      -0.997   1.786   1.600  0.00  0.00     0.162 A 
ATOM      6  C5  UNL d   1       0.114   1.220   0.984  0.00  0.00     0.062 A 
ATOM      7  F   UNL d   1       1.049   2.009   0.435  0.00  0.00    -0.097 F 
ATOM      8  F1  UNL d   1      -1.112   3.122   1.631  0.00  0.00    -0.096 F 
ATOM      9  I   UNL d   1      -3.640   1.816   3.095  0.00  0.00    -0.060 I 
ATOM     10  F2  UNL d   1      -2.744  -1.226   2.663  0.00  0.00    -0.096 F 
ATOM     11  F3  UNL d   1      -0.572  -2.308   1.460  0.00  0.00    -0.097 F 
ATOM     12  F4  UNL d   1       1.330  -0.703   0.343  0.00  0.00    -0.092 F 
ENDROOT
TORSDOF 0
ENDMDL
