MODEL 1
REMARK minimizedAffinity 3.37404513
REMARK minimizedRMSD -1
REMARK  0 active torsions:
REMARK  status: ('A' for Active; 'I' for Inactive)
ROOT
ATOM      1  C   UNL d   1       0.076   0.352   1.266  0.00  0.00     0.124 A 
ATOM      2  C1  UNL d   1      -0.813  -0.514   1.888  0.00  0.00     0.062 A 
ATOM      3  C2  UNL d   1      -1.876  -0.011   2.632  0.00  0.00     0.162 A 
ATOM      4  C3  UNL d   1      -2.056   1.366   2.759  0.00  0.00    -0.034 A 
ATOM      5  C4  UNL d   1      -1.158   2.231   2.132  0.00  0.00     0.162 A 
ATOM      6  C5  UNL d   1      -0.097   1.723   1.389  0.00  0.00     0.062 A 
ATOM      7  F   UNL d   1       0.761   2.561   0.789  0.00  0.00    -0.097 F 
ATOM      8  F1  UNL d   1      -1.302   3.561   2.233  0.00  0.00    -0.096 F 
ATOM      9  I   UNL d   1      -3.644   2.123   3.872  0.00  0.00    -0.060 I 
ATOM     10  F2  UNL d   1      -2.719  -0.871   3.222  0.00  0.00    -0.096 F 
ATOM     11  F3  UNL d   1      -0.647  -1.840   1.772  0.00  0.00    -0.097 F 
ATOM     12  F4  UNL d   1       1.098  -0.135   0.551  0.00  0.00    -0.092 F 
ENDROOT
TORSDOF 0
ENDMDL
