MODEL 1
REMARK minimizedAffinity 2.2214458
REMARK minimizedRMSD -1
REMARK  0 active torsions:
REMARK  status: ('A' for Active; 'I' for Inactive)
ROOT
ATOM      1  C   UNL d   1       1.371  -4.387  -3.667  0.00  0.00     0.124 A 
ATOM      2  C1  UNL d   1       1.061  -4.270  -2.319  0.00  0.00     0.062 A 
ATOM      3  C2  UNL d   1      -0.183  -3.786  -1.926  0.00  0.00     0.162 A 
ATOM      4  C3  UNL d   1      -1.129  -3.417  -2.883  0.00  0.00    -0.034 A 
ATOM      5  C4  UNL d   1      -0.809  -3.536  -4.237  0.00  0.00     0.162 A 
ATOM      6  C5  UNL d   1       0.436  -4.020  -4.624  0.00  0.00     0.062 A 
ATOM      7  F   UNL d   1       0.734  -4.132  -5.927  0.00  0.00    -0.097 F 
ATOM      8  F1  UNL d   1      -1.694  -3.189  -5.183  0.00  0.00    -0.096 F 
ATOM      9  I   UNL d   1      -2.991  -2.693  -2.300  0.00  0.00    -0.060 I 
ATOM     10  F2  UNL d   1      -0.456  -3.684  -0.617  0.00  0.00    -0.096 F 
ATOM     11  F3  UNL d   1       1.963  -4.623  -1.392  0.00  0.00    -0.097 F 
ATOM     12  F4  UNL d   1       2.570  -4.852  -4.041  0.00  0.00    -0.092 F 
ENDROOT
TORSDOF 0
ENDMDL
