MODEL 1
REMARK minimizedAffinity -2.16423297
REMARK minimizedRMSD -1
REMARK  0 active torsions:
REMARK  status: ('A' for Active; 'I' for Inactive)
ROOT
ATOM      1  C   UNL d   1       0.237   0.408   1.165  0.00  0.00     0.124 A 
ATOM      2  C1  UNL d   1      -0.673  -0.460   1.752  0.00  0.00     0.062 A 
ATOM      3  C2  UNL d   1      -1.832   0.036   2.343  0.00  0.00     0.162 A 
ATOM      4  C3  UNL d   1      -2.088   1.407   2.348  0.00  0.00    -0.034 A 
ATOM      5  C4  UNL d   1      -1.168   2.273   1.756  0.00  0.00     0.162 A 
ATOM      6  C5  UNL d   1      -0.011   1.773   1.167  0.00  0.00     0.062 A 
ATOM      7  F   UNL d   1       0.867   2.613   0.600  0.00  0.00    -0.097 F 
ATOM      8  F1  UNL d   1      -1.383   3.597   1.744  0.00  0.00    -0.096 F 
ATOM      9  I   UNL d   1      -3.820   2.152   3.231  0.00  0.00    -0.060 I 
ATOM     10  F2  UNL d   1      -2.694  -0.826   2.904  0.00  0.00    -0.096 F 
ATOM     11  F3  UNL d   1      -0.435  -1.779   1.752  0.00  0.00    -0.097 F 
ATOM     12  F4  UNL d   1       1.352  -0.071   0.598  0.00  0.00    -0.092 F 
ENDROOT
TORSDOF 0
ENDMDL
