MODEL 1
REMARK minimizedAffinity 6.41350317
REMARK minimizedRMSD -1
REMARK  0 active torsions:
REMARK  status: ('A' for Active; 'I' for Inactive)
ROOT
ATOM      1  C   UNL d   1      -0.262   0.766   1.416  0.00  0.00     0.124 A 
ATOM      2  C1  UNL d   1      -0.652   2.098   1.413  0.00  0.00     0.062 A 
ATOM      3  C2  UNL d   1      -1.769   2.502   2.139  0.00  0.00     0.162 A 
ATOM      4  C3  UNL d   1      -2.503   1.572   2.876  0.00  0.00    -0.034 A 
ATOM      5  C4  UNL d   1      -2.104   0.234   2.874  0.00  0.00     0.162 A 
ATOM      6  C5  UNL d   1      -0.987  -0.164   2.146  0.00  0.00     0.062 A 
ATOM      7  F   UNL d   1      -0.612  -1.451   2.151  0.00  0.00    -0.097 F 
ATOM      8  F1  UNL d   1      -2.787  -0.685   3.572  0.00  0.00    -0.096 F 
ATOM      9  I   UNL d   1      -4.173   2.172   3.964  0.00  0.00    -0.060 I 
ATOM     10  F2  UNL d   1      -2.123   3.795   2.118  0.00  0.00    -0.096 F 
ATOM     11  F3  UNL d   1       0.047   2.999   0.707  0.00  0.00    -0.097 F 
ATOM     12  F4  UNL d   1       0.813   0.380   0.715  0.00  0.00    -0.092 F 
ENDROOT
TORSDOF 0
ENDMDL
