MODEL 1
REMARK minimizedAffinity 10.0312099
REMARK minimizedRMSD -1
REMARK  0 active torsions:
REMARK  status: ('A' for Active; 'I' for Inactive)
ROOT
ATOM      1  C   UNL d   1      -0.727   1.667   3.280  0.00  0.00     0.077 C 
ATOM      2  C1  UNL d   1       0.041   0.455   2.846  0.00  0.00    -0.074 A 
ATOM      3  C2  UNL d   1       1.414   0.348   3.092  0.00  0.00    -0.005 A 
ATOM      4  C3  UNL d   1       2.114  -0.790   2.692  0.00  0.00     0.006 A 
ATOM      5  C4  UNL d   1       1.450  -1.831   2.042  0.00  0.00    -0.005 A 
ATOM      6  C5  UNL d   1       0.077  -1.742   1.788  0.00  0.00    -0.074 A 
ATOM      7  C6  UNL d   1      -0.654  -2.856   1.099  0.00  0.00     0.077 C 
ATOM      8  C7  UNL d   1      -0.620  -0.599   2.200  0.00  0.00    -0.001 A 
ENDROOT
TORSDOF 0
ENDMDL
