MODEL 1
REMARK minimizedAffinity 6.09604406
REMARK minimizedRMSD -1
REMARK  0 active torsions:
REMARK  status: ('A' for Active; 'I' for Inactive)
ROOT
ATOM      1  C   UNL d   1      -4.613  -0.849   0.365  0.00  0.00     0.077 C 
ATOM      2  C1  UNL d   1      -3.203  -1.122  -0.068  0.00  0.00    -0.074 A 
ATOM      3  C2  UNL d   1      -2.859  -1.142  -1.424  0.00  0.00    -0.005 A 
ATOM      4  C3  UNL d   1      -1.542  -1.388  -1.811  0.00  0.00     0.006 A 
ATOM      5  C4  UNL d   1      -0.557  -1.616  -0.849  0.00  0.00    -0.005 A 
ATOM      6  C5  UNL d   1      -0.883  -1.598   0.511  0.00  0.00    -0.074 A 
ATOM      7  C6  UNL d   1       0.165  -1.831   1.559  0.00  0.00     0.077 C 
ATOM      8  C7  UNL d   1      -2.207  -1.344   0.893  0.00  0.00    -0.001 A 
ENDROOT
TORSDOF 0
ENDMDL
