MODEL 1
REMARK minimizedAffinity 4.60685062
REMARK minimizedRMSD -1
REMARK  0 active torsions:
REMARK  status: ('A' for Active; 'I' for Inactive)
ROOT
ATOM      1  C   UNL d   1      -1.012   1.711   3.242  0.00  0.00     0.077 C 
ATOM      2  C1  UNL d   1      -0.141   0.687   2.577  0.00  0.00    -0.074 A 
ATOM      3  C2  UNL d   1       1.166   0.999   2.187  0.00  0.00    -0.005 A 
ATOM      4  C3  UNL d   1       1.968   0.033   1.578  0.00  0.00     0.006 A 
ATOM      5  C4  UNL d   1       1.472  -1.251   1.352  0.00  0.00    -0.005 A 
ATOM      6  C5  UNL d   1       0.168  -1.582   1.736  0.00  0.00    -0.074 A 
ATOM      7  C6  UNL d   1      -0.377  -2.960   1.509  0.00  0.00     0.077 C 
ATOM      8  C7  UNL d   1      -0.629  -0.608   2.354  0.00  0.00    -0.001 A 
ENDROOT
TORSDOF 0
ENDMDL
