MODEL 1
REMARK minimizedAffinity -2.65400481
REMARK minimizedRMSD -1
REMARK  0 active torsions:
REMARK  status: ('A' for Active; 'I' for Inactive)
ROOT
ATOM      1  C   UNL d   1       4.143   1.153   5.991  0.00  0.00     0.077 C 
ATOM      2  C1  UNL d   1       4.432   2.624   5.947  0.00  0.00    -0.074 A 
ATOM      3  C2  UNL d   1       5.746   3.100   5.999  0.00  0.00    -0.005 A 
ATOM      4  C3  UNL d   1       6.000   4.471   5.948  0.00  0.00     0.006 A 
ATOM      5  C4  UNL d   1       4.944   5.378   5.844  0.00  0.00    -0.005 A 
ATOM      6  C5  UNL d   1       3.624   4.920   5.789  0.00  0.00    -0.074 A 
ATOM      7  C6  UNL d   1       2.479   5.880   5.667  0.00  0.00     0.077 C 
ATOM      8  C7  UNL d   1       3.377   3.541   5.834  0.00  0.00    -0.001 A 
ENDROOT
TORSDOF 0
ENDMDL
