MODEL 1
REMARK minimizedAffinity -0.64185071
REMARK minimizedRMSD -1
REMARK  0 active torsions:
REMARK  status: ('A' for Active; 'I' for Inactive)
ROOT
ATOM      1  C   UNL d   1      -5.998   5.947   2.672  0.00  0.00     0.077 C 
ATOM      2  C1  UNL d   1      -5.111   5.476   1.558  0.00  0.00    -0.074 A 
ATOM      3  C2  UNL d   1      -4.069   4.575   1.801  0.00  0.00    -0.005 A 
ATOM      4  C3  UNL d   1      -3.258   4.139   0.753  0.00  0.00     0.006 A 
ATOM      5  C4  UNL d   1      -3.480   4.599  -0.545  0.00  0.00    -0.005 A 
ATOM      6  C5  UNL d   1      -4.517   5.499  -0.807  0.00  0.00    -0.074 A 
ATOM      7  C6  UNL d   1      -4.776   5.995  -2.199  0.00  0.00     0.077 C 
ATOM      8  C7  UNL d   1      -5.332   5.927   0.250  0.00  0.00    -0.001 A 
ENDROOT
TORSDOF 0
ENDMDL
