MODEL 1
REMARK minimizedAffinity 8.12471867
REMARK minimizedRMSD -1
REMARK  0 active torsions:
REMARK  status: ('A' for Active; 'I' for Inactive)
ROOT
ATOM      1  C   UNL d   1       3.226   1.315   5.976  0.00  0.00     0.077 C 
ATOM      2  C1  UNL d   1       3.304   2.812   5.958  0.00  0.00    -0.074 A 
ATOM      3  C2  UNL d   1       2.144   3.593   5.994  0.00  0.00    -0.005 A 
ATOM      4  C3  UNL d   1       2.233   4.985   5.986  0.00  0.00     0.006 A 
ATOM      5  C4  UNL d   1       3.480   5.609   5.942  0.00  0.00    -0.005 A 
ATOM      6  C5  UNL d   1       4.651   4.845   5.907  0.00  0.00    -0.074 A 
ATOM      7  C6  UNL d   1       6.000   5.500   5.870  0.00  0.00     0.077 C 
ATOM      8  C7  UNL d   1       4.554   3.447   5.922  0.00  0.00    -0.001 A 
ENDROOT
TORSDOF 0
ENDMDL
