MODEL 1
REMARK minimizedAffinity 12.9324045
REMARK minimizedRMSD -1
REMARK  0 active torsions:
REMARK  status: ('A' for Active; 'I' for Inactive)
ROOT
ATOM      1  C   UNL d   1      -5.547   6.000  -5.252  0.00  0.00     0.077 C 
ATOM      2  C1  UNL d   1      -5.177   4.546  -5.264  0.00  0.00    -0.074 A 
ATOM      3  C2  UNL d   1      -5.932   3.619  -5.990  0.00  0.00    -0.005 A 
ATOM      4  C3  UNL d   1      -5.571   2.272  -5.999  0.00  0.00     0.006 A 
ATOM      5  C4  UNL d   1      -4.453   1.839  -5.285  0.00  0.00    -0.005 A 
ATOM      6  C5  UNL d   1      -3.685   2.752  -4.555  0.00  0.00    -0.074 A 
ATOM      7  C6  UNL d   1      -2.475   2.305  -3.790  0.00  0.00     0.077 C 
ATOM      8  C7  UNL d   1      -4.051   4.105  -4.556  0.00  0.00    -0.001 A 
ENDROOT
TORSDOF 0
ENDMDL
