MODEL 1
REMARK minimizedAffinity 16.0309944
REMARK minimizedRMSD -1
REMARK  0 active torsions:
REMARK  status: ('A' for Active; 'I' for Inactive)
ROOT
ATOM      1  C   UNL d   1      -1.575  -1.985  -3.432  0.00  0.00     0.077 C 
ATOM      2  C1  UNL d   1      -1.913  -1.921  -1.972  0.00  0.00    -0.074 A 
ATOM      3  C2  UNL d   1      -1.268  -2.748  -1.048  0.00  0.00    -0.005 A 
ATOM      4  C3  UNL d   1      -1.587  -2.671   0.308  0.00  0.00     0.006 A 
ATOM      5  C4  UNL d   1      -2.553  -1.767   0.752  0.00  0.00    -0.005 A 
ATOM      6  C5  UNL d   1      -3.208  -0.931  -0.158  0.00  0.00    -0.074 A 
ATOM      7  C6  UNL d   1      -4.242   0.053   0.304  0.00  0.00     0.077 C 
ATOM      8  C7  UNL d   1      -2.877  -1.010  -1.517  0.00  0.00    -0.001 A 
ENDROOT
TORSDOF 0
ENDMDL
