MODEL 1
REMARK minimizedAffinity 10.7424288
REMARK minimizedRMSD -1
REMARK  0 active torsions:
REMARK  status: ('A' for Active; 'I' for Inactive)
ROOT
ATOM      1  C   UNL d   1       6.000   2.496  -5.140  0.00  0.00     0.077 C 
ATOM      2  C1  UNL d   1       5.439   1.313  -4.409  0.00  0.00    -0.074 A 
ATOM      3  C2  UNL d   1       5.999   0.041  -4.566  0.00  0.00    -0.005 A 
ATOM      4  C3  UNL d   1       5.473  -1.049  -3.872  0.00  0.00     0.006 A 
ATOM      5  C4  UNL d   1       4.384  -0.878  -3.015  0.00  0.00    -0.005 A 
ATOM      6  C5  UNL d   1       3.813   0.387  -2.846  0.00  0.00    -0.074 A 
ATOM      7  C6  UNL d   1       2.649   0.591  -1.922  0.00  0.00     0.077 C 
ATOM      8  C7  UNL d   1       4.351   1.478  -3.541  0.00  0.00    -0.001 A 
ENDROOT
TORSDOF 0
ENDMDL
