MODEL 1
REMARK minimizedAffinity 13.0380316
REMARK minimizedRMSD -1
REMARK  0 active torsions:
REMARK  status: ('A' for Active; 'I' for Inactive)
ROOT
ATOM      1  C   UNL d   1       5.999   2.244  -4.573  0.00  0.00     0.077 C 
ATOM      2  C1  UNL d   1       5.415   1.032  -3.910  0.00  0.00    -0.074 A 
ATOM      3  C2  UNL d   1       5.993  -0.230  -4.081  0.00  0.00    -0.005 A 
ATOM      4  C3  UNL d   1       5.444  -1.346  -3.451  0.00  0.00     0.006 A 
ATOM      5  C4  UNL d   1       4.313  -1.212  -2.644  0.00  0.00    -0.005 A 
ATOM      6  C5  UNL d   1       3.722   0.042  -2.461  0.00  0.00    -0.074 A 
ATOM      7  C6  UNL d   1       2.512   0.205  -1.590  0.00  0.00     0.077 C 
ATOM      8  C7  UNL d   1       4.284   1.160  -3.092  0.00  0.00    -0.001 A 
ENDROOT
TORSDOF 0
ENDMDL
