MODEL 1
REMARK minimizedAffinity 7.41133881
REMARK minimizedRMSD -1
REMARK  0 active torsions:
REMARK  status: ('A' for Active; 'I' for Inactive)
ROOT
ATOM      1  C   UNL d   1      -1.530   3.018  -4.495  0.00  0.00     0.077 C 
ATOM      2  C1  UNL d   1      -2.956   3.323  -4.845  0.00  0.00    -0.074 A 
ATOM      3  C2  UNL d   1      -3.687   2.478  -5.687  0.00  0.00    -0.005 A 
ATOM      4  C3  UNL d   1      -5.015   2.771  -5.996  0.00  0.00     0.006 A 
ATOM      5  C4  UNL d   1      -5.626   3.909  -5.468  0.00  0.00    -0.005 A 
ATOM      6  C5  UNL d   1      -4.911   4.765  -4.624  0.00  0.00    -0.074 A 
ATOM      7  C6  UNL d   1      -5.555   5.987  -4.040  0.00  0.00     0.077 C 
ATOM      8  C7  UNL d   1      -3.579   4.461  -4.312  0.00  0.00    -0.001 A 
ENDROOT
TORSDOF 0
ENDMDL
