MODEL 1
REMARK minimizedAffinity 10.8761959
REMARK minimizedRMSD -1
REMARK  0 active torsions:
REMARK  status: ('A' for Active; 'I' for Inactive)
ROOT
ATOM      1  C   UNL d   1       0.102  -5.983   3.429  0.00  0.00     0.077 C 
ATOM      2  C1  UNL d   1      -0.354  -5.277   2.186  0.00  0.00    -0.074 A 
ATOM      3  C2  UNL d   1      -0.875  -5.992   1.104  0.00  0.00    -0.005 A 
ATOM      4  C3  UNL d   1      -1.303  -5.321  -0.042  0.00  0.00     0.006 A 
ATOM      5  C4  UNL d   1      -1.215  -3.930  -0.116  0.00  0.00    -0.005 A 
ATOM      6  C5  UNL d   1      -0.697  -3.198   0.957  0.00  0.00    -0.074 A 
ATOM      7  C6  UNL d   1      -0.604  -1.703   0.898  0.00  0.00     0.077 C 
ATOM      8  C7  UNL d   1      -0.275  -3.879   2.108  0.00  0.00    -0.001 A 
ENDROOT
TORSDOF 0
ENDMDL
