MODEL 1
REMARK minimizedAffinity 14.218524
REMARK minimizedRMSD -1
REMARK  0 active torsions:
REMARK  status: ('A' for Active; 'I' for Inactive)
ROOT
ATOM      1  C   UNL d   1      -0.748  -4.832  -0.393  0.00  0.00     0.077 C 
ATOM      2  C1  UNL d   1      -1.069  -3.453   0.103  0.00  0.00    -0.074 A 
ATOM      3  C2  UNL d   1      -1.366  -2.419  -0.790  0.00  0.00    -0.005 A 
ATOM      4  C3  UNL d   1      -1.672  -1.144  -0.313  0.00  0.00     0.006 A 
ATOM      5  C4  UNL d   1      -1.685  -0.891   1.059  0.00  0.00    -0.005 A 
ATOM      6  C5  UNL d   1      -1.392  -1.914   1.967  0.00  0.00    -0.074 A 
ATOM      7  C6  UNL d   1      -1.411  -1.661   3.446  0.00  0.00     0.077 C 
ATOM      8  C7  UNL d   1      -1.092  -3.193   1.481  0.00  0.00    -0.001 A 
ENDROOT
TORSDOF 0
ENDMDL
