MODEL 1
REMARK minimizedAffinity 8.58222103
REMARK minimizedRMSD -1
REMARK  0 active torsions:
REMARK  status: ('A' for Active; 'I' for Inactive)
ROOT
ATOM      1  C   UNL d   1      -0.751  -1.736   0.924  0.00  0.00     0.077 C 
ATOM      2  C1  UNL d   1      -2.237  -1.591   0.782  0.00  0.00    -0.074 A 
ATOM      3  C2  UNL d   1      -2.793  -0.486   0.129  0.00  0.00    -0.005 A 
ATOM      4  C3  UNL d   1      -4.176  -0.370  -0.004  0.00  0.00     0.006 A 
ATOM      5  C4  UNL d   1      -5.017  -1.356   0.514  0.00  0.00    -0.005 A 
ATOM      6  C5  UNL d   1      -4.480  -2.468   1.170  0.00  0.00    -0.074 A 
ATOM      7  C6  UNL d   1      -5.369  -3.542   1.724  0.00  0.00     0.077 C 
ATOM      8  C7  UNL d   1      -3.088  -2.581   1.293  0.00  0.00    -0.001 A 
ENDROOT
TORSDOF 0
ENDMDL
