MODEL 1
REMARK minimizedAffinity 15.3027086
REMARK minimizedRMSD -1
REMARK  0 active torsions:
REMARK  status: ('A' for Active; 'I' for Inactive)
ROOT
ATOM      1  C   UNL d   1      -1.416  -1.629   3.728  0.00  0.00     0.077 C 
ATOM      2  C1  UNL d   1      -1.348  -1.914   2.257  0.00  0.00    -0.074 A 
ATOM      3  C2  UNL d   1      -1.436  -0.880   1.319  0.00  0.00    -0.005 A 
ATOM      4  C3  UNL d   1      -1.362  -1.159  -0.045  0.00  0.00     0.006 A 
ATOM      5  C4  UNL d   1      -1.197  -2.472  -0.486  0.00  0.00    -0.005 A 
ATOM      6  C5  UNL d   1      -1.106  -3.520   0.437  0.00  0.00    -0.074 A 
ATOM      7  C6  UNL d   1      -0.919  -4.936  -0.019  0.00  0.00     0.077 C 
ATOM      8  C7  UNL d   1      -1.175  -3.230   1.806  0.00  0.00    -0.001 A 
ENDROOT
TORSDOF 0
ENDMDL
