MODEL 1
REMARK minimizedAffinity 17.1777611
REMARK minimizedRMSD -1
REMARK  0 active torsions:
REMARK  status: ('A' for Active; 'I' for Inactive)
ROOT
ATOM      1  C   UNL d   1      -3.103   5.095  -3.026  0.00  0.00     0.077 C 
ATOM      2  C1  UNL d   1      -2.482   4.204  -4.060  0.00  0.00    -0.074 A 
ATOM      3  C2  UNL d   1      -3.264   3.320  -4.811  0.00  0.00    -0.005 A 
ATOM      4  C3  UNL d   1      -2.673   2.505  -5.776  0.00  0.00     0.006 A 
ATOM      5  C4  UNL d   1      -1.297   2.564  -6.000  0.00  0.00    -0.005 A 
ATOM      6  C5  UNL d   1      -0.499   3.442  -5.259  0.00  0.00    -0.074 A 
ATOM      7  C6  UNL d   1       0.980   3.525  -5.494  0.00  0.00     0.077 C 
ATOM      8  C7  UNL d   1      -1.101   4.264  -4.296  0.00  0.00    -0.001 A 
ENDROOT
TORSDOF 0
ENDMDL
