MODEL 1
REMARK minimizedAffinity 10.8246593
REMARK minimizedRMSD -1
REMARK  0 active torsions:
REMARK  status: ('A' for Active; 'I' for Inactive)
ROOT
ATOM      1  C   UNL d   1      -3.184  -3.902   5.941  0.00  0.00     0.077 C 
ATOM      2  C1  UNL d   1      -2.404  -2.621   5.958  0.00  0.00    -0.074 A 
ATOM      3  C2  UNL d   1      -1.005  -2.632   5.994  0.00  0.00    -0.005 A 
ATOM      4  C3  UNL d   1      -0.293  -1.434   6.000  0.00  0.00     0.006 A 
ATOM      5  C4  UNL d   1      -0.969  -0.214   5.971  0.00  0.00    -0.005 A 
ATOM      6  C5  UNL d   1      -2.367  -0.183   5.934  0.00  0.00    -0.074 A 
ATOM      7  C6  UNL d   1      -3.109   1.120   5.893  0.00  0.00     0.077 C 
ATOM      8  C7  UNL d   1      -3.076  -1.392   5.921  0.00  0.00    -0.001 A 
ENDROOT
TORSDOF 0
ENDMDL
