MODEL 1
REMARK minimizedAffinity 10.1481934
REMARK minimizedRMSD -1
REMARK  0 active torsions:
REMARK  status: ('A' for Active; 'I' for Inactive)
ROOT
ATOM      1  C   UNL d   1      -2.393   1.246   5.986  0.00  0.00     0.077 C 
ATOM      2  C1  UNL d   1      -2.149  -0.234   5.970  0.00  0.00    -0.074 A 
ATOM      3  C2  UNL d   1      -0.849  -0.749   5.955  0.00  0.00    -0.005 A 
ATOM      4  C3  UNL d   1      -0.638  -2.127   5.950  0.00  0.00     0.006 A 
ATOM      5  C4  UNL d   1      -1.724  -3.004   5.960  0.00  0.00    -0.005 A 
ATOM      6  C5  UNL d   1      -3.031  -2.508   5.976  0.00  0.00    -0.074 A 
ATOM      7  C6  UNL d   1      -4.209  -3.436   5.996  0.00  0.00     0.077 C 
ATOM      8  C7  UNL d   1      -3.235  -1.121   5.988  0.00  0.00    -0.001 A 
ENDROOT
TORSDOF 0
ENDMDL
