MODEL 1
REMARK minimizedAffinity -3.54221368
REMARK minimizedRMSD -1
REMARK  1 active torsions:
REMARK  status: ('A' for Active; 'I' for Inactive)
REMARK    1  A    between atoms: C3_4  and  O_7 
ROOT
ATOM      1  C   UNL d   1      -0.517  -1.279   0.677  0.00  0.00    -0.033 A 
ATOM      2  C1  UNL d   1       0.230  -1.981  -0.271  0.00  0.00     0.039 A 
ATOM      3  C2  UNL d   1       1.122  -1.300  -1.102  0.00  0.00    -0.080 A 
ATOM      4  C3  UNL d   1       1.260   0.079  -0.973  0.00  0.00     0.150 A 
ATOM      5  C4  UNL d   1       0.522   0.784  -0.028  0.00  0.00    -0.007 A 
ATOM      6  C5  UNL d   1      -0.370   0.103   0.800  0.00  0.00     0.039 A 
ENDROOT
BRANCH   4   7
ATOM      7  O   UNL d   1       2.115   0.787  -1.764  0.00  0.00    -0.526 OA
ATOM      8  H5  UNL d   1       2.535   0.173  -2.389  0.00  0.00     0.418 HD
ENDBRANCH   4   7
TORSDOF 1
ENDMDL
