MODEL 1
REMARK minimizedAffinity -4.73282194
REMARK minimizedRMSD -1
REMARK  1 active torsions:
REMARK  status: ('A' for Active; 'I' for Inactive)
REMARK    1  A    between atoms: C3_4  and  O_7 
ROOT
ATOM      1  C   UNL d   1       0.328   0.786  -0.477  0.00  0.00    -0.033 A 
ATOM      2  C1  UNL d   1       1.347   0.715  -1.429  0.00  0.00     0.039 A 
ATOM      3  C2  UNL d   1       1.864  -0.525  -1.809  0.00  0.00    -0.080 A 
ATOM      4  C3  UNL d   1       1.355  -1.684  -1.231  0.00  0.00     0.150 A 
ATOM      5  C4  UNL d   1       0.338  -1.621  -0.284  0.00  0.00    -0.007 A 
ATOM      6  C5  UNL d   1      -0.177  -0.382   0.095  0.00  0.00     0.039 A 
ENDROOT
BRANCH   4   7
ATOM      7  O   UNL d   1       1.832  -2.917  -1.566  0.00  0.00    -0.526 OA
ATOM      8  H5  UNL d   1       2.551  -2.804  -2.209  0.00  0.00     0.418 HD
ENDBRANCH   4   7
TORSDOF 1
ENDMDL
