MODEL 1
REMARK minimizedAffinity -3.43101335
REMARK minimizedRMSD -1
REMARK  1 active torsions:
REMARK  status: ('A' for Active; 'I' for Inactive)
REMARK    1  A    between atoms: C3_4  and  O_7 
ROOT
ATOM      1  C   UNL d   1      -0.132  -1.612   0.758  0.00  0.00    -0.033 A 
ATOM      2  C1  UNL d   1       0.680  -1.998  -0.310  0.00  0.00     0.039 A 
ATOM      3  C2  UNL d   1       1.313  -1.032  -1.094  0.00  0.00    -0.080 A 
ATOM      4  C3  UNL d   1       1.127   0.316  -0.799  0.00  0.00     0.150 A 
ATOM      5  C4  UNL d   1       0.323   0.708   0.266  0.00  0.00    -0.007 A 
ATOM      6  C5  UNL d   1      -0.310  -0.258   1.047  0.00  0.00     0.039 A 
ENDROOT
BRANCH   4   7
ATOM      7  O   UNL d   1       1.721   1.296  -1.538  0.00  0.00    -0.526 OA
ATOM      8  H5  UNL d   1       2.223   0.877  -2.257  0.00  0.00     0.418 HD
ENDBRANCH   4   7
TORSDOF 1
ENDMDL
