MODEL 1
REMARK minimizedAffinity -1.76934469
REMARK minimizedRMSD -1
REMARK  1 active torsions:
REMARK  status: ('A' for Active; 'I' for Inactive)
REMARK    1  A    between atoms: C3_4  and  O_7 
ROOT
ATOM      1  C   UNL d   1       1.249   2.341  -0.625  0.00  0.00    -0.033 A 
ATOM      2  C1  UNL d   1       2.007   1.398  -1.323  0.00  0.00     0.039 A 
ATOM      3  C2  UNL d   1       1.822   0.035  -1.082  0.00  0.00    -0.080 A 
ATOM      4  C3  UNL d   1       0.878  -0.371  -0.143  0.00  0.00     0.150 A 
ATOM      5  C4  UNL d   1       0.117   0.562   0.553  0.00  0.00    -0.007 A 
ATOM      6  C5  UNL d   1       0.303   1.923   0.312  0.00  0.00     0.039 A 
ENDROOT
BRANCH   4   7
ATOM      7  O   UNL d   1       0.666  -1.690   0.130  0.00  0.00    -0.526 OA
ATOM      8  H5  UNL d   1       1.283  -2.218  -0.404  0.00  0.00     0.418 HD
ENDBRANCH   4   7
TORSDOF 1
ENDMDL
