MODEL 1
REMARK minimizedAffinity -1.85664952
REMARK minimizedRMSD -1
REMARK  1 active torsions:
REMARK  status: ('A' for Active; 'I' for Inactive)
REMARK    1  A    between atoms: C3_4  and  O_7 
ROOT
ATOM      1  C   UNL d   1      -3.687   2.280  -5.949  0.00  0.00    -0.033 A 
ATOM      2  C1  UNL d   1      -3.923   3.655  -6.000  0.00  0.00     0.039 A 
ATOM      3  C2  UNL d   1      -2.951   4.549  -5.546  0.00  0.00    -0.080 A 
ATOM      4  C3  UNL d   1      -1.750   4.056  -5.045  0.00  0.00     0.150 A 
ATOM      5  C4  UNL d   1      -1.507   2.687  -4.994  0.00  0.00    -0.007 A 
ATOM      6  C5  UNL d   1      -2.478   1.796  -5.447  0.00  0.00     0.039 A 
ENDROOT
BRANCH   4   7
ATOM      7  O   UNL d   1      -0.773   4.889  -4.586  0.00  0.00    -0.526 OA
ATOM      8  H5  UNL d   1      -1.092   5.805  -4.655  0.00  0.00     0.418 HD
ENDBRANCH   4   7
TORSDOF 1
ENDMDL
