MODEL 1
REMARK minimizedAffinity 0.633654833
REMARK minimizedRMSD -1
REMARK  1 active torsions:
REMARK  status: ('A' for Active; 'I' for Inactive)
REMARK    1  A    between atoms: C3_4  and  O_7 
ROOT
ATOM      1  C   UNL d   1       1.793   0.321  -2.674  0.00  0.00    -0.033 A 
ATOM      2  C1  UNL d   1       1.948   0.212  -1.290  0.00  0.00     0.039 A 
ATOM      3  C2  UNL d   1       1.724   1.320  -0.471  0.00  0.00    -0.080 A 
ATOM      4  C3  UNL d   1       1.345   2.529  -1.046  0.00  0.00     0.150 A 
ATOM      5  C4  UNL d   1       1.185   2.645  -2.423  0.00  0.00    -0.007 A 
ATOM      6  C5  UNL d   1       1.410   1.537  -3.240  0.00  0.00     0.039 A 
ENDROOT
BRANCH   4   7
ATOM      7  O   UNL d   1       1.120   3.640  -0.288  0.00  0.00    -0.526 OA
ATOM      8  H5  UNL d   1       1.297   3.418   0.642  0.00  0.00     0.418 HD
ENDBRANCH   4   7
TORSDOF 1
ENDMDL
