MODEL 1
REMARK minimizedAffinity -0.531410575
REMARK minimizedRMSD -1
REMARK  1 active torsions:
REMARK  status: ('A' for Active; 'I' for Inactive)
REMARK    1  A    between atoms: C3_4  and  O_7 
ROOT
ATOM      1  C   UNL d   1       1.847   0.307  -1.416  0.00  0.00    -0.033 A 
ATOM      2  C1  UNL d   1       1.271   0.825  -0.255  0.00  0.00     0.039 A 
ATOM      3  C2  UNL d   1       1.074   2.202  -0.125  0.00  0.00    -0.080 A 
ATOM      4  C3  UNL d   1       1.457   3.047  -1.162  0.00  0.00     0.150 A 
ATOM      5  C4  UNL d   1       2.028   2.538  -2.323  0.00  0.00    -0.007 A 
ATOM      6  C5  UNL d   1       2.225   1.163  -2.451  0.00  0.00     0.039 A 
ENDROOT
BRANCH   4   7
ATOM      7  O   UNL d   1       1.289   4.398  -1.079  0.00  0.00    -0.526 OA
ATOM      8  H5  UNL d   1       0.910   4.608  -0.210  0.00  0.00     0.418 HD
ENDBRANCH   4   7
TORSDOF 1
ENDMDL
