MODEL 1
REMARK minimizedAffinity 2.4953301
REMARK minimizedRMSD -1
REMARK  1 active torsions:
REMARK  status: ('A' for Active; 'I' for Inactive)
REMARK    1  A    between atoms: C3_4  and  O_7 
ROOT
ATOM      1  C   UNL d   1       1.690   0.190  -2.230  0.00  0.00    -0.033 A 
ATOM      2  C1  UNL d   1       2.433   0.673  -1.151  0.00  0.00     0.039 A 
ATOM      3  C2  UNL d   1       2.348   2.019  -0.789  0.00  0.00    -0.080 A 
ATOM      4  C3  UNL d   1       1.516   2.870  -1.512  0.00  0.00     0.150 A 
ATOM      5  C4  UNL d   1       0.770   2.394  -2.586  0.00  0.00    -0.007 A 
ATOM      6  C5  UNL d   1       0.857   1.050  -2.946  0.00  0.00     0.039 A 
ENDROOT
BRANCH   4   7
ATOM      7  O   UNL d   1       1.404   4.192  -1.200  0.00  0.00    -0.526 OA
ATOM      8  H5  UNL d   1       1.998   4.384  -0.455  0.00  0.00     0.418 HD
ENDBRANCH   4   7
TORSDOF 1
ENDMDL
