MODEL 1
REMARK minimizedAffinity 5.08722067
REMARK minimizedRMSD -1
REMARK  1 active torsions:
REMARK  status: ('A' for Active; 'I' for Inactive)
REMARK    1  A    between atoms: C3_4  and  O_7 
ROOT
ATOM      1  C   UNL d   1      -1.888   3.544  -5.629  0.00  0.00    -0.033 A 
ATOM      2  C1  UNL d   1      -2.479   4.801  -5.495  0.00  0.00     0.039 A 
ATOM      3  C2  UNL d   1      -3.863   4.941  -5.615  0.00  0.00    -0.080 A 
ATOM      4  C3  UNL d   1      -4.644   3.817  -5.868  0.00  0.00     0.150 A 
ATOM      5  C4  UNL d   1      -4.062   2.560  -5.999  0.00  0.00    -0.007 A 
ATOM      6  C5  UNL d   1      -2.680   2.423  -5.880  0.00  0.00     0.039 A 
ENDROOT
BRANCH   4   7
ATOM      7  O   UNL d   1      -5.998   3.904  -5.998  0.00  0.00    -0.526 OA
ATOM      8  H5  UNL d   1      -6.256   4.837  -5.912  0.00  0.00     0.418 HD
ENDBRANCH   4   7
TORSDOF 1
ENDMDL
