MODEL 1
REMARK minimizedAffinity -4.41952515
REMARK minimizedRMSD -1
REMARK  1 active torsions:
REMARK  status: ('A' for Active; 'I' for Inactive)
REMARK    1  A    between atoms: C3_4  and  O_7 
ROOT
ATOM      1  C   UNL d   1       0.270  -0.209   0.268  0.00  0.00    -0.033 A 
ATOM      2  C1  UNL d   1      -0.406   0.913  -0.216  0.00  0.00     0.039 A 
ATOM      3  C2  UNL d   1      -1.794   0.880  -0.371  0.00  0.00    -0.080 A 
ATOM      4  C3  UNL d   1      -2.492  -0.277  -0.038  0.00  0.00     0.150 A 
ATOM      5  C4  UNL d   1      -1.825  -1.397   0.448  0.00  0.00    -0.007 A 
ATOM      6  C5  UNL d   1      -0.440  -1.363   0.602  0.00  0.00     0.039 A 
ENDROOT
BRANCH   4   7
ATOM      7  O   UNL d   1      -3.846  -0.358  -0.177  0.00  0.00    -0.526 OA
ATOM      8  H5  UNL d   1      -4.167   0.480  -0.551  0.00  0.00     0.418 HD
ENDBRANCH   4   7
TORSDOF 1
ENDMDL
