MODEL 1
REMARK minimizedAffinity -3.39768434
REMARK minimizedRMSD -1
REMARK  1 active torsions:
REMARK  status: ('A' for Active; 'I' for Inactive)
REMARK    1  A    between atoms: C3_4  and  O_7 
ROOT
ATOM      1  C   UNL d   1      -3.040   5.705  -5.620  0.00  0.00    -0.033 A 
ATOM      2  C1  UNL d   1      -2.079   4.765  -5.245  0.00  0.00     0.039 A 
ATOM      3  C2  UNL d   1      -2.395   3.405  -5.243  0.00  0.00    -0.080 A 
ATOM      4  C3  UNL d   1      -3.673   2.999  -5.617  0.00  0.00     0.150 A 
ATOM      5  C4  UNL d   1      -4.634   3.930  -5.996  0.00  0.00    -0.007 A 
ATOM      6  C5  UNL d   1      -4.317   5.288  -5.997  0.00  0.00     0.039 A 
ENDROOT
BRANCH   4   7
ATOM      7  O   UNL d   1      -4.029   1.683  -5.626  0.00  0.00    -0.526 OA
ATOM      8  H5  UNL d   1      -3.273   1.158  -5.314  0.00  0.00     0.418 HD
ENDBRANCH   4   7
TORSDOF 1
ENDMDL
