MODEL 1
REMARK minimizedAffinity -3.64261627
REMARK minimizedRMSD -1
REMARK  1 active torsions:
REMARK  status: ('A' for Active; 'I' for Inactive)
REMARK    1  A    between atoms: C3_4  and  O_7 
ROOT
ATOM      1  C   UNL d   1      -6.000   2.815  -5.999  0.00  0.00    -0.033 A 
ATOM      2  C1  UNL d   1      -4.842   2.034  -5.999  0.00  0.00     0.039 A 
ATOM      3  C2  UNL d   1      -3.590   2.639  -5.877  0.00  0.00    -0.080 A 
ATOM      4  C3  UNL d   1      -3.509   4.024  -5.755  0.00  0.00     0.150 A 
ATOM      5  C4  UNL d   1      -4.658   4.807  -5.750  0.00  0.00    -0.007 A 
ATOM      6  C5  UNL d   1      -5.908   4.201  -5.873  0.00  0.00     0.039 A 
ENDROOT
BRANCH   4   7
ATOM      7  O   UNL d   1      -2.309   4.660  -5.638  0.00  0.00    -0.526 OA
ATOM      8  H5  UNL d   1      -1.602   3.995  -5.686  0.00  0.00     0.418 HD
ENDBRANCH   4   7
TORSDOF 1
ENDMDL
