MODEL 1
REMARK minimizedAffinity 2.76999569
REMARK minimizedRMSD -1
REMARK  1 active torsions:
REMARK  status: ('A' for Active; 'I' for Inactive)
REMARK    1  A    between atoms: C3_4  and  O_7 
ROOT
ATOM      1  C   UNL d   1       4.579  -3.453  -2.199  0.00  0.00    -0.033 A 
ATOM      2  C1  UNL d   1       4.137  -2.138  -2.357  0.00  0.00     0.039 A 
ATOM      3  C2  UNL d   1       4.121  -1.552  -3.624  0.00  0.00    -0.080 A 
ATOM      4  C3  UNL d   1       4.548  -2.292  -4.724  0.00  0.00     0.150 A 
ATOM      5  C4  UNL d   1       4.986  -3.603  -4.574  0.00  0.00    -0.007 A 
ATOM      6  C5  UNL d   1       5.002  -4.186  -3.308  0.00  0.00     0.039 A 
ENDROOT
BRANCH   4   7
ATOM      7  O   UNL d   1       4.555  -1.761  -5.980  0.00  0.00    -0.526 OA
ATOM      8  H5  UNL d   1       4.254  -0.839  -5.926  0.00  0.00     0.418 HD
ENDBRANCH   4   7
TORSDOF 1
ENDMDL
