MODEL 1
REMARK minimizedAffinity -3.76783657
REMARK minimizedRMSD -1
REMARK  1 active torsions:
REMARK  status: ('A' for Active; 'I' for Inactive)
REMARK    1  A    between atoms: C3_4  and  O_7 
ROOT
ATOM      1  C   UNL d   1      -4.124   2.999  -5.648  0.00  0.00    -0.033 A 
ATOM      2  C1  UNL d   1      -2.988   3.804  -5.536  0.00  0.00     0.039 A 
ATOM      3  C2  UNL d   1      -1.716   3.241  -5.653  0.00  0.00    -0.080 A 
ATOM      4  C3  UNL d   1      -1.593   1.873  -5.883  0.00  0.00     0.150 A 
ATOM      5  C4  UNL d   1      -2.720   1.066  -6.000  0.00  0.00    -0.007 A 
ATOM      6  C5  UNL d   1      -3.990   1.630  -5.882  0.00  0.00     0.039 A 
ENDROOT
BRANCH   4   7
ATOM      7  O   UNL d   1      -0.373   1.277  -6.000  0.00  0.00    -0.526 OA
ATOM      8  H5  UNL d   1       0.313   1.953  -5.869  0.00  0.00     0.418 HD
ENDBRANCH   4   7
TORSDOF 1
ENDMDL
