MODEL 1
REMARK minimizedAffinity -2.94965386
REMARK minimizedRMSD -1
REMARK  1 active torsions:
REMARK  status: ('A' for Active; 'I' for Inactive)
REMARK    1  A    between atoms: C3_4  and  O_7 
ROOT
ATOM      1  C   UNL d   1      -4.297   4.333  -5.961  0.00  0.00    -0.033 A 
ATOM      2  C1  UNL d   1      -4.323   2.938  -5.991  0.00  0.00     0.039 A 
ATOM      3  C2  UNL d   1      -3.128   2.216  -5.999  0.00  0.00    -0.080 A 
ATOM      4  C3  UNL d   1      -1.916   2.900  -5.975  0.00  0.00     0.150 A 
ATOM      5  C4  UNL d   1      -1.883   4.291  -5.940  0.00  0.00    -0.007 A 
ATOM      6  C5  UNL d   1      -3.078   5.010  -5.934  0.00  0.00     0.039 A 
ENDROOT
BRANCH   4   7
ATOM      7  O   UNL d   1      -0.724   2.239  -5.987  0.00  0.00    -0.526 OA
ATOM      8  H5  UNL d   1      -0.902   1.285  -6.040  0.00  0.00     0.418 HD
ENDBRANCH   4   7
TORSDOF 1
ENDMDL
