MODEL 1
REMARK minimizedAffinity 7.48294735
REMARK minimizedRMSD -1
REMARK  1 active torsions:
REMARK  status: ('A' for Active; 'I' for Inactive)
REMARK    1  A    between atoms: C1_2  and  C2_3 
ROOT
ATOM      1  C2  UNL d   1      -0.670   3.096   0.885  0.00  0.00    -0.081 A 
ATOM      2  C3  UNL d   1       0.598   2.535   1.078  0.00  0.00     0.006 A 
ATOM      3  C4  UNL d   1       0.885   1.819   2.243  0.00  0.00     0.002 A 
ATOM      4  C5  UNL d   1      -0.092   1.647   3.229  0.00  0.00    -0.080 A 
ATOM      5  C6  UNL d   1       0.195   0.856   4.471  0.00  0.00     0.076 C 
ATOM      6  C7  UNL d   1      -1.353   2.223   3.044  0.00  0.00     0.002 A 
ATOM      7  C8  UNL d   1      -1.641   2.939   1.880  0.00  0.00     0.006 A 
ENDROOT
BRANCH   1   8
ATOM      8  C1  UNL d   1      -1.003   3.813  -0.399  0.00  0.00     0.054 C 
ATOM      9  C   UNL d   1      -0.891   2.882  -1.598  0.00  0.00     0.018 C 
ENDBRANCH   1   8
TORSDOF 1
ENDMDL
