MODEL 1
REMARK minimizedAffinity -1.34050226
REMARK minimizedRMSD -1
REMARK  1 active torsions:
REMARK  status: ('A' for Active; 'I' for Inactive)
REMARK    1  A    between atoms: C1_2  and  C2_3 
ROOT
ATOM      1  C2  UNL d   1      -1.117   2.382   1.487  0.00  0.00    -0.081 A 
ATOM      2  C3  UNL d   1      -1.188   2.605   0.107  0.00  0.00     0.006 A 
ATOM      3  C4  UNL d   1      -0.465   1.802  -0.779  0.00  0.00     0.002 A 
ATOM      4  C5  UNL d   1       0.333   0.758  -0.300  0.00  0.00    -0.080 A 
ATOM      5  C6  UNL d   1       1.090  -0.131  -1.241  0.00  0.00     0.076 C 
ATOM      6  C7  UNL d   1       0.418   0.546   1.081  0.00  0.00     0.002 A 
ATOM      7  C8  UNL d   1      -0.303   1.349   1.966  0.00  0.00     0.006 A 
ENDROOT
BRANCH   1   8
ATOM      8  C1  UNL d   1      -1.945   3.205   2.441  0.00  0.00     0.054 C 
ATOM      9  C   UNL d   1      -2.353   4.531   1.815  0.00  0.00     0.018 C 
ENDBRANCH   1   8
TORSDOF 1
ENDMDL
