MODEL 1
REMARK minimizedAffinity 13.282526
REMARK minimizedRMSD -1
REMARK  1 active torsions:
REMARK  status: ('A' for Active; 'I' for Inactive)
REMARK    1  A    between atoms: C1_2  and  C2_3 
ROOT
ATOM      1  C2  UNL d   1      -0.203   0.141   3.471  0.00  0.00    -0.081 A 
ATOM      2  C3  UNL d   1       0.858  -0.079   2.584  0.00  0.00     0.006 A 
ATOM      3  C4  UNL d   1       1.812  -1.064   2.850  0.00  0.00     0.002 A 
ATOM      4  C5  UNL d   1       1.718  -1.850   4.004  0.00  0.00    -0.080 A 
ATOM      5  C6  UNL d   1       2.718  -2.931   4.286  0.00  0.00     0.076 C 
ATOM      6  C7  UNL d   1       0.668  -1.619   4.899  0.00  0.00     0.002 A 
ATOM      7  C8  UNL d   1      -0.286  -0.634   4.633  0.00  0.00     0.006 A 
ENDROOT
BRANCH   1   8
ATOM      8  C1  UNL d   1      -1.269   1.158   3.154  0.00  0.00     0.054 C 
ATOM      9  C   UNL d   1      -0.831   2.088   2.032  0.00  0.00     0.018 C 
ENDBRANCH   1   8
TORSDOF 1
ENDMDL
