MODEL 1
REMARK minimizedAffinity 10.7709513
REMARK minimizedRMSD -1
REMARK  1 active torsions:
REMARK  status: ('A' for Active; 'I' for Inactive)
REMARK    1  A    between atoms: C1_2  and  C2_3 
ROOT
ATOM      1  C2  UNL d   1      -0.411   2.860   1.309  0.00  0.00    -0.081 A 
ATOM      2  C3  UNL d   1       0.086   4.060   0.786  0.00  0.00     0.006 A 
ATOM      3  C4  UNL d   1      -0.179   4.420  -0.537  0.00  0.00     0.002 A 
ATOM      4  C5  UNL d   1      -0.952   3.590  -1.357  0.00  0.00    -0.080 A 
ATOM      5  C6  UNL d   1      -1.270   3.978  -2.770  0.00  0.00     0.076 C 
ATOM      6  C7  UNL d   1      -1.434   2.383  -0.839  0.00  0.00     0.002 A 
ATOM      7  C8  UNL d   1      -1.169   2.023   0.484  0.00  0.00     0.006 A 
ENDROOT
BRANCH   1   8
ATOM      8  C1  UNL d   1      -0.181   2.501   2.755  0.00  0.00     0.054 C 
ATOM      9  C   UNL d   1      -1.048   1.324   3.178  0.00  0.00     0.018 C 
ENDBRANCH   1   8
TORSDOF 1
ENDMDL
