MODEL 1
REMARK minimizedAffinity 3.35278058
REMARK minimizedRMSD -1
REMARK  1 active torsions:
REMARK  status: ('A' for Active; 'I' for Inactive)
REMARK    1  A    between atoms: C1_2  and  C2_3 
ROOT
ATOM      1  C2  UNL d   1       4.501  -4.401  -1.465  0.00  0.00    -0.081 A 
ATOM      2  C3  UNL d   1       3.245  -3.916  -1.081  0.00  0.00     0.006 A 
ATOM      3  C4  UNL d   1       3.138  -2.744  -0.328  0.00  0.00     0.002 A 
ATOM      4  C5  UNL d   1       4.284  -2.034   0.047  0.00  0.00    -0.080 A 
ATOM      5  C6  UNL d   1       4.182  -0.759   0.829  0.00  0.00     0.076 C 
ATOM      6  C7  UNL d   1       5.540  -2.528  -0.322  0.00  0.00     0.002 A 
ATOM      7  C8  UNL d   1       5.648  -3.699  -1.074  0.00  0.00     0.006 A 
ENDROOT
BRANCH   1   8
ATOM      8  C1  UNL d   1       4.617  -5.628  -2.332  0.00  0.00     0.054 C 
ATOM      9  C   UNL d   1       3.275  -5.999  -2.948  0.00  0.00     0.018 C 
ENDBRANCH   1   8
TORSDOF 1
ENDMDL
