MODEL 1
REMARK minimizedAffinity 9.63851452
REMARK minimizedRMSD -1
REMARK  3 active torsions:
REMARK  status: ('A' for Active; 'I' for Inactive)
REMARK    1  A    between atoms: C3'_2  and  C2'_3 
REMARK    2  A    between atoms: C2'_3  and  C1'_4 
REMARK    3  A    between atoms: C1'_4  and  C1_5 
ROOT
ATOM      1  C1  N4B d   1       5.152   5.276   2.078  0.00  0.00    -0.075 A 
ATOM      2  C2  N4B d   1       5.292   3.871   2.051  0.00  0.00     0.002 A 
ATOM      3  C3  N4B d   1       5.719   3.244   0.907  0.00  0.00     0.002 A 
ATOM      4  C4  N4B d   1       5.994   3.997  -0.225  0.00  0.00    -0.004 A 
ATOM      5  C5  N4B d   1       5.882   5.356  -0.184  0.00  0.00     0.002 A 
ATOM      6  C6  N4B d   1       5.456   5.999   0.961  0.00  0.00     0.002 A 
ENDROOT
BRANCH   1   7
ATOM      7  C1' N4B d   1       4.606   5.997   3.279  0.00  0.00     0.057 C 
BRANCH   7   8
ATOM      8  C2' N4B d   1       5.399   5.584   4.515  0.00  0.00     0.009 C 
BRANCH   8   9
ATOM      9  C3' N4B d   1       4.669   5.930   5.801  0.00  0.00     0.004 C 
ATOM     10  C4' N4B d   1       3.316   5.289   5.891  0.00  0.00     0.003 C 
ENDBRANCH   8   9
ENDBRANCH   7   8
ENDBRANCH   1   7
TORSDOF 3
ENDMDL
