MODEL 1
REMARK minimizedAffinity 0.850144029
REMARK minimizedRMSD -1
REMARK  3 active torsions:
REMARK  status: ('A' for Active; 'I' for Inactive)
REMARK    1  A    between atoms: C3'_2  and  C2'_3 
REMARK    2  A    between atoms: C2'_3  and  C1'_4 
REMARK    3  A    between atoms: C1'_4  and  C1_5 
ROOT
ATOM      1  C1  N4B d   1      -0.835  -2.675   0.277  0.00  0.00    -0.075 A 
ATOM      2  C2  N4B d   1      -0.086  -2.726  -0.919  0.00  0.00     0.002 A 
ATOM      3  C3  N4B d   1       1.257  -3.008  -0.877  0.00  0.00     0.002 A 
ATOM      4  C4  N4B d   1       1.874  -3.223   0.347  0.00  0.00    -0.004 A 
ATOM      5  C5  N4B d   1       1.138  -3.197   1.495  0.00  0.00     0.002 A 
ATOM      6  C6  N4B d   1      -0.213  -2.919   1.467  0.00  0.00     0.002 A 
ENDROOT
BRANCH   1   7
ATOM      7  C1' N4B d   1      -2.288  -2.286   0.287  0.00  0.00     0.057 C 
BRANCH   7   8
ATOM      8  C2' N4B d   1      -2.471  -1.057   1.173  0.00  0.00     0.009 C 
BRANCH   8   9
ATOM      9  C3' N4B d   1      -3.912  -0.576   1.187  0.00  0.00     0.004 C 
ATOM     10  C4' N4B d   1      -4.151   0.570   0.250  0.00  0.00     0.003 C 
ENDBRANCH   8   9
ENDBRANCH   7   8
ENDBRANCH   1   7
TORSDOF 3
ENDMDL
