MODEL 1
REMARK minimizedAffinity -2.60460329
REMARK minimizedRMSD -1
REMARK  3 active torsions:
REMARK  status: ('A' for Active; 'I' for Inactive)
REMARK    1  A    between atoms: C3'_2  and  C2'_3 
REMARK    2  A    between atoms: C2'_3  and  C1'_4 
REMARK    3  A    between atoms: C1'_4  and  C1_5 
ROOT
ATOM      1  C1  N4B d   1       0.690  -1.483   0.452  0.00  0.00    -0.075 A 
ATOM      2  C2  N4B d   1       2.008  -1.104   0.114  0.00  0.00     0.002 A 
ATOM      3  C3  N4B d   1       2.476   0.139   0.461  0.00  0.00     0.002 A 
ATOM      4  C4  N4B d   1       1.642   1.025   1.127  0.00  0.00    -0.004 A 
ATOM      5  C5  N4B d   1       0.378   0.642   1.472  0.00  0.00     0.002 A 
ATOM      6  C6  N4B d   1      -0.104  -0.606   1.134  0.00  0.00     0.002 A 
ENDROOT
BRANCH   1   7
ATOM      7  C1' N4B d   1       0.105  -2.799   0.019  0.00  0.00     0.057 C 
BRANCH   7   8
ATOM      8  C2' N4B d   1      -1.384  -2.618  -0.260  0.00  0.00     0.009 C 
BRANCH   8   9
ATOM      9  C3' N4B d   1      -1.806  -3.295  -1.553  0.00  0.00     0.004 C 
ATOM     10  C4' N4B d   1      -2.670  -4.499  -1.324  0.00  0.00     0.003 C 
ENDBRANCH   8   9
ENDBRANCH   7   8
ENDBRANCH   1   7
TORSDOF 3
ENDMDL
