MODEL 1
REMARK minimizedAffinity 6.13481522
REMARK minimizedRMSD -1
REMARK  3 active torsions:
REMARK  status: ('A' for Active; 'I' for Inactive)
REMARK    1  A    between atoms: C3'_2  and  C2'_3 
REMARK    2  A    between atoms: C2'_3  and  C1'_4 
REMARK    3  A    between atoms: C1'_4  and  C1_5 
ROOT
ATOM      1  C1  N4B d   1       4.206   4.825   3.683  0.00  0.00    -0.075 A 
ATOM      2  C2  N4B d   1       3.419   4.836   4.856  0.00  0.00     0.002 A 
ATOM      3  C3  N4B d   1       3.900   5.425   6.000  0.00  0.00     0.002 A 
ATOM      4  C4  N4B d   1       5.166   5.991   5.999  0.00  0.00    -0.004 A 
ATOM      5  C5  N4B d   1       5.909   5.999   4.855  0.00  0.00     0.002 A 
ATOM      6  C6  N4B d   1       5.437   5.414   3.698  0.00  0.00     0.002 A 
ENDROOT
BRANCH   1   7
ATOM      7  C1' N4B d   1       3.758   4.117   2.434  0.00  0.00     0.057 C 
BRANCH   7   8
ATOM      8  C2' N4B d   1       3.128   2.780   2.814  0.00  0.00     0.009 C 
BRANCH   8   9
ATOM      9  C3' N4B d   1       3.459   1.690   1.809  0.00  0.00     0.004 C 
ATOM     10  C4' N4B d   1       2.244   0.956   1.327  0.00  0.00     0.003 C 
ENDBRANCH   8   9
ENDBRANCH   7   8
ENDBRANCH   1   7
TORSDOF 3
ENDMDL
