MODEL 1
REMARK minimizedAffinity 1.2672199
REMARK minimizedRMSD -1
REMARK  3 active torsions:
REMARK  status: ('A' for Active; 'I' for Inactive)
REMARK    1  A    between atoms: C3'_2  and  C2'_3 
REMARK    2  A    between atoms: C2'_3  and  C1'_4 
REMARK    3  A    between atoms: C1'_4  and  C1_5 
ROOT
ATOM      1  C1  N4B d   1       2.363  -1.565   0.136  0.00  0.00    -0.075 A 
ATOM      2  C2  N4B d   1       2.911  -2.537  -0.729  0.00  0.00     0.002 A 
ATOM      3  C3  N4B d   1       2.545  -3.854  -0.601  0.00  0.00     0.002 A 
ATOM      4  C4  N4B d   1       1.651  -4.224   0.392  0.00  0.00    -0.004 A 
ATOM      5  C5  N4B d   1       1.107  -3.275   1.208  0.00  0.00     0.002 A 
ATOM      6  C6  N4B d   1       1.463  -1.947   1.088  0.00  0.00     0.002 A 
ENDROOT
BRANCH   1   7
ATOM      7  C1' N4B d   1       2.798  -0.125   0.091  0.00  0.00     0.057 C 
BRANCH   7   8
ATOM      8  C2' N4B d   1       1.827   0.718   0.911  0.00  0.00     0.009 C 
BRANCH   8   9
ATOM      9  C3' N4B d   1       2.540   1.524   1.984  0.00  0.00     0.004 C 
ATOM     10  C4' N4B d   1       3.958   1.848   1.620  0.00  0.00     0.003 C 
ENDBRANCH   8   9
ENDBRANCH   7   8
ENDBRANCH   1   7
TORSDOF 3
ENDMDL
