MODEL 1
REMARK minimizedAffinity 6.31428909
REMARK minimizedRMSD -1
REMARK  3 active torsions:
REMARK  status: ('A' for Active; 'I' for Inactive)
REMARK    1  A    between atoms: C3'_2  and  C2'_3 
REMARK    2  A    between atoms: C2'_3  and  C1'_4 
REMARK    3  A    between atoms: C1'_4  and  C1_5 
ROOT
ATOM      1  C1  N4B d   1      -2.220   2.440  -4.088  0.00  0.00    -0.075 A 
ATOM      2  C2  N4B d   1      -2.164   2.949  -5.404  0.00  0.00     0.002 A 
ATOM      3  C3  N4B d   1      -0.948   3.178  -6.000  0.00  0.00     0.002 A 
ATOM      4  C4  N4B d   1       0.220   2.924  -5.296  0.00  0.00    -0.004 A 
ATOM      5  C5  N4B d   1       0.157   2.409  -4.034  0.00  0.00     0.002 A 
ATOM      6  C6  N4B d   1      -1.058   2.170  -3.424  0.00  0.00     0.002 A 
ENDROOT
BRANCH   1   7
ATOM      7  C1' N4B d   1      -3.525   2.255  -3.363  0.00  0.00     0.057 C 
BRANCH   7   8
ATOM      8  C2' N4B d   1      -3.267   2.250  -1.859  0.00  0.00     0.009 C 
BRANCH   8   9
ATOM      9  C3' N4B d   1      -4.485   1.792  -1.075  0.00  0.00     0.004 C 
ATOM     10  C4' N4B d   1      -4.172   1.490   0.360  0.00  0.00     0.003 C 
ENDBRANCH   8   9
ENDBRANCH   7   8
ENDBRANCH   1   7
TORSDOF 3
ENDMDL
