MODEL 1
REMARK minimizedAffinity 0.18317838
REMARK minimizedRMSD -1
REMARK  3 active torsions:
REMARK  status: ('A' for Active; 'I' for Inactive)
REMARK    1  A    between atoms: C3'_2  and  C2'_3 
REMARK    2  A    between atoms: C2'_3  and  C1'_4 
REMARK    3  A    between atoms: C1'_4  and  C1_5 
ROOT
ATOM      1  C1  N4B d   1      -2.076  -0.461   1.562  0.00  0.00    -0.075 A 
ATOM      2  C2  N4B d   1      -1.671   0.833   1.959  0.00  0.00     0.002 A 
ATOM      3  C3  N4B d   1      -2.564   1.876   1.913  0.00  0.00     0.002 A 
ATOM      4  C4  N4B d   1      -3.855   1.654   1.459  0.00  0.00    -0.004 A 
ATOM      5  C5  N4B d   1      -4.245   0.396   1.101  0.00  0.00     0.002 A 
ATOM      6  C6  N4B d   1      -3.360  -0.662   1.146  0.00  0.00     0.002 A 
ENDROOT
BRANCH   1   7
ATOM      7  C1' N4B d   1      -1.112  -1.614   1.514  0.00  0.00     0.057 C 
BRANCH   7   8
ATOM      8  C2' N4B d   1      -1.750  -2.768   0.745  0.00  0.00     0.009 C 
BRANCH   8   9
ATOM      9  C3' N4B d   1      -0.847  -3.281  -0.363  0.00  0.00     0.004 C 
ATOM     10  C4' N4B d   1      -1.436  -4.446  -1.100  0.00  0.00     0.003 C 
ENDBRANCH   8   9
ENDBRANCH   7   8
ENDBRANCH   1   7
TORSDOF 3
ENDMDL
