MODEL 1
REMARK minimizedAffinity 6.97834635
REMARK minimizedRMSD -1
REMARK  3 active torsions:
REMARK  status: ('A' for Active; 'I' for Inactive)
REMARK    1  A    between atoms: C3'_2  and  C2'_3 
REMARK    2  A    between atoms: C2'_3  and  C1'_4 
REMARK    3  A    between atoms: C1'_4  and  C1_5 
ROOT
ATOM      1  C1  N4B d   1       0.150  -2.859   0.044  0.00  0.00    -0.075 A 
ATOM      2  C2  N4B d   1      -0.396  -3.031  -1.247  0.00  0.00     0.002 A 
ATOM      3  C3  N4B d   1      -1.595  -3.681  -1.404  0.00  0.00     0.002 A 
ATOM      4  C4  N4B d   1      -2.254  -4.183  -0.291  0.00  0.00    -0.004 A 
ATOM      5  C5  N4B d   1      -1.732  -3.991   0.954  0.00  0.00     0.002 A 
ATOM      6  C6  N4B d   1      -0.530  -3.335   1.127  0.00  0.00     0.002 A 
ENDROOT
BRANCH   1   7
ATOM      7  C1' N4B d   1       1.500  -2.230   0.257  0.00  0.00     0.057 C 
BRANCH   7   8
ATOM      8  C2' N4B d   1       1.335  -0.961   1.088  0.00  0.00     0.009 C 
BRANCH   8   9
ATOM      9  C3' N4B d   1       2.366   0.094   0.724  0.00  0.00     0.004 C 
ATOM     10  C4' N4B d   1       2.271   1.320   1.584  0.00  0.00     0.003 C 
ENDBRANCH   8   9
ENDBRANCH   7   8
ENDBRANCH   1   7
TORSDOF 3
ENDMDL
