MODEL 1
REMARK minimizedAffinity -2.89608049
REMARK minimizedRMSD -1
REMARK  3 active torsions:
REMARK  status: ('A' for Active; 'I' for Inactive)
REMARK    1  A    between atoms: C3'_2  and  C2'_3 
REMARK    2  A    between atoms: C2'_3  and  C1'_4 
REMARK    3  A    between atoms: C1'_4  and  C1_5 
ROOT
ATOM      1  C1  N4B d   1      -1.132  -3.153  -0.007  0.00  0.00    -0.075 A 
ATOM      2  C2  N4B d   1      -1.097  -2.943  -1.403  0.00  0.00     0.002 A 
ATOM      3  C3  N4B d   1      -1.794  -3.779  -2.241  0.00  0.00     0.002 A 
ATOM      4  C4  N4B d   1      -2.514  -4.838  -1.709  0.00  0.00    -0.004 A 
ATOM      5  C5  N4B d   1      -2.563  -5.019  -0.358  0.00  0.00     0.002 A 
ATOM      6  C6  N4B d   1      -1.871  -4.184   0.496  0.00  0.00     0.002 A 
ENDROOT
BRANCH   1   7
ATOM      7  C1' N4B d   1      -0.317  -2.318   0.942  0.00  0.00     0.057 C 
BRANCH   7   8
ATOM      8  C2' N4B d   1       1.129  -2.274   0.457  0.00  0.00     0.009 C 
BRANCH   8   9
ATOM      9  C3' N4B d   1       1.713  -3.666   0.286  0.00  0.00     0.004 C 
ATOM     10  C4' N4B d   1       2.274  -3.896  -1.085  0.00  0.00     0.003 C 
ENDBRANCH   8   9
ENDBRANCH   7   8
ENDBRANCH   1   7
TORSDOF 3
ENDMDL
