MODEL 1
REMARK minimizedAffinity 1.0006758
REMARK minimizedRMSD -1
REMARK  3 active torsions:
REMARK  status: ('A' for Active; 'I' for Inactive)
REMARK    1  A    between atoms: C3'_2  and  C2'_3 
REMARK    2  A    between atoms: C2'_3  and  C1'_4 
REMARK    3  A    between atoms: C1'_4  and  C1_5 
ROOT
ATOM      1  C1  N4B d   1      -1.990   4.417  -5.964  0.00  0.00    -0.075 A 
ATOM      2  C2  N4B d   1      -2.353   3.052  -5.974  0.00  0.00     0.002 A 
ATOM      3  C3  N4B d   1      -3.679   2.695  -5.993  0.00  0.00     0.002 A 
ATOM      4  C4  N4B d   1      -4.655   3.680  -5.983  0.00  0.00    -0.004 A 
ATOM      5  C5  N4B d   1      -4.296   4.996  -5.999  0.00  0.00     0.002 A 
ATOM      6  C6  N4B d   1      -2.967   5.370  -5.984  0.00  0.00     0.002 A 
ENDROOT
BRANCH   1   7
ATOM      7  C1' N4B d   1      -0.555   4.856  -5.857  0.00  0.00     0.057 C 
BRANCH   7   8
ATOM      8  C2' N4B d   1       0.331   3.630  -5.661  0.00  0.00     0.009 C 
BRANCH   8   9
ATOM      9  C3' N4B d   1       0.433   3.230  -4.198  0.00  0.00     0.004 C 
ATOM     10  C4' N4B d   1       1.098   1.900  -4.005  0.00  0.00     0.003 C 
ENDBRANCH   8   9
ENDBRANCH   7   8
ENDBRANCH   1   7
TORSDOF 3
ENDMDL
