MODEL 1
REMARK minimizedAffinity 3.38946795
REMARK minimizedRMSD -1
REMARK  1 active torsions:
REMARK  status: ('A' for Active; 'I' for Inactive)
REMARK    1  A    between atoms: C1_2  and  C2_3 
ROOT
ATOM      1  C2  UNL d   1      -0.879  -2.470   0.842  0.00  0.00    -0.076 A 
ATOM      2  C3  UNL d   1      -1.147  -1.135   1.194  0.00  0.00     0.004 A 
ATOM      3  C4  UNL d   1      -0.116  -0.264   1.542  0.00  0.00    -0.003 A 
ATOM      4  C5  UNL d   1       1.200  -0.714   1.544  0.00  0.00     0.000 A 
ATOM      5  C6  UNL d   1       1.486  -2.029   1.180  0.00  0.00     0.000 A 
ATOM      6  C7  UNL d   1       0.459  -2.916   0.811  0.00  0.00    -0.073 A 
ATOM      7  C8  UNL d   1       0.824  -4.326   0.434  0.00  0.00     0.078 C 
ENDROOT
BRANCH   1   8
ATOM      8  C1  UNL d   1      -2.041  -3.375   0.500  0.00  0.00     0.053 C 
ATOM      9  C   UNL d   1      -2.387  -3.345  -0.980  0.00  0.00     0.018 C 
ENDBRANCH   1   8
TORSDOF 1
ENDMDL
