MODEL 1
REMARK minimizedAffinity 5.44833279
REMARK minimizedRMSD -1
REMARK  1 active torsions:
REMARK  status: ('A' for Active; 'I' for Inactive)
REMARK    1  A    between atoms: C1_2  and  C2_3 
ROOT
ATOM      1  C2  UNL d   1       0.436  -0.432   1.784  0.00  0.00    -0.076 A 
ATOM      2  C3  UNL d   1       0.998   0.854   1.716  0.00  0.00     0.004 A 
ATOM      3  C4  UNL d   1       0.237   1.949   1.309  0.00  0.00    -0.003 A 
ATOM      4  C5  UNL d   1      -1.099   1.775   0.965  0.00  0.00     0.000 A 
ATOM      5  C6  UNL d   1      -1.677   0.509   1.044  0.00  0.00     0.000 A 
ATOM      6  C7  UNL d   1      -0.929  -0.603   1.468  0.00  0.00    -0.073 A 
ATOM      7  C8  UNL d   1      -1.602  -1.946   1.529  0.00  0.00     0.078 C 
ENDROOT
BRANCH   1   8
ATOM      8  C1  UNL d   1       1.317  -1.586   2.206  0.00  0.00     0.053 C 
ATOM      9  C   UNL d   1       1.504  -1.656   3.714  0.00  0.00     0.018 C 
ENDBRANCH   1   8
TORSDOF 1
ENDMDL
