MODEL 1
REMARK minimizedAffinity 10.1247911
REMARK minimizedRMSD -1
REMARK  1 active torsions:
REMARK  status: ('A' for Active; 'I' for Inactive)
REMARK    1  A    between atoms: C1_2  and  C2_3 
ROOT
ATOM      1  C2  UNL d   1      -2.130  -2.961  -2.482  0.00  0.00    -0.076 A 
ATOM      2  C3  UNL d   1      -2.493  -2.407  -3.721  0.00  0.00     0.004 A 
ATOM      3  C4  UNL d   1      -3.213  -1.215  -3.791  0.00  0.00    -0.003 A 
ATOM      4  C5  UNL d   1      -3.580  -0.558  -2.621  0.00  0.00     0.000 A 
ATOM      5  C6  UNL d   1      -3.212  -1.085  -1.383  0.00  0.00     0.000 A 
ATOM      6  C7  UNL d   1      -2.473  -2.277  -1.296  0.00  0.00    -0.073 A 
ATOM      7  C8  UNL d   1      -2.109  -2.803   0.065  0.00  0.00     0.078 C 
ENDROOT
BRANCH   1   8
ATOM      8  C1  UNL d   1      -1.373  -4.270  -2.468  0.00  0.00     0.053 C 
ATOM      9  C   UNL d   1       0.108  -4.084  -2.178  0.00  0.00     0.018 C 
ENDBRANCH   1   8
TORSDOF 1
ENDMDL
