MODEL 1
REMARK minimizedAffinity 1.86767924
REMARK minimizedRMSD -1
REMARK  1 active torsions:
REMARK  status: ('A' for Active; 'I' for Inactive)
REMARK    1  A    between atoms: C1_2  and  C2_3 
ROOT
ATOM      1  C2  UNL d   1      -1.331  -2.224   1.007  0.00  0.00    -0.076 A 
ATOM      2  C3  UNL d   1      -1.772  -0.904   1.200  0.00  0.00     0.004 A 
ATOM      3  C4  UNL d   1      -0.885   0.099   1.588  0.00  0.00    -0.003 A 
ATOM      4  C5  UNL d   1       0.458  -0.203   1.788  0.00  0.00     0.000 A 
ATOM      5  C6  UNL d   1       0.916  -1.504   1.584  0.00  0.00     0.000 A 
ATOM      6  C7  UNL d   1       0.038  -2.523   1.177  0.00  0.00    -0.073 A 
ATOM      7  C8  UNL d   1       0.585  -3.910   0.977  0.00  0.00     0.078 C 
ENDROOT
BRANCH   1   8
ATOM      8  C1  UNL d   1      -2.344  -3.276   0.613  0.00  0.00     0.053 C 
ATOM      9  C   UNL d   1      -2.607  -3.298  -0.885  0.00  0.00     0.018 C 
ENDBRANCH   1   8
TORSDOF 1
ENDMDL
