MODEL 1
REMARK minimizedAffinity 6.51083946
REMARK minimizedRMSD -1
REMARK  1 active torsions:
REMARK  status: ('A' for Active; 'I' for Inactive)
REMARK    1  A    between atoms: C1_2  and  C2_3 
ROOT
ATOM      1  C2  UNL d   1      -2.587   0.007  -0.329  0.00  0.00    -0.076 A 
ATOM      2  C3  UNL d   1      -2.049   1.296  -0.171  0.00  0.00     0.004 A 
ATOM      3  C4  UNL d   1      -1.023   1.539   0.740  0.00  0.00    -0.003 A 
ATOM      4  C5  UNL d   1      -0.517   0.496   1.508  0.00  0.00     0.000 A 
ATOM      5  C6  UNL d   1      -1.027  -0.793   1.352  0.00  0.00     0.000 A 
ATOM      6  C7  UNL d   1      -2.050  -1.058   0.426  0.00  0.00    -0.073 A 
ATOM      7  C8  UNL d   1      -2.566  -2.465   0.303  0.00  0.00     0.078 C 
ENDROOT
BRANCH   1   8
ATOM      8  C1  UNL d   1      -3.718  -0.191  -1.313  0.00  0.00     0.053 C 
ATOM      9  C   UNL d   1      -3.223  -0.366  -2.741  0.00  0.00     0.018 C 
ENDBRANCH   1   8
TORSDOF 1
ENDMDL
