MODEL 1
REMARK minimizedAffinity 8.86398697
REMARK minimizedRMSD -1
REMARK  1 active torsions:
REMARK  status: ('A' for Active; 'I' for Inactive)
REMARK    1  A    between atoms: C1_2  and  C2_3 
ROOT
ATOM      1  C2  UNL d   1       1.553  -2.629   4.467  0.00  0.00    -0.076 A 
ATOM      2  C3  UNL d   1       0.993  -1.357   4.261  0.00  0.00     0.004 A 
ATOM      3  C4  UNL d   1       1.062  -0.735   3.016  0.00  0.00    -0.003 A 
ATOM      4  C5  UNL d   1       1.694  -1.376   1.956  0.00  0.00     0.000 A 
ATOM      5  C6  UNL d   1       2.240  -2.646   2.137  0.00  0.00     0.000 A 
ATOM      6  C7  UNL d   1       2.164  -3.294   3.382  0.00  0.00    -0.073 A 
ATOM      7  C8  UNL d   1       2.775  -4.661   3.523  0.00  0.00     0.078 C 
ENDROOT
BRANCH   1   8
ATOM      8  C1  UNL d   1       1.471  -3.242   5.847  0.00  0.00     0.053 C 
ATOM      9  C   UNL d   1       0.283  -4.180   5.998  0.00  0.00     0.018 C 
ENDBRANCH   1   8
TORSDOF 1
ENDMDL
