MODEL 1
REMARK minimizedAffinity 0.436691731
REMARK minimizedRMSD -1
REMARK  1 active torsions:
REMARK  status: ('A' for Active; 'I' for Inactive)
REMARK    1  A    between atoms: C1_2  and  C2_3 
ROOT
ATOM      1  C2  UNL d   1       0.849  -1.122   1.428  0.00  0.00    -0.076 A 
ATOM      2  C3  UNL d   1      -0.505  -1.093   1.051  0.00  0.00     0.004 A 
ATOM      3  C4  UNL d   1      -1.077   0.061   0.520  0.00  0.00    -0.003 A 
ATOM      4  C5  UNL d   1      -0.305   1.206   0.356  0.00  0.00     0.000 A 
ATOM      5  C6  UNL d   1       1.044   1.190   0.708  0.00  0.00     0.000 A 
ATOM      6  C7  UNL d   1       1.641   0.029   1.230  0.00  0.00    -0.073 A 
ATOM      7  C8  UNL d   1       3.099   0.070   1.599  0.00  0.00     0.078 C 
ENDROOT
BRANCH   1   8
ATOM      8  C1  UNL d   1       1.408  -2.394   2.024  0.00  0.00     0.053 C 
ATOM      9  C   UNL d   1       1.120  -2.516   3.512  0.00  0.00     0.018 C 
ENDBRANCH   1   8
TORSDOF 1
ENDMDL
