MODEL 1
REMARK minimizedAffinity 0.319227219
REMARK minimizedRMSD -1
REMARK  1 active torsions:
REMARK  status: ('A' for Active; 'I' for Inactive)
REMARK    1  A    between atoms: C1_2  and  C2_3 
ROOT
ATOM      1  C2  UNL d   1       0.829   0.932   0.104  0.00  0.00    -0.081 A 
ATOM      2  C3  UNL d   1       2.177   1.135  -0.216  0.00  0.00     0.006 A 
ATOM      3  C4  UNL d   1       2.765   2.390  -0.038  0.00  0.00     0.002 A 
ATOM      4  C5  UNL d   1       2.018   3.459   0.469  0.00  0.00    -0.080 A 
ATOM      5  C6  UNL d   1       2.645   4.802   0.693  0.00  0.00     0.076 C 
ATOM      6  C7  UNL d   1       0.667   3.260   0.771  0.00  0.00     0.002 A 
ATOM      7  C8  UNL d   1       0.078   2.006   0.593  0.00  0.00     0.006 A 
ENDROOT
BRANCH   1   8
ATOM      8  C1  UNL d   1       0.208  -0.436  -0.026  0.00  0.00     0.054 C 
ATOM      9  C   UNL d   1      -1.310  -0.364   0.048  0.00  0.00     0.018 C 
ENDBRANCH   1   8
TORSDOF 1
ENDMDL
