MODEL 1
REMARK minimizedAffinity 2.52934146
REMARK minimizedRMSD -1
REMARK  1 active torsions:
REMARK  status: ('A' for Active; 'I' for Inactive)
REMARK    1  A    between atoms: C1_2  and  C2_3 
ROOT
ATOM      1  C2  UNL d   1       0.631  -0.390   0.711  0.00  0.00    -0.081 A 
ATOM      2  C3  UNL d   1       0.192  -0.933  -0.503  0.00  0.00     0.006 A 
ATOM      3  C4  UNL d   1      -1.153  -0.854  -0.870  0.00  0.00     0.002 A 
ATOM      4  C5  UNL d   1      -2.081  -0.224  -0.033  0.00  0.00    -0.080 A 
ATOM      5  C6  UNL d   1      -3.523  -0.105  -0.429  0.00  0.00     0.076 C 
ATOM      6  C7  UNL d   1      -1.646   0.303   1.188  0.00  0.00     0.002 A 
ATOM      7  C8  UNL d   1      -0.301   0.224   1.555  0.00  0.00     0.006 A 
ENDROOT
BRANCH   1   8
ATOM      8  C1  UNL d   1       2.092  -0.417   1.079  0.00  0.00     0.054 C 
ATOM      9  C   UNL d   1       2.934   0.337   0.059  0.00  0.00     0.018 C 
ENDBRANCH   1   8
TORSDOF 1
ENDMDL
