MODEL 1
REMARK minimizedAffinity -1.5693208
REMARK minimizedRMSD -1
REMARK  1 active torsions:
REMARK  status: ('A' for Active; 'I' for Inactive)
REMARK    1  A    between atoms: C1_2  and  C2_3 
ROOT
ATOM      1  C2  UNL d   1       0.732  -0.126   1.106  0.00  0.00    -0.081 A 
ATOM      2  C3  UNL d   1      -0.415   0.304   1.785  0.00  0.00     0.006 A 
ATOM      3  C4  UNL d   1      -1.682   0.103   1.231  0.00  0.00     0.002 A 
ATOM      4  C5  UNL d   1      -1.823  -0.536  -0.006  0.00  0.00    -0.080 A 
ATOM      5  C6  UNL d   1      -3.179  -0.784  -0.597  0.00  0.00     0.076 C 
ATOM      6  C7  UNL d   1      -0.676  -0.949  -0.692  0.00  0.00     0.002 A 
ATOM      7  C8  UNL d   1       0.591  -0.749  -0.139  0.00  0.00     0.006 A 
ENDROOT
BRANCH   1   8
ATOM      8  C1  UNL d   1       2.095   0.030   1.731  0.00  0.00     0.054 C 
ATOM      9  C   UNL d   1       3.049   0.767   0.801  0.00  0.00     0.018 C 
ENDBRANCH   1   8
TORSDOF 1
ENDMDL
