MODEL 1
REMARK minimizedAffinity -2.27668834
REMARK minimizedRMSD -1
REMARK  1 active torsions:
REMARK  status: ('A' for Active; 'I' for Inactive)
REMARK    1  A    between atoms: C1_2  and  C2_3 
ROOT
ATOM      1  C2  UNL d   1      -0.202  -0.218   3.487  0.00  0.00    -0.081 A 
ATOM      2  C3  UNL d   1       0.735   0.591   4.141  0.00  0.00     0.006 A 
ATOM      3  C4  UNL d   1       1.779   1.185   3.427  0.00  0.00     0.002 A 
ATOM      4  C5  UNL d   1       1.897   0.987   2.047  0.00  0.00    -0.080 A 
ATOM      5  C6  UNL d   1       2.995   1.643   1.264  0.00  0.00     0.076 C 
ATOM      6  C7  UNL d   1       0.971   0.165   1.397  0.00  0.00     0.002 A 
ATOM      7  C8  UNL d   1      -0.072  -0.430   2.111  0.00  0.00     0.006 A 
ENDROOT
BRANCH   1   8
ATOM      8  C1  UNL d   1      -1.366  -0.807   4.243  0.00  0.00     0.054 C 
ATOM      9  C   UNL d   1      -0.973  -2.100   4.943  0.00  0.00     0.018 C 
ENDBRANCH   1   8
TORSDOF 1
ENDMDL
