MODEL 1
REMARK minimizedAffinity -3.4283483
REMARK minimizedRMSD -1
REMARK  1 active torsions:
REMARK  status: ('A' for Active; 'I' for Inactive)
REMARK    1  A    between atoms: C1_2  and  C2_3 
ROOT
ATOM      1  C2  UNL d   1       0.372  -0.633  -1.254  0.00  0.00    -0.081 A 
ATOM      2  C3  UNL d   1       1.668  -0.909  -0.802  0.00  0.00     0.006 A 
ATOM      3  C4  UNL d   1       1.968  -0.861   0.562  0.00  0.00     0.002 A 
ATOM      4  C5  UNL d   1       0.975  -0.545   1.496  0.00  0.00    -0.080 A 
ATOM      5  C6  UNL d   1       1.276  -0.520   2.965  0.00  0.00     0.076 C 
ATOM      6  C7  UNL d   1      -0.315  -0.252   1.043  0.00  0.00     0.002 A 
ATOM      7  C8  UNL d   1      -0.615  -0.299  -0.321  0.00  0.00     0.006 A 
ENDROOT
BRANCH   1   8
ATOM      8  C1  UNL d   1       0.031  -0.747  -2.718  0.00  0.00     0.054 C 
ATOM      9  C   UNL d   1       0.856   0.220  -3.555  0.00  0.00     0.018 C 
ENDBRANCH   1   8
TORSDOF 1
ENDMDL
