MODEL 1
REMARK minimizedAffinity -1.63021123
REMARK minimizedRMSD -1
REMARK  0 active torsions:
REMARK  status: ('A' for Active; 'I' for Inactive)
ROOT
ATOM      1  C   UNL d   1       2.187  -1.192  -2.172  0.00  0.00     0.020 A 
ATOM      2  C1  UNL d   1       1.750  -1.987  -1.113  0.00  0.00     0.020 A 
ATOM      3  C2  UNL d   1       0.739  -1.527  -0.266  0.00  0.00     0.034 A 
ATOM      4  C3  UNL d   1       0.163  -0.269  -0.476  0.00  0.00     0.017 A 
ATOM      5  C4  UNL d   1       0.602   0.528  -1.539  0.00  0.00     0.017 A 
ATOM      6  C5  UNL d   1       1.615   0.063  -2.384  0.00  0.00     0.034 A 
ATOM      7 Cl   UNL d   1      -0.061   2.091  -1.861  0.00  0.00    -0.070 Cl
ATOM      8 Cl1  UNL d   1      -1.082   0.235   0.611  0.00  0.00    -0.070 Cl
ENDROOT
TORSDOF 0
ENDMDL
