MODEL 1
REMARK minimizedAffinity -5.22514057
REMARK minimizedRMSD -1
REMARK  0 active torsions:
REMARK  status: ('A' for Active; 'I' for Inactive)
ROOT
ATOM      1  C   UNL d   1       1.924   1.293  -2.064  0.00  0.00     0.020 A 
ATOM      2  C1  UNL d   1       2.567   0.062  -2.189  0.00  0.00     0.020 A 
ATOM      3  C2  UNL d   1       2.132  -1.032  -1.439  0.00  0.00     0.034 A 
ATOM      4  C3  UNL d   1       1.050  -0.898  -0.561  0.00  0.00     0.017 A 
ATOM      5  C4  UNL d   1       0.405   0.337  -0.436  0.00  0.00     0.017 A 
ATOM      6  C5  UNL d   1       0.845   1.430  -1.190  0.00  0.00     0.034 A 
ATOM      7 Cl   UNL d   1      -0.936   0.580   0.626  0.00  0.00    -0.070 Cl
ATOM      8 Cl1  UNL d   1       0.565  -2.294   0.335  0.00  0.00    -0.070 Cl
ENDROOT
TORSDOF 0
ENDMDL
