MODEL 1
REMARK minimizedAffinity -3.29310393
REMARK minimizedRMSD -1
REMARK  0 active torsions:
REMARK  status: ('A' for Active; 'I' for Inactive)
ROOT
ATOM      1  C   UNL d   1      -1.023  -0.414   0.110  0.00  0.00     0.020 A 
ATOM      2  C1  UNL d   1      -0.094  -1.453   0.065  0.00  0.00     0.020 A 
ATOM      3  C2  UNL d   1       1.068  -1.318  -0.698  0.00  0.00     0.034 A 
ATOM      4  C3  UNL d   1       1.304  -0.141  -1.418  0.00  0.00     0.017 A 
ATOM      5  C4  UNL d   1       0.371   0.901  -1.372  0.00  0.00     0.017 A 
ATOM      6  C5  UNL d   1      -0.791   0.760  -0.607  0.00  0.00     0.034 A 
ATOM      7 Cl   UNL d   1       0.593   2.383  -2.233  0.00  0.00    -0.070 Cl
ATOM      8 Cl1  UNL d   1       2.763  -0.042  -2.340  0.00  0.00    -0.070 Cl
ENDROOT
TORSDOF 0
ENDMDL
