MODEL 1
REMARK minimizedAffinity -4.94198656
REMARK minimizedRMSD -1
REMARK  0 active torsions:
REMARK  status: ('A' for Active; 'I' for Inactive)
ROOT
ATOM      1  C   UNL d   1       1.749  -1.749  -0.776  0.00  0.00     0.020 A 
ATOM      2  C1  UNL d   1       2.177  -0.941  -1.829  0.00  0.00     0.020 A 
ATOM      3  C2  UNL d   1       1.490   0.237  -2.129  0.00  0.00     0.034 A 
ATOM      4  C3  UNL d   1       0.371   0.611  -1.376  0.00  0.00     0.017 A 
ATOM      5  C4  UNL d   1      -0.058  -0.201  -0.319  0.00  0.00     0.017 A 
ATOM      6  C5  UNL d   1       0.634  -1.379  -0.023  0.00  0.00     0.034 A 
ATOM      7 Cl   UNL d   1      -1.430   0.194   0.655  0.00  0.00    -0.070 Cl
ATOM      8 Cl1  UNL d   1      -0.431   2.080  -1.803  0.00  0.00    -0.070 Cl
ENDROOT
TORSDOF 0
ENDMDL
