MODEL 1
REMARK minimizedAffinity -4.25771523
REMARK minimizedRMSD -1
REMARK  0 active torsions:
REMARK  status: ('A' for Active; 'I' for Inactive)
ROOT
ATOM      1  C   UNL d   1       0.299   1.289   0.141  0.00  0.00     0.020 A 
ATOM      2  C1  UNL d   1      -0.674   0.307  -0.042  0.00  0.00     0.020 A 
ATOM      3  C2  UNL d   1      -0.329  -0.921  -0.611  0.00  0.00     0.034 A 
ATOM      4  C3  UNL d   1       0.992  -1.170  -1.000  0.00  0.00     0.017 A 
ATOM      5  C4  UNL d   1       1.968  -0.183  -0.817  0.00  0.00     0.017 A 
ATOM      6  C5  UNL d   1       1.617   1.044  -0.246  0.00  0.00     0.034 A 
ATOM      7 Cl   UNL d   1       3.619  -0.417  -1.272  0.00  0.00    -0.070 Cl
ATOM      8 Cl1  UNL d   1       1.347  -2.710  -1.698  0.00  0.00    -0.070 Cl
ENDROOT
TORSDOF 0
ENDMDL
