MODEL 1
REMARK minimizedAffinity -3.29169178
REMARK minimizedRMSD -1
REMARK  0 active torsions:
REMARK  status: ('A' for Active; 'I' for Inactive)
ROOT
ATOM      1  C   UNL d   1       2.553  -1.804  -1.855  0.00  0.00     0.020 A 
ATOM      2  C1  UNL d   1       1.816  -2.483  -0.886  0.00  0.00     0.020 A 
ATOM      3  C2  UNL d   1       0.715  -1.867  -0.288  0.00  0.00     0.034 A 
ATOM      4  C3  UNL d   1       0.348  -0.568  -0.658  0.00  0.00     0.017 A 
ATOM      5  C4  UNL d   1       1.089   0.113  -1.631  0.00  0.00     0.017 A 
ATOM      6  C5  UNL d   1       2.190  -0.509  -2.227  0.00  0.00     0.034 A 
ATOM      7 Cl   UNL d   1       0.697   1.717  -2.140  0.00  0.00    -0.070 Cl
ATOM      8 Cl1  UNL d   1      -1.025   0.132   0.123  0.00  0.00    -0.070 Cl
ENDROOT
TORSDOF 0
ENDMDL
