MODEL 1
REMARK minimizedAffinity -2.62803292
REMARK minimizedRMSD -1
REMARK  0 active torsions:
REMARK  status: ('A' for Active; 'I' for Inactive)
ROOT
ATOM      1  C   UNL d   1       1.507  -1.126  -1.397  0.00  0.00     0.020 A 
ATOM      2  C1  UNL d   1       1.207  -1.750  -0.186  0.00  0.00     0.020 A 
ATOM      3  C2  UNL d   1       0.189  -1.245   0.626  0.00  0.00     0.034 A 
ATOM      4  C3  UNL d   1      -0.531  -0.112   0.230  0.00  0.00     0.017 A 
ATOM      5  C4  UNL d   1      -0.229   0.514  -0.985  0.00  0.00     0.017 A 
ATOM      6  C5  UNL d   1       0.790   0.003  -1.795  0.00  0.00     0.034 A 
ATOM      7 Cl   UNL d   1      -1.074   1.915  -1.541  0.00  0.00    -0.070 Cl
ATOM      8 Cl1  UNL d   1      -1.775   0.458   1.284  0.00  0.00    -0.070 Cl
ENDROOT
TORSDOF 0
ENDMDL
