MODEL 1
REMARK minimizedAffinity -5.55448103
REMARK minimizedRMSD -1
REMARK  0 active torsions:
REMARK  status: ('A' for Active; 'I' for Inactive)
ROOT
ATOM      1  C   UNL d   1       1.418   1.270  -2.684  0.00  0.00     0.020 A 
ATOM      2  C1  UNL d   1       2.128   0.070  -2.685  0.00  0.00     0.020 A 
ATOM      3  C2  UNL d   1       1.814  -0.928  -1.761  0.00  0.00     0.034 A 
ATOM      4  C3  UNL d   1       0.787  -0.728  -0.831  0.00  0.00     0.017 A 
ATOM      5  C4  UNL d   1       0.075   0.477  -0.830  0.00  0.00     0.017 A 
ATOM      6  C5  UNL d   1       0.394   1.473  -1.759  0.00  0.00     0.034 A 
ATOM      7 Cl   UNL d   1      -1.205   0.797   0.286  0.00  0.00    -0.070 Cl
ATOM      8 Cl1  UNL d   1       0.452  -2.005   0.284  0.00  0.00    -0.070 Cl
ENDROOT
TORSDOF 0
ENDMDL
