MODEL 1
REMARK minimizedAffinity -1.48514616
REMARK minimizedRMSD -1
REMARK  0 active torsions:
REMARK  status: ('A' for Active; 'I' for Inactive)
ROOT
ATOM      1  C   UNL d   1       0.450  -2.624  -0.058  0.00  0.00     0.020 A 
ATOM      2  C1  UNL d   1       1.544  -2.426  -0.900  0.00  0.00     0.020 A 
ATOM      3  C2  UNL d   1       1.780  -1.165  -1.453  0.00  0.00     0.034 A 
ATOM      4  C3  UNL d   1       0.921  -0.098  -1.165  0.00  0.00     0.017 A 
ATOM      5  C4  UNL d   1      -0.176  -0.298  -0.319  0.00  0.00     0.017 A 
ATOM      6  C5  UNL d   1      -0.407  -1.562   0.232  0.00  0.00     0.034 A 
ATOM      7 Cl   UNL d   1      -1.279   0.970   0.084  0.00  0.00    -0.070 Cl
ATOM      8 Cl1  UNL d   1       1.273   1.433  -1.883  0.00  0.00    -0.070 Cl
ENDROOT
TORSDOF 0
ENDMDL
