MODEL 1
REMARK minimizedAffinity -4.73400927
REMARK minimizedRMSD -1
REMARK  0 active torsions:
REMARK  status: ('A' for Active; 'I' for Inactive)
ROOT
ATOM      1  C   UNL d   1       0.457  -1.854  -0.137  0.00  0.00     0.020 A 
ATOM      2  C1  UNL d   1      -0.481  -0.828  -0.026  0.00  0.00     0.020 A 
ATOM      3  C2  UNL d   1      -0.212   0.427  -0.575  0.00  0.00     0.034 A 
ATOM      4  C3  UNL d   1       0.999   0.661  -1.237  0.00  0.00     0.017 A 
ATOM      5  C4  UNL d   1       1.940  -0.369  -1.348  0.00  0.00     0.017 A 
ATOM      6  C5  UNL d   1       1.665  -1.624  -0.797  0.00  0.00     0.034 A 
ATOM      7 Cl   UNL d   1       3.456  -0.157  -2.151  0.00  0.00    -0.070 Cl
ATOM      8 Cl1  UNL d   1       1.265   2.237  -1.892  0.00  0.00    -0.070 Cl
ENDROOT
TORSDOF 0
ENDMDL
