MODEL 1
REMARK minimizedAffinity -4.90342617
REMARK minimizedRMSD -1
REMARK  0 active torsions:
REMARK  status: ('A' for Active; 'I' for Inactive)
ROOT
ATOM      1  C   UNL d   1       1.995  -1.762  -0.504  0.00  0.00     0.020 A 
ATOM      2  C1  UNL d   1       2.873  -1.063  -1.332  0.00  0.00     0.020 A 
ATOM      3  C2  UNL d   1       2.526   0.204  -1.806  0.00  0.00     0.034 A 
ATOM      4  C3  UNL d   1       1.298   0.776  -1.454  0.00  0.00     0.017 A 
ATOM      5  C4  UNL d   1       0.418   0.074  -0.623  0.00  0.00     0.017 A 
ATOM      6  C5  UNL d   1       0.770  -1.195  -0.151  0.00  0.00     0.034 A 
ATOM      7 Cl   UNL d   1      -1.115   0.714  -0.144  0.00  0.00    -0.070 Cl
ATOM      8 Cl1  UNL d   1       0.935   2.346  -2.076  0.00  0.00    -0.070 Cl
ENDROOT
TORSDOF 0
ENDMDL
