MODEL 1
REMARK minimizedAffinity -3.71388197
REMARK minimizedRMSD -1
REMARK  0 active torsions:
REMARK  status: ('A' for Active; 'I' for Inactive)
ROOT
ATOM      1  C   UNL d   1       1.811   0.790  -0.890  0.00  0.00     0.020 A 
ATOM      2  C1  UNL d   1       2.433  -0.379  -1.329  0.00  0.00     0.020 A 
ATOM      3  C2  UNL d   1       1.886  -1.623  -1.009  0.00  0.00     0.034 A 
ATOM      4  C3  UNL d   1       0.715  -1.703  -0.247  0.00  0.00     0.017 A 
ATOM      5  C4  UNL d   1       0.092  -0.529   0.194  0.00  0.00     0.017 A 
ATOM      6  C5  UNL d   1       0.644   0.714  -0.129  0.00  0.00     0.034 A 
ATOM      7 Cl   UNL d   1      -1.355  -0.547   1.139  0.00  0.00    -0.070 Cl
ATOM      8 Cl1  UNL d   1       0.095  -3.275   0.112  0.00  0.00    -0.070 Cl
ENDROOT
TORSDOF 0
ENDMDL
