MODEL 1
REMARK minimizedAffinity 0.919788301
REMARK minimizedRMSD -1
REMARK  0 active torsions:
REMARK  status: ('A' for Active; 'I' for Inactive)
ROOT
ATOM      1  C   UNL d   1      -3.774  -0.157   3.415  0.00  0.00     0.020 A 
ATOM      2  C1  UNL d   1      -3.636   1.084   4.034  0.00  0.00     0.020 A 
ATOM      3  C2  UNL d   1      -2.555   1.909   3.712  0.00  0.00     0.034 A 
ATOM      4  C3  UNL d   1      -1.609   1.492   2.769  0.00  0.00     0.017 A 
ATOM      5  C4  UNL d   1      -1.748   0.246   2.148  0.00  0.00     0.017 A 
ATOM      6  C5  UNL d   1      -2.832  -0.576   2.474  0.00  0.00     0.034 A 
ATOM      7 Cl   UNL d   1      -0.621  -0.336   0.975  0.00  0.00    -0.070 Cl
ATOM      8 Cl1  UNL d   1      -0.298   2.563   2.420  0.00  0.00    -0.070 Cl
ENDROOT
TORSDOF 0
ENDMDL
