MODEL 1
REMARK minimizedAffinity 4.04184437
REMARK minimizedRMSD -1
REMARK  0 active torsions:
REMARK  status: ('A' for Active; 'I' for Inactive)
ROOT
ATOM      1  C   UNL d   1       1.804  -0.326  -3.281  0.00  0.00     0.020 A 
ATOM      2  C1  UNL d   1       1.760  -1.477  -2.495  0.00  0.00     0.020 A 
ATOM      3  C2  UNL d   1       0.915  -1.533  -1.385  0.00  0.00     0.034 A 
ATOM      4  C3  UNL d   1       0.111  -0.436  -1.057  0.00  0.00     0.017 A 
ATOM      5  C4  UNL d   1       0.156   0.719  -1.846  0.00  0.00     0.017 A 
ATOM      6  C5  UNL d   1       1.004   0.770  -2.956  0.00  0.00     0.034 A 
ATOM      7 Cl   UNL d   1      -0.807   2.113  -1.504  0.00  0.00    -0.070 Cl
ATOM      8 Cl1  UNL d   1      -0.911  -0.575   0.330  0.00  0.00    -0.070 Cl
ENDROOT
TORSDOF 0
ENDMDL
