MODEL 1
REMARK minimizedAffinity 8.66555691
REMARK minimizedRMSD -1
REMARK  0 active torsions:
REMARK  status: ('A' for Active; 'I' for Inactive)
ROOT
ATOM      1  C   UNL d   1       1.531  -2.569  -2.005  0.00  0.00     0.020 A 
ATOM      2  C1  UNL d   1       0.186  -2.350  -2.302  0.00  0.00     0.020 A 
ATOM      3  C2  UNL d   1      -0.672  -1.847  -1.322  0.00  0.00     0.034 A 
ATOM      4  C3  UNL d   1      -0.187  -1.563  -0.040  0.00  0.00     0.017 A 
ATOM      5  C4  UNL d   1       1.162  -1.784   0.257  0.00  0.00     0.017 A 
ATOM      6  C5  UNL d   1       2.018  -2.286  -0.728  0.00  0.00     0.034 A 
ATOM      7 Cl   UNL d   1       1.834  -1.456   1.816  0.00  0.00    -0.070 Cl
ATOM      8 Cl1  UNL d   1      -1.306  -0.944   1.123  0.00  0.00    -0.070 Cl
ENDROOT
TORSDOF 0
ENDMDL
