MODEL 1
REMARK minimizedAffinity -3.77078724
REMARK minimizedRMSD -1
REMARK  0 active torsions:
REMARK  status: ('A' for Active; 'I' for Inactive)
ROOT
ATOM      1  C   UNL d   1       2.855  -0.742  -1.663  0.00  0.00     0.020 A 
ATOM      2  C1  UNL d   1       2.305   0.537  -1.747  0.00  0.00     0.020 A 
ATOM      3  C2  UNL d   1       1.132   0.840  -1.053  0.00  0.00     0.034 A 
ATOM      4  C3  UNL d   1       0.504  -0.137  -0.272  0.00  0.00     0.017 A 
ATOM      5  C4  UNL d   1       1.056  -1.420  -0.188  0.00  0.00     0.017 A 
ATOM      6  C5  UNL d   1       2.231  -1.718  -0.885  0.00  0.00     0.034 A 
ATOM      7 Cl   UNL d   1       0.339  -2.678   0.756  0.00  0.00    -0.070 Cl
ATOM      8 Cl1  UNL d   1      -0.944   0.307   0.559  0.00  0.00    -0.070 Cl
ENDROOT
TORSDOF 0
ENDMDL
