MODEL 1
REMARK minimizedAffinity -3.95458484
REMARK minimizedRMSD -1
REMARK  0 active torsions:
REMARK  status: ('A' for Active; 'I' for Inactive)
ROOT
ATOM      1  C   UNL d   1      -1.074  -0.037  -0.493  0.00  0.00     0.020 A 
ATOM      2  C1  UNL d   1      -0.445  -1.276  -0.383  0.00  0.00     0.020 A 
ATOM      3  C2  UNL d   1       0.908  -1.404  -0.704  0.00  0.00     0.034 A 
ATOM      4  C3  UNL d   1       1.637  -0.290  -1.136  0.00  0.00     0.017 A 
ATOM      5  C4  UNL d   1       1.005   0.954  -1.246  0.00  0.00     0.017 A 
ATOM      6  C5  UNL d   1      -0.350   1.076  -0.923  0.00  0.00     0.034 A 
ATOM      7 Cl   UNL d   1       1.839   2.373  -1.772  0.00  0.00    -0.070 Cl
ATOM      8 Cl1  UNL d   1       3.307  -0.521  -1.515  0.00  0.00    -0.070 Cl
ENDROOT
TORSDOF 0
ENDMDL
