MODEL 1
REMARK minimizedAffinity -4.02198362
REMARK minimizedRMSD -1
REMARK  0 active torsions:
REMARK  status: ('A' for Active; 'I' for Inactive)
ROOT
ATOM      1  C   UNL d   1       2.018   1.021  -1.640  0.00  0.00     0.020 A 
ATOM      2  C1  UNL d   1       2.484  -0.289  -1.746  0.00  0.00     0.020 A 
ATOM      3  C2  UNL d   1       1.753  -1.338  -1.183  0.00  0.00     0.034 A 
ATOM      4  C3  UNL d   1       0.554  -1.078  -0.510  0.00  0.00     0.017 A 
ATOM      5  C4  UNL d   1       0.087   0.237  -0.404  0.00  0.00     0.017 A 
ATOM      6  C5  UNL d   1       0.822   1.283  -0.970  0.00  0.00     0.034 A 
ATOM      7 Cl   UNL d   1      -1.385   0.636   0.410  0.00  0.00    -0.070 Cl
ATOM      8 Cl1  UNL d   1      -0.298  -2.423   0.162  0.00  0.00    -0.070 Cl
ENDROOT
TORSDOF 0
ENDMDL
