MODEL 1
REMARK minimizedAffinity -3.67005467
REMARK minimizedRMSD -1
REMARK  0 active torsions:
REMARK  status: ('A' for Active; 'I' for Inactive)
ROOT
ATOM      1  C   UNL d   1      -2.791  -0.889   4.481  0.00  0.00     0.020 A 
ATOM      2  C1  UNL d   1      -2.859  -1.807   3.434  0.00  0.00     0.020 A 
ATOM      3  C2  UNL d   1      -2.598  -1.395   2.126  0.00  0.00     0.034 A 
ATOM      4  C3  UNL d   1      -2.266  -0.061   1.861  0.00  0.00     0.017 A 
ATOM      5  C4  UNL d   1      -2.198   0.860   2.913  0.00  0.00     0.017 A 
ATOM      6  C5  UNL d   1      -2.461   0.442   4.221  0.00  0.00     0.034 A 
ATOM      7 Cl   UNL d   1      -1.795   2.522   2.665  0.00  0.00    -0.070 Cl
ATOM      8 Cl1  UNL d   1      -1.955   0.379   0.220  0.00  0.00    -0.070 Cl
ENDROOT
TORSDOF 0
ENDMDL
