MODEL 1
REMARK minimizedAffinity 8.54044342
REMARK minimizedRMSD -1
REMARK  2 active torsions:
REMARK  status: ('A' for Active; 'I' for Inactive)
REMARK    1  A    between atoms: C2'_3  and  C1'_4 
REMARK    2  A    between atoms: C1'_4  and  C1_5 
ROOT
ATOM      1  C1  I4B d   1       2.764  -1.843   2.862  0.00  0.00    -0.075 A 
ATOM      2  C2  I4B d   1       2.371  -2.311   4.091  0.00  0.00     0.003 A 
ATOM      3  C3  I4B d   1       1.479  -1.556   4.890  0.00  0.00     0.002 A 
ATOM      4  C4  I4B d   1       1.048  -0.322   4.447  0.00  0.00    -0.004 A 
ATOM      5  C5  I4B d   1       1.430   0.141   3.191  0.00  0.00     0.002 A 
ATOM      6  C6  I4B d   1       2.284  -0.629   2.388  0.00  0.00     0.003 A 
ENDROOT
BRANCH   1   7
ATOM      7  C1' I4B d   1       3.733  -2.651   2.059  0.00  0.00     0.060 C 
BRANCH   7   8
ATOM      8  C2' I4B d   1       4.575  -1.693   1.241  0.00  0.00    -0.013 C 
ATOM      9  C4' I4B d   1       5.997  -2.176   1.130  0.00  0.00     0.013 C 
ATOM     10  C3' I4B d   1       3.942  -1.559  -0.112  0.00  0.00     0.013 C 
ENDBRANCH   7   8
ENDBRANCH   1   7
TORSDOF 2
ENDMDL
