MODEL 1
REMARK minimizedAffinity 9.89995575
REMARK minimizedRMSD -1
REMARK  2 active torsions:
REMARK  status: ('A' for Active; 'I' for Inactive)
REMARK    1  A    between atoms: C2'_3  and  C1'_4 
REMARK    2  A    between atoms: C1'_4  and  C1_5 
ROOT
ATOM      1  C1  I4B d   1       0.048   0.541   0.738  0.00  0.00    -0.075 A 
ATOM      2  C2  I4B d   1       0.010   1.828   0.262  0.00  0.00     0.003 A 
ATOM      3  C3  I4B d   1      -1.189   2.355  -0.274  0.00  0.00     0.002 A 
ATOM      4  C4  I4B d   1      -2.306   1.549  -0.362  0.00  0.00    -0.004 A 
ATOM      5  C5  I4B d   1      -2.273   0.252   0.143  0.00  0.00     0.002 A 
ATOM      6  C6  I4B d   1      -1.093  -0.252   0.707  0.00  0.00     0.003 A 
ENDROOT
BRANCH   1   7
ATOM      7  C1' I4B d   1       1.340   0.005   1.268  0.00  0.00     0.060 C 
BRANCH   7   8
ATOM      8  C2' I4B d   1       1.100  -0.476   2.685  0.00  0.00    -0.013 C 
ATOM      9  C4' I4B d   1       1.991  -1.642   3.023  0.00  0.00     0.013 C 
ATOM     10  C3' I4B d   1       1.342   0.677   3.613  0.00  0.00     0.013 C 
ENDBRANCH   7   8
ENDBRANCH   1   7
TORSDOF 2
ENDMDL
