MODEL 1
REMARK minimizedAffinity 6.72887468
REMARK minimizedRMSD -1
REMARK  2 active torsions:
REMARK  status: ('A' for Active; 'I' for Inactive)
REMARK    1  A    between atoms: C2'_3  and  C1'_4 
REMARK    2  A    between atoms: C1'_4  and  C1_5 
ROOT
ATOM      1  C1  I4B d   1      -0.243   0.895   0.951  0.00  0.00    -0.075 A 
ATOM      2  C2  I4B d   1      -1.328   0.064   0.820  0.00  0.00     0.003 A 
ATOM      3  C3  I4B d   1      -1.245  -1.288   1.235  0.00  0.00     0.002 A 
ATOM      4  C4  I4B d   1      -0.051  -1.776   1.724  0.00  0.00    -0.004 A 
ATOM      5  C5  I4B d   1       1.041  -0.926   1.878  0.00  0.00     0.002 A 
ATOM      6  C6  I4B d   1       0.941   0.421   1.500  0.00  0.00     0.003 A 
ENDROOT
BRANCH   1   7
ATOM      7  C1' I4B d   1      -0.356   2.307   0.472  0.00  0.00     0.060 C 
BRANCH   7   8
ATOM      8  C2' I4B d   1      -0.760   3.169   1.652  0.00  0.00    -0.013 C 
ATOM      9  C4' I4B d   1       0.092   4.408   1.739  0.00  0.00     0.013 C 
ATOM     10  C3' I4B d   1      -2.210   3.518   1.494  0.00  0.00     0.013 C 
ENDBRANCH   7   8
ENDBRANCH   1   7
TORSDOF 2
ENDMDL
