MODEL 1
REMARK minimizedAffinity -0.592773795
REMARK minimizedRMSD -1
REMARK  2 active torsions:
REMARK  status: ('A' for Active; 'I' for Inactive)
REMARK    1  A    between atoms: C2'_3  and  C1'_4 
REMARK    2  A    between atoms: C1'_4  and  C1_5 
ROOT
ATOM      1  C1  I4B d   1      -3.277  -2.287  -1.922  0.00  0.00    -0.075 A 
ATOM      2  C2  I4B d   1      -3.338  -1.290  -0.981  0.00  0.00     0.003 A 
ATOM      3  C3  I4B d   1      -3.180   0.064  -1.366  0.00  0.00     0.002 A 
ATOM      4  C4  I4B d   1      -2.913   0.368  -2.686  0.00  0.00    -0.004 A 
ATOM      5  C5  I4B d   1      -2.874  -0.642  -3.642  0.00  0.00     0.002 A 
ATOM      6  C6  I4B d   1      -3.070  -1.978  -3.260  0.00  0.00     0.003 A 
ENDROOT
BRANCH   1   7
ATOM      7  C1' I4B d   1      -3.416  -3.708  -1.476  0.00  0.00     0.060 C 
BRANCH   7   8
ATOM      8  C2' I4B d   1      -2.043  -4.208  -1.074  0.00  0.00    -0.013 C 
ATOM      9  C4' I4B d   1      -1.079  -4.143  -2.229  0.00  0.00     0.013 C 
ATOM     10  C3' I4B d   1      -1.566  -3.373   0.077  0.00  0.00     0.013 C 
ENDBRANCH   7   8
ENDBRANCH   1   7
TORSDOF 2
ENDMDL
