MODEL 1
REMARK minimizedAffinity 4.92208767
REMARK minimizedRMSD -1
REMARK  2 active torsions:
REMARK  status: ('A' for Active; 'I' for Inactive)
REMARK    1  A    between atoms: C2'_3  and  C1'_4 
REMARK    2  A    between atoms: C1'_4  and  C1_5 
ROOT
ATOM      1  C1  I4B d   1       1.181  -0.718   2.945  0.00  0.00    -0.075 A 
ATOM      2  C2  I4B d   1       0.768  -0.025   4.055  0.00  0.00     0.003 A 
ATOM      3  C3  I4B d   1       0.978  -0.560   5.349  0.00  0.00     0.002 A 
ATOM      4  C4  I4B d   1       1.555  -1.806   5.484  0.00  0.00    -0.004 A 
ATOM      5  C5  I4B d   1       1.994  -2.498   4.359  0.00  0.00     0.002 A 
ATOM      6  C6  I4B d   1       1.818  -1.945   3.082  0.00  0.00     0.003 A 
ENDROOT
BRANCH   1   7
ATOM      7  C1' I4B d   1       0.914  -0.139   1.592  0.00  0.00     0.060 C 
BRANCH   7   8
ATOM      8  C2' I4B d   1      -0.562   0.193   1.510  0.00  0.00    -0.013 C 
ATOM      9  C4' I4B d   1      -0.823   1.267   0.487  0.00  0.00     0.013 C 
ATOM     10  C3' I4B d   1      -1.302  -1.067   1.174  0.00  0.00     0.013 C 
ENDBRANCH   7   8
ENDBRANCH   1   7
TORSDOF 2
ENDMDL
