MODEL 1
REMARK minimizedAffinity 10.1968298
REMARK minimizedRMSD -1
REMARK  2 active torsions:
REMARK  status: ('A' for Active; 'I' for Inactive)
REMARK    1  A    between atoms: C2'_3  and  C1'_4 
REMARK    2  A    between atoms: C1'_4  and  C1_5 
ROOT
ATOM      1  C1  I4B d   1      -4.042   3.531  -3.193  0.00  0.00    -0.075 A 
ATOM      2  C2  I4B d   1      -4.241   4.807  -2.729  0.00  0.00     0.003 A 
ATOM      3  C3  I4B d   1      -4.058   5.916  -3.591  0.00  0.00     0.002 A 
ATOM      4  C4  I4B d   1      -3.629   5.706  -4.885  0.00  0.00    -0.004 A 
ATOM      5  C5  I4B d   1      -3.450   4.411  -5.361  0.00  0.00     0.002 A 
ATOM      6  C6  I4B d   1      -3.670   3.315  -4.513  0.00  0.00     0.003 A 
ENDROOT
BRANCH   1   7
ATOM      7  C1' I4B d   1      -4.213   2.385  -2.247  0.00  0.00     0.060 C 
BRANCH   7   8
ATOM      8  C2' I4B d   1      -3.355   1.239  -2.742  0.00  0.00    -0.013 C 
ATOM      9  C4' I4B d   1      -2.549   0.637  -1.622  0.00  0.00     0.013 C 
ATOM     10  C3' I4B d   1      -4.261   0.219  -3.365  0.00  0.00     0.013 C 
ENDBRANCH   7   8
ENDBRANCH   1   7
TORSDOF 2
ENDMDL
