MODEL 1
REMARK minimizedAffinity -4.99314356
REMARK minimizedRMSD -1
REMARK  0 active torsions:
REMARK  status: ('A' for Active; 'I' for Inactive)
ROOT
ATOM      1  C   UNL d   1      -2.942  -0.728   1.678  0.00  0.00     0.020 A 
ATOM      2  C1  UNL d   1      -2.256  -1.935   1.803  0.00  0.00     0.020 A 
ATOM      3  C2  UNL d   1      -0.969  -2.066   1.276  0.00  0.00     0.034 A 
ATOM      4  C3  UNL d   1      -0.364  -0.987   0.622  0.00  0.00     0.017 A 
ATOM      5  C4  UNL d   1      -1.053   0.225   0.497  0.00  0.00     0.017 A 
ATOM      6  C5  UNL d   1      -2.341   0.350   1.026  0.00  0.00     0.034 A 
ATOM      7 Cl   UNL d   1      -0.371   1.601  -0.297  0.00  0.00    -0.070 Cl
ATOM      8 Cl1  UNL d   1       1.230  -1.219  -0.005  0.00  0.00    -0.070 Cl
ENDROOT
TORSDOF 0
ENDMDL
