MODEL 1
REMARK minimizedAffinity -4.26913786
REMARK minimizedRMSD -1
REMARK  0 active torsions:
REMARK  status: ('A' for Active; 'I' for Inactive)
ROOT
ATOM      1  C   UNL d   1      -1.693  -2.705   1.913  0.00  0.00     0.020 A 
ATOM      2  C1  UNL d   1      -0.502  -2.655   1.191  0.00  0.00     0.020 A 
ATOM      3  C2  UNL d   1      -0.069  -1.447   0.640  0.00  0.00     0.034 A 
ATOM      4  C3  UNL d   1      -0.829  -0.284   0.810  0.00  0.00     0.017 A 
ATOM      5  C4  UNL d   1      -2.025  -0.335   1.535  0.00  0.00     0.017 A 
ATOM      6  C5  UNL d   1      -2.453  -1.547   2.085  0.00  0.00     0.034 A 
ATOM      7 Cl   UNL d   1      -3.016   1.058   1.787  0.00  0.00    -0.070 Cl
ATOM      8 Cl1  UNL d   1      -0.233   1.175   0.102  0.00  0.00    -0.070 Cl
ENDROOT
TORSDOF 0
ENDMDL
