MODEL 1
REMARK minimizedAffinity -5.34072495
REMARK minimizedRMSD -1
REMARK  0 active torsions:
REMARK  status: ('A' for Active; 'I' for Inactive)
ROOT
ATOM      1  C   UNL d   1      -3.006  -1.808   1.899  0.00  0.00     0.020 A 
ATOM      2  C1  UNL d   1      -2.047  -2.667   1.364  0.00  0.00     0.020 A 
ATOM      3  C2  UNL d   1      -0.819  -2.161   0.932  0.00  0.00     0.034 A 
ATOM      4  C3  UNL d   1      -0.548  -0.792   1.033  0.00  0.00     0.017 A 
ATOM      5  C4  UNL d   1      -1.511   0.070   1.569  0.00  0.00     0.017 A 
ATOM      6  C5  UNL d   1      -2.738  -0.442   2.001  0.00  0.00     0.034 A 
ATOM      7 Cl   UNL d   1      -1.249   1.771   1.725  0.00  0.00    -0.070 Cl
ATOM      8 Cl1  UNL d   1       0.991  -0.235   0.479  0.00  0.00    -0.070 Cl
ENDROOT
TORSDOF 0
ENDMDL
