MODEL 1
REMARK minimizedAffinity -2.60700345
REMARK minimizedRMSD -1
REMARK  0 active torsions:
REMARK  status: ('A' for Active; 'I' for Inactive)
ROOT
ATOM      1  C   UNL d   1      -0.826   0.178  -0.400  0.00  0.00     0.020 A 
ATOM      2  C1  UNL d   1       0.318  -0.616  -0.460  0.00  0.00     0.020 A 
ATOM      3  C2  UNL d   1       0.560  -1.568   0.533  0.00  0.00     0.034 A 
ATOM      4  C3  UNL d   1      -0.342  -1.727   1.590  0.00  0.00     0.017 A 
ATOM      5  C4  UNL d   1      -1.491  -0.929   1.650  0.00  0.00     0.017 A 
ATOM      6  C5  UNL d   1      -1.729   0.022   0.653  0.00  0.00     0.034 A 
ATOM      7 Cl   UNL d   1      -2.651  -1.068   2.923  0.00  0.00    -0.070 Cl
ATOM      8 Cl1  UNL d   1       0.021  -2.923   2.783  0.00  0.00    -0.070 Cl
ENDROOT
TORSDOF 0
ENDMDL
