MODEL 1
REMARK minimizedAffinity -4.40915012
REMARK minimizedRMSD -1
REMARK  0 active torsions:
REMARK  status: ('A' for Active; 'I' for Inactive)
ROOT
ATOM      1  C   UNL d   1      -2.592  -0.569   1.471  0.00  0.00     0.020 A 
ATOM      2  C1  UNL d   1      -2.161  -1.892   1.571  0.00  0.00     0.020 A 
ATOM      3  C2  UNL d   1      -0.879  -2.243   1.142  0.00  0.00     0.034 A 
ATOM      4  C3  UNL d   1      -0.023  -1.271   0.612  0.00  0.00     0.017 A 
ATOM      5  C4  UNL d   1      -0.456   0.057   0.513  0.00  0.00     0.017 A 
ATOM      6  C5  UNL d   1      -1.741   0.403   0.943  0.00  0.00     0.034 A 
ATOM      7 Cl   UNL d   1       0.543   1.312  -0.130  0.00  0.00    -0.070 Cl
ATOM      8 Cl1  UNL d   1       1.548  -1.775   0.102  0.00  0.00    -0.070 Cl
ENDROOT
TORSDOF 0
ENDMDL
