MODEL 1
REMARK minimizedAffinity -2.62022448
REMARK minimizedRMSD -1
REMARK  0 active torsions:
REMARK  status: ('A' for Active; 'I' for Inactive)
ROOT
ATOM      1  C   UNL d   1      -1.318  -2.336   1.828  0.00  0.00     0.020 A 
ATOM      2  C1  UNL d   1      -0.128  -2.421   1.106  0.00  0.00     0.020 A 
ATOM      3  C2  UNL d   1       0.385  -1.289   0.469  0.00  0.00     0.034 A 
ATOM      4  C3  UNL d   1      -0.293  -0.067   0.553  0.00  0.00     0.017 A 
ATOM      5  C4  UNL d   1      -1.487   0.017   1.277  0.00  0.00     0.017 A 
ATOM      6  C5  UNL d   1      -1.996  -1.120   1.913  0.00  0.00     0.034 A 
ATOM      7 Cl   UNL d   1      -2.380   1.490   1.426  0.00  0.00    -0.070 Cl
ATOM      8 Cl1  UNL d   1       0.398   1.293  -0.259  0.00  0.00    -0.070 Cl
ENDROOT
TORSDOF 0
ENDMDL
