MODEL 1
REMARK minimizedAffinity -4.06358242
REMARK minimizedRMSD -1
REMARK  0 active torsions:
REMARK  status: ('A' for Active; 'I' for Inactive)
ROOT
ATOM      1  C   UNL d   1      -1.866  -1.724   1.983  0.00  0.00     0.020 A 
ATOM      2  C1  UNL d   1      -2.262  -0.387   1.980  0.00  0.00     0.020 A 
ATOM      3  C2  UNL d   1      -1.532   0.555   1.253  0.00  0.00     0.034 A 
ATOM      4  C3  UNL d   1      -0.403   0.162   0.525  0.00  0.00     0.017 A 
ATOM      5  C4  UNL d   1      -0.007  -1.180   0.528  0.00  0.00     0.017 A 
ATOM      6  C5  UNL d   1      -0.741  -2.120   1.259  0.00  0.00     0.034 A 
ATOM      7 Cl   UNL d   1       1.375  -1.741  -0.345  0.00  0.00    -0.070 Cl
ATOM      8 Cl1  UNL d   1       0.452   1.380  -0.353  0.00  0.00    -0.070 Cl
ENDROOT
TORSDOF 0
ENDMDL
