MODEL 1
REMARK minimizedAffinity 0.621651709
REMARK minimizedRMSD -1
REMARK  0 active torsions:
REMARK  status: ('A' for Active; 'I' for Inactive)
ROOT
ATOM      1  C   UNL d   1       0.854   0.702  -0.559  0.00  0.00     0.020 A 
ATOM      2  C1  UNL d   1       1.397  -0.551  -0.279  0.00  0.00     0.020 A 
ATOM      3  C2  UNL d   1       0.737  -1.419   0.594  0.00  0.00     0.034 A 
ATOM      4  C3  UNL d   1      -0.469  -1.034   1.191  0.00  0.00     0.017 A 
ATOM      5  C4  UNL d   1      -1.013   0.224   0.910  0.00  0.00     0.017 A 
ATOM      6  C5  UNL d   1      -0.349   1.089   0.035  0.00  0.00     0.034 A 
ATOM      7 Cl   UNL d   1      -2.497   0.769   1.608  0.00  0.00    -0.070 Cl
ATOM      8 Cl1  UNL d   1      -1.230  -2.158   2.260  0.00  0.00    -0.070 Cl
ENDROOT
TORSDOF 0
ENDMDL
