MODEL 1
REMARK minimizedAffinity -4.14610672
REMARK minimizedRMSD -1
REMARK  0 active torsions:
REMARK  status: ('A' for Active; 'I' for Inactive)
ROOT
ATOM      1  C   UNL d   1      -1.769  -2.361   2.093  0.00  0.00     0.020 A 
ATOM      2  C1  UNL d   1      -2.707  -1.585   1.412  0.00  0.00     0.020 A 
ATOM      3  C2  UNL d   1      -2.281  -0.572   0.550  0.00  0.00     0.034 A 
ATOM      4  C3  UNL d   1      -0.914  -0.333   0.367  0.00  0.00     0.017 A 
ATOM      5  C4  UNL d   1       0.026  -1.112   1.050  0.00  0.00     0.017 A 
ATOM      6  C5  UNL d   1      -0.406  -2.125   1.912  0.00  0.00     0.034 A 
ATOM      7 Cl   UNL d   1       1.729  -0.877   0.875  0.00  0.00    -0.070 Cl
ATOM      8 Cl1  UNL d   1      -0.459   0.936  -0.715  0.00  0.00    -0.070 Cl
ENDROOT
TORSDOF 0
ENDMDL
