MODEL 1
REMARK minimizedAffinity -3.82944155
REMARK minimizedRMSD -1
REMARK  0 active torsions:
REMARK  status: ('A' for Active; 'I' for Inactive)
ROOT
ATOM      1  C   UNL d   1      -1.137   1.668   0.679  0.00  0.00     0.020 A 
ATOM      2  C1  UNL d   1       0.179   1.899   0.279  0.00  0.00     0.020 A 
ATOM      3  C2  UNL d   1       1.101   0.851   0.274  0.00  0.00     0.034 A 
ATOM      4  C3  UNL d   1       0.710  -0.433   0.669  0.00  0.00     0.017 A 
ATOM      5  C4  UNL d   1      -0.611  -0.664   1.070  0.00  0.00     0.017 A 
ATOM      6  C5  UNL d   1      -1.531   0.389   1.074  0.00  0.00     0.034 A 
ATOM      7 Cl   UNL d   1      -1.168  -2.222   1.571  0.00  0.00    -0.070 Cl
ATOM      8 Cl1  UNL d   1       1.903  -1.682   0.638  0.00  0.00    -0.070 Cl
ENDROOT
TORSDOF 0
ENDMDL
