MODEL 1
REMARK minimizedAffinity -2.02352262
REMARK minimizedRMSD -1
REMARK  0 active torsions:
REMARK  status: ('A' for Active; 'I' for Inactive)
ROOT
ATOM      1  C   UNL d   1       0.549  -2.149   0.780  0.00  0.00     0.020 A 
ATOM      2  C1  UNL d   1      -0.482  -2.000   1.706  0.00  0.00     0.020 A 
ATOM      3  C2  UNL d   1      -1.133  -0.771   1.836  0.00  0.00     0.034 A 
ATOM      4  C3  UNL d   1      -0.752   0.314   1.038  0.00  0.00     0.017 A 
ATOM      5  C4  UNL d   1       0.283   0.164   0.108  0.00  0.00     0.017 A 
ATOM      6  C5  UNL d   1       0.931  -1.069  -0.017  0.00  0.00     0.034 A 
ATOM      7 Cl   UNL d   1       0.809   1.457  -0.911  0.00  0.00    -0.070 Cl
ATOM      8 Cl1  UNL d   1      -1.600   1.804   1.251  0.00  0.00    -0.070 Cl
ENDROOT
TORSDOF 0
ENDMDL
