MODEL 1
REMARK minimizedAffinity -3.3150425
REMARK minimizedRMSD -1
REMARK  0 active torsions:
REMARK  status: ('A' for Active; 'I' for Inactive)
ROOT
ATOM      1  C   UNL d   1      -2.325  -1.838   0.464  0.00  0.00     0.020 A 
ATOM      2  C1  UNL d   1      -1.621  -2.160   1.624  0.00  0.00     0.020 A 
ATOM      3  C2  UNL d   1      -0.338  -1.649   1.826  0.00  0.00     0.034 A 
ATOM      4  C3  UNL d   1       0.246  -0.812   0.868  0.00  0.00     0.017 A 
ATOM      5  C4  UNL d   1      -0.462  -0.489  -0.295  0.00  0.00     0.017 A 
ATOM      6  C5  UNL d   1      -1.747  -1.003  -0.493  0.00  0.00     0.034 A 
ATOM      7 Cl   UNL d   1       0.192   0.538  -1.523  0.00  0.00    -0.070 Cl
ATOM      8 Cl1  UNL d   1       1.836  -0.215   1.185  0.00  0.00    -0.070 Cl
ENDROOT
TORSDOF 0
ENDMDL
