MODEL 1
REMARK minimizedAffinity -4.88123369
REMARK minimizedRMSD -1
REMARK  0 active torsions:
REMARK  status: ('A' for Active; 'I' for Inactive)
ROOT
ATOM      1  C   UNL d   1      -2.063  -1.919   1.236  0.00  0.00     0.020 A 
ATOM      2  C1  UNL d   1      -0.856  -2.410   0.741  0.00  0.00     0.020 A 
ATOM      3  C2  UNL d   1       0.127  -1.525   0.293  0.00  0.00     0.034 A 
ATOM      4  C3  UNL d   1      -0.096  -0.144   0.339  0.00  0.00     0.017 A 
ATOM      5  C4  UNL d   1      -1.308   0.348   0.837  0.00  0.00     0.017 A 
ATOM      6  C5  UNL d   1      -2.289  -0.543   1.284  0.00  0.00     0.034 A 
ATOM      7 Cl   UNL d   1      -1.656   2.039   0.926  0.00  0.00    -0.070 Cl
ATOM      8 Cl1  UNL d   1       1.163   0.893  -0.231  0.00  0.00    -0.070 Cl
ENDROOT
TORSDOF 0
ENDMDL
