MODEL 1
REMARK minimizedAffinity -5.14672518
REMARK minimizedRMSD -1
REMARK  0 active torsions:
REMARK  status: ('A' for Active; 'I' for Inactive)
ROOT
ATOM      1  C   UNL d   1      -2.481  -1.212   1.440  0.00  0.00     0.020 A 
ATOM      2  C1  UNL d   1      -1.773  -2.369   1.759  0.00  0.00     0.020 A 
ATOM      3  C2  UNL d   1      -0.415  -2.465   1.448  0.00  0.00     0.034 A 
ATOM      4  C3  UNL d   1       0.239  -1.402   0.816  0.00  0.00     0.017 A 
ATOM      5  C4  UNL d   1      -0.473  -0.240   0.496  0.00  0.00     0.017 A 
ATOM      6  C5  UNL d   1      -1.832  -0.149   0.809  0.00  0.00     0.034 A 
ATOM      7 Cl   UNL d   1       0.265   1.114  -0.285  0.00  0.00    -0.070 Cl
ATOM      8 Cl1  UNL d   1       1.920  -1.589   0.461  0.00  0.00    -0.070 Cl
ENDROOT
TORSDOF 0
ENDMDL
