MODEL 1
REMARK minimizedAffinity 5.9925971
REMARK minimizedRMSD -1
REMARK  0 active torsions:
REMARK  status: ('A' for Active; 'I' for Inactive)
ROOT
ATOM      1  C   UNL d   1       2.212   1.770  -2.602  0.00  0.00     0.020 A 
ATOM      2  C1  UNL d   1       1.106   2.260  -3.295  0.00  0.00     0.020 A 
ATOM      3  C2  UNL d   1      -0.184   1.954  -2.857  0.00  0.00     0.034 A 
ATOM      4  C3  UNL d   1      -0.371   1.156  -1.722  0.00  0.00     0.017 A 
ATOM      5  C4  UNL d   1       0.740   0.665  -1.027  0.00  0.00     0.017 A 
ATOM      6  C5  UNL d   1       2.030   0.975  -1.470  0.00  0.00     0.034 A 
ATOM      7 Cl   UNL d   1       0.589  -0.325   0.381  0.00  0.00    -0.070 Cl
ATOM      8 Cl1  UNL d   1      -1.994   0.818  -1.236  0.00  0.00    -0.070 Cl
ENDROOT
TORSDOF 0
ENDMDL
