MODEL 1
REMARK minimizedAffinity -5.21451902
REMARK minimizedRMSD -1
REMARK  0 active torsions:
REMARK  status: ('A' for Active; 'I' for Inactive)
ROOT
ATOM      1  C   UNL d   1      -1.868  -2.355   1.849  0.00  0.00     0.020 A 
ATOM      2  C1  UNL d   1      -2.661  -1.491   1.095  0.00  0.00     0.020 A 
ATOM      3  C2  UNL d   1      -2.071  -0.444   0.384  0.00  0.00     0.034 A 
ATOM      4  C3  UNL d   1      -0.684  -0.258   0.426  0.00  0.00     0.017 A 
ATOM      5  C4  UNL d   1       0.111  -1.127   1.183  0.00  0.00     0.017 A 
ATOM      6  C5  UNL d   1      -0.486  -2.173   1.893  0.00  0.00     0.034 A 
ATOM      7 Cl   UNL d   1       1.828  -0.961   1.283  0.00  0.00    -0.070 Cl
ATOM      8 Cl1  UNL d   1      -0.022   1.057  -0.478  0.00  0.00    -0.070 Cl
ENDROOT
TORSDOF 0
ENDMDL
