MODEL 1
REMARK minimizedAffinity -5.6217947
REMARK minimizedRMSD -1
REMARK  0 active torsions:
REMARK  status: ('A' for Active; 'I' for Inactive)
ROOT
ATOM      1  C   UNL d   1      -3.123  -0.393   2.328  0.00  0.00     0.020 A 
ATOM      2  C1  UNL d   1      -2.781  -1.745   2.328  0.00  0.00     0.020 A 
ATOM      3  C2  UNL d   1      -1.651  -2.180   1.632  0.00  0.00     0.034 A 
ATOM      4  C3  UNL d   1      -0.858  -1.262   0.934  0.00  0.00     0.017 A 
ATOM      5  C4  UNL d   1      -1.201   0.095   0.935  0.00  0.00     0.017 A 
ATOM      6  C5  UNL d   1      -2.334   0.525   1.633  0.00  0.00     0.034 A 
ATOM      7 Cl   UNL d   1      -0.272   1.286   0.096  0.00  0.00    -0.070 Cl
ATOM      8 Cl1  UNL d   1       0.525  -1.870   0.096  0.00  0.00    -0.070 Cl
ENDROOT
TORSDOF 0
ENDMDL
