MODEL 1
REMARK minimizedAffinity -5.6504879
REMARK minimizedRMSD -1
REMARK  0 active torsions:
REMARK  status: ('A' for Active; 'I' for Inactive)
ROOT
ATOM      1  C   UNL d   1      -2.455  -2.629   1.844  0.00  0.00     0.020 A 
ATOM      2  C1  UNL d   1      -3.209  -1.466   2.000  0.00  0.00     0.020 A 
ATOM      3  C2  UNL d   1      -2.663  -0.229   1.654  0.00  0.00     0.034 A 
ATOM      4  C3  UNL d   1      -1.359  -0.151   1.149  0.00  0.00     0.017 A 
ATOM      5  C4  UNL d   1      -0.604  -1.319   0.993  0.00  0.00     0.017 A 
ATOM      6  C5  UNL d   1      -1.156  -2.555   1.342  0.00  0.00     0.034 A 
ATOM      7 Cl   UNL d   1       1.011  -1.302   0.377  0.00  0.00    -0.070 Cl
ATOM      8 Cl1  UNL d   1      -0.748   1.413   0.741  0.00  0.00    -0.070 Cl
ENDROOT
TORSDOF 0
ENDMDL
