MODEL 1
REMARK minimizedAffinity 8.45169926
REMARK minimizedRMSD -1
REMARK  0 active torsions:
REMARK  status: ('A' for Active; 'I' for Inactive)
ROOT
ATOM      1  C   UNL d   1       2.519  -1.256  -0.588  0.00  0.00     0.020 A 
ATOM      2  C1  UNL d   1       1.491  -2.116  -0.970  0.00  0.00     0.020 A 
ATOM      3  C2  UNL d   1       0.168  -1.668  -0.965  0.00  0.00     0.034 A 
ATOM      4  C3  UNL d   1      -0.129  -0.356  -0.578  0.00  0.00     0.017 A 
ATOM      5  C4  UNL d   1       0.904   0.507  -0.195  0.00  0.00     0.017 A 
ATOM      6  C5  UNL d   1       2.227   0.053  -0.201  0.00  0.00     0.034 A 
ATOM      7 Cl   UNL d   1       0.616   2.139   0.296  0.00  0.00    -0.070 Cl
ATOM      8 Cl1  UNL d   1      -1.787   0.131  -0.596  0.00  0.00    -0.070 Cl
ENDROOT
TORSDOF 0
ENDMDL
