MODEL 1
REMARK minimizedAffinity 1.60583937
REMARK minimizedRMSD -1
REMARK  0 active torsions:
REMARK  status: ('A' for Active; 'I' for Inactive)
ROOT
ATOM      1  C   UNL d   1      -0.439   1.097  -0.207  0.00  0.00     0.020 A 
ATOM      2  C1  UNL d   1       0.851   1.142   0.322  0.00  0.00     0.020 A 
ATOM      3  C2  UNL d   1       1.699   0.041   0.187  0.00  0.00     0.034 A 
ATOM      4  C3  UNL d   1       1.259  -1.110  -0.477  0.00  0.00     0.017 A 
ATOM      5  C4  UNL d   1      -0.035  -1.154  -1.007  0.00  0.00     0.017 A 
ATOM      6  C5  UNL d   1      -0.881  -0.049  -0.870  0.00  0.00     0.034 A 
ATOM      7 Cl   UNL d   1      -0.649  -2.539  -1.840  0.00  0.00    -0.070 Cl
ATOM      8 Cl1  UNL d   1       2.362  -2.434  -0.606  0.00  0.00    -0.070 Cl
ENDROOT
TORSDOF 0
ENDMDL
