MODEL 1
REMARK minimizedAffinity -2.34762096
REMARK minimizedRMSD -1
REMARK  0 active torsions:
REMARK  status: ('A' for Active; 'I' for Inactive)
ROOT
ATOM      1  C   UNL d   1      -0.969   1.128  -0.308  0.00  0.00     0.020 A 
ATOM      2  C1  UNL d   1       0.212   1.399   0.381  0.00  0.00     0.020 A 
ATOM      3  C2  UNL d   1       1.225   0.439   0.434  0.00  0.00     0.034 A 
ATOM      4  C3  UNL d   1       1.059  -0.796  -0.203  0.00  0.00     0.017 A 
ATOM      5  C4  UNL d   1      -0.128  -1.067  -0.894  0.00  0.00     0.017 A 
ATOM      6  C5  UNL d   1      -1.139  -0.103  -0.944  0.00  0.00     0.034 A 
ATOM      7 Cl   UNL d   1      -0.406  -2.568  -1.704  0.00  0.00    -0.070 Cl
ATOM      8 Cl1  UNL d   1       2.353  -1.936  -0.096  0.00  0.00    -0.070 Cl
ENDROOT
TORSDOF 0
ENDMDL
