MODEL 1
REMARK minimizedAffinity 0.374445617
REMARK minimizedRMSD -1
REMARK  0 active torsions:
REMARK  status: ('A' for Active; 'I' for Inactive)
ROOT
ATOM      1  C   UNL d   1       1.607  -2.333  -0.054  0.00  0.00     0.020 A 
ATOM      2  C1  UNL d   1       2.631  -1.995  -0.938  0.00  0.00     0.020 A 
ATOM      3  C2  UNL d   1       3.176  -0.709  -0.915  0.00  0.00     0.034 A 
ATOM      4  C3  UNL d   1       2.696   0.243  -0.008  0.00  0.00     0.017 A 
ATOM      5  C4  UNL d   1       1.668  -0.098   0.879  0.00  0.00     0.017 A 
ATOM      6  C5  UNL d   1       1.127  -1.387   0.852  0.00  0.00     0.034 A 
ATOM      7 Cl   UNL d   1       1.025   1.022   2.027  0.00  0.00    -0.070 Cl
ATOM      8 Cl1  UNL d   1       3.416   1.814  -0.035  0.00  0.00    -0.070 Cl
ENDROOT
TORSDOF 0
ENDMDL
