MODEL 1
REMARK minimizedAffinity 10.4929619
REMARK minimizedRMSD -1
REMARK  0 active torsions:
REMARK  status: ('A' for Active; 'I' for Inactive)
ROOT
ATOM      1  C   UNL d   1      -1.909  -0.550  -1.309  0.00  0.00     0.020 A 
ATOM      2  C1  UNL d   1      -1.449  -1.816  -1.672  0.00  0.00     0.020 A 
ATOM      3  C2  UNL d   1      -0.192  -2.250  -1.247  0.00  0.00     0.034 A 
ATOM      4  C3  UNL d   1       0.610  -1.419  -0.457  0.00  0.00     0.017 A 
ATOM      5  C4  UNL d   1       0.148  -0.149  -0.093  0.00  0.00     0.017 A 
ATOM      6  C5  UNL d   1      -1.112   0.281  -0.522  0.00  0.00     0.034 A 
ATOM      7 Cl   UNL d   1       1.080   0.934   0.879  0.00  0.00    -0.070 Cl
ATOM      8 Cl1  UNL d   1       2.154  -2.021   0.033  0.00  0.00    -0.070 Cl
ENDROOT
TORSDOF 0
ENDMDL
