MODEL 1
REMARK minimizedAffinity 8.18302917
REMARK minimizedRMSD -1
REMARK  0 active torsions:
REMARK  status: ('A' for Active; 'I' for Inactive)
ROOT
ATOM      1  C   UNL d   1       3.656  -2.963  -2.637  0.00  0.00     0.020 A 
ATOM      2  C1  UNL d   1       4.222  -1.706  -2.425  0.00  0.00     0.020 A 
ATOM      3  C2  UNL d   1       3.564  -0.771  -1.623  0.00  0.00     0.034 A 
ATOM      4  C3  UNL d   1       2.337  -1.091  -1.031  0.00  0.00     0.017 A 
ATOM      5  C4  UNL d   1       1.770  -2.353  -1.244  0.00  0.00     0.017 A 
ATOM      6  C5  UNL d   1       2.433  -3.286  -2.048  0.00  0.00     0.034 A 
ATOM      7 Cl   UNL d   1       0.259  -2.821  -0.547  0.00  0.00    -0.070 Cl
ATOM      8 Cl1  UNL d   1       1.579   0.114  -0.051  0.00  0.00    -0.070 Cl
ENDROOT
TORSDOF 0
ENDMDL
