MODEL 1
REMARK minimizedAffinity 5.66410208
REMARK minimizedRMSD -1
REMARK  0 active torsions:
REMARK  status: ('A' for Active; 'I' for Inactive)
ROOT
ATOM      1  C   UNL d   1       1.205  -3.304  -0.751  0.00  0.00     0.020 A 
ATOM      2  C1  UNL d   1      -0.162  -3.041  -0.825  0.00  0.00     0.020 A 
ATOM      3  C2  UNL d   1      -0.621  -1.722  -0.801  0.00  0.00     0.034 A 
ATOM      4  C3  UNL d   1       0.288  -0.662  -0.703  0.00  0.00     0.017 A 
ATOM      5  C4  UNL d   1       1.660  -0.928  -0.629  0.00  0.00     0.017 A 
ATOM      6  C5  UNL d   1       2.114  -2.250  -0.653  0.00  0.00     0.034 A 
ATOM      7 Cl   UNL d   1       2.842   0.327  -0.507  0.00  0.00    -0.070 Cl
ATOM      8 Cl1  UNL d   1      -0.350   0.944  -0.680  0.00  0.00    -0.070 Cl
ENDROOT
TORSDOF 0
ENDMDL
