MODEL 1
REMARK minimizedAffinity 10.0695601
REMARK minimizedRMSD -1
REMARK  0 active torsions:
REMARK  status: ('A' for Active; 'I' for Inactive)
ROOT
ATOM      1  C   UNL d   1      -6.000  -0.502  -1.151  0.00  0.00     0.020 A 
ATOM      2  C1  UNL d   1      -5.206  -0.758  -2.268  0.00  0.00     0.020 A 
ATOM      3  C2  UNL d   1      -3.830  -0.531  -2.214  0.00  0.00     0.034 A 
ATOM      4  C3  UNL d   1      -3.242  -0.044  -1.040  0.00  0.00     0.017 A 
ATOM      5  C4  UNL d   1      -4.040   0.213   0.081  0.00  0.00     0.017 A 
ATOM      6  C5  UNL d   1      -5.418  -0.017   0.021  0.00  0.00     0.034 A 
ATOM      7 Cl   UNL d   1      -3.387   0.814   1.565  0.00  0.00    -0.070 Cl
ATOM      8 Cl1  UNL d   1      -1.534   0.214  -1.044  0.00  0.00    -0.070 Cl
ENDROOT
TORSDOF 0
ENDMDL
