MODEL 1
REMARK minimizedAffinity 3.59118319
REMARK minimizedRMSD -1
REMARK  0 active torsions:
REMARK  status: ('A' for Active; 'I' for Inactive)
ROOT
ATOM      1  C   UNL d   1       1.997  -2.122  -0.708  0.00  0.00     0.020 A 
ATOM      2  C1  UNL d   1       3.280  -1.845  -1.178  0.00  0.00     0.020 A 
ATOM      3  C2  UNL d   1       3.838  -0.580  -0.978  0.00  0.00     0.034 A 
ATOM      4  C3  UNL d   1       3.113   0.411  -0.307  0.00  0.00     0.017 A 
ATOM      5  C4  UNL d   1       1.825   0.132   0.164  0.00  0.00     0.017 A 
ATOM      6  C5  UNL d   1       1.271  -1.136  -0.038  0.00  0.00     0.034 A 
ATOM      7 Cl   UNL d   1       0.870   1.304   1.002  0.00  0.00    -0.070 Cl
ATOM      8 Cl1  UNL d   1       3.865   1.952  -0.096  0.00  0.00    -0.070 Cl
ENDROOT
TORSDOF 0
ENDMDL
