MODEL 1
REMARK minimizedAffinity 10.3705568
REMARK minimizedRMSD -1
REMARK  0 active torsions:
REMARK  status: ('A' for Active; 'I' for Inactive)
ROOT
ATOM      1  C   UNL d   1       3.843   0.122  -0.809  0.00  0.00     0.020 A 
ATOM      2  C1  UNL d   1       2.757   0.262   0.054  0.00  0.00     0.020 A 
ATOM      3  C2  UNL d   1       1.738  -0.692   0.054  0.00  0.00     0.034 A 
ATOM      4  C3  UNL d   1       1.803  -1.791  -0.811  0.00  0.00     0.017 A 
ATOM      5  C4  UNL d   1       2.893  -1.930  -1.677  0.00  0.00     0.017 A 
ATOM      6  C5  UNL d   1       3.911  -0.972  -1.672  0.00  0.00     0.034 A 
ATOM      7 Cl   UNL d   1       3.043  -3.259  -2.772  0.00  0.00    -0.070 Cl
ATOM      8 Cl1  UNL d   1       0.507  -2.933  -0.758  0.00  0.00    -0.070 Cl
ENDROOT
TORSDOF 0
ENDMDL
