MODEL 1
REMARK minimizedAffinity -0.864331663
REMARK minimizedRMSD -1
REMARK  0 active torsions:
REMARK  status: ('A' for Active; 'I' for Inactive)
ROOT
ATOM      1  C   UNL d   1       0.108  -1.564  -0.229  0.00  0.00     0.020 A 
ATOM      2  C1  UNL d   1       1.407  -2.068  -0.287  0.00  0.00     0.020 A 
ATOM      3  C2  UNL d   1       2.497  -1.195  -0.242  0.00  0.00     0.034 A 
ATOM      4  C3  UNL d   1       2.290   0.185  -0.140  0.00  0.00     0.017 A 
ATOM      5  C4  UNL d   1       0.986   0.690  -0.081  0.00  0.00     0.017 A 
ATOM      6  C5  UNL d   1      -0.102  -0.188  -0.126  0.00  0.00     0.034 A 
ATOM      7 Cl   UNL d   1       0.651   2.381   0.046  0.00  0.00    -0.070 Cl
ATOM      8 Cl1  UNL d   1       3.684   1.205  -0.089  0.00  0.00    -0.070 Cl
ENDROOT
TORSDOF 0
ENDMDL
