MODEL 1
REMARK minimizedAffinity -2.59793139
REMARK minimizedRMSD -1
REMARK  0 active torsions:
REMARK  status: ('A' for Active; 'I' for Inactive)
ROOT
ATOM      1  C   UNL d   1      -0.227   0.806   0.153  0.00  0.00     0.078 C 
ATOM      2  C1  UNL d   1      -1.064   1.266  -1.004  0.00  0.00    -0.077 A 
ATOM      3  C2  UNL d   1      -0.598   2.250  -1.884  0.00  0.00    -0.001 A 
ATOM      4  C3  UNL d   1      -1.391   2.676  -2.951  0.00  0.00     0.003 A 
ATOM      5  C4  UNL d   1      -2.656   2.124  -3.146  0.00  0.00    -0.005 A 
ATOM      6  C5  UNL d   1      -3.129   1.145  -2.274  0.00  0.00     0.003 A 
ATOM      7  C6  UNL d   1      -2.337   0.719  -1.207  0.00  0.00    -0.001 A 
ENDROOT
TORSDOF 0
ENDMDL
