MODEL 1
REMARK minimizedAffinity -3.1098628
REMARK minimizedRMSD -1
REMARK  0 active torsions:
REMARK  status: ('A' for Active; 'I' for Inactive)
ROOT
ATOM      1  C   UNL d   1      -0.340   2.686  -3.834  0.00  0.00     0.078 C 
ATOM      2  C1  UNL d   1      -0.530   2.060  -2.485  0.00  0.00    -0.077 A 
ATOM      3  C2  UNL d   1      -1.714   2.250  -1.762  0.00  0.00    -0.001 A 
ATOM      4  C3  UNL d   1      -1.873   1.669  -0.503  0.00  0.00     0.003 A 
ATOM      5  C4  UNL d   1      -0.851   0.896   0.046  0.00  0.00    -0.005 A 
ATOM      6  C5  UNL d   1       0.331   0.703  -0.665  0.00  0.00     0.003 A 
ATOM      7  C6  UNL d   1       0.492   1.283  -1.925  0.00  0.00    -0.001 A 
ENDROOT
TORSDOF 0
ENDMDL
