MODEL 1
REMARK minimizedAffinity -4.45307016
REMARK minimizedRMSD -1
REMARK  0 active torsions:
REMARK  status: ('A' for Active; 'I' for Inactive)
ROOT
ATOM      1  C   UNL d   1       0.290   2.977  -4.401  0.00  0.00     0.078 C 
ATOM      2  C1  UNL d   1      -0.709   2.305  -3.507  0.00  0.00    -0.077 A 
ATOM      3  C2  UNL d   1      -1.824   1.645  -4.040  0.00  0.00    -0.001 A 
ATOM      4  C3  UNL d   1      -2.751   1.032  -3.196  0.00  0.00     0.003 A 
ATOM      5  C4  UNL d   1      -2.575   1.074  -1.814  0.00  0.00    -0.005 A 
ATOM      6  C5  UNL d   1      -1.470   1.730  -1.275  0.00  0.00     0.003 A 
ATOM      7  C6  UNL d   1      -0.542   2.344  -2.117  0.00  0.00    -0.001 A 
ENDROOT
TORSDOF 0
ENDMDL
