MODEL 1
REMARK minimizedAffinity -3.44302511
REMARK minimizedRMSD -1
REMARK  0 active torsions:
REMARK  status: ('A' for Active; 'I' for Inactive)
ROOT
ATOM      1  C   UNL d   1       0.883  -0.001  -0.243  0.00  0.00     0.078 C 
ATOM      2  C1  UNL d   1      -0.378   0.652  -0.725  0.00  0.00    -0.077 A 
ATOM      3  C2  UNL d   1      -0.827   0.472  -2.039  0.00  0.00    -0.001 A 
ATOM      4  C3  UNL d   1      -1.998   1.093  -2.477  0.00  0.00     0.003 A 
ATOM      5  C4  UNL d   1      -2.728   1.901  -1.608  0.00  0.00    -0.005 A 
ATOM      6  C5  UNL d   1      -2.288   2.088  -0.299  0.00  0.00     0.003 A 
ATOM      7  C6  UNL d   1      -1.118   1.467   0.140  0.00  0.00    -0.001 A 
ENDROOT
TORSDOF 0
ENDMDL
