MODEL 1
REMARK minimizedAffinity -3.7617116
REMARK minimizedRMSD -1
REMARK  0 active torsions:
REMARK  status: ('A' for Active; 'I' for Inactive)
ROOT
ATOM      1  C   UNL d   1      -0.913   1.156  -0.652  0.00  0.00     0.078 C 
ATOM      2  C1  UNL d   1       0.262   0.340  -0.201  0.00  0.00    -0.077 A 
ATOM      3  C2  UNL d   1       0.129  -0.613   0.816  0.00  0.00    -0.001 A 
ATOM      4  C3  UNL d   1       1.233  -1.359   1.233  0.00  0.00     0.003 A 
ATOM      5  C4  UNL d   1       2.477  -1.158   0.639  0.00  0.00    -0.005 A 
ATOM      6  C5  UNL d   1       2.619  -0.211  -0.372  0.00  0.00     0.003 A 
ATOM      7  C6  UNL d   1       1.517   0.536  -0.790  0.00  0.00    -0.001 A 
ENDROOT
TORSDOF 0
ENDMDL
