MODEL 1
REMARK minimizedAffinity -3.32988024
REMARK minimizedRMSD -1
REMARK  0 active torsions:
REMARK  status: ('A' for Active; 'I' for Inactive)
ROOT
ATOM      1  C   UNL d   1      -0.897   0.561  -1.149  0.00  0.00     0.078 C 
ATOM      2  C1  UNL d   1       0.033  -0.183  -0.237  0.00  0.00    -0.077 A 
ATOM      3  C2  UNL d   1      -0.259  -0.333   1.124  0.00  0.00    -0.001 A 
ATOM      4  C3  UNL d   1       0.621  -1.019   1.963  0.00  0.00     0.003 A 
ATOM      5  C4  UNL d   1       1.799  -1.559   1.450  0.00  0.00    -0.005 A 
ATOM      6  C5  UNL d   1       2.098  -1.413   0.097  0.00  0.00     0.003 A 
ATOM      7  C6  UNL d   1       1.220  -0.727  -0.743  0.00  0.00    -0.001 A 
ENDROOT
TORSDOF 0
ENDMDL
