MODEL 1
REMARK minimizedAffinity -2.10768914
REMARK minimizedRMSD -1
REMARK  0 active torsions:
REMARK  status: ('A' for Active; 'I' for Inactive)
ROOT
ATOM      1  C   UNL d   1      -0.527   0.967   0.028  0.00  0.00     0.078 C 
ATOM      2  C1  UNL d   1      -1.267   1.401  -1.202  0.00  0.00    -0.077 A 
ATOM      3  C2  UNL d   1      -2.476   0.796  -1.567  0.00  0.00    -0.001 A 
ATOM      4  C3  UNL d   1      -3.149   1.204  -2.720  0.00  0.00     0.003 A 
ATOM      5  C4  UNL d   1      -2.621   2.219  -3.517  0.00  0.00    -0.005 A 
ATOM      6  C5  UNL d   1      -1.418   2.825  -3.162  0.00  0.00     0.003 A 
ATOM      7  C6  UNL d   1      -0.743   2.418  -2.010  0.00  0.00    -0.001 A 
ENDROOT
TORSDOF 0
ENDMDL
