MODEL 1
REMARK minimizedAffinity -4.61359739
REMARK minimizedRMSD -1
REMARK  0 active torsions:
REMARK  status: ('A' for Active; 'I' for Inactive)
ROOT
ATOM      1  C   UNL d   1      -1.741  -0.660   0.453  0.00  0.00     0.078 C 
ATOM      2  C1  UNL d   1      -0.244  -0.701   0.381  0.00  0.00    -0.077 A 
ATOM      3  C2  UNL d   1       0.490   0.419  -0.027  0.00  0.00    -0.001 A 
ATOM      4  C3  UNL d   1       1.883   0.363  -0.099  0.00  0.00     0.003 A 
ATOM      5  C4  UNL d   1       2.554  -0.812   0.233  0.00  0.00    -0.005 A 
ATOM      6  C5  UNL d   1       1.832  -1.933   0.638  0.00  0.00     0.003 A 
ATOM      7  C6  UNL d   1       0.439  -1.879   0.711  0.00  0.00    -0.001 A 
ENDROOT
TORSDOF 0
ENDMDL
