MODEL 1
REMARK minimizedAffinity -1.63007629
REMARK minimizedRMSD -1
REMARK  0 active torsions:
REMARK  status: ('A' for Active; 'I' for Inactive)
ROOT
ATOM      1  C   UNL d   1      -2.029  -0.292   2.407  0.00  0.00     0.078 C 
ATOM      2  C1  UNL d   1      -0.788  -0.214   1.569  0.00  0.00    -0.077 A 
ATOM      3  C2  UNL d   1      -0.791   0.450   0.336  0.00  0.00    -0.001 A 
ATOM      4  C3  UNL d   1       0.369   0.507  -0.438  0.00  0.00     0.003 A 
ATOM      5  C4  UNL d   1       1.541  -0.100   0.012  0.00  0.00    -0.005 A 
ATOM      6  C5  UNL d   1       1.552  -0.764   1.237  0.00  0.00     0.003 A 
ATOM      7  C6  UNL d   1       0.393  -0.822   2.012  0.00  0.00    -0.001 A 
ENDROOT
TORSDOF 0
ENDMDL
