MODEL 1
REMARK minimizedAffinity -1.48035181
REMARK minimizedRMSD -1
REMARK  0 active torsions:
REMARK  status: ('A' for Active; 'I' for Inactive)
ROOT
ATOM      1  C   UNL d   1      -1.379  -0.049  -0.707  0.00  0.00     0.078 C 
ATOM      2  C1  UNL d   1       0.091   0.241  -0.643  0.00  0.00    -0.077 A 
ATOM      3  C2  UNL d   1       1.031  -0.695  -1.093  0.00  0.00    -0.001 A 
ATOM      4  C3  UNL d   1       2.397  -0.416  -1.018  0.00  0.00     0.003 A 
ATOM      5  C4  UNL d   1       2.835   0.799  -0.494  0.00  0.00    -0.005 A 
ATOM      6  C5  UNL d   1       1.907   1.735  -0.043  0.00  0.00     0.003 A 
ATOM      7  C6  UNL d   1       0.541   1.458  -0.116  0.00  0.00    -0.001 A 
ENDROOT
TORSDOF 0
ENDMDL
