MODEL 1
REMARK minimizedAffinity 0.338409722
REMARK minimizedRMSD -1
REMARK  0 active torsions:
REMARK  status: ('A' for Active; 'I' for Inactive)
ROOT
ATOM      1  C   UNL d   1       5.007   2.832  -0.965  0.00  0.00     0.078 C 
ATOM      2  C1  UNL d   1       3.867   1.910  -0.653  0.00  0.00    -0.077 A 
ATOM      3  C2  UNL d   1       2.800   1.755  -1.546  0.00  0.00    -0.001 A 
ATOM      4  C3  UNL d   1       1.740   0.900  -1.238  0.00  0.00     0.003 A 
ATOM      5  C4  UNL d   1       1.737   0.194  -0.037  0.00  0.00    -0.005 A 
ATOM      6  C5  UNL d   1       2.794   0.343   0.859  0.00  0.00     0.003 A 
ATOM      7  C6  UNL d   1       3.854   1.198   0.553  0.00  0.00    -0.001 A 
ENDROOT
TORSDOF 0
ENDMDL
