MODEL 1
REMARK minimizedAffinity -0.0765294209
REMARK minimizedRMSD -1
REMARK  0 active torsions:
REMARK  status: ('A' for Active; 'I' for Inactive)
ROOT
ATOM      1  C   UNL d   1      -0.223   0.971  -0.047  0.00  0.00     0.078 C 
ATOM      2  C1  UNL d   1       0.952   0.040  -0.030  0.00  0.00    -0.077 A 
ATOM      3  C2  UNL d   1       1.798  -0.074  -1.140  0.00  0.00    -0.001 A 
ATOM      4  C3  UNL d   1       2.882  -0.952  -1.114  0.00  0.00     0.003 A 
ATOM      5  C4  UNL d   1       3.130  -1.725   0.019  0.00  0.00    -0.005 A 
ATOM      6  C5  UNL d   1       2.292  -1.620   1.128  0.00  0.00     0.003 A 
ATOM      7  C6  UNL d   1       1.207  -0.742   1.103  0.00  0.00    -0.001 A 
ENDROOT
TORSDOF 0
ENDMDL
