MODEL 1
REMARK minimizedAffinity -4.19530201
REMARK minimizedRMSD -1
REMARK  0 active torsions:
REMARK  status: ('A' for Active; 'I' for Inactive)
ROOT
ATOM      1  C   UNL d   1       2.370  -1.866   0.750  0.00  0.00     0.078 C 
ATOM      2  C1  UNL d   1       1.019  -1.347   1.144  0.00  0.00    -0.077 A 
ATOM      3  C2  UNL d   1       0.400  -0.322   0.419  0.00  0.00    -0.001 A 
ATOM      4  C3  UNL d   1      -0.853   0.158   0.803  0.00  0.00     0.003 A 
ATOM      5  C4  UNL d   1      -1.498  -0.382   1.915  0.00  0.00    -0.005 A 
ATOM      6  C5  UNL d   1      -0.889  -1.401   2.644  0.00  0.00     0.003 A 
ATOM      7  C6  UNL d   1       0.364  -1.882   2.261  0.00  0.00    -0.001 A 
ENDROOT
TORSDOF 0
ENDMDL
