MODEL 1
REMARK minimizedAffinity 2.02732396
REMARK minimizedRMSD -1
REMARK  0 active torsions:
REMARK  status: ('A' for Active; 'I' for Inactive)
ROOT
ATOM      1  O1  BZF d   1       1.196  -0.050  -4.837  0.00  0.00    -0.204 OA
ATOM      2  C2  BZF d   1       2.047  -0.681  -3.950  0.00  0.00     0.174 A 
ATOM      3  C3  BZF d   1       3.073   0.128  -3.615  0.00  0.00    -0.012 A 
ATOM      4  C3A BZF d   1       2.800   1.372  -4.265  0.00  0.00    -0.107 A 
ATOM      5  C4  BZF d   1       3.447   2.575  -4.302  0.00  0.00     0.055 A 
ATOM      6  C5  BZF d   1       2.955   3.565  -5.091  0.00  0.00    -0.016 A 
ATOM      7  C6  BZF d   1       1.823   3.387  -5.860  0.00  0.00     0.022 A 
ATOM      8  C7  BZF d   1       1.145   2.214  -5.853  0.00  0.00     0.029 A 
ATOM      9  C7A BZF d   1       1.620   1.222  -5.031  0.00  0.00     0.058 A 
ENDROOT
TORSDOF 0
ENDMDL
