MODEL 1
REMARK minimizedAffinity -2.23731995
REMARK minimizedRMSD -1
REMARK  0 active torsions:
REMARK  status: ('A' for Active; 'I' for Inactive)
ROOT
ATOM      1  O1  BZF d   1       1.446  -2.777  -2.372  0.00  0.00    -0.204 OA
ATOM      2  C2  BZF d   1       1.312  -2.364  -3.683  0.00  0.00     0.174 A 
ATOM      3  C3  BZF d   1       0.606  -1.218  -3.754  0.00  0.00    -0.012 A 
ATOM      4  C3A BZF d   1       0.356  -0.844  -2.396  0.00  0.00    -0.107 A 
ATOM      5  C4  BZF d   1      -0.286   0.212  -1.815  0.00  0.00     0.055 A 
ATOM      6  C5  BZF d   1      -0.417   0.242  -0.462  0.00  0.00    -0.016 A 
ATOM      7  C6  BZF d   1       0.077  -0.767   0.338  0.00  0.00     0.022 A 
ATOM      8  C7  BZF d   1       0.726  -1.832  -0.192  0.00  0.00     0.029 A 
ATOM      9  C7A BZF d   1       0.889  -1.850  -1.556  0.00  0.00     0.058 A 
ENDROOT
TORSDOF 0
ENDMDL
