MODEL 1
REMARK minimizedAffinity -0.714987278
REMARK minimizedRMSD -1
REMARK  0 active torsions:
REMARK  status: ('A' for Active; 'I' for Inactive)
ROOT
ATOM      1  O1  BZF d   1      -0.616  -0.961  -0.873  0.00  0.00    -0.204 OA
ATOM      2  C2  BZF d   1      -0.065  -0.025  -0.018  0.00  0.00     0.174 A 
ATOM      3  C3  BZF d   1       0.951   0.629  -0.617  0.00  0.00    -0.012 A 
ATOM      4  C3A BZF d   1       0.980   0.132  -1.959  0.00  0.00    -0.107 A 
ATOM      5  C4  BZF d   1       1.758   0.410  -3.046  0.00  0.00     0.055 A 
ATOM      6  C5  BZF d   1       1.576  -0.304  -4.188  0.00  0.00    -0.016 A 
ATOM      7  C6  BZF d   1       0.630  -1.304  -4.276  0.00  0.00     0.022 A 
ATOM      8  C7  BZF d   1      -0.169  -1.612  -3.225  0.00  0.00     0.029 A 
ATOM      9  C7A BZF d   1      -0.010  -0.870  -2.081  0.00  0.00     0.058 A 
ENDROOT
TORSDOF 0
ENDMDL
