MODEL 1
REMARK minimizedAffinity -0.675499082
REMARK minimizedRMSD -1
REMARK  0 active torsions:
REMARK  status: ('A' for Active; 'I' for Inactive)
ROOT
ATOM      1  O1  BZF d   1      -1.825   0.892  -1.459  0.00  0.00    -0.204 OA
ATOM      2  C2  BZF d   1      -0.665   1.035  -2.195  0.00  0.00     0.174 A 
ATOM      3  C3  BZF d   1       0.412   0.679  -1.465  0.00  0.00    -0.012 A 
ATOM      4  C3A BZF d   1      -0.116   0.202  -0.224  0.00  0.00    -0.107 A 
ATOM      5  C4  BZF d   1       0.457  -0.306   0.906  0.00  0.00     0.055 A 
ATOM      6  C5  BZF d   1      -0.334  -0.610   1.969  0.00  0.00    -0.016 A 
ATOM      7  C6  BZF d   1      -1.699  -0.415   1.937  0.00  0.00     0.022 A 
ATOM      8  C7  BZF d   1      -2.314   0.082   0.835  0.00  0.00     0.029 A 
ATOM      9  C7A BZF d   1      -1.521   0.359  -0.251  0.00  0.00     0.058 A 
ENDROOT
TORSDOF 0
ENDMDL
