MODEL 1
REMARK minimizedAffinity -1.76906228
REMARK minimizedRMSD -1
REMARK  0 active torsions:
REMARK  status: ('A' for Active; 'I' for Inactive)
ROOT
ATOM      1  O1  BZF d   1      -1.045  -0.023  -0.920  0.00  0.00    -0.204 OA
ATOM      2  C2  BZF d   1       0.027   0.272  -1.739  0.00  0.00     0.174 A 
ATOM      3  C3  BZF d   1       1.157   0.416  -1.016  0.00  0.00    -0.012 A 
ATOM      4  C3A BZF d   1       0.783   0.106   0.330  0.00  0.00    -0.107 A 
ATOM      5  C4  BZF d   1       1.473   0.056   1.508  0.00  0.00     0.055 A 
ATOM      6  C5  BZF d   1       0.798  -0.208   2.658  0.00  0.00    -0.016 A 
ATOM      7  C6  BZF d   1      -0.564  -0.423   2.667  0.00  0.00     0.022 A 
ATOM      8  C7  BZF d   1      -1.290  -0.390   1.523  0.00  0.00     0.029 A 
ATOM      9  C7A BZF d   1      -0.606  -0.155   0.355  0.00  0.00     0.058 A 
ENDROOT
TORSDOF 0
ENDMDL
