MODEL 1
REMARK minimizedAffinity -1.88964856
REMARK minimizedRMSD -1
REMARK  0 active torsions:
REMARK  status: ('A' for Active; 'I' for Inactive)
ROOT
ATOM      1  O1  BZF d   1      -0.496   0.868  -0.973  0.00  0.00    -0.204 OA
ATOM      2  C2  BZF d   1      -1.863   0.708  -1.090  0.00  0.00     0.174 A 
ATOM      3  C3  BZF d   1      -2.365   0.077  -0.008  0.00  0.00    -0.012 A 
ATOM      4  C3A BZF d   1      -1.255  -0.090   0.878  0.00  0.00    -0.107 A 
ATOM      5  C4  BZF d   1      -1.121  -0.635   2.123  0.00  0.00     0.055 A 
ATOM      6  C5  BZF d   1       0.115  -0.708   2.683  0.00  0.00    -0.016 A 
ATOM      7  C6  BZF d   1       1.238  -0.250   2.026  0.00  0.00     0.022 A 
ATOM      8  C7  BZF d   1       1.155   0.304   0.792  0.00  0.00     0.029 A 
ATOM      9  C7A BZF d   1      -0.097   0.409   0.237  0.00  0.00     0.058 A 
ENDROOT
TORSDOF 0
ENDMDL
