MODEL 1
REMARK minimizedAffinity -2.87284613
REMARK minimizedRMSD -1
REMARK  0 active torsions:
REMARK  status: ('A' for Active; 'I' for Inactive)
ROOT
ATOM      1  O1  BZF d   1       0.171  -0.352   2.719  0.00  0.00    -0.204 OA
ATOM      2  C2  BZF d   1      -1.030  -0.961   3.029  0.00  0.00     0.174 A 
ATOM      3  C3  BZF d   1      -1.849  -0.977   1.957  0.00  0.00    -0.012 A 
ATOM      4  C3A BZF d   1      -1.078  -0.420   0.887  0.00  0.00    -0.107 A 
ATOM      5  C4  BZF d   1      -1.338  -0.186  -0.433  0.00  0.00     0.055 A 
ATOM      6  C5  BZF d   1      -0.397   0.438  -1.190  0.00  0.00    -0.016 A 
ATOM      7  C6  BZF d   1       0.810   0.844  -0.660  0.00  0.00     0.022 A 
ATOM      8  C7  BZF d   1       1.114   0.629   0.643  0.00  0.00     0.029 A 
ATOM      9  C7A BZF d   1       0.179  -0.030   1.403  0.00  0.00     0.058 A 
ENDROOT
TORSDOF 0
ENDMDL
