MODEL 1
REMARK minimizedAffinity 3.18338323
REMARK minimizedRMSD -1
REMARK  0 active torsions:
REMARK  status: ('A' for Active; 'I' for Inactive)
ROOT
ATOM      1  O1  BZF d   1       1.625   0.479  -2.982  0.00  0.00    -0.204 OA
ATOM      2  C2  BZF d   1       1.975  -0.682  -3.645  0.00  0.00     0.174 A 
ATOM      3  C3  BZF d   1       1.433  -1.759  -3.041  0.00  0.00    -0.012 A 
ATOM      4  C3A BZF d   1       0.623  -1.232  -1.987  0.00  0.00    -0.107 A 
ATOM      5  C4  BZF d   1      -0.181  -1.807  -1.043  0.00  0.00     0.055 A 
ATOM      6  C5  BZF d   1      -0.776  -1.015  -0.112  0.00  0.00    -0.016 A 
ATOM      7  C6  BZF d   1      -0.586   0.351  -0.092  0.00  0.00     0.022 A 
ATOM      8  C7  BZF d   1       0.198   0.966  -1.011  0.00  0.00     0.029 A 
ATOM      9  C7A BZF d   1       0.774   0.173  -1.973  0.00  0.00     0.058 A 
ENDROOT
TORSDOF 0
ENDMDL
