MODEL 1
REMARK minimizedAffinity -4.99880266
REMARK minimizedRMSD -1
REMARK  0 active torsions:
REMARK  status: ('A' for Active; 'I' for Inactive)
ROOT
ATOM      1  O1  BZF d   1      -1.069  -1.402   2.151  0.00  0.00    -0.204 OA
ATOM      2  C2  BZF d   1      -0.650  -0.716   3.274  0.00  0.00     0.174 A 
ATOM      3  C3  BZF d   1       0.313   0.175   2.959  0.00  0.00    -0.012 A 
ATOM      4  C3A BZF d   1       0.442   0.101   1.536  0.00  0.00    -0.107 A 
ATOM      5  C4  BZF d   1       1.226   0.756   0.630  0.00  0.00     0.055 A 
ATOM      6  C5  BZF d   1       1.162   0.398  -0.679  0.00  0.00    -0.016 A 
ATOM      7  C6  BZF d   1       0.330  -0.612  -1.116  0.00  0.00     0.022 A 
ATOM      8  C7  BZF d   1      -0.470  -1.286  -0.255  0.00  0.00     0.029 A 
ATOM      9  C7A BZF d   1      -0.432  -0.905   1.064  0.00  0.00     0.058 A 
ENDROOT
TORSDOF 0
ENDMDL
