MODEL 1
REMARK minimizedAffinity -3.15358758
REMARK minimizedRMSD -1
REMARK  0 active torsions:
REMARK  status: ('A' for Active; 'I' for Inactive)
ROOT
ATOM      1  O1  BZF d   1       0.753   1.178   0.430  0.00  0.00    -0.204 OA
ATOM      2  C2  BZF d   1       0.314   1.013  -0.869  0.00  0.00     0.174 A 
ATOM      3  C3  BZF d   1      -0.730   0.160  -0.916  0.00  0.00    -0.012 A 
ATOM      4  C3A BZF d   1      -1.016  -0.161   0.449  0.00  0.00    -0.107 A 
ATOM      5  C4  BZF d   1      -1.954  -0.950   1.052  0.00  0.00     0.055 A 
ATOM      6  C5  BZF d   1      -1.916  -1.107   2.401  0.00  0.00    -0.016 A 
ATOM      7  C6  BZF d   1      -0.952  -0.497   3.177  0.00  0.00     0.022 A 
ATOM      8  C7  BZF d   1      -0.004   0.299   2.625  0.00  0.00     0.029 A 
ATOM      9  C7A BZF d   1      -0.060   0.487   1.265  0.00  0.00     0.058 A 
ENDROOT
TORSDOF 0
ENDMDL
