MODEL 1
REMARK minimizedAffinity -4.06658363
REMARK minimizedRMSD -1
REMARK  0 active torsions:
REMARK  status: ('A' for Active; 'I' for Inactive)
ROOT
ATOM      1  O1  BZF d   1      -2.044  -0.855   0.536  0.00  0.00    -0.204 OA
ATOM      2  C2  BZF d   1      -1.656  -1.394   1.748  0.00  0.00     0.174 A 
ATOM      3  C3  BZF d   1      -0.389  -1.042   2.044  0.00  0.00    -0.012 A 
ATOM      4  C3A BZF d   1       0.012  -0.157   0.994  0.00  0.00    -0.107 A 
ATOM      5  C4  BZF d   1       1.160   0.536   0.737  0.00  0.00     0.055 A 
ATOM      6  C5  BZF d   1       1.256   1.253  -0.413  0.00  0.00    -0.016 A 
ATOM      7  C6  BZF d   1       0.226   1.295  -1.330  0.00  0.00     0.022 A 
ATOM      8  C7  BZF d   1      -0.935   0.629  -1.117  0.00  0.00     0.029 A 
ATOM      9  C7A BZF d   1      -1.047  -0.070   0.060  0.00  0.00     0.058 A 
ENDROOT
TORSDOF 0
ENDMDL
