MODEL 1
REMARK minimizedAffinity -5.45044088
REMARK minimizedRMSD -1
REMARK  0 active torsions:
REMARK  status: ('A' for Active; 'I' for Inactive)
ROOT
ATOM      1  O1  BZF d   1       0.825   0.970   0.742  0.00  0.00    -0.204 OA
ATOM      2  C2  BZF d   1       0.357   1.002  -0.558  0.00  0.00     0.174 A 
ATOM      3  C3  BZF d   1      -0.847   0.401  -0.647  0.00  0.00    -0.012 A 
ATOM      4  C3A BZF d   1      -1.192   0.047   0.696  0.00  0.00    -0.107 A 
ATOM      5  C4  BZF d   1      -2.277  -0.563   1.257  0.00  0.00     0.055 A 
ATOM      6  C5  BZF d   1      -2.271  -0.827   2.590  0.00  0.00    -0.016 A 
ATOM      7  C6  BZF d   1      -1.196  -0.499   3.390  0.00  0.00     0.022 A 
ATOM      8  C7  BZF d   1      -0.099   0.112   2.879  0.00  0.00     0.029 A 
ATOM      9  C7A BZF d   1      -0.116   0.410   1.539  0.00  0.00     0.058 A 
ENDROOT
TORSDOF 0
ENDMDL
