MODEL 1
REMARK minimizedAffinity -0.436789304
REMARK minimizedRMSD -1
REMARK  0 active torsions:
REMARK  status: ('A' for Active; 'I' for Inactive)
ROOT
ATOM      1  O1  BZF d   1       2.515  -1.741  -2.890  0.00  0.00    -0.204 OA
ATOM      2  C2  BZF d   1       1.887  -1.737  -4.120  0.00  0.00     0.174 A 
ATOM      3  C3  BZF d   1       0.666  -1.171  -4.032  0.00  0.00    -0.012 A 
ATOM      4  C3A BZF d   1       0.561  -0.713  -2.680  0.00  0.00    -0.107 A 
ATOM      5  C4  BZF d   1      -0.413  -0.054  -1.985  0.00  0.00     0.055 A 
ATOM      6  C5  BZF d   1      -0.234   0.181  -0.659  0.00  0.00    -0.016 A 
ATOM      7  C6  BZF d   1       0.901  -0.234   0.005  0.00  0.00     0.022 A 
ATOM      8  C7  BZF d   1       1.897  -0.887  -0.643  0.00  0.00     0.029 A 
ATOM      9  C7A BZF d   1       1.734  -1.096  -1.990  0.00  0.00     0.058 A 
ENDROOT
TORSDOF 0
ENDMDL
