MODEL 1
REMARK minimizedAffinity -6.1576519
REMARK minimizedRMSD -1
REMARK  0 active torsions:
REMARK  status: ('A' for Active; 'I' for Inactive)
ROOT
ATOM      1  O1  BZF d   1      -1.196   0.735  -0.813  0.00  0.00    -0.204 OA
ATOM      2  C2  BZF d   1      -2.511   0.455  -0.497  0.00  0.00     0.174 A 
ATOM      3  C3  BZF d   1      -2.593  -0.164   0.699  0.00  0.00    -0.012 A 
ATOM      4  C3A BZF d   1      -1.254  -0.194   1.200  0.00  0.00    -0.107 A 
ATOM      5  C4  BZF d   1      -0.693  -0.666   2.352  0.00  0.00     0.055 A 
ATOM      6  C5  BZF d   1       0.657  -0.607   2.502  0.00  0.00    -0.016 A 
ATOM      7  C6  BZF d   1       1.474  -0.088   1.520  0.00  0.00     0.022 A 
ATOM      8  C7  BZF d   1       0.964   0.397   0.362  0.00  0.00     0.029 A 
ATOM      9  C7A BZF d   1      -0.402   0.369   0.222  0.00  0.00     0.058 A 
ENDROOT
TORSDOF 0
ENDMDL
