MODEL 1
REMARK minimizedAffinity -3.59229946
REMARK minimizedRMSD -1
REMARK  0 active torsions:
REMARK  status: ('A' for Active; 'I' for Inactive)
ROOT
ATOM      1  O1  BZF d   1      -1.004   0.785  -0.908  0.00  0.00    -0.204 OA
ATOM      2  C2  BZF d   1      -2.336   0.601  -0.594  0.00  0.00     0.174 A 
ATOM      3  C3  BZF d   1      -2.471   0.122   0.660  0.00  0.00    -0.012 A 
ATOM      4  C3A BZF d   1      -1.144   0.087   1.194  0.00  0.00    -0.107 A 
ATOM      5  C4  BZF d   1      -0.628  -0.281   2.403  0.00  0.00     0.055 A 
ATOM      6  C5  BZF d   1       0.719  -0.268   2.579  0.00  0.00    -0.016 A 
ATOM      7  C6  BZF d   1       1.579   0.102   1.566  0.00  0.00     0.022 A 
ATOM      8  C7  BZF d   1       1.115   0.480   0.350  0.00  0.00     0.029 A 
ATOM      9  C7A BZF d   1      -0.248   0.499   0.180  0.00  0.00     0.058 A 
ENDROOT
TORSDOF 0
ENDMDL
