MODEL 1
REMARK minimizedAffinity -3.69394612
REMARK minimizedRMSD -1
REMARK  0 active torsions:
REMARK  status: ('A' for Active; 'I' for Inactive)
ROOT
ATOM      1  O1  BZF d   1      -0.776   0.036   2.400  0.00  0.00    -0.204 OA
ATOM      2  C2  BZF d   1       0.571  -0.097   2.677  0.00  0.00     0.174 A 
ATOM      3  C3  BZF d   1       1.300  -0.039   1.544  0.00  0.00    -0.012 A 
ATOM      4  C3A BZF d   1       0.357   0.234   0.503  0.00  0.00    -0.107 A 
ATOM      5  C4  BZF d   1       0.474   0.421  -0.845  0.00  0.00     0.055 A 
ATOM      6  C5  BZF d   1      -0.651   0.596  -1.587  0.00  0.00    -0.016 A 
ATOM      7  C6  BZF d   1      -1.907   0.585  -1.017  0.00  0.00     0.022 A 
ATOM      8  C7  BZF d   1      -2.073   0.409   0.317  0.00  0.00     0.029 A 
ATOM      9  C7A BZF d   1      -0.936   0.264   1.074  0.00  0.00     0.058 A 
ENDROOT
TORSDOF 0
ENDMDL
