MODEL 1
REMARK minimizedAffinity 8.14566708
REMARK minimizedRMSD -1
REMARK  0 active torsions:
REMARK  status: ('A' for Active; 'I' for Inactive)
ROOT
ATOM      1  C   UNL d   1       3.854  -5.938  -5.996  0.00  0.00    -0.002 A 
ATOM      2  C1  UNL d   1       2.481  -5.968  -5.792  0.00  0.00     0.010 A 
ATOM      3  C2  UNL d   1       1.956  -5.990  -4.498  0.00  0.00     0.041 A 
ATOM      4  C3  UNL d   1       2.842  -5.978  -3.403  0.00  0.00    -0.075 A 
ATOM      5  S   UNL d   1       2.427  -5.998  -1.730  0.00  0.00     0.015 SA
ATOM      6  C4  UNL d   1       4.061  -5.967  -1.247  0.00  0.00     0.022 A 
ATOM      7  C5  UNL d   1       4.916  -5.941  -2.323  0.00  0.00     0.026 A 
ATOM      8  C6  UNL d   1       4.228  -5.947  -3.583  0.00  0.00    -0.082 A 
ATOM      9  C7  UNL d   1       4.729  -5.927  -4.907  0.00  0.00     0.045 A 
ENDROOT
TORSDOF 0
ENDMDL
