MODEL 1
REMARK minimizedAffinity 2.10769272
REMARK minimizedRMSD -1
REMARK  0 active torsions:
REMARK  status: ('A' for Active; 'I' for Inactive)
ROOT
ATOM      1  C   UNL d   1       4.381  -5.884  -1.290  0.00  0.00    -0.002 A 
ATOM      2  C1  UNL d   1       3.057  -5.901  -1.705  0.00  0.00     0.010 A 
ATOM      3  C2  UNL d   1       2.738  -5.935  -3.063  0.00  0.00     0.041 A 
ATOM      4  C3  UNL d   1       3.783  -5.953  -4.008  0.00  0.00    -0.075 A 
ATOM      5  S   UNL d   1       3.631  -5.996  -5.725  0.00  0.00     0.015 SA
ATOM      6  C4  UNL d   1       5.320  -5.993  -5.949  0.00  0.00     0.022 A 
ATOM      7  C5  UNL d   1       5.999  -5.961  -4.754  0.00  0.00     0.026 A 
ATOM      8  C6  UNL d   1       5.124  -5.937  -3.616  0.00  0.00    -0.082 A 
ATOM      9  C7  UNL d   1       5.415  -5.902  -2.231  0.00  0.00     0.045 A 
ENDROOT
TORSDOF 0
ENDMDL
