MODEL 1
REMARK minimizedAffinity 9.92978573
REMARK minimizedRMSD -1
REMARK  0 active torsions:
REMARK  status: ('A' for Active; 'I' for Inactive)
ROOT
ATOM      1  C   UNL d   1       1.892  -1.447   2.446  0.00  0.00    -0.002 A 
ATOM      2  C1  UNL d   1       1.642  -2.801   2.619  0.00  0.00     0.010 A 
ATOM      3  C2  UNL d   1       0.626  -3.433   1.901  0.00  0.00     0.041 A 
ATOM      4  C3  UNL d   1      -0.142  -2.675   0.995  0.00  0.00    -0.075 A 
ATOM      5  S   UNL d   1      -1.437  -3.236   0.006  0.00  0.00     0.015 SA
ATOM      6  C4  UNL d   1      -1.689  -1.692  -0.671  0.00  0.00     0.022 A 
ATOM      7  C5  UNL d   1      -0.814  -0.759  -0.166  0.00  0.00     0.026 A 
ATOM      8  C6  UNL d   1       0.092  -1.310   0.802  0.00  0.00    -0.082 A 
ATOM      9  C7  UNL d   1       1.129  -0.698   1.546  0.00  0.00     0.045 A 
ENDROOT
TORSDOF 0
ENDMDL
