MODEL 1
REMARK minimizedAffinity 1.25089824
REMARK minimizedRMSD -1
REMARK  0 active torsions:
REMARK  status: ('A' for Active; 'I' for Inactive)
ROOT
ATOM      1  C   UNL d   1       1.020  -5.999  -4.912  0.00  0.00    -0.002 A 
ATOM      2  C1  UNL d   1       2.009  -6.000  -5.885  0.00  0.00     0.010 A 
ATOM      3  C2  UNL d   1       3.358  -5.999  -5.526  0.00  0.00     0.041 A 
ATOM      4  C3  UNL d   1       3.700  -5.999  -4.159  0.00  0.00    -0.075 A 
ATOM      5  S   UNL d   1       5.286  -5.999  -3.484  0.00  0.00     0.015 SA
ATOM      6  C4  UNL d   1       4.688  -5.999  -1.889  0.00  0.00     0.022 A 
ATOM      7  C5  UNL d   1       3.314  -5.999  -1.853  0.00  0.00     0.026 A 
ATOM      8  C6  UNL d   1       2.721  -6.000  -3.161  0.00  0.00    -0.082 A 
ATOM      9  C7  UNL d   1       1.362  -6.000  -3.557  0.00  0.00     0.045 A 
ENDROOT
TORSDOF 0
ENDMDL
