MODEL 1
REMARK minimizedAffinity 8.11594963
REMARK minimizedRMSD -1
REMARK  0 active torsions:
REMARK  status: ('A' for Active; 'I' for Inactive)
ROOT
ATOM      1  C   UNL d   1       2.035  -0.792   2.289  0.00  0.00    -0.002 A 
ATOM      2  C1  UNL d   1       2.152  -1.991   2.978  0.00  0.00     0.010 A 
ATOM      3  C2  UNL d   1       2.645  -3.131   2.341  0.00  0.00     0.041 A 
ATOM      4  C3  UNL d   1       3.023  -3.046   0.987  0.00  0.00    -0.075 A 
ATOM      5  S   UNL d   1       3.654  -4.312   0.001  0.00  0.00     0.015 SA
ATOM      6  C4  UNL d   1       3.783  -3.292  -1.358  0.00  0.00     0.022 A 
ATOM      7  C5  UNL d   1       3.359  -2.013  -1.084  0.00  0.00     0.026 A 
ATOM      8  C6  UNL d   1       2.915  -1.850   0.271  0.00  0.00    -0.082 A 
ATOM      9  C7  UNL d   1       2.411  -0.711   0.945  0.00  0.00     0.045 A 
ENDROOT
TORSDOF 0
ENDMDL
