MODEL 1
REMARK minimizedAffinity 12.5292606
REMARK minimizedRMSD -1
REMARK  0 active torsions:
REMARK  status: ('A' for Active; 'I' for Inactive)
ROOT
ATOM      1  C   UNL d   1      -1.162   1.247   0.400  0.00  0.00    -0.002 A 
ATOM      2  C1  UNL d   1      -2.010   2.343   0.331  0.00  0.00     0.010 A 
ATOM      3  C2  UNL d   1      -2.882   2.499  -0.748  0.00  0.00     0.041 A 
ATOM      4  C3  UNL d   1      -2.889   1.525  -1.765  0.00  0.00    -0.075 A 
ATOM      5  S   UNL d   1      -3.873   1.507  -3.181  0.00  0.00     0.015 SA
ATOM      6  C4  UNL d   1      -3.191   0.044  -3.727  0.00  0.00     0.022 A 
ATOM      7  C5  UNL d   1      -2.234  -0.433  -2.863  0.00  0.00     0.026 A 
ATOM      8  C6  UNL d   1      -2.045   0.412  -1.718  0.00  0.00    -0.082 A 
ATOM      9  C7  UNL d   1      -1.171   0.282  -0.611  0.00  0.00     0.045 A 
ENDROOT
TORSDOF 0
ENDMDL
