MODEL 1
REMARK minimizedAffinity 8.2279892
REMARK minimizedRMSD -1
REMARK  0 active torsions:
REMARK  status: ('A' for Active; 'I' for Inactive)
ROOT
ATOM      1  N1  IND d   1      -2.380   3.665  -1.967  0.00  0.00    -0.196 N 
ATOM      2  C2  IND d   1      -2.816   2.384  -1.772  0.00  0.00     0.054 A 
ATOM      3  C3  IND d   1      -1.909   1.683  -1.055  0.00  0.00    -0.031 A 
ATOM      4  C4  IND d   1       0.310   2.466  -0.011  0.00  0.00     0.051 A 
ATOM      5  C5  IND d   1       1.150   3.542   0.052  0.00  0.00    -0.031 A 
ATOM      6  C6  IND d   1       0.849   4.739  -0.565  0.00  0.00     0.015 A 
ATOM      7  C7  IND d   1      -0.314   4.909  -1.262  0.00  0.00    -0.016 A 
ATOM      8  C8  IND d   1      -1.166   3.816  -1.334  0.00  0.00    -0.047 A 
ATOM      9  C9  IND d   1      -0.846   2.586  -0.746  0.00  0.00    -0.096 A 
ATOM     10  HN1 IND d   1      -2.795   4.273  -2.411  0.00  0.00     0.298 HD
ENDROOT
TORSDOF 0
ENDMDL
