MODEL 1
REMARK minimizedAffinity 11.1993418
REMARK minimizedRMSD -1
REMARK  0 active torsions:
REMARK  status: ('A' for Active; 'I' for Inactive)
ROOT
ATOM      1  N1  IND d   1       2.127   2.713   0.554  0.00  0.00    -0.196 N 
ATOM      2  C2  IND d   1       1.021   1.939   0.770  0.00  0.00     0.054 A 
ATOM      3  C3  IND d   1      -0.089   2.571   0.328  0.00  0.00    -0.031 A 
ATOM      4  C4  IND d   1      -0.311   4.836  -0.876  0.00  0.00     0.051 A 
ATOM      5  C5  IND d   1       0.417   5.925  -1.265  0.00  0.00    -0.031 A 
ATOM      6  C6  IND d   1       1.781   5.999  -1.066  0.00  0.00     0.015 A 
ATOM      7  C7  IND d   1       2.471   4.978  -0.478  0.00  0.00    -0.016 A 
ATOM      8  C8  IND d   1       1.734   3.873  -0.075  0.00  0.00    -0.047 A 
ATOM      9  C9  IND d   1       0.344   3.810  -0.236  0.00  0.00    -0.096 A 
ATOM     10  HN1 IND d   1       2.933   2.509   0.775  0.00  0.00     0.298 HD
ENDROOT
TORSDOF 0
ENDMDL
