MODEL 1
REMARK minimizedAffinity 12.2317915
REMARK minimizedRMSD -1
REMARK  0 active torsions:
REMARK  status: ('A' for Active; 'I' for Inactive)
ROOT
ATOM      1  N1  IND d   1       1.942   4.976  -0.122  0.00  0.00    -0.196 N 
ATOM      2  C2  IND d   1       1.128   5.680  -0.965  0.00  0.00     0.054 A 
ATOM      3  C3  IND d   1       0.065   4.929  -1.329  0.00  0.00    -0.031 A 
ATOM      4  C4  IND d   1      -0.594   2.555  -0.580  0.00  0.00     0.051 A 
ATOM      5  C5  IND d   1      -0.144   1.494   0.155  0.00  0.00    -0.031 A 
ATOM      6  C6  IND d   1       1.046   1.542   0.851  0.00  0.00     0.015 A 
ATOM      7  C7  IND d   1       1.829   2.661   0.848  0.00  0.00    -0.016 A 
ATOM      8  C8  IND d   1       1.380   3.738   0.097  0.00  0.00    -0.047 A 
ATOM      9  C9  IND d   1       0.194   3.681  -0.646  0.00  0.00    -0.096 A 
ATOM     10  HN1 IND d   1       2.680   5.260   0.215  0.00  0.00     0.298 HD
ENDROOT
TORSDOF 0
ENDMDL
