MODEL 1
REMARK minimizedAffinity 13.9097548
REMARK minimizedRMSD -1
REMARK  0 active torsions:
REMARK  status: ('A' for Active; 'I' for Inactive)
ROOT
ATOM      1  N1  IND d   1       1.502   2.802   0.278  0.00  0.00    -0.196 N 
ATOM      2  C2  IND d   1       0.398   2.115   0.701  0.00  0.00     0.054 A 
ATOM      3  C3  IND d   1      -0.728   2.789   0.376  0.00  0.00    -0.031 A 
ATOM      4  C4  IND d   1      -0.999   4.985  -0.939  0.00  0.00     0.051 A 
ATOM      5  C5  IND d   1      -0.276   6.000  -1.502  0.00  0.00    -0.031 A 
ATOM      6  C6  IND d   1       1.104   5.999  -1.502  0.00  0.00     0.015 A 
ATOM      7  C7  IND d   1       1.816   4.973  -0.948  0.00  0.00    -0.016 A 
ATOM      8  C8  IND d   1       1.085   3.945  -0.369  0.00  0.00    -0.047 A 
ATOM      9  C9  IND d   1      -0.315   3.961  -0.328  0.00  0.00    -0.096 A 
ATOM     10  HN1 IND d   1       2.318   2.561   0.396  0.00  0.00     0.298 HD
ENDROOT
TORSDOF 0
ENDMDL
