MODEL 1
REMARK minimizedAffinity 2.55282998
REMARK minimizedRMSD -1
REMARK  0 active torsions:
REMARK  status: ('A' for Active; 'I' for Inactive)
ROOT
ATOM      1  N1  IND d   1      -2.817   5.643  -4.602  0.00  0.00    -0.196 N 
ATOM      2  C2  IND d   1      -2.140   4.890  -3.684  0.00  0.00     0.054 A 
ATOM      3  C3  IND d   1      -2.814   3.748  -3.423  0.00  0.00    -0.031 A 
ATOM      4  C4  IND d   1      -4.995   2.862  -4.465  0.00  0.00     0.051 A 
ATOM      5  C5  IND d   1      -6.000   3.213  -5.322  0.00  0.00    -0.031 A 
ATOM      6  C6  IND d   1      -5.993   4.415  -6.000  0.00  0.00     0.015 A 
ATOM      7  C7  IND d   1      -4.971   5.310  -5.852  0.00  0.00    -0.016 A 
ATOM      8  C8  IND d   1      -3.953   4.960  -4.977  0.00  0.00    -0.047 A 
ATOM      9  C9  IND d   1      -3.976   3.760  -4.255  0.00  0.00    -0.096 A 
ATOM     10  HN1 IND d   1      -2.574   6.413  -4.897  0.00  0.00     0.298 HD
ENDROOT
TORSDOF 0
ENDMDL
