MODEL 1
REMARK minimizedAffinity 35.7372055
REMARK minimizedRMSD -1
REMARK  0 active torsions:
REMARK  status: ('A' for Active; 'I' for Inactive)
ROOT
ATOM      1  C   UNL d   1       0.267   0.020   4.414  0.00  0.00     0.124 A 
ATOM      2  C1  UNL d   1      -0.064  -0.418   3.139  0.00  0.00     0.062 A 
ATOM      3  C2  UNL d   1       0.864  -0.331   2.106  0.00  0.00     0.162 A 
ATOM      4  C3  UNL d   1       2.133   0.196   2.342  0.00  0.00    -0.034 A 
ATOM      5  C4  UNL d   1       2.459   0.636   3.627  0.00  0.00     0.162 A 
ATOM      6  C5  UNL d   1       1.528   0.547   4.656  0.00  0.00     0.062 A 
ATOM      7  F   UNL d   1       1.850   0.971   5.887  0.00  0.00    -0.097 F 
ATOM      8  F1  UNL d   1       3.671   1.148   3.889  0.00  0.00    -0.096 F 
ATOM      9  I   UNL d   1       3.524   0.328   0.800  0.00  0.00    -0.060 I 
ATOM     10  F2  UNL d   1       0.516  -0.762   0.884  0.00  0.00    -0.096 F 
ATOM     11  F3  UNL d   1      -1.282  -0.927   2.902  0.00  0.00    -0.097 F 
ATOM     12  F4  UNL d   1      -0.628  -0.064   5.406  0.00  0.00    -0.092 F 
ENDROOT
TORSDOF 0
ENDMDL
