MODEL 1
REMARK minimizedAffinity 23.0216312
REMARK minimizedRMSD -1
REMARK  0 active torsions:
REMARK  status: ('A' for Active; 'I' for Inactive)
ROOT
ATOM      1  C   UNL d   1       2.672  -0.107   2.962  0.00  0.00     0.124 A 
ATOM      2  C1  UNL d   1       2.347  -0.855   1.838  0.00  0.00     0.062 A 
ATOM      3  C2  UNL d   1       1.113  -1.494   1.756  0.00  0.00     0.162 A 
ATOM      4  C3  UNL d   1       0.195  -1.389   2.800  0.00  0.00    -0.034 A 
ATOM      5  C4  UNL d   1       0.530  -0.637   3.928  0.00  0.00     0.162 A 
ATOM      6  C5  UNL d   1       1.764   0.001   4.005  0.00  0.00     0.062 A 
ATOM      7  F   UNL d   1       2.076   0.722   5.091  0.00  0.00    -0.097 F 
ATOM      8  F1  UNL d   1      -0.330  -0.514   4.950  0.00  0.00    -0.096 F 
ATOM      9  I   UNL d   1      -1.650  -2.344   2.681  0.00  0.00    -0.060 I 
ATOM     10  F2  UNL d   1       0.826  -2.210   0.658  0.00  0.00    -0.096 F 
ATOM     11  F3  UNL d   1       3.223  -0.962   0.829  0.00  0.00    -0.097 F 
ATOM     12  F4  UNL d   1       3.860   0.506   3.039  0.00  0.00    -0.092 F 
ENDROOT
TORSDOF 0
ENDMDL
