MODEL 1
REMARK minimizedAffinity 30.1715946
REMARK minimizedRMSD -1
REMARK  0 active torsions:
REMARK  status: ('A' for Active; 'I' for Inactive)
ROOT
ATOM      1  C   UNL d   1      -2.518   4.105  -4.099  0.00  0.00     0.124 A 
ATOM      2  C1  UNL d   1      -2.318   5.040  -3.093  0.00  0.00     0.062 A 
ATOM      3  C2  UNL d   1      -3.075   4.987  -1.927  0.00  0.00     0.162 A 
ATOM      4  C3  UNL d   1      -4.039   3.993  -1.758  0.00  0.00    -0.034 A 
ATOM      5  C4  UNL d   1      -4.235   3.056  -2.774  0.00  0.00     0.162 A 
ATOM      6  C5  UNL d   1      -3.476   3.114  -3.938  0.00  0.00     0.062 A 
ATOM      7  F   UNL d   1      -3.671   2.209  -4.908  0.00  0.00    -0.097 F 
ATOM      8  F1  UNL d   1      -5.154   2.087  -2.645  0.00  0.00    -0.096 F 
ATOM      9  I   UNL d   1      -5.174   3.910  -0.015  0.00  0.00    -0.060 I 
ATOM     10  F2  UNL d   1      -2.861   5.904  -0.972  0.00  0.00    -0.096 F 
ATOM     11  F3  UNL d   1      -1.394   5.999  -3.246  0.00  0.00    -0.097 F 
ATOM     12  F4  UNL d   1      -1.789   4.159  -5.221  0.00  0.00    -0.092 F 
ENDROOT
TORSDOF 0
ENDMDL
