MODEL 1
REMARK minimizedAffinity 36.0554695
REMARK minimizedRMSD -1
REMARK  0 active torsions:
REMARK  status: ('A' for Active; 'I' for Inactive)
ROOT
ATOM      1  C   UNL d   1       3.449  -0.492   2.285  0.00  0.00     0.124 A 
ATOM      2  C1  UNL d   1       2.295  -0.093   2.946  0.00  0.00     0.062 A 
ATOM      3  C2  UNL d   1       1.087  -0.736   2.695  0.00  0.00     0.162 A 
ATOM      4  C3  UNL d   1       1.025  -1.786   1.779  0.00  0.00    -0.034 A 
ATOM      5  C4  UNL d   1       2.189  -2.181   1.118  0.00  0.00     0.162 A 
ATOM      6  C5  UNL d   1       3.395  -1.536   1.372  0.00  0.00     0.062 A 
ATOM      7  F   UNL d   1       4.508  -1.923   0.733  0.00  0.00    -0.097 F 
ATOM      8  F1  UNL d   1       2.166  -3.188   0.231  0.00  0.00    -0.096 F 
ATOM      9  I   UNL d   1      -0.780  -2.750   1.402  0.00  0.00    -0.060 I 
ATOM     10  F2  UNL d   1      -0.012  -0.329   3.348  0.00  0.00    -0.096 F 
ATOM     11  F3  UNL d   1       2.345   0.916   3.828  0.00  0.00    -0.097 F 
ATOM     12  F4  UNL d   1       4.610   0.129   2.527  0.00  0.00    -0.092 F 
ENDROOT
TORSDOF 0
ENDMDL
