MODEL 1
REMARK minimizedAffinity 34.5659218
REMARK minimizedRMSD -1
REMARK  0 active torsions:
REMARK  status: ('A' for Active; 'I' for Inactive)
ROOT
ATOM      1  C   UNL d   1      -4.486   2.522  -1.516  0.00  0.00     0.124 A 
ATOM      2  C1  UNL d   1      -4.617   3.789  -0.967  0.00  0.00     0.062 A 
ATOM      3  C2  UNL d   1      -3.693   4.784  -1.273  0.00  0.00     0.162 A 
ATOM      4  C3  UNL d   1      -2.630   4.515  -2.135  0.00  0.00    -0.034 A 
ATOM      5  C4  UNL d   1      -2.505   3.238  -2.684  0.00  0.00     0.162 A 
ATOM      6  C5  UNL d   1      -3.431   2.247  -2.374  0.00  0.00     0.062 A 
ATOM      7  F   UNL d   1      -3.303   1.023  -2.906  0.00  0.00    -0.097 F 
ATOM      8  F1  UNL d   1      -1.494   2.945  -3.516  0.00  0.00    -0.096 F 
ATOM      9  I   UNL d   1      -1.246   6.000  -2.597  0.00  0.00    -0.060 I 
ATOM     10  F2  UNL d   1      -3.844   6.000  -0.728  0.00  0.00    -0.096 F 
ATOM     11  F3  UNL d   1      -5.636   4.057  -0.137  0.00  0.00    -0.097 F 
ATOM     12  F4  UNL d   1      -5.376   1.566  -1.219  0.00  0.00    -0.092 F 
ENDROOT
TORSDOF 0
ENDMDL
