MODEL 1
REMARK minimizedAffinity 15.8913651
REMARK minimizedRMSD -1
REMARK  0 active torsions:
REMARK  status: ('A' for Active; 'I' for Inactive)
ROOT
ATOM      1  C   UNL d   1       0.628  -0.341   3.923  0.00  0.00     0.124 A 
ATOM      2  C1  UNL d   1       0.133  -0.947   2.776  0.00  0.00     0.062 A 
ATOM      3  C2  UNL d   1       0.991  -1.268   1.728  0.00  0.00     0.162 A 
ATOM      4  C3  UNL d   1       2.354  -0.984   1.822  0.00  0.00    -0.034 A 
ATOM      5  C4  UNL d   1       2.844  -0.373   2.978  0.00  0.00     0.162 A 
ATOM      6  C5  UNL d   1       1.982  -0.055   4.022  0.00  0.00     0.062 A 
ATOM      7  F   UNL d   1       2.462   0.531   5.129  0.00  0.00    -0.097 F 
ATOM      8  F1  UNL d   1       4.148  -0.086   3.101  0.00  0.00    -0.096 F 
ATOM      9  I   UNL d   1       3.640  -1.462   0.257  0.00  0.00    -0.060 I 
ATOM     10  F2  UNL d   1       0.486  -1.853   0.632  0.00  0.00    -0.096 F 
ATOM     11  F3  UNL d   1      -1.175  -1.224   2.677  0.00  0.00    -0.097 F 
ATOM     12  F4  UNL d   1      -0.200  -0.033   4.929  0.00  0.00    -0.092 F 
ENDROOT
TORSDOF 0
ENDMDL
