MODEL 1
REMARK minimizedAffinity 24.4679699
REMARK minimizedRMSD -1
REMARK  0 active torsions:
REMARK  status: ('A' for Active; 'I' for Inactive)
ROOT
ATOM      1  C   UNL d   1       2.368   0.011   3.036  0.00  0.00     0.124 A 
ATOM      2  C1  UNL d   1       1.245  -0.803   2.979  0.00  0.00     0.062 A 
ATOM      3  C2  UNL d   1       1.092  -1.712   1.937  0.00  0.00     0.162 A 
ATOM      4  C3  UNL d   1       2.065  -1.814   0.943  0.00  0.00    -0.034 A 
ATOM      5  C4  UNL d   1       3.192  -0.991   1.006  0.00  0.00     0.162 A 
ATOM      6  C5  UNL d   1       3.340  -0.084   2.050  0.00  0.00     0.062 A 
ATOM      7  F   UNL d   1       4.426   0.701   2.103  0.00  0.00    -0.097 F 
ATOM      8  F1  UNL d   1       4.147  -1.063   0.067  0.00  0.00    -0.096 F 
ATOM      9  I   UNL d   1       1.840  -3.173  -0.617  0.00  0.00    -0.060 I 
ATOM     10  F2  UNL d   1      -0.003  -2.486   1.907  0.00  0.00    -0.096 F 
ATOM     11  F3  UNL d   1       0.304  -0.712   3.930  0.00  0.00    -0.097 F 
ATOM     12  F4  UNL d   1       2.513   0.886   4.040  0.00  0.00    -0.092 F 
ENDROOT
TORSDOF 0
ENDMDL
