MODEL 1
REMARK minimizedAffinity 26.9741783
REMARK minimizedRMSD -1
REMARK  0 active torsions:
REMARK  status: ('A' for Active; 'I' for Inactive)
ROOT
ATOM      1  C   UNL d   1       4.550   0.042  -2.372  0.00  0.00     0.124 A 
ATOM      2  C1  UNL d   1       4.435   0.461  -3.690  0.00  0.00     0.062 A 
ATOM      3  C2  UNL d   1       4.847  -0.370  -4.727  0.00  0.00     0.162 A 
ATOM      4  C3  UNL d   1       5.378  -1.630  -4.451  0.00  0.00    -0.034 A 
ATOM      5  C4  UNL d   1       5.492  -2.045  -3.123  0.00  0.00     0.162 A 
ATOM      6  C5  UNL d   1       5.079  -1.210  -2.089  0.00  0.00     0.062 A 
ATOM      7  F   UNL d   1       5.191  -1.617  -0.817  0.00  0.00    -0.097 F 
ATOM      8  F1  UNL d   1       5.998  -3.250  -2.822  0.00  0.00    -0.096 F 
ATOM      9  I   UNL d   1       5.995  -2.876  -6.000  0.00  0.00    -0.060 I 
ATOM     10  F2  UNL d   1       4.723   0.061  -5.992  0.00  0.00    -0.096 F 
ATOM     11  F3  UNL d   1       3.925   1.670  -3.965  0.00  0.00    -0.097 F 
ATOM     12  F4  UNL d   1       4.154   0.844  -1.375  0.00  0.00    -0.092 F 
ENDROOT
TORSDOF 0
ENDMDL
