MODEL 1
REMARK minimizedAffinity 32.9336586
REMARK minimizedRMSD -1
REMARK  0 active torsions:
REMARK  status: ('A' for Active; 'I' for Inactive)
ROOT
ATOM      1  C   UNL d   1      -1.246  -1.474   2.615  0.00  0.00     0.124 A 
ATOM      2  C1  UNL d   1      -0.651  -2.222   1.609  0.00  0.00     0.062 A 
ATOM      3  C2  UNL d   1       0.716  -2.113   1.370  0.00  0.00     0.162 A 
ATOM      4  C3  UNL d   1       1.498  -1.252   2.140  0.00  0.00    -0.034 A 
ATOM      5  C4  UNL d   1       0.892  -0.502   3.150  0.00  0.00     0.162 A 
ATOM      6  C5  UNL d   1      -0.474  -0.615   3.385  0.00  0.00     0.062 A 
ATOM      7  F   UNL d   1      -1.047   0.109   4.357  0.00  0.00    -0.097 F 
ATOM      8  F1  UNL d   1       1.615   0.335   3.909  0.00  0.00    -0.096 F 
ATOM      9  I   UNL d   1       3.542  -1.085   1.786  0.00  0.00    -0.060 I 
ATOM     10  F2  UNL d   1       1.264  -2.847   0.391  0.00  0.00    -0.096 F 
ATOM     11  F3  UNL d   1      -1.395  -3.052   0.863  0.00  0.00    -0.097 F 
ATOM     12  F4  UNL d   1      -2.562  -1.580   2.842  0.00  0.00    -0.092 F 
ENDROOT
TORSDOF 0
ENDMDL
