MODEL 1
REMARK minimizedAffinity 11.2916279
REMARK minimizedRMSD -1
REMARK  0 active torsions:
REMARK  status: ('A' for Active; 'I' for Inactive)
ROOT
ATOM      1  C   UNL d   1      -1.378  -1.950   3.282  0.00  0.00     0.124 A 
ATOM      2  C1  UNL d   1      -0.602  -1.115   4.074  0.00  0.00     0.062 A 
ATOM      3  C2  UNL d   1       0.662  -0.720   3.647  0.00  0.00     0.162 A 
ATOM      4  C3  UNL d   1       1.159  -1.160   2.420  0.00  0.00    -0.034 A 
ATOM      5  C4  UNL d   1       0.374  -2.001   1.629  0.00  0.00     0.162 A 
ATOM      6  C5  UNL d   1      -0.889  -2.392   2.061  0.00  0.00     0.062 A 
ATOM      7  F   UNL d   1      -1.637  -3.200   1.295  0.00  0.00    -0.097 F 
ATOM      8  F1  UNL d   1       0.821  -2.442   0.444  0.00  0.00    -0.096 F 
ATOM      9  I   UNL d   1       3.049  -0.573   1.776  0.00  0.00    -0.060 I 
ATOM     10  F2  UNL d   1       1.390   0.087   4.432  0.00  0.00    -0.096 F 
ATOM     11  F3  UNL d   1      -1.071  -0.687   5.255  0.00  0.00    -0.097 F 
ATOM     12  F4  UNL d   1      -2.593  -2.329   3.697  0.00  0.00    -0.092 F 
ENDROOT
TORSDOF 0
ENDMDL
