MODEL 1
REMARK minimizedAffinity 34.2341003
REMARK minimizedRMSD -1
REMARK  0 active torsions:
REMARK  status: ('A' for Active; 'I' for Inactive)
ROOT
ATOM      1  C   UNL d   1       2.841   0.119   3.352  0.00  0.00     0.124 A 
ATOM      2  C1  UNL d   1       2.341  -0.329   2.138  0.00  0.00     0.062 A 
ATOM      3  C2  UNL d   1       0.995  -0.658   2.013  0.00  0.00     0.162 A 
ATOM      4  C3  UNL d   1       0.137  -0.540   3.107  0.00  0.00    -0.034 A 
ATOM      5  C4  UNL d   1       0.648  -0.090   4.326  0.00  0.00     0.162 A 
ATOM      6  C5  UNL d   1       1.994   0.238   4.445  0.00  0.00     0.062 A 
ATOM      7  F   UNL d   1       2.475   0.671   5.620  0.00  0.00    -0.097 F 
ATOM      8  F1  UNL d   1      -0.149   0.036   5.398  0.00  0.00    -0.096 F 
ATOM      9  I   UNL d   1      -1.877  -1.031   2.926  0.00  0.00    -0.060 I 
ATOM     10  F2  UNL d   1       0.539  -1.088   0.827  0.00  0.00    -0.096 F 
ATOM     11  F3  UNL d   1       3.158  -0.446   1.080  0.00  0.00    -0.097 F 
ATOM     12  F4  UNL d   1       4.137   0.434   3.469  0.00  0.00    -0.092 F 
ENDROOT
TORSDOF 0
ENDMDL
