MODEL 1
REMARK minimizedAffinity 23.946434
REMARK minimizedRMSD -1
REMARK  0 active torsions:
REMARK  status: ('A' for Active; 'I' for Inactive)
ROOT
ATOM      1  C   UNL d   1      -1.326  -1.880   3.733  0.00  0.00     0.124 A 
ATOM      2  C1  UNL d   1      -0.941  -2.319   2.473  0.00  0.00     0.062 A 
ATOM      3  C2  UNL d   1       0.233  -1.846   1.896  0.00  0.00     0.162 A 
ATOM      4  C3  UNL d   1       1.033  -0.928   2.577  0.00  0.00    -0.034 A 
ATOM      5  C4  UNL d   1       0.639  -0.490   3.843  0.00  0.00     0.162 A 
ATOM      6  C5  UNL d   1      -0.536  -0.966   4.416  0.00  0.00     0.062 A 
ATOM      7  F   UNL d   1      -0.906  -0.541   5.633  0.00  0.00    -0.097 F 
ATOM      8  F1  UNL d   1       1.384   0.391   4.526  0.00  0.00    -0.096 F 
ATOM      9  I   UNL d   1       2.790  -0.218   1.717  0.00  0.00    -0.060 I 
ATOM     10  F2  UNL d   1       0.580  -2.288   0.678  0.00  0.00    -0.096 F 
ATOM     11  F3  UNL d   1      -1.703  -3.201   1.811  0.00  0.00    -0.097 F 
ATOM     12  F4  UNL d   1      -2.457  -2.336   4.286  0.00  0.00    -0.092 F 
ENDROOT
TORSDOF 0
ENDMDL
