MODEL 1
REMARK minimizedAffinity 23.6840172
REMARK minimizedRMSD -1
REMARK  0 active torsions:
REMARK  status: ('A' for Active; 'I' for Inactive)
ROOT
ATOM      1  C   UNL d   1       3.039  -0.329   3.289  0.00  0.00     0.124 A 
ATOM      2  C1  UNL d   1       2.544  -0.934   2.142  0.00  0.00     0.062 A 
ATOM      3  C2  UNL d   1       1.198  -1.278   2.058  0.00  0.00     0.162 A 
ATOM      4  C3  UNL d   1       0.337  -1.017   3.124  0.00  0.00    -0.034 A 
ATOM      5  C4  UNL d   1       0.843  -0.410   4.275  0.00  0.00     0.162 A 
ATOM      6  C5  UNL d   1       2.189  -0.069   4.354  0.00  0.00     0.062 A 
ATOM      7  F   UNL d   1       2.666   0.515   5.464  0.00  0.00    -0.097 F 
ATOM      8  F1  UNL d   1       0.043  -0.146   5.318  0.00  0.00    -0.096 F 
ATOM      9  I   UNL d   1      -1.676  -1.530   3.002  0.00  0.00    -0.060 I 
ATOM     10  F2  UNL d   1       0.747  -1.860   0.937  0.00  0.00    -0.096 F 
ATOM     11  F3  UNL d   1       3.364  -1.187   1.112  0.00  0.00    -0.097 F 
ATOM     12  F4  UNL d   1       4.335  -0.000   3.368  0.00  0.00    -0.092 F 
ENDROOT
TORSDOF 0
ENDMDL
