MODEL 1
REMARK minimizedAffinity 15.9107313
REMARK minimizedRMSD -1
REMARK  0 active torsions:
REMARK  status: ('A' for Active; 'I' for Inactive)
ROOT
ATOM      1  C   UNL d   1       2.248  -0.551   2.791  0.00  0.00     0.124 A 
ATOM      2  C1  UNL d   1       1.276  -0.405   3.771  0.00  0.00     0.062 A 
ATOM      3  C2  UNL d   1       0.075  -1.101   3.674  0.00  0.00     0.162 A 
ATOM      4  C3  UNL d   1      -0.161  -1.951   2.593  0.00  0.00    -0.034 A 
ATOM      5  C4  UNL d   1       0.821  -2.091   1.611  0.00  0.00     0.162 A 
ATOM      6  C5  UNL d   1       2.020  -1.393   1.712  0.00  0.00     0.062 A 
ATOM      7  F   UNL d   1       2.958  -1.535   0.764  0.00  0.00    -0.097 F 
ATOM      8  F1  UNL d   1       0.627  -2.900   0.558  0.00  0.00    -0.096 F 
ATOM      9  I   UNL d   1      -1.956  -2.993   2.445  0.00  0.00    -0.060 I 
ATOM     10  F2  UNL d   1      -0.846  -0.941   4.636  0.00  0.00    -0.096 F 
ATOM     11  F3  UNL d   1       1.494   0.409   4.814  0.00  0.00    -0.097 F 
ATOM     12  F4  UNL d   1       3.403   0.121   2.886  0.00  0.00    -0.092 F 
ENDROOT
TORSDOF 0
ENDMDL
