MODEL 1
REMARK minimizedAffinity 16.1025867
REMARK minimizedRMSD -1
REMARK  0 active torsions:
REMARK  status: ('A' for Active; 'I' for Inactive)
ROOT
ATOM      1  C   UNL d   1       2.919   0.064   3.697  0.00  0.00     0.124 A 
ATOM      2  C1  UNL d   1       2.358  -0.378   2.507  0.00  0.00     0.062 A 
ATOM      3  C2  UNL d   1       1.025  -0.777   2.466  0.00  0.00     0.162 A 
ATOM      4  C3  UNL d   1       0.243  -0.734   3.620  0.00  0.00    -0.034 A 
ATOM      5  C4  UNL d   1       0.814  -0.289   4.814  0.00  0.00     0.162 A 
ATOM      6  C5  UNL d   1       2.146   0.109   4.849  0.00  0.00     0.062 A 
ATOM      7  F   UNL d   1       2.686   0.536   5.999  0.00  0.00    -0.097 F 
ATOM      8  F1  UNL d   1       0.090  -0.235   5.942  0.00  0.00    -0.096 F 
ATOM      9  I   UNL d   1      -1.751  -1.330   3.565  0.00  0.00    -0.060 I 
ATOM     10  F2  UNL d   1       0.510  -1.201   1.303  0.00  0.00    -0.096 F 
ATOM     11  F3  UNL d   1       3.102  -0.423   1.392  0.00  0.00    -0.097 F 
ATOM     12  F4  UNL d   1       4.202   0.447   3.732  0.00  0.00    -0.092 F 
ENDROOT
TORSDOF 0
ENDMDL
