MODEL 1
REMARK minimizedAffinity 35.702301
REMARK minimizedRMSD -1
REMARK  0 active torsions:
REMARK  status: ('A' for Active; 'I' for Inactive)
ROOT
ATOM      1  C   UNL d   1       0.767   0.178   4.184  0.00  0.00     0.124 A 
ATOM      2  C1  UNL d   1       0.265  -0.168   2.937  0.00  0.00     0.062 A 
ATOM      3  C2  UNL d   1       1.074  -0.084   1.808  0.00  0.00     0.162 A 
ATOM      4  C3  UNL d   1       2.396   0.348   1.920  0.00  0.00    -0.034 A 
ATOM      5  C4  UNL d   1       2.894   0.695   3.177  0.00  0.00     0.162 A 
ATOM      6  C5  UNL d   1       2.081   0.609   4.302  0.00  0.00     0.062 A 
ATOM      7  F   UNL d   1       2.568   0.944   5.506  0.00  0.00    -0.097 F 
ATOM      8  F1  UNL d   1       4.160   1.115   3.320  0.00  0.00    -0.096 F 
ATOM      9  I   UNL d   1       3.609   0.476   0.234  0.00  0.00    -0.060 I 
ATOM     10  F2  UNL d   1       0.562  -0.425   0.616  0.00  0.00    -0.096 F 
ATOM     11  F3  UNL d   1      -1.005  -0.584   2.820  0.00  0.00    -0.097 F 
ATOM     12  F4  UNL d   1      -0.014   0.097   5.268  0.00  0.00    -0.092 F 
ENDROOT
TORSDOF 0
ENDMDL
