MODEL 1
REMARK minimizedAffinity 13.9006491
REMARK minimizedRMSD -1
REMARK  0 active torsions:
REMARK  status: ('A' for Active; 'I' for Inactive)
ROOT
ATOM      1  C   UNL d   1       2.600  -0.367   3.119  0.00  0.00     0.124 A 
ATOM      2  C1  UNL d   1       1.663  -0.183   4.126  0.00  0.00     0.062 A 
ATOM      3  C2  UNL d   1       0.425  -0.813   4.053  0.00  0.00     0.162 A 
ATOM      4  C3  UNL d   1       0.116  -1.634   2.969  0.00  0.00    -0.034 A 
ATOM      5  C4  UNL d   1       1.063  -1.813   1.959  0.00  0.00     0.162 A 
ATOM      6  C5  UNL d   1       2.299  -1.181   2.037  0.00  0.00     0.062 A 
ATOM      7  F   UNL d   1       3.204  -1.360   1.062  0.00  0.00    -0.097 F 
ATOM      8  F1  UNL d   1       0.798  -2.596   0.902  0.00  0.00    -0.096 F 
ATOM      9  I   UNL d   1      -1.736  -2.579   2.855  0.00  0.00    -0.060 I 
ATOM     10  F2  UNL d   1      -0.462  -0.618   5.041  0.00  0.00    -0.096 F 
ATOM     11  F3  UNL d   1       1.951   0.604   5.173  0.00  0.00    -0.097 F 
ATOM     12  F4  UNL d   1       3.791   0.242   3.191  0.00  0.00    -0.092 F 
ENDROOT
TORSDOF 0
ENDMDL
