MODEL 1
REMARK minimizedAffinity 11.6326103
REMARK minimizedRMSD -1
REMARK  0 active torsions:
REMARK  status: ('A' for Active; 'I' for Inactive)
ROOT
ATOM      1  C   UNL d   1      -1.166  -2.008   3.981  0.00  0.00     0.124 A 
ATOM      2  C1  UNL d   1      -0.233  -1.207   4.625  0.00  0.00     0.062 A 
ATOM      3  C2  UNL d   1       0.897  -0.763   3.944  0.00  0.00     0.162 A 
ATOM      4  C3  UNL d   1       1.101  -1.118   2.611  0.00  0.00    -0.034 A 
ATOM      5  C4  UNL d   1       0.159  -1.926   1.971  0.00  0.00     0.162 A 
ATOM      6  C5  UNL d   1      -0.969  -2.367   2.655  0.00  0.00     0.062 A 
ATOM      7  F   UNL d   1      -1.868  -3.142   2.032  0.00  0.00    -0.097 F 
ATOM      8  F1  UNL d   1       0.324  -2.287   0.689  0.00  0.00    -0.096 F 
ATOM      9  I   UNL d   1       2.789  -0.456   1.590  0.00  0.00    -0.060 I 
ATOM     10  F2  UNL d   1       1.781   0.011   4.591  0.00  0.00    -0.096 F 
ATOM     11  F3  UNL d   1      -0.421  -0.859   5.906  0.00  0.00    -0.097 F 
ATOM     12  F4  UNL d   1      -2.251  -2.435   4.639  0.00  0.00    -0.092 F 
ENDROOT
TORSDOF 0
ENDMDL
