MODEL 1
REMARK minimizedAffinity 19.9744148
REMARK minimizedRMSD -1
REMARK  0 active torsions:
REMARK  status: ('A' for Active; 'I' for Inactive)
ROOT
ATOM      1  C   UNL d   1       3.004  -1.867   1.477  0.00  0.00     0.124 A 
ATOM      2  C1  UNL d   1       3.004  -1.035   2.588  0.00  0.00     0.062 A 
ATOM      3  C2  UNL d   1       1.804  -0.698   3.208  0.00  0.00     0.162 A 
ATOM      4  C3  UNL d   1       0.595  -1.193   2.720  0.00  0.00    -0.034 A 
ATOM      5  C4  UNL d   1       0.604  -2.029   1.602  0.00  0.00     0.162 A 
ATOM      6  C5  UNL d   1       1.805  -2.363   0.985  0.00  0.00     0.062 A 
ATOM      7  F   UNL d   1       1.804  -3.167  -0.088  0.00  0.00    -0.097 F 
ATOM      8  F1  UNL d   1      -0.540  -2.523   1.107  0.00  0.00    -0.096 F 
ATOM      9  I   UNL d   1      -1.200  -0.691   3.646  0.00  0.00    -0.060 I 
ATOM     10  F2  UNL d   1       1.833   0.109   4.280  0.00  0.00    -0.096 F 
ATOM     11  F3  UNL d   1       4.161  -0.554   3.064  0.00  0.00    -0.097 F 
ATOM     12  F4  UNL d   1       4.160  -2.190   0.881  0.00  0.00    -0.092 F 
ENDROOT
TORSDOF 0
ENDMDL
