MODEL 1
REMARK minimizedAffinity -2.63005185
REMARK minimizedRMSD -1
REMARK  0 active torsions:
REMARK  status: ('A' for Active; 'I' for Inactive)
ROOT
ATOM      1  O1  BZF d   1      -1.520   1.132   2.320  0.00  0.00    -0.204 OA
ATOM      2  C2  BZF d   1      -0.349   1.566   2.910  0.00  0.00     0.174 A 
ATOM      3  C3  BZF d   1       0.721   1.196   2.177  0.00  0.00    -0.012 A 
ATOM      4  C3A BZF d   1       0.180   0.566   1.012  0.00  0.00    -0.107 A 
ATOM      5  C4  BZF d   1       0.743   0.003  -0.097  0.00  0.00     0.055 A 
ATOM      6  C5  BZF d   1      -0.062  -0.591  -1.017  0.00  0.00    -0.016 A 
ATOM      7  C6  BZF d   1      -1.431  -0.645  -0.856  0.00  0.00     0.022 A 
ATOM      8  C7  BZF d   1      -2.035  -0.096   0.225  0.00  0.00     0.029 A 
ATOM      9  C7A BZF d   1      -1.227   0.534   1.140  0.00  0.00     0.058 A 
ENDROOT
TORSDOF 0
ENDMDL
