MODEL 1
REMARK minimizedAffinity -4.43625069
REMARK minimizedRMSD -1
REMARK  0 active torsions:
REMARK  status: ('A' for Active; 'I' for Inactive)
ROOT
ATOM      1  O1  BZF d   1       0.371  -0.022  -0.171  0.00  0.00    -0.204 OA
ATOM      2  C2  BZF d   1      -0.907   0.295  -0.589  0.00  0.00     0.174 A 
ATOM      3  C3  BZF d   1      -1.682   0.639   0.461  0.00  0.00    -0.012 A 
ATOM      4  C3A BZF d   1      -0.809   0.619   1.595  0.00  0.00    -0.107 A 
ATOM      5  C4  BZF d   1      -0.988   0.886   2.922  0.00  0.00     0.055 A 
ATOM      6  C5  BZF d   1       0.050   0.702   3.779  0.00  0.00    -0.016 A 
ATOM      7  C6  BZF d   1       1.278   0.248   3.344  0.00  0.00     0.022 A 
ATOM      8  C7  BZF d   1       1.505  -0.026   2.036  0.00  0.00     0.029 A 
ATOM      9  C7A BZF d   1       0.467   0.191   1.163  0.00  0.00     0.058 A 
ENDROOT
TORSDOF 0
ENDMDL
