MODEL 1
REMARK minimizedAffinity -6.32501364
REMARK minimizedRMSD -1
REMARK  0 active torsions:
REMARK  status: ('A' for Active; 'I' for Inactive)
ROOT
ATOM      1  O1  BZF d   1       1.540  -0.355   2.067  0.00  0.00    -0.204 OA
ATOM      2  C2  BZF d   1       1.385   0.090   3.366  0.00  0.00     0.174 A 
ATOM      3  C3  BZF d   1       0.207   0.731   3.514  0.00  0.00    -0.012 A 
ATOM      4  C3A BZF d   1      -0.453   0.603   2.251  0.00  0.00    -0.107 A 
ATOM      5  C4  BZF d   1      -1.665   1.019   1.779  0.00  0.00     0.055 A 
ATOM      6  C5  BZF d   1      -1.977   0.796   0.475  0.00  0.00    -0.016 A 
ATOM      7  C6  BZF d   1      -1.101   0.166  -0.384  0.00  0.00     0.022 A 
ATOM      8  C7  BZF d   1       0.111  -0.269   0.040  0.00  0.00     0.029 A 
ATOM      9  C7A BZF d   1       0.416  -0.075   1.365  0.00  0.00     0.058 A 
ENDROOT
TORSDOF 0
ENDMDL
