MODEL 1
REMARK minimizedAffinity -4.33453894
REMARK minimizedRMSD -1
REMARK  0 active torsions:
REMARK  status: ('A' for Active; 'I' for Inactive)
ROOT
ATOM      1  O1  BZF d   1       1.826  -0.634   1.618  0.00  0.00    -0.204 OA
ATOM      2  C2  BZF d   1       2.003  -0.280   2.942  0.00  0.00     0.174 A 
ATOM      3  C3  BZF d   1       0.926   0.384   3.408  0.00  0.00    -0.012 A 
ATOM      4  C3A BZF d   1      -0.019   0.369   2.333  0.00  0.00    -0.107 A 
ATOM      5  C4  BZF d   1      -1.287   0.856   2.191  0.00  0.00     0.055 A 
ATOM      6  C5  BZF d   1      -1.909   0.739   0.989  0.00  0.00    -0.016 A 
ATOM      7  C6  BZF d   1      -1.291   0.147  -0.093  0.00  0.00     0.022 A 
ATOM      8  C7  BZF d   1      -0.036  -0.355   0.000  0.00  0.00     0.029 A 
ATOM      9  C7A BZF d   1       0.582  -0.268   1.224  0.00  0.00     0.058 A 
ENDROOT
TORSDOF 0
ENDMDL
