MODEL 1
REMARK minimizedAffinity -5.38077974
REMARK minimizedRMSD -1
REMARK  0 active torsions:
REMARK  status: ('A' for Active; 'I' for Inactive)
ROOT
ATOM      1  O1  BZF d   1       1.991  -0.596   1.925  0.00  0.00    -0.204 OA
ATOM      2  C2  BZF d   1       1.903  -0.163   3.234  0.00  0.00     0.174 A 
ATOM      3  C3  BZF d   1       0.714   0.431   3.463  0.00  0.00    -0.012 A 
ATOM      4  C3A BZF d   1      -0.021   0.282   2.244  0.00  0.00    -0.107 A 
ATOM      5  C4  BZF d   1      -1.276   0.652   1.854  0.00  0.00     0.055 A 
ATOM      6  C5  BZF d   1      -1.664   0.423   0.572  0.00  0.00    -0.016 A 
ATOM      7  C6  BZF d   1      -0.821  -0.169  -0.346  0.00  0.00     0.022 A 
ATOM      8  C7  BZF d   1       0.431  -0.558  -0.005  0.00  0.00     0.029 A 
ATOM      9  C7A BZF d   1       0.814  -0.357   1.299  0.00  0.00     0.058 A 
ENDROOT
TORSDOF 0
ENDMDL
