MODEL 1
REMARK minimizedAffinity -1.75017595
REMARK minimizedRMSD -1
REMARK  0 active torsions:
REMARK  status: ('A' for Active; 'I' for Inactive)
ROOT
ATOM      1  C4' PXY d   1      -3.838  -4.232   0.074  0.00  0.00     0.077 C 
ATOM      2  C1' PXY d   1       0.977  -2.374  -2.530  0.00  0.00     0.077 C 
ATOM      3  C1  PXY d   1      -0.278  -2.865  -1.837  0.00  0.00    -0.082 A 
ATOM      4  C2  PXY d   1      -1.343  -3.178  -2.558  0.00  0.00     0.003 A 
ATOM      5  C3  PXY d   1      -2.497  -3.593  -1.945  0.00  0.00     0.003 A 
ATOM      6  C4  PXY d   1      -2.545  -3.741  -0.584  0.00  0.00    -0.082 A 
ATOM      7  C5  PXY d   1      -1.459  -3.433   0.157  0.00  0.00     0.003 A 
ATOM      8  C6  PXY d   1      -0.311  -2.974  -0.481  0.00  0.00     0.003 A 
ENDROOT
TORSDOF 0
ENDMDL
