MODEL 1
REMARK minimizedAffinity -3.6220932
REMARK minimizedRMSD -1
REMARK  0 active torsions:
REMARK  status: ('A' for Active; 'I' for Inactive)
ROOT
ATOM      1  C4' PXY d   1      -1.336   1.076   0.608  0.00  0.00     0.077 C 
ATOM      2  C1' PXY d   1       0.275  -3.709  -2.207  0.00  0.00     0.077 C 
ATOM      3  C1  PXY d   1      -0.141  -2.459  -1.458  0.00  0.00    -0.082 A 
ATOM      4  C2  PXY d   1      -1.203  -1.778  -1.860  0.00  0.00     0.003 A 
ATOM      5  C3  PXY d   1      -1.575  -0.628  -1.214  0.00  0.00     0.003 A 
ATOM      6  C4  PXY d   1      -0.884  -0.198  -0.112  0.00  0.00    -0.082 A 
ATOM      7  C5  PXY d   1       0.193  -0.892   0.310  0.00  0.00     0.003 A 
ATOM      8  C6  PXY d   1       0.579  -2.035  -0.384  0.00  0.00     0.003 A 
ENDROOT
TORSDOF 0
ENDMDL
