MODEL 1
REMARK minimizedAffinity -4.31753922
REMARK minimizedRMSD -1
REMARK  0 active torsions:
REMARK  status: ('A' for Active; 'I' for Inactive)
ROOT
ATOM      1  C4' PXY d   1      -1.098  -3.155  -1.271  0.00  0.00     0.077 C 
ATOM      2  C1' PXY d   1      -0.769   1.988   1.347  0.00  0.00     0.077 C 
ATOM      3  C1  PXY d   1      -0.843   0.637   0.663  0.00  0.00    -0.082 A 
ATOM      4  C2  PXY d   1      -1.779   0.414  -0.245  0.00  0.00     0.003 A 
ATOM      5  C3  PXY d   1      -1.880  -0.812  -0.850  0.00  0.00     0.003 A 
ATOM      6  C4  PXY d   1      -0.980  -1.803  -0.562  0.00  0.00    -0.082 A 
ATOM      7  C5  PXY d   1      -0.016  -1.580   0.356  0.00  0.00     0.003 A 
ATOM      8  C6  PXY d   1       0.044  -0.342   0.989  0.00  0.00     0.003 A 
ENDROOT
TORSDOF 0
ENDMDL
