MODEL 1
REMARK minimizedAffinity -0.957613647
REMARK minimizedRMSD -1
REMARK  0 active torsions:
REMARK  status: ('A' for Active; 'I' for Inactive)
ROOT
ATOM      1  C4' PXY d   1      -0.720  -2.656  -1.677  0.00  0.00     0.077 C 
ATOM      2  C1' PXY d   1      -1.057   2.131   1.547  0.00  0.00     0.077 C 
ATOM      3  C1  PXY d   1      -0.956   0.876   0.702  0.00  0.00    -0.082 A 
ATOM      4  C2  PXY d   1      -1.951   0.549  -0.107  0.00  0.00     0.003 A 
ATOM      5  C3  PXY d   1      -1.889  -0.599  -0.854  0.00  0.00     0.003 A 
ATOM      6  C4  PXY d   1      -0.775  -1.393  -0.813  0.00  0.00    -0.082 A 
ATOM      7  C5  PXY d   1       0.249  -1.061   0.002  0.00  0.00     0.003 A 
ATOM      8  C6  PXY d   1       0.150   0.087   0.783  0.00  0.00     0.003 A 
ENDROOT
TORSDOF 0
ENDMDL
