MODEL 1
REMARK minimizedAffinity -2.94569945
REMARK minimizedRMSD -1
REMARK  0 active torsions:
REMARK  status: ('A' for Active; 'I' for Inactive)
ROOT
ATOM      1  C4' PXY d   1      -0.378  -2.538  -0.660  0.00  0.00     0.077 C 
ATOM      2  C1' PXY d   1       0.456   3.040   0.607  0.00  0.00     0.077 C 
ATOM      3  C1  PXY d   1       0.249   1.577   0.270  0.00  0.00    -0.082 A 
ATOM      4  C2  PXY d   1      -0.979   1.106   0.124  0.00  0.00     0.003 A 
ATOM      5  C3  PXY d   1      -1.185  -0.222  -0.149  0.00  0.00     0.003 A 
ATOM      6  C4  PXY d   1      -0.121  -1.065  -0.328  0.00  0.00    -0.082 A 
ATOM      7  C5  PXY d   1       1.135  -0.591  -0.192  0.00  0.00     0.003 A 
ATOM      8  C6  PXY d   1       1.322   0.751   0.126  0.00  0.00     0.003 A 
ENDROOT
TORSDOF 0
ENDMDL
