MODEL 1
REMARK minimizedAffinity -5.72798967
REMARK minimizedRMSD -1
REMARK  0 active torsions:
REMARK  status: ('A' for Active; 'I' for Inactive)
ROOT
ATOM      1  C4' PXY d   1       3.387   1.043   0.167  0.00  0.00     0.077 C 
ATOM      2  C1' PXY d   1      -2.382   1.108   0.532  0.00  0.00     0.077 C 
ATOM      3  C1  PXY d   1      -0.869   1.103   0.431  0.00  0.00    -0.082 A 
ATOM      4  C2  PXY d   1      -0.224  -0.048   0.338  0.00  0.00     0.003 A 
ATOM      5  C3  PXY d   1       1.146  -0.072   0.279  0.00  0.00     0.003 A 
ATOM      6  C4  PXY d   1       1.859   1.097   0.261  0.00  0.00    -0.082 A 
ATOM      7  C5  PXY d   1       1.207   2.276   0.345  0.00  0.00     0.003 A 
ATOM      8  C6  PXY d   1      -0.181   2.277   0.446  0.00  0.00     0.003 A 
ENDROOT
TORSDOF 0
ENDMDL
