MODEL 1
REMARK minimizedAffinity -1.32737064
REMARK minimizedRMSD -1
REMARK  0 active torsions:
REMARK  status: ('A' for Active; 'I' for Inactive)
ROOT
ATOM      1  C4' PXY d   1      -0.541  -2.501  -0.448  0.00  0.00     0.077 C 
ATOM      2  C1' PXY d   1       0.401   3.055   0.839  0.00  0.00     0.077 C 
ATOM      3  C1  PXY d   1       0.167   1.597   0.499  0.00  0.00    -0.082 A 
ATOM      4  C2  PXY d   1      -1.044   1.194   0.147  0.00  0.00     0.003 A 
ATOM      5  C3  PXY d   1      -1.280  -0.128  -0.133  0.00  0.00     0.003 A 
ATOM      6  C4  PXY d   1      -0.256  -1.036  -0.105  0.00  0.00    -0.082 A 
ATOM      7  C5  PXY d   1       0.983  -0.631   0.242  0.00  0.00     0.003 A 
ATOM      8  C6  PXY d   1       1.194   0.707   0.563  0.00  0.00     0.003 A 
ENDROOT
TORSDOF 0
ENDMDL
