MODEL 1
REMARK minimizedAffinity -3.99481535
REMARK minimizedRMSD -1
REMARK  0 active torsions:
REMARK  status: ('A' for Active; 'I' for Inactive)
ROOT
ATOM      1  C4' PXY d   1      -0.149   3.286   0.695  0.00  0.00     0.077 C 
ATOM      2  C1' PXY d   1       0.324  -2.473   0.514  0.00  0.00     0.077 C 
ATOM      3  C1  PXY d   1       0.188  -0.964   0.558  0.00  0.00    -0.082 A 
ATOM      4  C2  PXY d   1       1.260  -0.205   0.399  0.00  0.00     0.003 A 
ATOM      5  C3  PXY d   1       1.159   1.161   0.468  0.00  0.00     0.003 A 
ATOM      6  C4  PXY d   1      -0.060   1.758   0.649  0.00  0.00    -0.082 A 
ATOM      7  C5  PXY d   1      -1.160   0.991   0.802  0.00  0.00     0.003 A 
ATOM      8  C6  PXY d   1      -1.030  -0.395   0.770  0.00  0.00     0.003 A 
ENDROOT
TORSDOF 0
ENDMDL
