MODEL 1
REMARK minimizedAffinity -4.58949375
REMARK minimizedRMSD -1
REMARK  0 active torsions:
REMARK  status: ('A' for Active; 'I' for Inactive)
ROOT
ATOM      1  C4' PXY d   1      -0.730  -4.245  -1.881  0.00  0.00     0.077 C 
ATOM      2  C1' PXY d   1       1.707   0.465   0.421  0.00  0.00     0.077 C 
ATOM      3  C1  PXY d   1       1.062  -0.773  -0.171  0.00  0.00    -0.082 A 
ATOM      4  C2  PXY d   1       1.630  -1.376  -1.202  0.00  0.00     0.003 A 
ATOM      5  C3  PXY d   1       1.043  -2.478  -1.771  0.00  0.00     0.003 A 
ATOM      6  C4  PXY d   1      -0.109  -2.998  -1.245  0.00  0.00    -0.082 A 
ATOM      7  C5  PXY d   1      -0.689  -2.394  -0.186  0.00  0.00     0.003 A 
ATOM      8  C6  PXY d   1      -0.100  -1.253   0.350  0.00  0.00     0.003 A 
ENDROOT
TORSDOF 0
ENDMDL
