MODEL 1
REMARK minimizedAffinity -1.71770418
REMARK minimizedRMSD -1
REMARK  0 active torsions:
REMARK  status: ('A' for Active; 'I' for Inactive)
ROOT
ATOM      1  C4' PXY d   1      -0.708   2.075   1.129  0.00  0.00     0.077 C 
ATOM      2  C1' PXY d   1      -0.331  -3.126  -1.366  0.00  0.00     0.077 C 
ATOM      3  C1  PXY d   1      -0.442  -1.764  -0.709  0.00  0.00    -0.082 A 
ATOM      4  C2  PXY d   1       0.416  -0.810  -1.032  0.00  0.00     0.003 A 
ATOM      5  C3  PXY d   1       0.349   0.418  -0.424  0.00  0.00     0.003 A 
ATOM      6  C4  PXY d   1      -0.639   0.688   0.485  0.00  0.00    -0.082 A 
ATOM      7  C5  PXY d   1      -1.525  -0.277   0.811  0.00  0.00     0.003 A 
ATOM      8  C6  PXY d   1      -1.415  -1.529   0.213  0.00  0.00     0.003 A 
ENDROOT
TORSDOF 0
ENDMDL
