MODEL 1
REMARK minimizedAffinity 0.871138275
REMARK minimizedRMSD -1
REMARK  0 active torsions:
REMARK  status: ('A' for Active; 'I' for Inactive)
ROOT
ATOM      1  C4' PXY d   1       3.157   1.969   1.486  0.00  0.00     0.077 C 
ATOM      2  C1' PXY d   1      -2.161   0.381  -0.131  0.00  0.00     0.077 C 
ATOM      3  C1  PXY d   1      -0.763   0.785   0.295  0.00  0.00    -0.082 A 
ATOM      4  C2  PXY d   1      -0.554   1.993   0.793  0.00  0.00     0.003 A 
ATOM      5  C3  PXY d   1       0.709   2.386   1.153  0.00  0.00     0.003 A 
ATOM      6  C4  PXY d   1       1.761   1.515   1.052  0.00  0.00    -0.082 A 
ATOM      7  C5  PXY d   1       1.554   0.277   0.555  0.00  0.00     0.003 A 
ATOM      8  C6  PXY d   1       0.271  -0.088   0.156  0.00  0.00     0.003 A 
ENDROOT
TORSDOF 0
ENDMDL
