MODEL 1
REMARK minimizedAffinity -1.74893081
REMARK minimizedRMSD -1
REMARK  0 active torsions:
REMARK  status: ('A' for Active; 'I' for Inactive)
ROOT
ATOM      1  C4' PXY d   1      -0.481   1.107   0.585  0.00  0.00     0.077 C 
ATOM      2  C1' PXY d   1       0.044  -3.944  -2.176  0.00  0.00     0.077 C 
ATOM      3  C1  PXY d   1      -0.096  -2.626  -1.441  0.00  0.00    -0.082 A 
ATOM      4  C2  PXY d   1      -0.406  -1.531  -2.115  0.00  0.00     0.003 A 
ATOM      5  C3  PXY d   1      -0.505  -0.324  -1.471  0.00  0.00     0.003 A 
ATOM      6  C4  PXY d   1      -0.338  -0.248  -0.114  0.00  0.00    -0.082 A 
ATOM      7  C5  PXY d   1      -0.032  -1.362   0.582  0.00  0.00     0.003 A 
ATOM      8  C6  PXY d   1       0.105  -2.570  -0.096  0.00  0.00     0.003 A 
ENDROOT
TORSDOF 0
ENDMDL
