MODEL 1
REMARK minimizedAffinity -5.01695776
REMARK minimizedRMSD -1
REMARK  0 active torsions:
REMARK  status: ('A' for Active; 'I' for Inactive)
ROOT
ATOM      1  C4' PXY d   1      -0.579  -2.705  -0.701  0.00  0.00     0.077 C 
ATOM      2  C1' PXY d   1      -0.065   2.867   0.748  0.00  0.00     0.077 C 
ATOM      3  C1  PXY d   1      -0.187   1.405   0.365  0.00  0.00    -0.082 A 
ATOM      4  C2  PXY d   1      -1.363   0.921  -0.002  0.00  0.00     0.003 A 
ATOM      5  C3  PXY d   1      -1.497  -0.406  -0.321  0.00  0.00     0.003 A 
ATOM      6  C4  PXY d   1      -0.407  -1.234  -0.315  0.00  0.00    -0.082 A 
ATOM      7  C5  PXY d   1       0.798  -0.745   0.048  0.00  0.00     0.003 A 
ATOM      8  C6  PXY d   1       0.905   0.595   0.408  0.00  0.00     0.003 A 
ENDROOT
TORSDOF 0
ENDMDL
