MODEL 1
REMARK minimizedAffinity -2.57189417
REMARK minimizedRMSD -1
REMARK  0 active torsions:
REMARK  status: ('A' for Active; 'I' for Inactive)
ROOT
ATOM      1  C4' PXY d   1      -0.309   3.036   0.870  0.00  0.00     0.077 C 
ATOM      2  C1' PXY d   1      -0.072  -2.535  -0.655  0.00  0.00     0.077 C 
ATOM      3  C1  PXY d   1      -0.147  -1.074  -0.258  0.00  0.00    -0.082 A 
ATOM      4  C2  PXY d   1       0.945  -0.328  -0.299  0.00  0.00     0.003 A 
ATOM      5  C3  PXY d   1       0.902   0.987   0.087  0.00  0.00     0.003 A 
ATOM      6  C4  PXY d   1      -0.282   1.558   0.469  0.00  0.00    -0.082 A 
ATOM      7  C5  PXY d   1      -1.403   0.807   0.504  0.00  0.00     0.003 A 
ATOM      8  C6  PXY d   1      -1.330  -0.537   0.147  0.00  0.00     0.003 A 
ENDROOT
TORSDOF 0
ENDMDL
