MODEL 1
REMARK minimizedAffinity -3.91716886
REMARK minimizedRMSD -1
REMARK  0 active torsions:
REMARK  status: ('A' for Active; 'I' for Inactive)
ROOT
ATOM      1  C4' PXY d   1       1.963   0.308   0.304  0.00  0.00     0.077 C 
ATOM      2  C1' PXY d   1      -1.590  -3.077  -2.750  0.00  0.00     0.077 C 
ATOM      3  C1  PXY d   1      -0.648  -2.193  -1.957  0.00  0.00    -0.082 A 
ATOM      4  C2  PXY d   1      -0.965  -1.843  -0.721  0.00  0.00     0.003 A 
ATOM      5  C3  PXY d   1      -0.140  -1.018  -0.000  0.00  0.00     0.003 A 
ATOM      6  C4  PXY d   1       1.047  -0.590  -0.531  0.00  0.00    -0.082 A 
ATOM      7  C5  PXY d   1       1.383  -0.952  -1.787  0.00  0.00     0.003 A 
ATOM      8  C6  PXY d   1       0.512  -1.756  -2.517  0.00  0.00     0.003 A 
ENDROOT
TORSDOF 0
ENDMDL
