MODEL 1
REMARK minimizedAffinity -3.6417315
REMARK minimizedRMSD -1
REMARK  0 active torsions:
REMARK  status: ('A' for Active; 'I' for Inactive)
ROOT
ATOM      1  C4' PXY d   1      -1.310   1.763   0.747  0.00  0.00     0.077 C 
ATOM      2  C1' PXY d   1      -0.057  -2.853  -2.499  0.00  0.00     0.077 C 
ATOM      3  C1  PXY d   1      -0.383  -1.650  -1.637  0.00  0.00    -0.082 A 
ATOM      4  C2  PXY d   1      -1.165  -0.696  -2.115  0.00  0.00     0.003 A 
ATOM      5  C3  PXY d   1      -1.445   0.415  -1.361  0.00  0.00     0.003 A 
ATOM      6  C4  PXY d   1      -0.961   0.525  -0.085  0.00  0.00    -0.082 A 
ATOM      7  C5  PXY d   1      -0.171  -0.449   0.414  0.00  0.00     0.003 A 
ATOM      8  C6  PXY d   1       0.134  -1.549  -0.383  0.00  0.00     0.003 A 
ENDROOT
TORSDOF 0
ENDMDL
