MODEL 1
REMARK minimizedAffinity -0.435820013
REMARK minimizedRMSD -1
REMARK  0 active torsions:
REMARK  status: ('A' for Active; 'I' for Inactive)
ROOT
ATOM      1  C4' PXY d   1      -0.815  -2.337   1.984  0.00  0.00     0.077 C 
ATOM      2  C1' PXY d   1      -0.809   2.819  -0.631  0.00  0.00     0.077 C 
ATOM      3  C1  PXY d   1      -0.806   1.461   0.044  0.00  0.00    -0.082 A 
ATOM      4  C2  PXY d   1      -1.640   1.226   1.044  0.00  0.00     0.003 A 
ATOM      5  C3  PXY d   1      -1.628   0.015   1.686  0.00  0.00     0.003 A 
ATOM      6  C4  PXY d   1      -0.791  -0.984   1.267  0.00  0.00    -0.082 A 
ATOM      7  C5  PXY d   1       0.056  -0.755   0.240  0.00  0.00     0.003 A 
ATOM      8  C6  PXY d   1       0.057   0.495  -0.372  0.00  0.00     0.003 A 
ENDROOT
TORSDOF 0
ENDMDL
