MODEL 1
REMARK minimizedAffinity -1.78891611
REMARK minimizedRMSD -1
REMARK  0 active torsions:
REMARK  status: ('A' for Active; 'I' for Inactive)
ROOT
ATOM      1  C4' PXY d   1      -0.202  -2.242  -1.582  0.00  0.00     0.077 C 
ATOM      2  C1' PXY d   1      -0.294   2.783   1.275  0.00  0.00     0.077 C 
ATOM      3  C1  PXY d   1      -0.258   1.463   0.530  0.00  0.00    -0.082 A 
ATOM      4  C2  PXY d   1      -1.033   1.287  -0.528  0.00  0.00     0.003 A 
ATOM      5  C3  PXY d   1      -1.036   0.089  -1.193  0.00  0.00     0.003 A 
ATOM      6  C4  PXY d   1      -0.198  -0.922  -0.805  0.00  0.00    -0.082 A 
ATOM      7  C5  PXY d   1       0.603  -0.747   0.267  0.00  0.00     0.003 A 
ATOM      8  C6  PXY d   1       0.561   0.463   0.954  0.00  0.00     0.003 A 
ENDROOT
TORSDOF 0
ENDMDL
