MODEL 1
REMARK minimizedAffinity 7.5335598
REMARK minimizedRMSD -1
REMARK  0 active torsions:
REMARK  status: ('A' for Active; 'I' for Inactive)
ROOT
ATOM      1  C   UNL d   1       0.344  -3.646   4.913  0.00  0.00     0.020 A 
ATOM      2  C1  UNL d   1      -0.380  -3.399   3.747  0.00  0.00     0.020 A 
ATOM      3  C2  UNL d   1      -0.300  -2.150   3.127  0.00  0.00     0.034 A 
ATOM      4  C3  UNL d   1       0.504  -1.144   3.673  0.00  0.00     0.017 A 
ATOM      5  C4  UNL d   1       1.230  -1.392   4.843  0.00  0.00     0.017 A 
ATOM      6  C5  UNL d   1       1.147  -2.644   5.460  0.00  0.00     0.034 A 
ATOM      7 Cl   UNL d   1       2.244  -0.200   5.576  0.00  0.00    -0.070 Cl
ATOM      8 Cl1  UNL d   1       0.556   0.377   2.853  0.00  0.00    -0.070 Cl
ENDROOT
TORSDOF 0
ENDMDL
