MODEL 1
REMARK minimizedAffinity 11.940237
REMARK minimizedRMSD -1
REMARK  0 active torsions:
REMARK  status: ('A' for Active; 'I' for Inactive)
ROOT
ATOM      1  C   UNL d   1       5.283   1.690  -0.744  0.00  0.00     0.020 A 
ATOM      2  C1  UNL d   1       6.000   0.498  -0.839  0.00  0.00     0.020 A 
ATOM      3  C2  UNL d   1       5.338  -0.726  -0.722  0.00  0.00     0.034 A 
ATOM      4  C3  UNL d   1       3.955  -0.761  -0.510  0.00  0.00     0.017 A 
ATOM      5  C4  UNL d   1       3.236   0.437  -0.415  0.00  0.00     0.017 A 
ATOM      6  C5  UNL d   1       3.904   1.659  -0.532  0.00  0.00     0.034 A 
ATOM      7 Cl   UNL d   1       1.528   0.474  -0.153  0.00  0.00    -0.070 Cl
ATOM      8 Cl1  UNL d   1       3.201  -2.310  -0.376  0.00  0.00    -0.070 Cl
ENDROOT
TORSDOF 0
ENDMDL
