MODEL 1
REMARK minimizedAffinity 5.36164761
REMARK minimizedRMSD -1
REMARK  0 active torsions:
REMARK  status: ('A' for Active; 'I' for Inactive)
ROOT
ATOM      1  C   UNL d   1       4.611   0.302  -1.795  0.00  0.00     0.020 A 
ATOM      2  C1  UNL d   1       3.941   0.330  -0.572  0.00  0.00     0.020 A 
ATOM      3  C2  UNL d   1       3.300  -0.818  -0.101  0.00  0.00     0.034 A 
ATOM      4  C3  UNL d   1       3.326  -1.998  -0.854  0.00  0.00     0.017 A 
ATOM      5  C4  UNL d   1       3.998  -2.024  -2.081  0.00  0.00     0.017 A 
ATOM      6  C5  UNL d   1       4.639  -0.872  -2.548  0.00  0.00     0.034 A 
ATOM      7 Cl   UNL d   1       4.075  -3.442  -3.066  0.00  0.00    -0.070 Cl
ATOM      8 Cl1  UNL d   1       2.512  -3.380  -0.211  0.00  0.00    -0.070 Cl
ENDROOT
TORSDOF 0
ENDMDL
