MODEL 1
REMARK minimizedAffinity 0.854723275
REMARK minimizedRMSD -1
REMARK  0 active torsions:
REMARK  status: ('A' for Active; 'I' for Inactive)
ROOT
ATOM      1  C   UNL d   1       5.129   0.271  -1.687  0.00  0.00     0.020 A 
ATOM      2  C1  UNL d   1       5.802  -0.139  -2.837  0.00  0.00     0.020 A 
ATOM      3  C2  UNL d   1       5.513  -1.379  -3.411  0.00  0.00     0.034 A 
ATOM      4  C3  UNL d   1       4.548  -2.214  -2.835  0.00  0.00     0.017 A 
ATOM      5  C4  UNL d   1       3.873  -1.801  -1.680  0.00  0.00     0.017 A 
ATOM      6  C5  UNL d   1       4.167  -0.559  -1.110  0.00  0.00     0.034 A 
ATOM      7 Cl   UNL d   1       2.670  -2.776  -0.912  0.00  0.00    -0.070 Cl
ATOM      8 Cl1  UNL d   1       4.241  -3.733  -3.598  0.00  0.00    -0.070 Cl
ENDROOT
TORSDOF 0
ENDMDL
