MODEL 1
REMARK minimizedAffinity 5.76234818
REMARK minimizedRMSD -1
REMARK  0 active torsions:
REMARK  status: ('A' for Active; 'I' for Inactive)
ROOT
ATOM      1  C   UNL d   1       4.434   5.896   5.940  0.00  0.00     0.020 A 
ATOM      2  C1  UNL d   1       3.417   6.000   4.991  0.00  0.00     0.020 A 
ATOM      3  C2  UNL d   1       3.183   4.949   4.102  0.00  0.00     0.034 A 
ATOM      4  C3  UNL d   1       3.966   3.790   4.159  0.00  0.00     0.017 A 
ATOM      5  C4  UNL d   1       4.986   3.687   5.111  0.00  0.00     0.017 A 
ATOM      6  C5  UNL d   1       5.216   4.742   6.000  0.00  0.00     0.034 A 
ATOM      7 Cl   UNL d   1       5.993   2.289   5.243  0.00  0.00    -0.070 Cl
ATOM      8 Cl1  UNL d   1       3.620   2.530   3.028  0.00  0.00    -0.070 Cl
ENDROOT
TORSDOF 0
ENDMDL
