MODEL 1
REMARK minimizedAffinity 1.60078454
REMARK minimizedRMSD -1
REMARK  0 active torsions:
REMARK  status: ('A' for Active; 'I' for Inactive)
ROOT
ATOM      1  C   UNL d   1      -1.432  -2.358  -4.660  0.00  0.00     0.020 A 
ATOM      2  C1  UNL d   1      -1.815  -3.693  -4.532  0.00  0.00     0.020 A 
ATOM      3  C2  UNL d   1      -1.641  -4.355  -3.315  0.00  0.00     0.034 A 
ATOM      4  C3  UNL d   1      -1.083  -3.684  -2.221  0.00  0.00     0.017 A 
ATOM      5  C4  UNL d   1      -0.699  -2.344  -2.351  0.00  0.00     0.017 A 
ATOM      6  C5  UNL d   1      -0.875  -1.685  -3.571  0.00  0.00     0.034 A 
ATOM      7 Cl   UNL d   1      -0.003  -1.449  -1.046  0.00  0.00    -0.070 Cl
ATOM      8 Cl1  UNL d   1      -0.897  -4.565  -0.747  0.00  0.00    -0.070 Cl
ENDROOT
TORSDOF 0
ENDMDL
