MODEL 1
REMARK minimizedAffinity 7.42278719
REMARK minimizedRMSD -1
REMARK  0 active torsions:
REMARK  status: ('A' for Active; 'I' for Inactive)
ROOT
ATOM      1  C   UNL d   1       0.126  -1.558  -0.913  0.00  0.00     0.020 A 
ATOM      2  C1  UNL d   1      -0.688  -0.599  -1.515  0.00  0.00     0.020 A 
ATOM      3  C2  UNL d   1      -0.794   0.676  -0.957  0.00  0.00     0.034 A 
ATOM      4  C3  UNL d   1      -0.086   0.996   0.207  0.00  0.00     0.017 A 
ATOM      5  C4  UNL d   1       0.730   0.033   0.811  0.00  0.00     0.017 A 
ATOM      6  C5  UNL d   1       0.833  -1.243   0.248  0.00  0.00     0.034 A 
ATOM      7 Cl   UNL d   1       1.634   0.354   2.249  0.00  0.00    -0.070 Cl
ATOM      8 Cl1  UNL d   1      -0.265   2.593   0.843  0.00  0.00    -0.070 Cl
ENDROOT
TORSDOF 0
ENDMDL
