MODEL 1
REMARK minimizedAffinity 8.84366989
REMARK minimizedRMSD -1
REMARK  0 active torsions:
REMARK  status: ('A' for Active; 'I' for Inactive)
ROOT
ATOM      1  C   UNL d   1       5.296   2.014  -0.796  0.00  0.00     0.020 A 
ATOM      2  C1  UNL d   1       5.976   0.831  -1.080  0.00  0.00     0.020 A 
ATOM      3  C2  UNL d   1       5.274  -0.372  -1.175  0.00  0.00     0.034 A 
ATOM      4  C3  UNL d   1       3.887  -0.395  -0.985  0.00  0.00     0.017 A 
ATOM      5  C4  UNL d   1       3.205   0.794  -0.700  0.00  0.00     0.017 A 
ATOM      6  C5  UNL d   1       3.914   1.996  -0.606  0.00  0.00     0.034 A 
ATOM      7 Cl   UNL d   1       1.496   0.846  -0.453  0.00  0.00    -0.070 Cl
ATOM      8 Cl1  UNL d   1       3.082  -1.918  -1.117  0.00  0.00    -0.070 Cl
ENDROOT
TORSDOF 0
ENDMDL
