MODEL 1
REMARK minimizedAffinity -3.54245377
REMARK minimizedRMSD -1
REMARK  1 active torsions:
REMARK  status: ('A' for Active; 'I' for Inactive)
REMARK    1  A    between atoms: C1_2  and  C2_3 
ROOT
ATOM      1  C2  UNL d   1       0.106   2.105  -0.630  0.00  0.00    -0.077 A 
ATOM      2  C3  UNL d   1       1.056   3.134  -0.679  0.00  0.00     0.002 A 
ATOM      3  C4  UNL d   1       0.948   4.151  -1.630  0.00  0.00     0.002 A 
ATOM      4  C5  UNL d   1      -0.111   4.150  -2.535  0.00  0.00    -0.004 A 
ATOM      5  C6  UNL d   1      -1.061   3.130  -2.495  0.00  0.00     0.002 A 
ATOM      6  C7  UNL d   1      -0.953   2.112  -1.547  0.00  0.00     0.002 A 
ENDROOT
BRANCH   1   7
ATOM      7  C1  UNL d   1       0.194   1.034   0.426  0.00  0.00     0.055 C 
ATOM      8  C   UNL d   1       1.184  -0.052   0.032  0.00  0.00     0.019 C 
ENDBRANCH   1   7
TORSDOF 1
ENDMDL
