MODEL 1
REMARK minimizedAffinity -0.680809498
REMARK minimizedRMSD -1
REMARK  1 active torsions:
REMARK  status: ('A' for Active; 'I' for Inactive)
REMARK    1  A    between atoms: C1_2  and  C2_3 
ROOT
ATOM      1  C2  UNL d   1      -0.090   0.197  -1.050  0.00  0.00    -0.077 A 
ATOM      2  C3  UNL d   1      -0.163   0.455   0.327  0.00  0.00     0.002 A 
ATOM      3  C4  UNL d   1       0.892   0.098   1.169  0.00  0.00     0.002 A 
ATOM      4  C5  UNL d   1       2.029  -0.513   0.644  0.00  0.00    -0.004 A 
ATOM      5  C6  UNL d   1       2.110  -0.775  -0.723  0.00  0.00     0.002 A 
ATOM      6  C7  UNL d   1       1.056  -0.421  -1.566  0.00  0.00     0.002 A 
ENDROOT
BRANCH   1   7
ATOM      7  C1  UNL d   1      -1.206   0.626  -1.966  0.00  0.00     0.055 C 
ATOM      8  C   UNL d   1      -2.213  -0.496  -2.175  0.00  0.00     0.019 C 
ENDBRANCH   1   7
TORSDOF 1
ENDMDL
