MODEL 1
REMARK minimizedAffinity -5.08209848
REMARK minimizedRMSD -1
REMARK  1 active torsions:
REMARK  status: ('A' for Active; 'I' for Inactive)
REMARK    1  A    between atoms: C1_2  and  C2_3 
ROOT
ATOM      1  C2  UNL d   1      -0.760  -0.154  -0.302  0.00  0.00    -0.077 A 
ATOM      2  C3  UNL d   1      -1.024   0.007  -1.670  0.00  0.00     0.002 A 
ATOM      3  C4  UNL d   1      -2.261  -0.365  -2.199  0.00  0.00     0.002 A 
ATOM      4  C5  UNL d   1      -3.245  -0.895  -1.367  0.00  0.00    -0.004 A 
ATOM      5  C6  UNL d   1      -2.992  -1.061  -0.006  0.00  0.00     0.002 A 
ATOM      6  C7  UNL d   1      -1.755  -0.692   0.524  0.00  0.00     0.002 A 
ENDROOT
BRANCH   1   7
ATOM      7  C1  UNL d   1       0.557   0.292   0.278  0.00  0.00     0.055 C 
ATOM      8  C   UNL d   1       0.581   0.121   1.790  0.00  0.00     0.019 C 
ENDBRANCH   1   7
TORSDOF 1
ENDMDL
