MODEL 1
REMARK minimizedAffinity -5.54670906
REMARK minimizedRMSD -1
REMARK  1 active torsions:
REMARK  status: ('A' for Active; 'I' for Inactive)
REMARK    1  A    between atoms: C1_2  and  C2_3 
ROOT
ATOM      1  C2  UNL d   1      -0.782  -0.523   1.010  0.00  0.00    -0.077 A 
ATOM      2  C3  UNL d   1      -0.210  -1.320   2.012  0.00  0.00     0.002 A 
ATOM      3  C4  UNL d   1       1.081  -1.054   2.474  0.00  0.00     0.002 A 
ATOM      4  C5  UNL d   1       1.808   0.009   1.944  0.00  0.00    -0.004 A 
ATOM      5  C6  UNL d   1       1.248   0.807   0.947  0.00  0.00     0.002 A 
ATOM      6  C7  UNL d   1      -0.041   0.542   0.482  0.00  0.00     0.002 A 
ENDROOT
BRANCH   1   7
ATOM      7  C1  UNL d   1      -2.192  -0.776   0.545  0.00  0.00     0.055 C 
ATOM      8  C   UNL d   1      -2.278  -0.800  -0.974  0.00  0.00     0.019 C 
ENDBRANCH   1   7
TORSDOF 1
ENDMDL
