MODEL 1
REMARK minimizedAffinity 0.095891349
REMARK minimizedRMSD -1
REMARK  1 active torsions:
REMARK  status: ('A' for Active; 'I' for Inactive)
REMARK    1  A    between atoms: C1_2  and  C2_3 
ROOT
ATOM      1  C2  UNL d   1       0.991  -0.892   1.138  0.00  0.00    -0.077 A 
ATOM      2  C3  UNL d   1      -0.099  -0.167   0.635  0.00  0.00     0.002 A 
ATOM      3  C4  UNL d   1      -0.175   0.142  -0.724  0.00  0.00     0.002 A 
ATOM      4  C5  UNL d   1       0.833  -0.272  -1.592  0.00  0.00    -0.004 A 
ATOM      5  C6  UNL d   1       1.922  -0.991  -1.102  0.00  0.00     0.002 A 
ATOM      6  C7  UNL d   1       2.000  -1.300   0.257  0.00  0.00     0.002 A 
ENDROOT
BRANCH   1   7
ATOM      7  C1  UNL d   1       1.050  -1.269   2.595  0.00  0.00     0.055 C 
ATOM      8  C   UNL d   1       0.021  -2.338   2.932  0.00  0.00     0.019 C 
ENDBRANCH   1   7
TORSDOF 1
ENDMDL
