MODEL 1
REMARK minimizedAffinity -3.77885532
REMARK minimizedRMSD -1
REMARK  1 active torsions:
REMARK  status: ('A' for Active; 'I' for Inactive)
REMARK    1  A    between atoms: C1_2  and  C2_3 
ROOT
ATOM      1  C2  UNL d   1       0.529  -0.382  -0.051  0.00  0.00    -0.077 A 
ATOM      2  C3  UNL d   1      -0.254  -0.366   1.112  0.00  0.00     0.002 A 
ATOM      3  C4  UNL d   1       0.351  -0.342   2.370  0.00  0.00     0.002 A 
ATOM      4  C5  UNL d   1       1.740  -0.332   2.477  0.00  0.00    -0.004 A 
ATOM      5  C6  UNL d   1       2.527  -0.350   1.326  0.00  0.00     0.002 A 
ATOM      6  C7  UNL d   1       1.925  -0.375   0.068  0.00  0.00     0.002 A 
ENDROOT
BRANCH   1   7
ATOM      7  C1  UNL d   1      -0.121  -0.358  -1.410  0.00  0.00     0.055 C 
ATOM      8  C   UNL d   1      -0.519   1.056  -1.807  0.00  0.00     0.019 C 
ENDBRANCH   1   7
TORSDOF 1
ENDMDL
