MODEL 1
REMARK minimizedAffinity -2.97603893
REMARK minimizedRMSD -1
REMARK  1 active torsions:
REMARK  status: ('A' for Active; 'I' for Inactive)
REMARK    1  A    between atoms: C1_2  and  C2_3 
ROOT
ATOM      1  C2  UNL d   1       0.179   1.019  -2.318  0.00  0.00    -0.077 A 
ATOM      2  C3  UNL d   1       1.227   1.743  -2.904  0.00  0.00     0.002 A 
ATOM      3  C4  UNL d   1       1.030   3.063  -3.314  0.00  0.00     0.002 A 
ATOM      4  C5  UNL d   1      -0.211   3.671  -3.139  0.00  0.00    -0.004 A 
ATOM      5  C6  UNL d   1      -1.260   2.959  -2.559  0.00  0.00     0.002 A 
ATOM      6  C7  UNL d   1      -1.066   1.639  -2.149  0.00  0.00     0.002 A 
ENDROOT
BRANCH   1   7
ATOM      7  C1  UNL d   1       0.403  -0.389  -1.830  0.00  0.00     0.055 C 
ATOM      8  C   UNL d   1       0.904  -0.404  -0.393  0.00  0.00     0.019 C 
ENDBRANCH   1   7
TORSDOF 1
ENDMDL
