MODEL 1
REMARK minimizedAffinity -1.3020575
REMARK minimizedRMSD -1
REMARK  0 active torsions:
REMARK  status: ('A' for Active; 'I' for Inactive)
ROOT
ATOM      1  C   UNL d   1      -0.908  -1.040  -0.558  0.00  0.00     0.020 A 
ATOM      2  C1  UNL d   1      -1.138  -0.171  -1.624  0.00  0.00     0.020 A 
ATOM      3  C2  UNL d   1      -1.705  -0.651  -2.807  0.00  0.00     0.034 A 
ATOM      4  C3  UNL d   1      -2.044  -2.003  -2.926  0.00  0.00     0.017 A 
ATOM      5  C4  UNL d   1      -1.813  -2.875  -1.856  0.00  0.00     0.017 A 
ATOM      6  C5  UNL d   1      -1.245  -2.389  -0.674  0.00  0.00     0.034 A 
ATOM      7 Cl   UNL d   1      -2.206  -4.557  -1.928  0.00  0.00    -0.070 Cl
ATOM      8 Cl1  UNL d   1      -2.742  -2.528  -4.417  0.00  0.00    -0.070 Cl
ENDROOT
TORSDOF 0
ENDMDL
