MODEL 1
REMARK minimizedAffinity -3.19831514
REMARK minimizedRMSD -1
REMARK  0 active torsions:
REMARK  status: ('A' for Active; 'I' for Inactive)
ROOT
ATOM      1  C   UNL d   1      -2.867  -2.577   0.750  0.00  0.00     0.020 A 
ATOM      2  C1  UNL d   1      -3.554  -3.362  -0.175  0.00  0.00     0.020 A 
ATOM      3  C2  UNL d   1      -3.207  -3.314  -1.527  0.00  0.00     0.034 A 
ATOM      4  C3  UNL d   1      -2.169  -2.479  -1.958  0.00  0.00     0.017 A 
ATOM      5  C4  UNL d   1      -1.480  -1.691  -1.029  0.00  0.00     0.017 A 
ATOM      6  C5  UNL d   1      -1.832  -1.743   0.324  0.00  0.00     0.034 A 
ATOM      7 Cl   UNL d   1      -0.189  -0.636  -1.485  0.00  0.00    -0.070 Cl
ATOM      8 Cl1  UNL d   1      -1.793  -2.470  -3.644  0.00  0.00    -0.070 Cl
ENDROOT
TORSDOF 0
ENDMDL
