MODEL 1
REMARK minimizedAffinity -3.42466259
REMARK minimizedRMSD -1
REMARK  0 active torsions:
REMARK  status: ('A' for Active; 'I' for Inactive)
ROOT
ATOM      1  C   UNL d   1      -3.565  -3.064   0.067  0.00  0.00     0.020 A 
ATOM      2  C1  UNL d   1      -4.020  -3.786  -1.035  0.00  0.00     0.020 A 
ATOM      3  C2  UNL d   1      -3.497  -3.527  -2.304  0.00  0.00     0.034 A 
ATOM      4  C3  UNL d   1      -2.516  -2.543  -2.474  0.00  0.00     0.017 A 
ATOM      5  C4  UNL d   1      -2.060  -1.819  -1.366  0.00  0.00     0.017 A 
ATOM      6  C5  UNL d   1      -2.588  -2.082  -0.098  0.00  0.00     0.034 A 
ATOM      7 Cl   UNL d   1      -0.852  -0.590  -1.497  0.00  0.00    -0.070 Cl
ATOM      8 Cl1  UNL d   1      -1.914  -2.276  -4.071  0.00  0.00    -0.070 Cl
ENDROOT
TORSDOF 0
ENDMDL
