MODEL 1
REMARK minimizedAffinity -1.25211322
REMARK minimizedRMSD -1
REMARK  0 active torsions:
REMARK  status: ('A' for Active; 'I' for Inactive)
ROOT
ATOM      1  C   UNL d   1      -2.125  -2.555  -1.387  0.00  0.00     0.020 A 
ATOM      2  C1  UNL d   1      -2.011  -1.794  -2.550  0.00  0.00     0.020 A 
ATOM      3  C2  UNL d   1      -1.433  -0.524  -2.500  0.00  0.00     0.034 A 
ATOM      4  C3  UNL d   1      -0.966  -0.011  -1.285  0.00  0.00     0.017 A 
ATOM      5  C4  UNL d   1      -1.081  -0.775  -0.118  0.00  0.00     0.017 A 
ATOM      6  C5  UNL d   1      -1.661  -2.046  -0.174  0.00  0.00     0.034 A 
ATOM      7 Cl   UNL d   1      -0.528  -0.209   1.419  0.00  0.00    -0.070 Cl
ATOM      8 Cl1  UNL d   1      -0.262   1.567  -1.296  0.00  0.00    -0.070 Cl
ENDROOT
TORSDOF 0
ENDMDL
