MODEL 1
REMARK minimizedAffinity -0.297812462
REMARK minimizedRMSD -1
REMARK  0 active torsions:
REMARK  status: ('A' for Active; 'I' for Inactive)
ROOT
ATOM      1  C   UNL d   1      -0.530  -0.676  -0.286  0.00  0.00     0.020 A 
ATOM      2  C1  UNL d   1      -1.487  -0.270   0.642  0.00  0.00     0.020 A 
ATOM      3  C2  UNL d   1      -2.782  -0.789   0.583  0.00  0.00     0.034 A 
ATOM      4  C3  UNL d   1      -3.124  -1.717  -0.408  0.00  0.00     0.017 A 
ATOM      5  C4  UNL d   1      -2.162  -2.124  -1.340  0.00  0.00     0.017 A 
ATOM      6  C5  UNL d   1      -0.867  -1.601  -1.276  0.00  0.00     0.034 A 
ATOM      7 Cl   UNL d   1      -2.508  -3.265  -2.591  0.00  0.00    -0.070 Cl
ATOM      8 Cl1  UNL d   1      -4.744  -2.318  -0.423  0.00  0.00    -0.070 Cl
ENDROOT
TORSDOF 0
ENDMDL
