MODEL 1
REMARK minimizedAffinity 0.685971618
REMARK minimizedRMSD -1
REMARK  0 active torsions:
REMARK  status: ('A' for Active; 'I' for Inactive)
ROOT
ATOM      1  C   UNL d   1      -5.654   5.565   0.162  0.00  0.00     0.020 A 
ATOM      2  C1  UNL d   1      -4.721   4.541   0.002  0.00  0.00     0.020 A 
ATOM      3  C2  UNL d   1      -4.132   3.951   1.122  0.00  0.00     0.034 A 
ATOM      4  C3  UNL d   1      -4.476   4.384   2.408  0.00  0.00     0.017 A 
ATOM      5  C4  UNL d   1      -5.412   5.412   2.568  0.00  0.00     0.017 A 
ATOM      6  C5  UNL d   1      -5.999   5.999   1.443  0.00  0.00     0.034 A 
ATOM      7 Cl   UNL d   1      -5.887   5.999   4.123  0.00  0.00    -0.070 Cl
ATOM      8 Cl1  UNL d   1      -3.709   3.609   3.748  0.00  0.00    -0.070 Cl
ENDROOT
TORSDOF 0
ENDMDL
