MODEL 1
REMARK minimizedAffinity 3.78347588
REMARK minimizedRMSD -1
REMARK  0 active torsions:
REMARK  status: ('A' for Active; 'I' for Inactive)
ROOT
ATOM      1  C   UNL d   1      -4.311   4.258   0.691  0.00  0.00     0.020 A 
ATOM      2  C1  UNL d   1      -5.233   5.304   0.697  0.00  0.00     0.020 A 
ATOM      3  C2  UNL d   1      -5.689   5.826   1.909  0.00  0.00     0.034 A 
ATOM      4  C3  UNL d   1      -5.222   5.303   3.120  0.00  0.00     0.017 A 
ATOM      5  C4  UNL d   1      -4.297   4.254   3.113  0.00  0.00     0.017 A 
ATOM      6  C5  UNL d   1      -3.844   3.734   1.897  0.00  0.00     0.034 A 
ATOM      7 Cl   UNL d   1      -3.675   3.556   4.568  0.00  0.00    -0.070 Cl
ATOM      8 Cl1  UNL d   1      -5.828   5.998   4.582  0.00  0.00    -0.070 Cl
ENDROOT
TORSDOF 0
ENDMDL
