MODEL 1
REMARK minimizedAffinity 3.83656096
REMARK minimizedRMSD -1
REMARK  0 active torsions:
REMARK  status: ('A' for Active; 'I' for Inactive)
ROOT
ATOM      1  C   UNL d   1      -2.549  -2.923  -2.242  0.00  0.00     0.020 A 
ATOM      2  C1  UNL d   1      -2.840  -1.895  -3.138  0.00  0.00     0.020 A 
ATOM      3  C2  UNL d   1      -2.401  -0.596  -2.876  0.00  0.00     0.034 A 
ATOM      4  C3  UNL d   1      -1.669  -0.321  -1.715  0.00  0.00     0.017 A 
ATOM      5  C4  UNL d   1      -1.377  -1.353  -0.816  0.00  0.00     0.017 A 
ATOM      6  C5  UNL d   1      -1.819  -2.653  -1.084  0.00  0.00     0.034 A 
ATOM      7 Cl   UNL d   1      -0.479  -1.091   0.637  0.00  0.00    -0.070 Cl
ATOM      8 Cl1  UNL d   1      -1.158   1.309  -1.455  0.00  0.00    -0.070 Cl
ENDROOT
TORSDOF 0
ENDMDL
