MODEL 1
REMARK minimizedAffinity 3.94550085
REMARK minimizedRMSD -1
REMARK  0 active torsions:
REMARK  status: ('A' for Active; 'I' for Inactive)
ROOT
ATOM      1  C   UNL d   1      -2.553  -2.117  -3.236  0.00  0.00     0.020 A 
ATOM      2  C1  UNL d   1      -3.327  -1.703  -2.153  0.00  0.00     0.020 A 
ATOM      3  C2  UNL d   1      -4.159  -2.615  -1.500  0.00  0.00     0.034 A 
ATOM      4  C3  UNL d   1      -4.217  -3.946  -1.928  0.00  0.00     0.017 A 
ATOM      5  C4  UNL d   1      -3.439  -4.361  -3.015  0.00  0.00     0.017 A 
ATOM      6  C5  UNL d   1      -2.609  -3.444  -3.666  0.00  0.00     0.034 A 
ATOM      7 Cl   UNL d   1      -3.458  -5.987  -3.601  0.00  0.00    -0.070 Cl
ATOM      8 Cl1  UNL d   1      -5.267  -5.020  -1.073  0.00  0.00    -0.070 Cl
ENDROOT
TORSDOF 0
ENDMDL
