MODEL 1
REMARK minimizedAffinity 8.29769039
REMARK minimizedRMSD -1
REMARK  0 active torsions:
REMARK  status: ('A' for Active; 'I' for Inactive)
ROOT
ATOM      1  C   UNL d   1       0.325  -1.199   0.364  0.00  0.00     0.020 A 
ATOM      2  C1  UNL d   1      -0.226  -0.459  -0.680  0.00  0.00     0.020 A 
ATOM      3  C2  UNL d   1      -1.362   0.324  -0.458  0.00  0.00     0.034 A 
ATOM      4  C3  UNL d   1      -1.949   0.367   0.812  0.00  0.00     0.017 A 
ATOM      5  C4  UNL d   1      -1.394  -0.377   1.860  0.00  0.00     0.017 A 
ATOM      6  C5  UNL d   1      -0.257  -1.158   1.631  0.00  0.00     0.034 A 
ATOM      7 Cl   UNL d   1      -2.062  -0.374   3.454  0.00  0.00    -0.070 Cl
ATOM      8 Cl1  UNL d   1      -3.351   1.356   1.016  0.00  0.00    -0.070 Cl
ENDROOT
TORSDOF 0
ENDMDL
