MODEL 1
REMARK minimizedAffinity -2.47103024
REMARK minimizedRMSD -1
REMARK  0 active torsions:
REMARK  status: ('A' for Active; 'I' for Inactive)
ROOT
ATOM      1  C   UNL d   1      -4.718   2.084   5.796  0.00  0.00     0.020 A 
ATOM      2  C1  UNL d   1      -4.731   1.566   4.502  0.00  0.00     0.020 A 
ATOM      3  C2  UNL d   1      -4.906   2.419   3.410  0.00  0.00     0.034 A 
ATOM      4  C3  UNL d   1      -5.068   3.795   3.611  0.00  0.00     0.017 A 
ATOM      5  C4  UNL d   1      -5.054   4.314   4.911  0.00  0.00     0.017 A 
ATOM      6  C5  UNL d   1      -4.879   3.455   6.000  0.00  0.00     0.034 A 
ATOM      7 Cl   UNL d   1      -5.248   6.000   5.238  0.00  0.00    -0.070 Cl
ATOM      8 Cl1  UNL d   1      -5.280   4.791   2.215  0.00  0.00    -0.070 Cl
ENDROOT
TORSDOF 0
ENDMDL
