MODEL 1
REMARK minimizedAffinity -3.83755207
REMARK minimizedRMSD -1
REMARK  0 active torsions:
REMARK  status: ('A' for Active; 'I' for Inactive)
ROOT
ATOM      1  C   UNL d   1      -5.245   5.678   2.250  0.00  0.00     0.020 A 
ATOM      2  C1  UNL d   1      -4.877   4.497   1.608  0.00  0.00     0.020 A 
ATOM      3  C2  UNL d   1      -4.840   3.297   2.322  0.00  0.00     0.034 A 
ATOM      4  C3  UNL d   1      -5.172   3.275   3.681  0.00  0.00     0.017 A 
ATOM      5  C4  UNL d   1      -5.541   4.462   4.325  0.00  0.00     0.017 A 
ATOM      6  C5  UNL d   1      -5.577   5.661   3.606  0.00  0.00     0.034 A 
ATOM      7 Cl   UNL d   1      -5.965   4.515   6.000  0.00  0.00    -0.070 Cl
ATOM      8 Cl1  UNL d   1      -5.104   1.756   4.501  0.00  0.00    -0.070 Cl
ENDROOT
TORSDOF 0
ENDMDL
