MODEL 1
REMARK minimizedAffinity -0.614362895
REMARK minimizedRMSD -1
REMARK  0 active torsions:
REMARK  status: ('A' for Active; 'I' for Inactive)
ROOT
ATOM      1  C   UNL d   1      -4.630   4.188   5.859  0.00  0.00     0.020 A 
ATOM      2  C1  UNL d   1      -5.200   5.459   5.817  0.00  0.00     0.020 A 
ATOM      3  C2  UNL d   1      -5.612   6.000   4.598  0.00  0.00     0.034 A 
ATOM      4  C3  UNL d   1      -5.455   5.269   3.414  0.00  0.00     0.017 A 
ATOM      5  C4  UNL d   1      -4.882   3.993   3.457  0.00  0.00     0.017 A 
ATOM      6  C5  UNL d   1      -4.471   3.456   4.681  0.00  0.00     0.034 A 
ATOM      7 Cl   UNL d   1      -4.655   3.031   2.039  0.00  0.00    -0.070 Cl
ATOM      8 Cl1  UNL d   1      -5.987   5.999   1.942  0.00  0.00    -0.070 Cl
ENDROOT
TORSDOF 0
ENDMDL
