MODEL 1
REMARK minimizedAffinity -0.111679502
REMARK minimizedRMSD -1
REMARK  0 active torsions:
REMARK  status: ('A' for Active; 'I' for Inactive)
ROOT
ATOM      1  C   UNL d   1      -5.515   6.000   2.401  0.00  0.00     0.020 A 
ATOM      2  C1  UNL d   1      -5.659   4.916   1.536  0.00  0.00     0.020 A 
ATOM      3  C2  UNL d   1      -5.242   3.644   1.934  0.00  0.00     0.034 A 
ATOM      4  C3  UNL d   1      -4.679   3.453   3.201  0.00  0.00     0.017 A 
ATOM      5  C4  UNL d   1      -4.535   4.541   4.069  0.00  0.00     0.017 A 
ATOM      6  C5  UNL d   1      -4.954   5.813   3.665  0.00  0.00     0.034 A 
ATOM      7 Cl   UNL d   1      -3.850   4.383   5.648  0.00  0.00    -0.070 Cl
ATOM      8 Cl1  UNL d   1      -4.186   1.853   3.628  0.00  0.00    -0.070 Cl
ENDROOT
TORSDOF 0
ENDMDL
