MODEL 1
REMARK minimizedAffinity 7.63118029
REMARK minimizedRMSD -1
REMARK  0 active torsions:
REMARK  status: ('A' for Active; 'I' for Inactive)
ROOT
ATOM      1  C   UNL d   1       3.189  -0.120   4.774  0.00  0.00     0.020 A 
ATOM      2  C1  UNL d   1       3.376   1.130   5.362  0.00  0.00     0.020 A 
ATOM      3  C2  UNL d   1       2.417   2.131   5.197  0.00  0.00     0.034 A 
ATOM      4  C3  UNL d   1       1.265   1.884   4.440  0.00  0.00     0.017 A 
ATOM      5  C4  UNL d   1       1.078   0.629   3.850  0.00  0.00     0.017 A 
ATOM      6  C5  UNL d   1       2.042  -0.370   4.019  0.00  0.00     0.034 A 
ATOM      7 Cl   UNL d   1      -0.317   0.249   2.903  0.00  0.00    -0.070 Cl
ATOM      8 Cl1  UNL d   1       0.120   3.167   4.278  0.00  0.00    -0.070 Cl
ENDROOT
TORSDOF 0
ENDMDL
