MODEL 1
REMARK minimizedAffinity 2.4333086
REMARK minimizedRMSD -1
REMARK  0 active torsions:
REMARK  status: ('A' for Active; 'I' for Inactive)
ROOT
ATOM      1  C   UNL d   1      -4.986   5.561   6.000  0.00  0.00     0.020 A 
ATOM      2  C1  UNL d   1      -5.999   5.999   5.148  0.00  0.00     0.020 A 
ATOM      3  C2  UNL d   1      -5.802   5.988   3.766  0.00  0.00     0.034 A 
ATOM      4  C3  UNL d   1      -4.590   5.538   3.231  0.00  0.00     0.017 A 
ATOM      5  C4  UNL d   1      -3.574   5.098   4.086  0.00  0.00     0.017 A 
ATOM      6  C5  UNL d   1      -3.776   5.111   5.470  0.00  0.00     0.034 A 
ATOM      7 Cl   UNL d   1      -2.051   4.528   3.501  0.00  0.00    -0.070 Cl
ATOM      8 Cl1  UNL d   1      -4.416   5.552   1.512  0.00  0.00    -0.070 Cl
ENDROOT
TORSDOF 0
ENDMDL
