MODEL 1
REMARK minimizedAffinity -3.03454375
REMARK minimizedRMSD -1
REMARK  1 active torsions:
REMARK  status: ('A' for Active; 'I' for Inactive)
REMARK    1  A    between atoms: N_2  and  C1_3 
ROOT
ATOM      1  C1  UNL d   1      -2.460   1.140   2.588  0.00  0.00     0.143 A 
ATOM      2  C2  UNL d   1      -1.478   2.122   2.415  0.00  0.00    -0.057 A 
ATOM      3  C3  UNL d   1      -0.283   1.843   1.741  0.00  0.00     0.033 A 
ATOM      4  C4  UNL d   1      -0.035   0.565   1.252  0.00  0.00    -0.042 A 
ATOM      5  C5  UNL d   1      -0.986  -0.433   1.434  0.00  0.00     0.033 A 
ATOM      6  C6  UNL d   1      -2.180  -0.147   2.102  0.00  0.00    -0.057 A 
ENDROOT
BRANCH   1   7
ATOM      7  N   UNL d   1      -3.625   1.329   3.335  0.00  0.00    -0.732 N 
ATOM      8  C   UNL d   1      -3.719   2.406   4.297  0.00  0.00     0.284 C 
ATOM      9  H3  UNL d   1      -4.468   1.191   2.781  0.00  0.00     0.395 HD
ENDBRANCH   1   7
TORSDOF 1
ENDMDL
