MODEL 1
REMARK minimizedAffinity -2.88773203
REMARK minimizedRMSD -1
REMARK  1 active torsions:
REMARK  status: ('A' for Active; 'I' for Inactive)
REMARK    1  A    between atoms: N_2  and  C1_3 
ROOT
ATOM      1  C1  UNL d   1      -2.005   1.095   2.907  0.00  0.00     0.143 A 
ATOM      2  C2  UNL d   1      -2.007  -0.284   2.671  0.00  0.00    -0.057 A 
ATOM      3  C3  UNL d   1      -0.985  -0.897   1.937  0.00  0.00     0.033 A 
ATOM      4  C4  UNL d   1       0.047  -0.134   1.399  0.00  0.00    -0.042 A 
ATOM      5  C5  UNL d   1       0.057   1.241   1.600  0.00  0.00     0.033 A 
ATOM      6  C6  UNL d   1      -0.964   1.847   2.339  0.00  0.00    -0.057 A 
ENDROOT
BRANCH   1   7
ATOM      7  N   UNL d   1      -3.044   1.777   3.545  0.00  0.00    -0.732 N 
ATOM      8  C   UNL d   1      -4.068   1.052   4.266  0.00  0.00     0.284 C 
ATOM      9  H3  UNL d   1      -2.724   2.622   4.013  0.00  0.00     0.395 HD
ENDBRANCH   1   7
TORSDOF 1
ENDMDL
