MODEL 1
REMARK minimizedAffinity -3.27690864
REMARK minimizedRMSD -1
REMARK  1 active torsions:
REMARK  status: ('A' for Active; 'I' for Inactive)
REMARK    1  A    between atoms: N_2  and  C1_3 
ROOT
ATOM      1  C1  UNL d   1      -1.545   1.630   2.458  0.00  0.00     0.143 A 
ATOM      2  C2  UNL d   1      -0.385   2.192   1.915  0.00  0.00    -0.057 A 
ATOM      3  C3  UNL d   1       0.492   1.433   1.131  0.00  0.00     0.033 A 
ATOM      4  C4  UNL d   1       0.238   0.085   0.899  0.00  0.00    -0.042 A 
ATOM      5  C5  UNL d   1      -0.896  -0.501   1.450  0.00  0.00     0.033 A 
ATOM      6  C6  UNL d   1      -1.772   0.264   2.226  0.00  0.00    -0.057 A 
ENDROOT
BRANCH   1   7
ATOM      7  N   UNL d   1      -2.405   2.306   3.326  0.00  0.00    -0.732 N 
ATOM      8  C   UNL d   1      -3.712   1.768   3.638  0.00  0.00     0.284 C 
ATOM      9  H3  UNL d   1      -1.917   2.701   4.127  0.00  0.00     0.395 HD
ENDBRANCH   1   7
TORSDOF 1
ENDMDL
