MODEL 1
REMARK minimizedAffinity -5.20061827
REMARK minimizedRMSD -1
REMARK  1 active torsions:
REMARK  status: ('A' for Active; 'I' for Inactive)
REMARK    1  A    between atoms: N_2  and  C1_3 
ROOT
ATOM      1  C1  UNL d   1      -1.942   1.843   2.266  0.00  0.00     0.143 A 
ATOM      2  C2  UNL d   1      -0.648   2.339   2.072  0.00  0.00    -0.057 A 
ATOM      3  C3  UNL d   1       0.296   1.631   1.318  0.00  0.00     0.033 A 
ATOM      4  C4  UNL d   1      -0.030   0.396   0.767  0.00  0.00    -0.042 A 
ATOM      5  C5  UNL d   1      -1.302  -0.128   0.969  0.00  0.00     0.033 A 
ATOM      6  C6  UNL d   1      -2.242   0.586   1.717  0.00  0.00    -0.057 A 
ENDROOT
BRANCH   1   7
ATOM      7  N   UNL d   1      -2.893   2.452   3.088  0.00  0.00    -0.732 N 
ATOM      8  C   UNL d   1      -4.034   1.705   3.574  0.00  0.00     0.284 C 
ATOM      9  H3  UNL d   1      -2.472   3.066   3.781  0.00  0.00     0.395 HD
ENDBRANCH   1   7
TORSDOF 1
ENDMDL
