MODEL 1
REMARK minimizedAffinity -2.81803632
REMARK minimizedRMSD -1
REMARK  1 active torsions:
REMARK  status: ('A' for Active; 'I' for Inactive)
REMARK    1  A    between atoms: N_2  and  C1_3 
ROOT
ATOM      1  C1  UNL d   1      -1.876   1.413   1.689  0.00  0.00     0.143 A 
ATOM      2  C2  UNL d   1      -0.656   2.099   1.701  0.00  0.00    -0.057 A 
ATOM      3  C3  UNL d   1       0.547   1.445   1.409  0.00  0.00     0.033 A 
ATOM      4  C4  UNL d   1       0.555   0.083   1.126  0.00  0.00    -0.042 A 
ATOM      5  C5  UNL d   1      -0.642  -0.624   1.133  0.00  0.00     0.033 A 
ATOM      6  C6  UNL d   1      -1.841   0.036   1.419  0.00  0.00    -0.057 A 
ENDROOT
BRANCH   1   7
ATOM      7  N   UNL d   1      -3.093   1.984   2.067  0.00  0.00    -0.732 N 
ATOM      8  C   UNL d   1      -3.981   1.293   2.977  0.00  0.00     0.284 C 
ATOM      9  H3  UNL d   1      -3.016   2.984   2.241  0.00  0.00     0.395 HD
ENDBRANCH   1   7
TORSDOF 1
ENDMDL
