MODEL 1
REMARK minimizedAffinity -3.29251146
REMARK minimizedRMSD -1
REMARK  1 active torsions:
REMARK  status: ('A' for Active; 'I' for Inactive)
REMARK    1  A    between atoms: N_2  and  C1_3 
ROOT
ATOM      1  C1  UNL d   1       0.312   0.965   1.098  0.00  0.00     0.143 A 
ATOM      2  C2  UNL d   1      -0.359   1.815   1.983  0.00  0.00    -0.057 A 
ATOM      3  C3  UNL d   1      -1.596   1.460   2.536  0.00  0.00     0.033 A 
ATOM      4  C4  UNL d   1      -2.198   0.255   2.189  0.00  0.00    -0.042 A 
ATOM      5  C5  UNL d   1      -1.561  -0.595   1.292  0.00  0.00     0.033 A 
ATOM      6  C6  UNL d   1      -0.324  -0.237   0.749  0.00  0.00    -0.057 A 
ENDROOT
BRANCH   1   7
ATOM      7  N   UNL d   1       1.495   1.305   0.439  0.00  0.00    -0.732 N 
ATOM      8  C   UNL d   1       2.197   0.329  -0.367  0.00  0.00     0.284 C 
ATOM      9  H3  UNL d   1       1.457   2.235   0.027  0.00  0.00     0.395 HD
ENDBRANCH   1   7
TORSDOF 1
ENDMDL
