MODEL 1
REMARK minimizedAffinity 1.85814977
REMARK minimizedRMSD -1
REMARK  1 active torsions:
REMARK  status: ('A' for Active; 'I' for Inactive)
REMARK    1  A    between atoms: N_2  and  C1_3 
ROOT
ATOM      1  C1  UNL d   1      -1.989   1.779   2.654  0.00  0.00     0.143 A 
ATOM      2  C2  UNL d   1      -0.808   2.237   2.061  0.00  0.00    -0.057 A 
ATOM      3  C3  UNL d   1       0.095   1.350   1.462  0.00  0.00     0.033 A 
ATOM      4  C4  UNL d   1      -0.154  -0.018   1.473  0.00  0.00    -0.042 A 
ATOM      5  C5  UNL d   1      -1.309  -0.498   2.079  0.00  0.00     0.033 A 
ATOM      6  C6  UNL d   1      -2.211   0.393   2.669  0.00  0.00    -0.057 A 
ENDROOT
BRANCH   1   7
ATOM      7  N   UNL d   1      -2.879   2.600   3.351  0.00  0.00    -0.732 N 
ATOM      8  C   UNL d   1      -3.963   2.027   4.120  0.00  0.00     0.284 C 
ATOM      9  H3  UNL d   1      -2.411   3.379   3.809  0.00  0.00     0.395 HD
ENDBRANCH   1   7
TORSDOF 1
ENDMDL
