MODEL 1
REMARK minimizedAffinity 3.97977233
REMARK minimizedRMSD -1
REMARK  1 active torsions:
REMARK  status: ('A' for Active; 'I' for Inactive)
REMARK    1  A    between atoms: N_2  and  C1_3 
ROOT
ATOM      1  C1  UNL d   1      -2.707   0.043   0.176  0.00  0.00     0.143 A 
ATOM      2  C2  UNL d   1      -2.269  -0.924   1.087  0.00  0.00    -0.057 A 
ATOM      3  C3  UNL d   1      -1.054  -0.782   1.768  0.00  0.00     0.033 A 
ATOM      4  C4  UNL d   1      -0.239   0.320   1.528  0.00  0.00    -0.042 A 
ATOM      5  C5  UNL d   1      -0.643   1.281   0.608  0.00  0.00     0.033 A 
ATOM      6  C6  UNL d   1      -1.861   1.137  -0.064  0.00  0.00    -0.057 A 
ENDROOT
BRANCH   1   7
ATOM      7  N   UNL d   1      -3.857  -0.089  -0.606  0.00  0.00    -0.732 N 
ATOM      8  C   UNL d   1      -4.182  -1.353  -1.232  0.00  0.00     0.284 C 
ATOM      9  H3  UNL d   1      -4.658   0.393  -0.204  0.00  0.00     0.395 HD
ENDBRANCH   1   7
TORSDOF 1
ENDMDL
