MODEL 1
REMARK minimizedAffinity -2.83441377
REMARK minimizedRMSD -1
REMARK  1 active torsions:
REMARK  status: ('A' for Active; 'I' for Inactive)
REMARK    1  A    between atoms: N_2  and  C1_3 
ROOT
ATOM      1  C1  UNL d   1      -0.852   1.917   2.148  0.00  0.00     0.143 A 
ATOM      2  C2  UNL d   1      -0.004   1.375   3.119  0.00  0.00    -0.057 A 
ATOM      3  C3  UNL d   1       1.231   0.814   2.773  0.00  0.00     0.033 A 
ATOM      4  C4  UNL d   1       1.628   0.758   1.441  0.00  0.00    -0.042 A 
ATOM      5  C5  UNL d   1       0.790   1.268   0.456  0.00  0.00     0.033 A 
ATOM      6  C6  UNL d   1      -0.439   1.834   0.809  0.00  0.00    -0.057 A 
ENDROOT
BRANCH   1   7
ATOM      7  N   UNL d   1      -2.135   2.400   2.418  0.00  0.00    -0.732 N 
ATOM      8  C   UNL d   1      -2.997   1.718   3.359  0.00  0.00     0.284 C 
ATOM      9  H3  UNL d   1      -2.160   3.415   2.491  0.00  0.00     0.395 HD
ENDBRANCH   1   7
TORSDOF 1
ENDMDL
