MODEL 1
REMARK minimizedAffinity -4.67423773
REMARK minimizedRMSD -1
REMARK  1 active torsions:
REMARK  status: ('A' for Active; 'I' for Inactive)
REMARK    1  A    between atoms: N_2  and  C1_3 
ROOT
ATOM      1  C1  UNL d   1      -2.068   1.553   2.660  0.00  0.00     0.143 A 
ATOM      2  C2  UNL d   1      -1.069   2.332   2.066  0.00  0.00    -0.057 A 
ATOM      3  C3  UNL d   1      -0.131   1.768   1.193  0.00  0.00     0.033 A 
ATOM      4  C4  UNL d   1      -0.157   0.404   0.922  0.00  0.00    -0.042 A 
ATOM      5  C5  UNL d   1      -1.124  -0.394   1.521  0.00  0.00     0.033 A 
ATOM      6  C6  UNL d   1      -2.063   0.176   2.386  0.00  0.00    -0.057 A 
ENDROOT
BRANCH   1   7
ATOM      7  N   UNL d   1      -2.968   2.037   3.612  0.00  0.00    -0.732 N 
ATOM      8  C   UNL d   1      -4.328   1.542   3.659  0.00  0.00     0.284 C 
ATOM      9  H3  UNL d   1      -2.539   2.159   4.526  0.00  0.00     0.395 HD
ENDBRANCH   1   7
TORSDOF 1
ENDMDL
