MODEL 1
REMARK minimizedAffinity -1.00475013
REMARK minimizedRMSD -1
REMARK  1 active torsions:
REMARK  status: ('A' for Active; 'I' for Inactive)
REMARK    1  A    between atoms: N_2  and  C1_3 
ROOT
ATOM      1  C1  UNL d   1      -1.472   1.541   2.214  0.00  0.00     0.143 A 
ATOM      2  C2  UNL d   1      -0.303   1.885   1.526  0.00  0.00    -0.057 A 
ATOM      3  C3  UNL d   1       0.440   0.924   0.830  0.00  0.00     0.033 A 
ATOM      4  C4  UNL d   1       0.041  -0.409   0.835  0.00  0.00    -0.042 A 
ATOM      5  C5  UNL d   1      -1.103  -0.778   1.533  0.00  0.00     0.033 A 
ATOM      6  C6  UNL d   1      -1.845   0.188   2.220  0.00  0.00    -0.057 A 
ENDROOT
BRANCH   1   7
ATOM      7  N   UNL d   1      -2.199   2.434   3.005  0.00  0.00    -0.732 N 
ATOM      8  C   UNL d   1      -3.405   2.005   3.681  0.00  0.00     0.284 C 
ATOM      9  H3  UNL d   1      -1.599   3.034   3.566  0.00  0.00     0.395 HD
ENDBRANCH   1   7
TORSDOF 1
ENDMDL
