MODEL 1
REMARK minimizedAffinity -1.1899004
REMARK minimizedRMSD -1
REMARK  1 active torsions:
REMARK  status: ('A' for Active; 'I' for Inactive)
REMARK    1  A    between atoms: N_2  and  C1_3 
ROOT
ATOM      1  C1  UNL d   1       0.499   0.899   1.208  0.00  0.00     0.143 A 
ATOM      2  C2  UNL d   1      -0.195  -0.314   1.260  0.00  0.00    -0.057 A 
ATOM      3  C3  UNL d   1      -1.382  -0.441   1.991  0.00  0.00     0.033 A 
ATOM      4  C4  UNL d   1      -1.883   0.640   2.709  0.00  0.00    -0.042 A 
ATOM      5  C5  UNL d   1      -1.196   1.849   2.693  0.00  0.00     0.033 A 
ATOM      6  C6  UNL d   1      -0.014   1.971   1.956  0.00  0.00    -0.057 A 
ENDROOT
BRANCH   1   7
ATOM      7  N   UNL d   1       1.736   1.062   0.580  0.00  0.00    -0.732 N 
ATOM      8  C   UNL d   1       2.839   0.175   0.883  0.00  0.00     0.284 C 
ATOM      9  H3  UNL d   1       1.644   1.287  -0.408  0.00  0.00     0.395 HD
ENDBRANCH   1   7
TORSDOF 1
ENDMDL
