MODEL 1
REMARK minimizedAffinity 0.182561234
REMARK minimizedRMSD -1
REMARK  1 active torsions:
REMARK  status: ('A' for Active; 'I' for Inactive)
REMARK    1  A    between atoms: N_2  and  C1_3 
ROOT
ATOM      1  C1  UNL d   1      -1.507   1.439   2.249  0.00  0.00     0.143 A 
ATOM      2  C2  UNL d   1      -1.829   0.078   2.301  0.00  0.00    -0.057 A 
ATOM      3  C3  UNL d   1      -0.983  -0.890   1.747  0.00  0.00     0.033 A 
ATOM      4  C4  UNL d   1       0.190  -0.510   1.103  0.00  0.00    -0.042 A 
ATOM      5  C5  UNL d   1       0.518   0.838   1.017  0.00  0.00     0.033 A 
ATOM      6  C6  UNL d   1      -0.328   1.800   1.579  0.00  0.00    -0.057 A 
ENDROOT
BRANCH   1   7
ATOM      7  N   UNL d   1      -2.354   2.456   2.695  0.00  0.00    -0.732 N 
ATOM      8  C   UNL d   1      -3.468   2.158   3.569  0.00  0.00     0.284 C 
ATOM      9  H3  UNL d   1      -1.848   3.303   2.942  0.00  0.00     0.395 HD
ENDBRANCH   1   7
TORSDOF 1
ENDMDL
