MODEL 1
REMARK minimizedAffinity -1.5919503
REMARK minimizedRMSD -1
REMARK  1 active torsions:
REMARK  status: ('A' for Active; 'I' for Inactive)
REMARK    1  A    between atoms: N_2  and  C1_3 
ROOT
ATOM      1  C1  UNL d   1       1.821   0.252   0.334  0.00  0.00     0.143 A 
ATOM      2  C2  UNL d   1       1.147   1.454   0.093  0.00  0.00    -0.057 A 
ATOM      3  C3  UNL d   1      -0.037   1.770   0.769  0.00  0.00     0.033 A 
ATOM      4  C4  UNL d   1      -0.585   0.874   1.681  0.00  0.00    -0.042 A 
ATOM      5  C5  UNL d   1       0.055  -0.337   1.918  0.00  0.00     0.033 A 
ATOM      6  C6  UNL d   1       1.241  -0.644   1.245  0.00  0.00    -0.057 A 
ENDROOT
BRANCH   1   7
ATOM      7  N   UNL d   1       2.949  -0.163  -0.378  0.00  0.00    -0.732 N 
ATOM      8  C   UNL d   1       3.146   0.247  -1.752  0.00  0.00     0.284 C 
ATOM      9  H3  UNL d   1       3.795  -0.143   0.187  0.00  0.00     0.395 HD
ENDBRANCH   1   7
TORSDOF 1
ENDMDL
