MODEL 1
REMARK minimizedAffinity -4.0230546
REMARK minimizedRMSD -1
REMARK  1 active torsions:
REMARK  status: ('A' for Active; 'I' for Inactive)
REMARK    1  A    between atoms: N_2  and  C1_3 
ROOT
ATOM      1  C1  UNL d   1       0.503   0.820   1.309  0.00  0.00     0.143 A 
ATOM      2  C2  UNL d   1      -0.059   1.918   1.968  0.00  0.00    -0.057 A 
ATOM      3  C3  UNL d   1      -1.378   1.886   2.438  0.00  0.00     0.033 A 
ATOM      4  C4  UNL d   1      -2.170   0.761   2.230  0.00  0.00    -0.042 A 
ATOM      5  C5  UNL d   1      -1.640  -0.333   1.555  0.00  0.00     0.033 A 
ATOM      6  C6  UNL d   1      -0.320  -0.297   1.094  0.00  0.00    -0.057 A 
ENDROOT
BRANCH   1   7
ATOM      7  N   UNL d   1       1.775   0.827   0.732  0.00  0.00    -0.732 N 
ATOM      8  C   UNL d   1       2.020   0.145  -0.521  0.00  0.00     0.284 C 
ATOM      9  H3  UNL d   1       2.231   1.733   0.808  0.00  0.00     0.395 HD
ENDBRANCH   1   7
TORSDOF 1
ENDMDL
