MODEL 1
REMARK minimizedAffinity 0.141777217
REMARK minimizedRMSD -1
REMARK  1 active torsions:
REMARK  status: ('A' for Active; 'I' for Inactive)
REMARK    1  A    between atoms: N_2  and  C1_3 
ROOT
ATOM      1  C1  UNL d   1      -1.011   0.993   2.280  0.00  0.00     0.143 A 
ATOM      2  C2  UNL d   1      -1.504  -0.287   2.006  0.00  0.00    -0.057 A 
ATOM      3  C3  UNL d   1      -2.774  -0.685   2.442  0.00  0.00     0.033 A 
ATOM      4  C4  UNL d   1      -3.563   0.184   3.188  0.00  0.00    -0.042 A 
ATOM      5  C5  UNL d   1      -3.083   1.452   3.494  0.00  0.00     0.033 A 
ATOM      6  C6  UNL d   1      -1.817   1.846   3.049  0.00  0.00    -0.057 A 
ENDROOT
BRANCH   1   7
ATOM      7  N   UNL d   1       0.282   1.413   1.959  0.00  0.00    -0.732 N 
ATOM      8  C   UNL d   1       0.493   2.550   1.088  0.00  0.00     0.284 C 
ATOM      9  H3  UNL d   1       0.911   1.379   2.758  0.00  0.00     0.395 HD
ENDBRANCH   1   7
TORSDOF 1
ENDMDL
