MODEL 1
REMARK minimizedAffinity 2.81069851
REMARK minimizedRMSD -1
REMARK  1 active torsions:
REMARK  status: ('A' for Active; 'I' for Inactive)
REMARK    1  A    between atoms: C1_2  and  C2_3 
ROOT
ATOM      1  C2  UNL d   1       1.475  -0.515   2.327  0.00  0.00    -0.081 A 
ATOM      2  C3  UNL d   1       1.856  -0.834   1.018  0.00  0.00     0.006 A 
ATOM      3  C4  UNL d   1       1.261  -0.191  -0.069  0.00  0.00     0.002 A 
ATOM      4  C5  UNL d   1       0.281   0.787   0.134  0.00  0.00    -0.080 A 
ATOM      5  C6  UNL d   1      -0.344   1.507  -1.024  0.00  0.00     0.076 C 
ATOM      6  C7  UNL d   1      -0.112   1.093   1.441  0.00  0.00     0.002 A 
ATOM      7  C8  UNL d   1       0.482   0.450   2.529  0.00  0.00     0.006 A 
ENDROOT
BRANCH   1   8
ATOM      8  C1  UNL d   1       2.161  -1.161   3.504  0.00  0.00     0.054 C 
ATOM      9  C   UNL d   1       3.666  -1.243   3.291  0.00  0.00     0.018 C 
ENDBRANCH   1   8
TORSDOF 1
ENDMDL
