MODEL 1
REMARK minimizedAffinity -5.64205122
REMARK minimizedRMSD -1
REMARK  0 active torsions:
REMARK  status: ('A' for Active; 'I' for Inactive)
ROOT
ATOM      1  C   UNL d   1      -0.747   5.715   1.942  0.00  0.00     0.078 C 
ATOM      2  C1  UNL d   1      -1.445   5.146   0.742  0.00  0.00    -0.077 A 
ATOM      3  C2  UNL d   1      -2.360   5.912   0.010  0.00  0.00    -0.001 A 
ATOM      4  C3  UNL d   1      -3.009   5.366  -1.099  0.00  0.00     0.003 A 
ATOM      5  C4  UNL d   1      -2.751   4.052  -1.484  0.00  0.00    -0.005 A 
ATOM      6  C5  UNL d   1      -1.843   3.282  -0.760  0.00  0.00     0.003 A 
ATOM      7  C6  UNL d   1      -1.193   3.826   0.349  0.00  0.00    -0.001 A 
ENDROOT
TORSDOF 0
ENDMDL
