MODEL 1
REMARK minimizedAffinity -4.9636898
REMARK minimizedRMSD -1
REMARK  0 active torsions:
REMARK  status: ('A' for Active; 'I' for Inactive)
ROOT
ATOM      1  C   UNL d   1      -1.198   4.891   2.289  0.00  0.00     0.078 C 
ATOM      2  C1  UNL d   1       0.092   4.846   1.525  0.00  0.00    -0.077 A 
ATOM      3  C2  UNL d   1       1.247   5.460   2.025  0.00  0.00    -0.001 A 
ATOM      4  C3  UNL d   1       2.439   5.419   1.298  0.00  0.00     0.003 A 
ATOM      5  C4  UNL d   1       2.486   4.766   0.068  0.00  0.00    -0.005 A 
ATOM      6  C5  UNL d   1       1.341   4.155  -0.438  0.00  0.00     0.003 A 
ATOM      7  C6  UNL d   1       0.148   4.195   0.287  0.00  0.00    -0.001 A 
ENDROOT
TORSDOF 0
ENDMDL
