MODEL 1
REMARK minimizedAffinity -5.0907011
REMARK minimizedRMSD -1
REMARK  0 active torsions:
REMARK  status: ('A' for Active; 'I' for Inactive)
ROOT
ATOM      1  C   UNL d   1      -1.817   3.695   0.443  0.00  0.00     0.078 C 
ATOM      2  C1  UNL d   1      -1.240   2.487  -0.231  0.00  0.00    -0.077 A 
ATOM      3  C2  UNL d   1      -1.502   1.198   0.250  0.00  0.00    -0.001 A 
ATOM      4  C3  UNL d   1      -0.950   0.083  -0.382  0.00  0.00     0.003 A 
ATOM      5  C4  UNL d   1      -0.133   0.245  -1.499  0.00  0.00    -0.005 A 
ATOM      6  C5  UNL d   1       0.135   1.523  -1.984  0.00  0.00     0.003 A 
ATOM      7  C6  UNL d   1      -0.415   2.640  -1.353  0.00  0.00    -0.001 A 
ENDROOT
TORSDOF 0
ENDMDL
