MODEL 1
REMARK minimizedAffinity -4.04741049
REMARK minimizedRMSD -1
REMARK  0 active torsions:
REMARK  status: ('A' for Active; 'I' for Inactive)
ROOT
ATOM      1  C   UNL d   1       3.862   3.342   1.498  0.00  0.00     0.078 C 
ATOM      2  C1  UNL d   1       3.096   3.492   0.217  0.00  0.00    -0.077 A 
ATOM      3  C2  UNL d   1       1.775   3.042   0.110  0.00  0.00    -0.001 A 
ATOM      4  C3  UNL d   1       1.077   3.180  -1.091  0.00  0.00     0.003 A 
ATOM      5  C4  UNL d   1       1.694   3.765  -2.195  0.00  0.00    -0.005 A 
ATOM      6  C5  UNL d   1       3.010   4.214  -2.099  0.00  0.00     0.003 A 
ATOM      7  C6  UNL d   1       3.708   4.077  -0.898  0.00  0.00    -0.001 A 
ENDROOT
TORSDOF 0
ENDMDL
