MODEL 1
REMARK minimizedAffinity -1.8209548
REMARK minimizedRMSD -1
REMARK  0 active torsions:
REMARK  status: ('A' for Active; 'I' for Inactive)
ROOT
ATOM      1  C   UNL d   1      -1.437   4.530   2.223  0.00  0.00     0.078 C 
ATOM      2  C1  UNL d   1      -0.055   4.258   1.711  0.00  0.00    -0.077 A 
ATOM      3  C2  UNL d   1       1.050   4.961   2.207  0.00  0.00    -0.001 A 
ATOM      4  C3  UNL d   1       2.330   4.705   1.714  0.00  0.00     0.003 A 
ATOM      5  C4  UNL d   1       2.518   3.745   0.720  0.00  0.00    -0.005 A 
ATOM      6  C5  UNL d   1       1.424   3.042   0.219  0.00  0.00     0.003 A 
ATOM      7  C6  UNL d   1       0.144   3.298   0.711  0.00  0.00    -0.001 A 
ENDROOT
TORSDOF 0
ENDMDL
