MODEL 1
REMARK minimizedAffinity -2.96098614
REMARK minimizedRMSD -1
REMARK  0 active torsions:
REMARK  status: ('A' for Active; 'I' for Inactive)
ROOT
ATOM      1  C   UNL d   1      -1.431   2.695   0.072  0.00  0.00     0.078 C 
ATOM      2  C1  UNL d   1      -0.876   1.339  -0.247  0.00  0.00    -0.077 A 
ATOM      3  C2  UNL d   1      -0.987   0.282   0.665  0.00  0.00    -0.001 A 
ATOM      4  C3  UNL d   1      -0.457  -0.972   0.359  0.00  0.00     0.003 A 
ATOM      5  C4  UNL d   1       0.189  -1.181  -0.858  0.00  0.00    -0.005 A 
ATOM      6  C5  UNL d   1       0.306  -0.135  -1.770  0.00  0.00     0.003 A 
ATOM      7  C6  UNL d   1      -0.223   1.120  -1.466  0.00  0.00    -0.001 A 
ENDROOT
TORSDOF 0
ENDMDL
