MODEL 1
REMARK minimizedAffinity -4.85358763
REMARK minimizedRMSD -1
REMARK  0 active torsions:
REMARK  status: ('A' for Active; 'I' for Inactive)
ROOT
ATOM      1  C   UNL d   1       3.038   3.877   1.082  0.00  0.00     0.078 C 
ATOM      2  C1  UNL d   1       1.549   4.046   1.055  0.00  0.00    -0.077 A 
ATOM      3  C2  UNL d   1       0.913   4.971   1.893  0.00  0.00    -0.001 A 
ATOM      4  C3  UNL d   1      -0.475   5.111   1.865  0.00  0.00     0.003 A 
ATOM      5  C4  UNL d   1      -1.240   4.328   1.002  0.00  0.00    -0.005 A 
ATOM      6  C5  UNL d   1      -0.617   3.404   0.166  0.00  0.00     0.003 A 
ATOM      7  C6  UNL d   1       0.772   3.262   0.193  0.00  0.00    -0.001 A 
ENDROOT
TORSDOF 0
ENDMDL
