MODEL 1
REMARK minimizedAffinity -3.15267611
REMARK minimizedRMSD -1
REMARK  0 active torsions:
REMARK  status: ('A' for Active; 'I' for Inactive)
ROOT
ATOM      1  C   UNL d   1      -0.976  -3.081   0.956  0.00  0.00     0.078 C 
ATOM      2  C1  UNL d   1      -0.920  -1.683   0.417  0.00  0.00    -0.077 A 
ATOM      3  C2  UNL d   1      -0.174  -1.381  -0.728  0.00  0.00    -0.001 A 
ATOM      4  C3  UNL d   1      -0.122  -0.073  -1.213  0.00  0.00     0.003 A 
ATOM      5  C4  UNL d   1      -0.814   0.944  -0.558  0.00  0.00    -0.005 A 
ATOM      6  C5  UNL d   1      -1.558   0.653   0.585  0.00  0.00     0.003 A 
ATOM      7  C6  UNL d   1      -1.610  -0.654   1.071  0.00  0.00    -0.001 A 
ENDROOT
TORSDOF 0
ENDMDL
