MODEL 1
REMARK minimizedAffinity -2.32672548
REMARK minimizedRMSD -1
REMARK  0 active torsions:
REMARK  status: ('A' for Active; 'I' for Inactive)
ROOT
ATOM      1  C   UNL d   1      -1.078   2.758   0.399  0.00  0.00     0.078 C 
ATOM      2  C1  UNL d   1      -0.739   1.379  -0.084  0.00  0.00    -0.077 A 
ATOM      3  C2  UNL d   1      -0.853   0.270   0.763  0.00  0.00    -0.001 A 
ATOM      4  C3  UNL d   1      -0.525  -1.006   0.303  0.00  0.00     0.003 A 
ATOM      5  C4  UNL d   1      -0.079  -1.185  -1.005  0.00  0.00    -0.005 A 
ATOM      6  C5  UNL d   1       0.039  -0.087  -1.854  0.00  0.00     0.003 A 
ATOM      7  C6  UNL d   1      -0.289   1.190  -1.396  0.00  0.00    -0.001 A 
ENDROOT
TORSDOF 0
ENDMDL
