MODEL 1
REMARK minimizedAffinity -4.47454214
REMARK minimizedRMSD -1
REMARK  0 active torsions:
REMARK  status: ('A' for Active; 'I' for Inactive)
ROOT
ATOM      1  C   UNL d   1      -0.363  -2.677   0.406  0.00  0.00     0.078 C 
ATOM      2  C1  UNL d   1      -0.442  -1.266  -0.094  0.00  0.00    -0.077 A 
ATOM      3  C2  UNL d   1      -1.089  -0.272   0.651  0.00  0.00    -0.001 A 
ATOM      4  C3  UNL d   1      -1.164   1.035   0.169  0.00  0.00     0.003 A 
ATOM      5  C4  UNL d   1      -0.594   1.362  -1.060  0.00  0.00    -0.005 A 
ATOM      6  C5  UNL d   1       0.050   0.379  -1.809  0.00  0.00     0.003 A 
ATOM      7  C6  UNL d   1       0.125  -0.929  -1.329  0.00  0.00    -0.001 A 
ENDROOT
TORSDOF 0
ENDMDL
