MODEL 1
REMARK minimizedAffinity -4.96734619
REMARK minimizedRMSD -1
REMARK  0 active torsions:
REMARK  status: ('A' for Active; 'I' for Inactive)
ROOT
ATOM      1  C   UNL d   1      -0.306  -2.797   0.697  0.00  0.00     0.078 C 
ATOM      2  C1  UNL d   1      -0.493  -1.428   0.114  0.00  0.00    -0.077 A 
ATOM      3  C2  UNL d   1      -1.082  -0.400   0.861  0.00  0.00    -0.001 A 
ATOM      4  C3  UNL d   1      -1.259   0.867   0.302  0.00  0.00     0.003 A 
ATOM      5  C4  UNL d   1      -0.850   1.118  -1.006  0.00  0.00    -0.005 A 
ATOM      6  C5  UNL d   1      -0.265   0.101  -1.758  0.00  0.00     0.003 A 
ATOM      7  C6  UNL d   1      -0.087  -1.167  -1.201  0.00  0.00    -0.001 A 
ENDROOT
TORSDOF 0
ENDMDL
