MODEL 1
REMARK minimizedAffinity -4.39655113
REMARK minimizedRMSD -1
REMARK  0 active torsions:
REMARK  status: ('A' for Active; 'I' for Inactive)
ROOT
ATOM      1  C   UNL d   1      -0.661  -2.500   0.633  0.00  0.00     0.078 C 
ATOM      2  C1  UNL d   1      -0.621  -1.099   0.100  0.00  0.00    -0.077 A 
ATOM      3  C2  UNL d   1      -0.034  -0.815  -1.139  0.00  0.00    -0.001 A 
ATOM      4  C3  UNL d   1       0.005   0.496  -1.618  0.00  0.00     0.003 A 
ATOM      5  C4  UNL d   1      -0.540   1.533  -0.864  0.00  0.00    -0.005 A 
ATOM      6  C5  UNL d   1      -1.125   1.260   0.371  0.00  0.00     0.003 A 
ATOM      7  C6  UNL d   1      -1.165  -0.049   0.852  0.00  0.00    -0.001 A 
ENDROOT
TORSDOF 0
ENDMDL
