MODEL 1
REMARK minimizedAffinity -3.81404638
REMARK minimizedRMSD -1
REMARK  0 active torsions:
REMARK  status: ('A' for Active; 'I' for Inactive)
ROOT
ATOM      1  C   UNL d   1       0.859   0.833  -1.175  0.00  0.00     0.078 C 
ATOM      2  C1  UNL d   1       1.867   1.859  -0.750  0.00  0.00    -0.077 A 
ATOM      3  C2  UNL d   1       2.859   1.549   0.189  0.00  0.00    -0.001 A 
ATOM      4  C3  UNL d   1       3.785   2.516   0.583  0.00  0.00     0.003 A 
ATOM      5  C4  UNL d   1       3.727   3.800   0.045  0.00  0.00    -0.005 A 
ATOM      6  C5  UNL d   1       2.742   4.119  -0.887  0.00  0.00     0.003 A 
ATOM      7  C6  UNL d   1       1.815   3.153  -1.283  0.00  0.00    -0.001 A 
ENDROOT
TORSDOF 0
ENDMDL
