MODEL 1
REMARK minimizedAffinity -5.34453154
REMARK minimizedRMSD -1
REMARK  0 active torsions:
REMARK  status: ('A' for Active; 'I' for Inactive)
ROOT
ATOM      1  C   UNL d   1      -0.983  -2.777   0.292  0.00  0.00     0.078 C 
ATOM      2  C1  UNL d   1      -0.828  -1.346  -0.126  0.00  0.00    -0.077 A 
ATOM      3  C2  UNL d   1      -1.324  -0.305   0.669  0.00  0.00    -0.001 A 
ATOM      4  C3  UNL d   1      -1.181   1.023   0.262  0.00  0.00     0.003 A 
ATOM      5  C4  UNL d   1      -0.544   1.322  -0.940  0.00  0.00    -0.005 A 
ATOM      6  C5  UNL d   1      -0.049   0.293  -1.739  0.00  0.00     0.003 A 
ATOM      7  C6  UNL d   1      -0.191  -1.035  -1.334  0.00  0.00    -0.001 A 
ENDROOT
TORSDOF 0
ENDMDL
