MODEL 1
REMARK minimizedAffinity -4.62889385
REMARK minimizedRMSD -1
REMARK  0 active torsions:
REMARK  status: ('A' for Active; 'I' for Inactive)
ROOT
ATOM      1  C   UNL d   1      -0.943   3.392   0.727  0.00  0.00     0.078 C 
ATOM      2  C1  UNL d   1      -0.693   2.053   0.100  0.00  0.00    -0.077 A 
ATOM      3  C2  UNL d   1      -1.416   0.923   0.500  0.00  0.00    -0.001 A 
ATOM      4  C3  UNL d   1      -1.166  -0.319  -0.085  0.00  0.00     0.003 A 
ATOM      5  C4  UNL d   1      -0.191  -0.443  -1.073  0.00  0.00    -0.005 A 
ATOM      6  C5  UNL d   1       0.535   0.675  -1.476  0.00  0.00     0.003 A 
ATOM      7  C6  UNL d   1       0.287   1.918  -0.892  0.00  0.00    -0.001 A 
ENDROOT
TORSDOF 0
ENDMDL
