MODEL 1
REMARK minimizedAffinity -3.81813073
REMARK minimizedRMSD -1
REMARK  0 active torsions:
REMARK  status: ('A' for Active; 'I' for Inactive)
ROOT
ATOM      1  C   UNL d   1      -0.772  -2.688   0.280  0.00  0.00     0.078 C 
ATOM      2  C1  UNL d   1      -0.841  -1.195   0.406  0.00  0.00    -0.077 A 
ATOM      3  C2  UNL d   1       0.124  -0.376  -0.194  0.00  0.00    -0.001 A 
ATOM      4  C3  UNL d   1       0.053   1.012  -0.061  0.00  0.00     0.003 A 
ATOM      5  C4  UNL d   1      -0.980   1.593   0.672  0.00  0.00    -0.005 A 
ATOM      6  C5  UNL d   1      -1.943   0.786   1.275  0.00  0.00     0.003 A 
ATOM      7  C6  UNL d   1      -1.874  -0.602   1.143  0.00  0.00    -0.001 A 
ENDROOT
TORSDOF 0
ENDMDL
