MODEL 1
REMARK minimizedAffinity -3.44069862
REMARK minimizedRMSD -1
REMARK  0 active torsions:
REMARK  status: ('A' for Active; 'I' for Inactive)
ROOT
ATOM      1  C   UNL d   1      -2.032   2.164   0.296  0.00  0.00     0.078 C 
ATOM      2  C1  UNL d   1      -1.124   1.170  -0.364  0.00  0.00    -0.077 A 
ATOM      3  C2  UNL d   1      -0.558   1.431  -1.618  0.00  0.00    -0.001 A 
ATOM      4  C3  UNL d   1       0.278   0.492  -2.224  0.00  0.00     0.003 A 
ATOM      5  C4  UNL d   1       0.555  -0.715  -1.585  0.00  0.00    -0.005 A 
ATOM      6  C5  UNL d   1      -0.005  -0.984  -0.338  0.00  0.00     0.003 A 
ATOM      7  C6  UNL d   1      -0.842  -0.047   0.270  0.00  0.00    -0.001 A 
ENDROOT
TORSDOF 0
ENDMDL
