MODEL 1
REMARK minimizedAffinity -3.14609766
REMARK minimizedRMSD -1
REMARK  0 active torsions:
REMARK  status: ('A' for Active; 'I' for Inactive)
ROOT
ATOM      1  C   UNL d   1      -0.020  -0.749   1.667  0.00  0.00     0.078 C 
ATOM      2  C1  UNL d   1      -0.052  -0.007   0.365  0.00  0.00    -0.077 A 
ATOM      3  C2  UNL d   1      -0.120   1.391   0.333  0.00  0.00    -0.001 A 
ATOM      4  C3  UNL d   1      -0.159   2.069  -0.887  0.00  0.00     0.003 A 
ATOM      5  C4  UNL d   1      -0.132   1.356  -2.084  0.00  0.00    -0.005 A 
ATOM      6  C5  UNL d   1      -0.068  -0.036  -2.062  0.00  0.00     0.003 A 
ATOM      7  C6  UNL d   1      -0.028  -0.715  -0.844  0.00  0.00    -0.001 A 
ENDROOT
TORSDOF 0
ENDMDL
