MODEL 1
REMARK minimizedAffinity 5.99048948
REMARK minimizedRMSD -1
REMARK  1 active torsions:
REMARK  status: ('A' for Active; 'I' for Inactive)
REMARK    1  A    between atoms: N_2  and  C1_3 
ROOT
ATOM      1  C1  UNL d   1       3.095  -4.507  -1.929  0.00  0.00     0.143 A 
ATOM      2  C2  UNL d   1       1.916  -5.254  -1.826  0.00  0.00    -0.057 A 
ATOM      3  C3  UNL d   1       1.183  -5.293  -0.634  0.00  0.00     0.033 A 
ATOM      4  C4  UNL d   1       1.633  -4.607   0.490  0.00  0.00    -0.042 A 
ATOM      5  C5  UNL d   1       2.815  -3.879   0.418  0.00  0.00     0.033 A 
ATOM      6  C6  UNL d   1       3.539  -3.838  -0.778  0.00  0.00    -0.057 A 
ENDROOT
BRANCH   1   7
ATOM      7  N   UNL d   1       3.920  -4.507  -3.056  0.00  0.00    -0.732 N 
ATOM      8  C   UNL d   1       5.190  -5.201  -3.040  0.00  0.00     0.284 C 
ATOM      9  H3  UNL d   1       3.396  -4.620  -3.921  0.00  0.00     0.395 HD
ENDBRANCH   1   7
TORSDOF 1
ENDMDL
