MODEL 1
REMARK minimizedAffinity 7.96981144
REMARK minimizedRMSD -1
REMARK  1 active torsions:
REMARK  status: ('A' for Active; 'I' for Inactive)
REMARK    1  A    between atoms: N_2  and  C1_3 
ROOT
ATOM      1  C1  UNL d   1       1.345  -1.771   3.889  0.00  0.00     0.143 A 
ATOM      2  C2  UNL d   1       1.242  -0.527   3.259  0.00  0.00    -0.057 A 
ATOM      3  C3  UNL d   1       1.610  -0.359   1.918  0.00  0.00     0.033 A 
ATOM      4  C4  UNL d   1       2.117  -1.431   1.191  0.00  0.00    -0.042 A 
ATOM      5  C5  UNL d   1       2.251  -2.672   1.805  0.00  0.00     0.033 A 
ATOM      6  C6  UNL d   1       1.875  -2.834   3.142  0.00  0.00    -0.057 A 
ENDROOT
BRANCH   1   7
ATOM      7  N   UNL d   1       1.088  -1.979   5.247  0.00  0.00    -0.732 N 
ATOM      8  C   UNL d   1       1.842  -2.959   5.999  0.00  0.00     0.284 C 
ATOM      9  H3  UNL d   1       0.920  -1.109   5.748  0.00  0.00     0.395 HD
ENDBRANCH   1   7
TORSDOF 1
ENDMDL
