MODEL 1
REMARK minimizedAffinity 5.52104425
REMARK minimizedRMSD -1
REMARK  1 active torsions:
REMARK  status: ('A' for Active; 'I' for Inactive)
REMARK    1  A    between atoms: N_2  and  C1_3 
ROOT
ATOM      1  C1  UNL d   1      -3.686   2.530  -3.500  0.00  0.00     0.143 A 
ATOM      2  C2  UNL d   1      -4.383   3.416  -2.670  0.00  0.00    -0.057 A 
ATOM      3  C3  UNL d   1      -4.666   4.724  -3.081  0.00  0.00     0.033 A 
ATOM      4  C4  UNL d   1      -4.231   5.180  -4.320  0.00  0.00    -0.042 A 
ATOM      5  C5  UNL d   1      -3.515   4.325  -5.151  0.00  0.00     0.033 A 
ATOM      6  C6  UNL d   1      -3.241   3.018  -4.738  0.00  0.00    -0.057 A 
ENDROOT
BRANCH   1   7
ATOM      7  N   UNL d   1      -3.288   1.249  -3.110  0.00  0.00    -0.732 N 
ATOM      8  C   UNL d   1      -2.390   1.065  -1.990  0.00  0.00     0.284 C 
ATOM      9  H3  UNL d   1      -4.052   0.578  -3.145  0.00  0.00     0.395 HD
ENDBRANCH   1   7
TORSDOF 1
ENDMDL
