MODEL 1
REMARK minimizedAffinity 13.6261635
REMARK minimizedRMSD -1
REMARK  1 active torsions:
REMARK  status: ('A' for Active; 'I' for Inactive)
REMARK    1  A    between atoms: N_2  and  C1_3 
ROOT
ATOM      1  C1  UNL d   1       1.465  -2.046   3.621  0.00  0.00     0.143 A 
ATOM      2  C2  UNL d   1       2.293  -3.148   3.384  0.00  0.00    -0.057 A 
ATOM      3  C3  UNL d   1       2.708  -3.983   4.428  0.00  0.00     0.033 A 
ATOM      4  C4  UNL d   1       2.322  -3.713   5.737  0.00  0.00    -0.042 A 
ATOM      5  C5  UNL d   1       1.519  -2.609   6.000  0.00  0.00     0.033 A 
ATOM      6  C6  UNL d   1       1.104  -1.782   4.952  0.00  0.00    -0.057 A 
ENDROOT
BRANCH   1   7
ATOM      7  N   UNL d   1       1.100  -1.121   2.639  0.00  0.00    -0.732 N 
ATOM      8  C   UNL d   1       1.977  -0.848   1.521  0.00  0.00     0.284 C 
ATOM      9  H3  UNL d   1       0.116  -1.188   2.389  0.00  0.00     0.395 HD
ENDBRANCH   1   7
TORSDOF 1
ENDMDL
