MODEL 1
REMARK minimizedAffinity 10.0482798
REMARK minimizedRMSD -1
REMARK  1 active torsions:
REMARK  status: ('A' for Active; 'I' for Inactive)
REMARK    1  A    between atoms: N_2  and  C1_3 
ROOT
ATOM      1  C1  UNL d   1      -4.489   3.518  -1.742  0.00  0.00     0.143 A 
ATOM      2  C2  UNL d   1      -3.846   2.291  -1.937  0.00  0.00    -0.057 A 
ATOM      3  C3  UNL d   1      -3.164   2.010  -3.128  0.00  0.00     0.033 A 
ATOM      4  C4  UNL d   1      -3.139   2.943  -4.159  0.00  0.00    -0.042 A 
ATOM      5  C5  UNL d   1      -3.793   4.160  -3.997  0.00  0.00     0.033 A 
ATOM      6  C6  UNL d   1      -4.466   4.437  -2.803  0.00  0.00    -0.057 A 
ENDROOT
BRANCH   1   7
ATOM      7  N   UNL d   1      -5.267   3.819  -0.621  0.00  0.00    -0.732 N 
ATOM      8  C   UNL d   1      -5.999   2.779   0.069  0.00  0.00     0.284 C 
ATOM      9  H3  UNL d   1      -4.814   4.489  -0.003  0.00  0.00     0.395 HD
ENDBRANCH   1   7
TORSDOF 1
ENDMDL
