MODEL 1
REMARK minimizedAffinity 5.93701696
REMARK minimizedRMSD -1
REMARK  1 active torsions:
REMARK  status: ('A' for Active; 'I' for Inactive)
REMARK    1  A    between atoms: N_2  and  C1_3 
ROOT
ATOM      1  C1  UNL d   1       1.694  -2.313   3.200  0.00  0.00     0.143 A 
ATOM      2  C2  UNL d   1       2.400  -3.400   3.725  0.00  0.00    -0.057 A 
ATOM      3  C3  UNL d   1       2.538  -3.578   5.107  0.00  0.00     0.033 A 
ATOM      4  C4  UNL d   1       1.994  -2.651   5.991  0.00  0.00    -0.042 A 
ATOM      5  C5  UNL d   1       1.309  -1.549   5.491  0.00  0.00     0.033 A 
ATOM      6  C6  UNL d   1       1.170  -1.381   4.110  0.00  0.00    -0.057 A 
ENDROOT
BRANCH   1   7
ATOM      7  N   UNL d   1       1.606  -2.028   1.835  0.00  0.00    -0.732 N 
ATOM      8  C   UNL d   1       1.199  -0.716   1.380  0.00  0.00     0.284 C 
ATOM      9  H3  UNL d   1       2.374  -2.433   1.304  0.00  0.00     0.395 HD
ENDBRANCH   1   7
TORSDOF 1
ENDMDL
