MODEL 1
REMARK minimizedAffinity 13.1040192
REMARK minimizedRMSD -1
REMARK  1 active torsions:
REMARK  status: ('A' for Active; 'I' for Inactive)
REMARK    1  A    between atoms: N_2  and  C1_3 
ROOT
ATOM      1  C1  UNL d   1       1.359  -1.594   3.425  0.00  0.00     0.143 A 
ATOM      2  C2  UNL d   1       1.265  -0.508   2.548  0.00  0.00    -0.057 A 
ATOM      3  C3  UNL d   1       1.727  -0.597   1.229  0.00  0.00     0.033 A 
ATOM      4  C4  UNL d   1       2.320  -1.770   0.771  0.00  0.00    -0.042 A 
ATOM      5  C5  UNL d   1       2.446  -2.853   1.633  0.00  0.00     0.033 A 
ATOM      6  C6  UNL d   1       1.977  -2.760   2.947  0.00  0.00    -0.057 A 
ENDROOT
BRANCH   1   7
ATOM      7  N   UNL d   1       1.009  -1.535   4.776  0.00  0.00    -0.732 N 
ATOM      8  C   UNL d   1       1.501  -2.526   5.709  0.00  0.00     0.284 C 
ATOM      9  H3  UNL d   1       1.014  -0.585   5.138  0.00  0.00     0.395 HD
ENDBRANCH   1   7
TORSDOF 1
ENDMDL
