MODEL 1
REMARK minimizedAffinity 14.7210846
REMARK minimizedRMSD -1
REMARK  1 active torsions:
REMARK  status: ('A' for Active; 'I' for Inactive)
REMARK    1  A    between atoms: N_2  and  C1_3 
ROOT
ATOM      1  C1  UNL d   1       1.347  -2.003   3.568  0.00  0.00     0.143 A 
ATOM      2  C2  UNL d   1       0.854  -1.545   4.795  0.00  0.00    -0.057 A 
ATOM      3  C3  UNL d   1       1.218  -2.159   5.999  0.00  0.00     0.033 A 
ATOM      4  C4  UNL d   1       2.062  -3.265   5.996  0.00  0.00    -0.042 A 
ATOM      5  C5  UNL d   1       2.545  -3.753   4.786  0.00  0.00     0.033 A 
ATOM      6  C6  UNL d   1       2.182  -3.131   3.588  0.00  0.00    -0.057 A 
ENDROOT
BRANCH   1   7
ATOM      7  N   UNL d   1       0.944  -1.497   2.330  0.00  0.00    -0.732 N 
ATOM      8  C   UNL d   1       1.913  -0.937   1.413  0.00  0.00     0.284 C 
ATOM      9  H3  UNL d   1       0.237  -2.078   1.885  0.00  0.00     0.395 HD
ENDBRANCH   1   7
TORSDOF 1
ENDMDL
