MODEL 1
REMARK minimizedAffinity -1.38135195
REMARK minimizedRMSD -1
REMARK  0 active torsions:
REMARK  status: ('A' for Active; 'I' for Inactive)
ROOT
ATOM      1  N1  IND d   1       1.923  -0.534  -0.246  0.00  0.00    -0.196 N 
ATOM      2  C2  IND d   1       2.727   0.262   0.523  0.00  0.00     0.054 A 
ATOM      3  C3  IND d   1       1.978   1.060   1.316  0.00  0.00    -0.031 A 
ATOM      4  C4  IND d   1      -0.580   1.157   1.591  0.00  0.00     0.051 A 
ATOM      5  C5  IND d   1      -1.739   0.647   1.077  0.00  0.00    -0.031 A 
ATOM      6  C6  IND d   1      -1.736  -0.304   0.077  0.00  0.00     0.015 A 
ATOM      7  C7  IND d   1      -0.569  -0.791  -0.440  0.00  0.00    -0.016 A 
ATOM      8  C8  IND d   1       0.610  -0.270   0.075  0.00  0.00    -0.047 A 
ATOM      9  C9  IND d   1       0.613   0.726   1.060  0.00  0.00    -0.096 A 
ATOM     10  HN1 IND d   1       2.193  -1.103  -0.831  0.00  0.00     0.298 HD
ENDROOT
TORSDOF 0
ENDMDL
