MODEL 1
REMARK minimizedAffinity -3.97734833
REMARK minimizedRMSD -1
REMARK  0 active torsions:
REMARK  status: ('A' for Active; 'I' for Inactive)
ROOT
ATOM      1  N1  IND d   1       0.529  -1.165  -0.547  0.00  0.00    -0.196 N 
ATOM      2  C2  IND d   1       1.653  -0.561  -0.056  0.00  0.00     0.054 A 
ATOM      3  C3  IND d   1       1.321   0.391   0.844  0.00  0.00    -0.031 A 
ATOM      4  C4  IND d   1      -0.999   1.056   1.740  0.00  0.00     0.051 A 
ATOM      5  C5  IND d   1      -2.333   0.811   1.564  0.00  0.00    -0.031 A 
ATOM      6  C6  IND d   1      -2.789  -0.125   0.659  0.00  0.00     0.015 A 
ATOM      7  C7  IND d   1      -1.925  -0.864  -0.099  0.00  0.00    -0.016 A 
ATOM      8  C8  IND d   1      -0.571  -0.613   0.072  0.00  0.00    -0.047 A 
ATOM      9  C9  IND d   1      -0.103   0.366   0.958  0.00  0.00    -0.096 A 
ATOM     10  HN1 IND d   1       0.512  -1.786  -1.142  0.00  0.00     0.298 HD
ENDROOT
TORSDOF 0
ENDMDL
