MODEL 1
REMARK minimizedAffinity -2.32952905
REMARK minimizedRMSD -1
REMARK  0 active torsions:
REMARK  status: ('A' for Active; 'I' for Inactive)
ROOT
ATOM      1  N1  IND d   1       1.326  -1.322   1.045  0.00  0.00    -0.196 N 
ATOM      2  C2  IND d   1       1.135  -1.422  -0.305  0.00  0.00     0.054 A 
ATOM      3  C3  IND d   1      -0.121  -1.044  -0.631  0.00  0.00    -0.031 A 
ATOM      4  C4  IND d   1      -1.997  -0.129   0.876  0.00  0.00     0.051 A 
ATOM      5  C5  IND d   1      -2.307   0.109   2.186  0.00  0.00    -0.031 A 
ATOM      6  C6  IND d   1      -1.403  -0.120   3.202  0.00  0.00     0.015 A 
ATOM      7  C7  IND d   1      -0.145  -0.587   2.945  0.00  0.00    -0.016 A 
ATOM      8  C8  IND d   1       0.171  -0.836   1.617  0.00  0.00    -0.047 A 
ATOM      9  C9  IND d   1      -0.757  -0.646   0.585  0.00  0.00    -0.096 A 
ATOM     10  HN1 IND d   1       2.047  -1.528   1.466  0.00  0.00     0.298 HD
ENDROOT
TORSDOF 0
ENDMDL
