MODEL 1
REMARK minimizedAffinity 0.570426047
REMARK minimizedRMSD -1
REMARK  0 active torsions:
REMARK  status: ('A' for Active; 'I' for Inactive)
ROOT
ATOM      1  N1  IND d   1       1.376  -0.261   0.844  0.00  0.00    -0.196 N 
ATOM      2  C2  IND d   1       0.593  -0.553  -0.237  0.00  0.00     0.054 A 
ATOM      3  C3  IND d   1      -0.715  -0.507   0.104  0.00  0.00    -0.031 A 
ATOM      4  C4  IND d   1      -1.798   0.126   2.352  0.00  0.00     0.051 A 
ATOM      5  C5  IND d   1      -1.490   0.435   3.647  0.00  0.00    -0.031 A 
ATOM      6  C6  IND d   1      -0.184   0.533   4.082  0.00  0.00     0.015 A 
ATOM      7  C7  IND d   1       0.867   0.335   3.232  0.00  0.00    -0.016 A 
ATOM      8  C8  IND d   1       0.558   0.014   1.918  0.00  0.00    -0.047 A 
ATOM      9  C9  IND d   1      -0.765  -0.128   1.480  0.00  0.00    -0.096 A 
ATOM     10  HN1 IND d   1       2.236  -0.250   0.852  0.00  0.00     0.298 HD
ENDROOT
TORSDOF 0
ENDMDL
