MODEL 1
REMARK minimizedAffinity -5.22329235
REMARK minimizedRMSD -1
REMARK  0 active torsions:
REMARK  status: ('A' for Active; 'I' for Inactive)
ROOT
ATOM      1  N1  IND d   1       1.670  -0.453   0.034  0.00  0.00    -0.196 N 
ATOM      2  C2  IND d   1       1.363  -0.438  -1.298  0.00  0.00     0.054 A 
ATOM      3  C3  IND d   1       0.067  -0.096  -1.478  0.00  0.00    -0.031 A 
ATOM      4  C4  IND d   1      -1.703   0.579   0.265  0.00  0.00     0.051 A 
ATOM      5  C5  IND d   1      -1.905   0.680   1.613  0.00  0.00    -0.031 A 
ATOM      6  C6  IND d   1      -0.903   0.405   2.522  0.00  0.00     0.015 A 
ATOM      7  C7  IND d   1       0.345   0.029   2.114  0.00  0.00    -0.016 A 
ATOM      8  C8  IND d   1       0.551  -0.081   0.746  0.00  0.00    -0.047 A 
ATOM      9  C9  IND d   1      -0.473   0.155  -0.179  0.00  0.00    -0.096 A 
ATOM     10  HN1 IND d   1       2.434  -0.660   0.370  0.00  0.00     0.298 HD
ENDROOT
TORSDOF 0
ENDMDL
