MODEL 1
REMARK minimizedAffinity -2.60271883
REMARK minimizedRMSD -1
REMARK  3 active torsions:
REMARK  status: ('A' for Active; 'I' for Inactive)
REMARK    1  A    between atoms: C3'_2  and  C2'_3 
REMARK    2  A    between atoms: C2'_3  and  C1'_4 
REMARK    3  A    between atoms: C1'_4  and  C1_5 
ROOT
ATOM      1  C1  N4B d   1       0.957  -0.437  -0.021  0.00  0.00    -0.075 A 
ATOM      2  C2  N4B d   1       0.026  -1.193  -0.767  0.00  0.00     0.002 A 
ATOM      3  C3  N4B d   1      -1.297  -0.825  -0.791  0.00  0.00     0.002 A 
ATOM      4  C4  N4B d   1      -1.714   0.280  -0.064  0.00  0.00    -0.004 A 
ATOM      5  C5  N4B d   1      -0.804   1.020   0.634  0.00  0.00     0.002 A 
ATOM      6  C6  N4B d   1       0.529   0.664   0.663  0.00  0.00     0.002 A 
ENDROOT
BRANCH   1   7
ATOM      7  C1' N4B d   1       2.398  -0.850   0.104  0.00  0.00     0.057 C 
BRANCH   7   8
ATOM      8  C2' N4B d   1       2.676  -1.995  -0.866  0.00  0.00     0.009 C 
BRANCH   8   9
ATOM      9  C3' N4B d   1       3.751  -1.634  -1.877  0.00  0.00     0.004 C 
ATOM     10  C4' N4B d   1       3.736  -2.525  -3.083  0.00  0.00     0.003 C 
ENDBRANCH   8   9
ENDBRANCH   7   8
ENDBRANCH   1   7
TORSDOF 3
ENDMDL
