MODEL 1
REMARK minimizedAffinity -5.83275509
REMARK minimizedRMSD -1
REMARK  3 active torsions:
REMARK  status: ('A' for Active; 'I' for Inactive)
REMARK    1  A    between atoms: C3'_2  and  C2'_3 
REMARK    2  A    between atoms: C2'_3  and  C1'_4 
REMARK    3  A    between atoms: C1'_4  and  C1_5 
ROOT
ATOM      1  C1  N4B d   1       0.956  -0.693   0.043  0.00  0.00    -0.075 A 
ATOM      2  C2  N4B d   1       1.836  -1.796   0.098  0.00  0.00     0.002 A 
ATOM      3  C3  N4B d   1       3.188  -1.591   0.217  0.00  0.00     0.002 A 
ATOM      4  C4  N4B d   1       3.684  -0.296   0.265  0.00  0.00    -0.004 A 
ATOM      5  C5  N4B d   1       2.826   0.764   0.237  0.00  0.00     0.002 A 
ATOM      6  C6  N4B d   1       1.463   0.572   0.122  0.00  0.00     0.002 A 
ENDROOT
BRANCH   1   7
ATOM      7  C1' N4B d   1      -0.522  -0.865  -0.173  0.00  0.00     0.057 C 
BRANCH   7   8
ATOM      8  C2' N4B d   1      -1.135   0.481  -0.548  0.00  0.00     0.009 C 
BRANCH   8   9
ATOM      9  C3' N4B d   1      -2.631   0.516  -0.291  0.00  0.00     0.004 C 
ATOM     10  C4' N4B d   1      -2.984   1.197   0.998  0.00  0.00     0.003 C 
ENDBRANCH   8   9
ENDBRANCH   7   8
ENDBRANCH   1   7
TORSDOF 3
ENDMDL
