MODEL 1
REMARK minimizedAffinity -5.39629221
REMARK minimizedRMSD -1
REMARK  3 active torsions:
REMARK  status: ('A' for Active; 'I' for Inactive)
REMARK    1  A    between atoms: C3'_2  and  C2'_3 
REMARK    2  A    between atoms: C2'_3  and  C1'_4 
REMARK    3  A    between atoms: C1'_4  and  C1_5 
ROOT
ATOM      1  C1  N4B d   1       0.304   0.311  -0.513  0.00  0.00    -0.075 A 
ATOM      2  C2  N4B d   1       1.281   0.841   0.358  0.00  0.00     0.002 A 
ATOM      3  C3  N4B d   1       2.136  -0.001   1.026  0.00  0.00     0.002 A 
ATOM      4  C4  N4B d   1       2.021  -1.373   0.854  0.00  0.00    -0.004 A 
ATOM      5  C5  N4B d   1       1.091  -1.876  -0.009  0.00  0.00     0.002 A 
ATOM      6  C6  N4B d   1       0.228  -1.040  -0.689  0.00  0.00     0.002 A 
ENDROOT
BRANCH   1   7
ATOM      7  C1' N4B d   1      -0.708   1.187  -1.199  0.00  0.00     0.057 C 
BRANCH   7   8
ATOM      8  C2' N4B d   1      -2.108   0.646  -0.923  0.00  0.00     0.009 C 
BRANCH   8   9
ATOM      9  C3' N4B d   1      -2.783   1.376   0.225  0.00  0.00     0.004 C 
ATOM     10  C4' N4B d   1      -3.034   0.491   1.409  0.00  0.00     0.003 C 
ENDBRANCH   8   9
ENDBRANCH   7   8
ENDBRANCH   1   7
TORSDOF 3
ENDMDL
