MODEL 1
REMARK minimizedAffinity -0.0569367595
REMARK minimizedRMSD -1
REMARK  3 active torsions:
REMARK  status: ('A' for Active; 'I' for Inactive)
REMARK    1  A    between atoms: C3'_2  and  C2'_3 
REMARK    2  A    between atoms: C2'_3  and  C1'_4 
REMARK    3  A    between atoms: C1'_4  and  C1_5 
ROOT
ATOM      1  C1  N4B d   1      -0.853   1.102  -0.241  0.00  0.00    -0.075 A 
ATOM      2  C2  N4B d   1      -0.649  -0.287  -0.387  0.00  0.00     0.002 A 
ATOM      3  C3  N4B d   1       0.618  -0.809  -0.294  0.00  0.00     0.002 A 
ATOM      4  C4  N4B d   1       1.694   0.038  -0.076  0.00  0.00    -0.004 A 
ATOM      5  C5  N4B d   1       1.486   1.376   0.089  0.00  0.00     0.002 A 
ATOM      6  C6  N4B d   1       0.217   1.914   0.002  0.00  0.00     0.002 A 
ENDROOT
BRANCH   1   7
ATOM      7  C1' N4B d   1      -2.208   1.729  -0.420  0.00  0.00     0.057 C 
BRANCH   7   8
ATOM      8  C2' N4B d   1      -3.284   0.691  -0.114  0.00  0.00     0.009 C 
BRANCH   8   9
ATOM      9  C3' N4B d   1      -4.021   1.000   1.178  0.00  0.00     0.004 C 
ATOM     10  C4' N4B d   1      -3.172   1.743   2.167  0.00  0.00     0.003 C 
ENDBRANCH   8   9
ENDBRANCH   7   8
ENDBRANCH   1   7
TORSDOF 3
ENDMDL
