MODEL 1
REMARK minimizedAffinity -5.96183395
REMARK minimizedRMSD -1
REMARK  3 active torsions:
REMARK  status: ('A' for Active; 'I' for Inactive)
REMARK    1  A    between atoms: C3'_2  and  C2'_3 
REMARK    2  A    between atoms: C2'_3  and  C1'_4 
REMARK    3  A    between atoms: C1'_4  and  C1_5 
ROOT
ATOM      1  C1  N4B d   1       0.337   0.351  -0.281  0.00  0.00    -0.075 A 
ATOM      2  C2  N4B d   1       0.378  -0.999  -0.695  0.00  0.00     0.002 A 
ATOM      3  C3  N4B d   1       1.411  -1.809  -0.294  0.00  0.00     0.002 A 
ATOM      4  C4  N4B d   1       2.421  -1.290   0.502  0.00  0.00    -0.004 A 
ATOM      5  C5  N4B d   1       2.361   0.008   0.919  0.00  0.00     0.002 A 
ATOM      6  C6  N4B d   1       1.326   0.833   0.527  0.00  0.00     0.002 A 
ENDROOT
BRANCH   1   7
ATOM      7  C1' N4B d   1      -0.727   1.298  -0.764  0.00  0.00     0.057 C 
BRANCH   7   8
ATOM      8  C2' N4B d   1      -2.099   0.683  -0.507  0.00  0.00     0.009 C 
BRANCH   8   9
ATOM      9  C3' N4B d   1      -2.949   1.550   0.406  0.00  0.00     0.004 C 
ATOM     10  C4' N4B d   1      -3.530   0.785   1.558  0.00  0.00     0.003 C 
ENDBRANCH   8   9
ENDBRANCH   7   8
ENDBRANCH   1   7
TORSDOF 3
ENDMDL
