MODEL 1
REMARK minimizedAffinity -5.30195284
REMARK minimizedRMSD -1
REMARK  3 active torsions:
REMARK  status: ('A' for Active; 'I' for Inactive)
REMARK    1  A    between atoms: C3'_2  and  C2'_3 
REMARK    2  A    between atoms: C2'_3  and  C1'_4 
REMARK    3  A    between atoms: C1'_4  and  C1_5 
ROOT
ATOM      1  C1  N4B d   1      -0.266   0.489  -0.157  0.00  0.00    -0.075 A 
ATOM      2  C2  N4B d   1       0.903   0.772   0.583  0.00  0.00     0.002 A 
ATOM      3  C3  N4B d   1       1.963  -0.100   0.552  0.00  0.00     0.002 A 
ATOM      4  C4  N4B d   1       1.871  -1.266  -0.194  0.00  0.00    -0.004 A 
ATOM      5  C5  N4B d   1       0.749  -1.519  -0.927  0.00  0.00     0.002 A 
ATOM      6  C6  N4B d   1      -0.323  -0.649  -0.908  0.00  0.00     0.002 A 
ENDROOT
BRANCH   1   7
ATOM      7  C1' N4B d   1      -1.483   1.370  -0.086  0.00  0.00     0.057 C 
BRANCH   7   8
ATOM      8  C2' N4B d   1      -2.728   0.524  -0.334  0.00  0.00     0.009 C 
BRANCH   8   9
ATOM      9  C3' N4B d   1      -3.994   1.225   0.130  0.00  0.00     0.004 C 
ATOM     10  C4' N4B d   1      -3.894   1.731   1.538  0.00  0.00     0.003 C 
ENDBRANCH   8   9
ENDBRANCH   7   8
ENDBRANCH   1   7
TORSDOF 3
ENDMDL
