MODEL 1
REMARK minimizedAffinity -4.25824261
REMARK minimizedRMSD -1
REMARK  3 active torsions:
REMARK  status: ('A' for Active; 'I' for Inactive)
REMARK    1  A    between atoms: C3'_2  and  C2'_3 
REMARK    2  A    between atoms: C2'_3  and  C1'_4 
REMARK    3  A    between atoms: C1'_4  and  C1_5 
ROOT
ATOM      1  C1  N4B d   1       0.048  -0.446   0.331  0.00  0.00    -0.075 A 
ATOM      2  C2  N4B d   1       0.180  -1.532  -0.562  0.00  0.00     0.002 A 
ATOM      3  C3  N4B d   1       1.369  -2.215  -0.641  0.00  0.00     0.002 A 
ATOM      4  C4  N4B d   1       2.441  -1.820   0.145  0.00  0.00    -0.004 A 
ATOM      5  C5  N4B d   1       2.297  -0.785   1.023  0.00  0.00     0.002 A 
ATOM      6  C6  N4B d   1       1.107  -0.092   1.116  0.00  0.00     0.002 A 
ENDROOT
BRANCH   1   7
ATOM      7  C1' N4B d   1      -1.204   0.385   0.391  0.00  0.00     0.057 C 
BRANCH   7   8
ATOM      8  C2' N4B d   1      -1.208   1.193   1.685  0.00  0.00     0.009 C 
BRANCH   8   9
ATOM      9  C3' N4B d   1      -2.612   1.381   2.233  0.00  0.00     0.004 C 
ATOM     10  C4' N4B d   1      -3.636   0.565   1.501  0.00  0.00     0.003 C 
ENDBRANCH   8   9
ENDBRANCH   7   8
ENDBRANCH   1   7
TORSDOF 3
ENDMDL
