MODEL 1
REMARK minimizedAffinity 3.32683015
REMARK minimizedRMSD -1
REMARK  0 active torsions:
REMARK  status: ('A' for Active; 'I' for Inactive)
ROOT
ATOM      1  N1  IND d   1      -5.636   4.076  -5.844  0.00  0.00    -0.196 N 
ATOM      2  C2  IND d   1      -6.000   4.959  -4.866  0.00  0.00     0.054 A 
ATOM      3  C3  IND d   1      -5.972   4.357  -3.656  0.00  0.00    -0.031 A 
ATOM      4  C4  IND d   1      -5.263   1.961  -3.036  0.00  0.00     0.051 A 
ATOM      5  C5  IND d   1      -4.886   0.771  -3.593  0.00  0.00    -0.031 A 
ATOM      6  C6  IND d   1      -4.734   0.620  -4.957  0.00  0.00     0.015 A 
ATOM      7  C7  IND d   1      -4.943   1.661  -5.816  0.00  0.00    -0.016 A 
ATOM      8  C8  IND d   1      -5.333   2.869  -5.255  0.00  0.00    -0.047 A 
ATOM      9  C9  IND d   1      -5.530   3.017  -3.876  0.00  0.00    -0.096 A 
ATOM     10  HN1 IND d   1      -5.603   4.247  -6.687  0.00  0.00     0.298 HD
ENDROOT
TORSDOF 0
ENDMDL
