MODEL 1
REMARK minimizedAffinity 8.60545826
REMARK minimizedRMSD -1
REMARK  0 active torsions:
REMARK  status: ('A' for Active; 'I' for Inactive)
ROOT
ATOM      1  N1  IND d   1       1.158  -1.797   5.499  0.00  0.00    -0.196 N 
ATOM      2  C2  IND d   1       1.708  -2.945   6.000  0.00  0.00     0.054 A 
ATOM      3  C3  IND d   1       2.277  -3.665   5.007  0.00  0.00    -0.031 A 
ATOM      4  C4  IND d   1       2.510  -3.104   2.505  0.00  0.00     0.051 A 
ATOM      5  C5  IND d   1       2.134  -2.183   1.569  0.00  0.00    -0.031 A 
ATOM      6  C6  IND d   1       1.401  -1.062   1.901  0.00  0.00     0.015 A 
ATOM      7  C7  IND d   1       1.024  -0.814   3.191  0.00  0.00    -0.016 A 
ATOM      8  C8  IND d   1       1.399  -1.751   4.144  0.00  0.00    -0.047 A 
ATOM      9  C9  IND d   1       2.106  -2.911   3.805  0.00  0.00    -0.096 A 
ATOM     10  HN1 IND d   1       0.733  -1.205   5.955  0.00  0.00     0.298 HD
ENDROOT
TORSDOF 0
ENDMDL
