MODEL 1
REMARK minimizedAffinity 3.95726943
REMARK minimizedRMSD -1
REMARK  0 active torsions:
REMARK  status: ('A' for Active; 'I' for Inactive)
ROOT
ATOM      1  N1  IND d   1       0.358  -1.217   5.123  0.00  0.00    -0.196 N 
ATOM      2  C2  IND d   1       0.627  -2.231   6.000  0.00  0.00     0.054 A 
ATOM      3  C3  IND d   1       1.451  -3.139   5.431  0.00  0.00    -0.031 A 
ATOM      4  C4  IND d   1       2.562  -3.111   3.108  0.00  0.00     0.051 A 
ATOM      5  C5  IND d   1       2.591  -2.408   1.937  0.00  0.00    -0.031 A 
ATOM      6  C6  IND d   1       1.864  -1.247   1.764  0.00  0.00     0.015 A 
ATOM      7  C7  IND d   1       1.087  -0.738   2.766  0.00  0.00    -0.016 A 
ATOM      8  C8  IND d   1       1.050  -1.453   3.955  0.00  0.00    -0.047 A 
ATOM      9  C9  IND d   1       1.752  -2.654   4.121  0.00  0.00    -0.096 A 
ATOM     10  HN1 IND d   1      -0.156  -0.546   5.275  0.00  0.00     0.298 HD
ENDROOT
TORSDOF 0
ENDMDL
