MODEL 1
REMARK minimizedAffinity -0.399052024
REMARK minimizedRMSD -1
REMARK  0 active torsions:
REMARK  status: ('A' for Active; 'I' for Inactive)
ROOT
ATOM      1  N1  IND d   1      -2.182  -1.285  -0.328  0.00  0.00    -0.196 N 
ATOM      2  C2  IND d   1      -2.647  -2.563  -0.466  0.00  0.00     0.054 A 
ATOM      3  C3  IND d   1      -1.905  -3.417   0.275  0.00  0.00    -0.031 A 
ATOM      4  C4  IND d   1       0.055  -2.920   1.868  0.00  0.00     0.051 A 
ATOM      5  C5  IND d   1       0.864  -1.906   2.297  0.00  0.00    -0.031 A 
ATOM      6  C6  IND d   1       0.694  -0.606   1.867  0.00  0.00     0.015 A 
ATOM      7  C7  IND d   1      -0.303  -0.269   0.995  0.00  0.00    -0.016 A 
ATOM      8  C8  IND d   1      -1.122  -1.297   0.552  0.00  0.00    -0.047 A 
ATOM      9  C9  IND d   1      -0.928  -2.626   0.953  0.00  0.00    -0.096 A 
ATOM     10  HN1 IND d   1      -2.498  -0.591  -0.725  0.00  0.00     0.298 HD
ENDROOT
TORSDOF 0
ENDMDL
