MODEL 1
REMARK minimizedAffinity 4.72958517
REMARK minimizedRMSD -1
REMARK  0 active torsions:
REMARK  status: ('A' for Active; 'I' for Inactive)
ROOT
ATOM      1  N1  IND d   1       0.995  -0.501   2.651  0.00  0.00    -0.196 N 
ATOM      2  C2  IND d   1       1.510  -1.119   1.546  0.00  0.00     0.054 A 
ATOM      3  C3  IND d   1       2.235  -2.202   1.907  0.00  0.00    -0.031 A 
ATOM      4  C4  IND d   1       2.626  -3.200   4.248  0.00  0.00     0.051 A 
ATOM      5  C5  IND d   1       2.389  -2.965   5.573  0.00  0.00    -0.031 A 
ATOM      6  C6  IND d   1       1.657  -1.876   6.000  0.00  0.00     0.015 A 
ATOM      7  C7  IND d   1       1.124  -0.983   5.113  0.00  0.00    -0.016 A 
ATOM      8  C8  IND d   1       1.370  -1.215   3.767  0.00  0.00    -0.047 A 
ATOM      9  C9  IND d   1       2.147  -2.296   3.330  0.00  0.00    -0.096 A 
ATOM     10  HN1 IND d   1       0.518   0.215   2.649  0.00  0.00     0.298 HD
ENDROOT
TORSDOF 0
ENDMDL
