MODEL 1
REMARK minimizedAffinity 19.2042351
REMARK minimizedRMSD -1
REMARK  0 active torsions:
REMARK  status: ('A' for Active; 'I' for Inactive)
ROOT
ATOM      1  N1  IND d   1      -0.056  -0.921   1.930  0.00  0.00    -0.196 N 
ATOM      2  C2  IND d   1       1.135  -0.339   2.265  0.00  0.00     0.054 A 
ATOM      3  C3  IND d   1       1.236   0.884   1.698  0.00  0.00    -0.031 A 
ATOM      4  C4  IND d   1      -0.475   2.170   0.267  0.00  0.00     0.051 A 
ATOM      5  C5  IND d   1      -1.693   2.033  -0.337  0.00  0.00    -0.031 A 
ATOM      6  C6  IND d   1      -2.445   0.883  -0.211  0.00  0.00     0.015 A 
ATOM      7  C7  IND d   1      -2.008  -0.175   0.536  0.00  0.00    -0.016 A 
ATOM      8  C8  IND d   1      -0.768  -0.042   1.145  0.00  0.00    -0.047 A 
ATOM      9  C9  IND d   1       0.017   1.106   0.986  0.00  0.00    -0.096 A 
ATOM     10  HN1 IND d   1      -0.316  -1.705   2.170  0.00  0.00     0.298 HD
ENDROOT
TORSDOF 0
ENDMDL
