MODEL 1
REMARK minimizedAffinity 16.3498573
REMARK minimizedRMSD -1
REMARK  0 active torsions:
REMARK  status: ('A' for Active; 'I' for Inactive)
ROOT
ATOM      1  N1  IND d   1      -0.333  -0.755   2.031  0.00  0.00    -0.196 N 
ATOM      2  C2  IND d   1       0.909  -0.520   2.551  0.00  0.00     0.054 A 
ATOM      3  C3  IND d   1       1.334   0.718   2.213  0.00  0.00    -0.031 A 
ATOM      4  C4  IND d   1       0.113   2.564   0.897  0.00  0.00     0.051 A 
ATOM      5  C5  IND d   1      -1.030   2.805   0.188  0.00  0.00    -0.031 A 
ATOM      6  C6  IND d   1      -2.020   1.853   0.056  0.00  0.00     0.015 A 
ATOM      7  C7  IND d   1      -1.909   0.623   0.641  0.00  0.00    -0.016 A 
ATOM      8  C8  IND d   1      -0.747   0.373   1.357  0.00  0.00    -0.047 A 
ATOM      9  C9  IND d   1       0.281   1.320   1.458  0.00  0.00    -0.096 A 
ATOM     10  HN1 IND d   1      -0.781  -1.484   2.112  0.00  0.00     0.298 HD
ENDROOT
TORSDOF 0
ENDMDL
