MODEL 1
REMARK minimizedAffinity 14.8453865
REMARK minimizedRMSD -1
REMARK  0 active torsions:
REMARK  status: ('A' for Active; 'I' for Inactive)
ROOT
ATOM      1  N1  IND d   1       4.767   5.668   1.486  0.00  0.00    -0.196 N 
ATOM      2  C2  IND d   1       5.999   5.958   0.971  0.00  0.00     0.054 A 
ATOM      3  C3  IND d   1       5.954   5.969  -0.380  0.00  0.00    -0.031 A 
ATOM      4  C4  IND d   1       3.941   5.640  -1.951  0.00  0.00     0.051 A 
ATOM      5  C5  IND d   1       2.614   5.313  -1.947  0.00  0.00    -0.031 A 
ATOM      6  C6  IND d   1       1.922   5.086  -0.775  0.00  0.00     0.015 A 
ATOM      7  C7  IND d   1       2.532   5.189   0.443  0.00  0.00    -0.016 A 
ATOM      8  C8  IND d   1       3.881   5.513   0.443  0.00  0.00    -0.047 A 
ATOM      9  C9  IND d   1       4.598   5.703  -0.745  0.00  0.00    -0.096 A 
ATOM     10  HN1 IND d   1       4.577   5.594   2.322  0.00  0.00     0.298 HD
ENDROOT
TORSDOF 0
ENDMDL
