MODEL 1
REMARK minimizedAffinity 13.0611105
REMARK minimizedRMSD -1
REMARK  0 active torsions:
REMARK  status: ('A' for Active; 'I' for Inactive)
ROOT
ATOM      1  N1  IND d   1      -0.704  -0.994   1.443  0.00  0.00    -0.196 N 
ATOM      2  C2  IND d   1       0.587  -0.724   1.803  0.00  0.00     0.054 A 
ATOM      3  C3  IND d   1       0.936   0.521   1.409  0.00  0.00    -0.031 A 
ATOM      4  C4  IND d   1      -0.487   2.327   0.250  0.00  0.00     0.051 A 
ATOM      5  C5  IND d   1      -1.715   2.535  -0.312  0.00  0.00    -0.031 A 
ATOM      6  C6  IND d   1      -2.690   1.558  -0.314  0.00  0.00     0.015 A 
ATOM      7  C7  IND d   1      -2.475   0.336   0.257  0.00  0.00    -0.016 A 
ATOM      8  C8  IND d   1      -1.227   0.119   0.822  0.00  0.00    -0.047 A 
ATOM      9  C9  IND d   1      -0.219   1.091   0.790  0.00  0.00    -0.096 A 
ATOM     10  HN1 IND d   1      -1.119  -1.733   1.582  0.00  0.00     0.298 HD
ENDROOT
TORSDOF 0
ENDMDL
