MODEL 1
REMARK minimizedAffinity 5.52481508
REMARK minimizedRMSD -1
REMARK  0 active torsions:
REMARK  status: ('A' for Active; 'I' for Inactive)
ROOT
ATOM      1  N1  IND d   1       1.083  -0.713   4.881  0.00  0.00    -0.196 N 
ATOM      2  C2  IND d   1       1.351  -1.484   5.978  0.00  0.00     0.054 A 
ATOM      3  C3  IND d   1       1.950  -2.638   5.607  0.00  0.00    -0.031 A 
ATOM      4  C4  IND d   1       2.678  -3.424   3.266  0.00  0.00     0.051 A 
ATOM      5  C5  IND d   1       2.615  -3.078   1.946  0.00  0.00    -0.031 A 
ATOM      6  C6  IND d   1       2.028  -1.901   1.528  0.00  0.00     0.015 A 
ATOM      7  C7  IND d   1       1.490  -1.017   2.420  0.00  0.00    -0.016 A 
ATOM      8  C8  IND d   1       1.547  -1.368   3.761  0.00  0.00    -0.047 A 
ATOM      9  C9  IND d   1       2.103  -2.581   4.188  0.00  0.00    -0.096 A 
ATOM     10  HN1 IND d   1       0.691   0.052   4.889  0.00  0.00     0.298 HD
ENDROOT
TORSDOF 0
ENDMDL
