MODEL 1
REMARK minimizedAffinity 19.6245441
REMARK minimizedRMSD -1
REMARK  0 active torsions:
REMARK  status: ('A' for Active; 'I' for Inactive)
ROOT
ATOM      1  N1  IND d   1       0.728  -1.069   5.470  0.00  0.00    -0.196 N 
ATOM      2  C2  IND d   1       1.180  -2.248   5.993  0.00  0.00     0.054 A 
ATOM      3  C3  IND d   1       1.745  -3.006   5.027  0.00  0.00    -0.031 A 
ATOM      4  C4  IND d   1       2.128  -2.465   2.539  0.00  0.00     0.051 A 
ATOM      5  C5  IND d   1       1.855  -1.523   1.587  0.00  0.00    -0.031 A 
ATOM      6  C6  IND d   1       1.181  -0.357   1.887  0.00  0.00     0.015 A 
ATOM      7  C7  IND d   1       0.763  -0.083   3.159  0.00  0.00    -0.016 A 
ATOM      8  C8  IND d   1       1.033  -1.040   4.127  0.00  0.00    -0.047 A 
ATOM      9  C9  IND d   1       1.679  -2.245   3.819  0.00  0.00    -0.096 A 
ATOM     10  HN1 IND d   1       0.322  -0.449   5.906  0.00  0.00     0.298 HD
ENDROOT
TORSDOF 0
ENDMDL
