MODEL 1
REMARK minimizedAffinity 5.51361799
REMARK minimizedRMSD -1
REMARK  0 active torsions:
REMARK  status: ('A' for Active; 'I' for Inactive)
ROOT
ATOM      1  C   UNL d   1      -5.939   4.673  -1.545  0.00  0.00     0.078 C 
ATOM      2  C1  UNL d   1      -4.843   3.656  -1.653  0.00  0.00    -0.077 A 
ATOM      3  C2  UNL d   1      -4.314   3.042  -0.511  0.00  0.00    -0.001 A 
ATOM      4  C3  UNL d   1      -3.287   2.104  -0.626  0.00  0.00     0.003 A 
ATOM      5  C4  UNL d   1      -2.779   1.772  -1.880  0.00  0.00    -0.005 A 
ATOM      6  C5  UNL d   1      -3.298   2.379  -3.022  0.00  0.00     0.003 A 
ATOM      7  C6  UNL d   1      -4.325   3.318  -2.910  0.00  0.00    -0.001 A 
ENDROOT
TORSDOF 0
ENDMDL
