MODEL 1
REMARK minimizedAffinity 13.0215054
REMARK minimizedRMSD -1
REMARK  0 active torsions:
REMARK  status: ('A' for Active; 'I' for Inactive)
ROOT
ATOM      1  C   UNL d   1       2.627   2.548  -0.053  0.00  0.00     0.078 C 
ATOM      2  C1  UNL d   1       2.165   3.748  -0.825  0.00  0.00    -0.077 A 
ATOM      3  C2  UNL d   1       3.059   4.491  -1.606  0.00  0.00    -0.001 A 
ATOM      4  C3  UNL d   1       2.617   5.611  -2.312  0.00  0.00     0.003 A 
ATOM      5  C4  UNL d   1       1.281   6.000  -2.242  0.00  0.00    -0.005 A 
ATOM      6  C5  UNL d   1       0.384   5.268  -1.466  0.00  0.00     0.003 A 
ATOM      7  C6  UNL d   1       0.824   4.148  -0.759  0.00  0.00    -0.001 A 
ENDROOT
TORSDOF 0
ENDMDL
