MODEL 1
REMARK minimizedAffinity -1.88325906
REMARK minimizedRMSD -1
REMARK  0 active torsions:
REMARK  status: ('A' for Active; 'I' for Inactive)
ROOT
ATOM      1  C   UNL d   1       3.314   4.131  -2.411  0.00  0.00     0.078 C 
ATOM      2  C1  UNL d   1       4.127   4.549  -3.599  0.00  0.00    -0.077 A 
ATOM      3  C2  UNL d   1       5.258   5.362  -3.450  0.00  0.00    -0.001 A 
ATOM      4  C3  UNL d   1       6.000   5.751  -4.566  0.00  0.00     0.003 A 
ATOM      5  C4  UNL d   1       5.619   5.333  -5.840  0.00  0.00    -0.005 A 
ATOM      6  C5  UNL d   1       4.494   4.526  -5.999  0.00  0.00     0.003 A 
ATOM      7  C6  UNL d   1       3.751   4.136  -4.884  0.00  0.00    -0.001 A 
ENDROOT
TORSDOF 0
ENDMDL
