MODEL 1
REMARK minimizedAffinity -3.07751727
REMARK minimizedRMSD -1
REMARK  0 active torsions:
REMARK  status: ('A' for Active; 'I' for Inactive)
ROOT
ATOM      1  C   UNL d   1       3.071   4.424  -2.368  0.00  0.00     0.078 C 
ATOM      2  C1  UNL d   1       4.066   4.739  -3.446  0.00  0.00    -0.077 A 
ATOM      3  C2  UNL d   1       4.025   4.079  -4.680  0.00  0.00    -0.001 A 
ATOM      4  C3  UNL d   1       4.962   4.376  -5.670  0.00  0.00     0.003 A 
ATOM      5  C4  UNL d   1       5.949   5.332  -5.436  0.00  0.00    -0.005 A 
ATOM      6  C5  UNL d   1       5.999   5.992  -4.210  0.00  0.00     0.003 A 
ATOM      7  C6  UNL d   1       5.062   5.697  -3.219  0.00  0.00    -0.001 A 
ENDROOT
TORSDOF 0
ENDMDL
