MODEL 1
REMARK minimizedAffinity 2.78896475
REMARK minimizedRMSD -1
REMARK  0 active torsions:
REMARK  status: ('A' for Active; 'I' for Inactive)
ROOT
ATOM      1  C   UNL d   1       0.086  -1.769   5.254  0.00  0.00     0.078 C 
ATOM      2  C1  UNL d   1       0.790  -1.551   3.948  0.00  0.00    -0.077 A 
ATOM      3  C2  UNL d   1       1.851  -2.377   3.555  0.00  0.00    -0.001 A 
ATOM      4  C3  UNL d   1       2.503  -2.157   2.341  0.00  0.00     0.003 A 
ATOM      5  C4  UNL d   1       2.103  -1.111   1.511  0.00  0.00    -0.005 A 
ATOM      6  C5  UNL d   1       1.050  -0.284   1.895  0.00  0.00     0.003 A 
ATOM      7  C6  UNL d   1       0.397  -0.502   3.109  0.00  0.00    -0.001 A 
ENDROOT
TORSDOF 0
ENDMDL
