MODEL 1
REMARK minimizedAffinity 4.22026253
REMARK minimizedRMSD -1
REMARK  0 active torsions:
REMARK  status: ('A' for Active; 'I' for Inactive)
ROOT
ATOM      1  C   UNL d   1       2.365   0.020   1.355  0.00  0.00     0.078 C 
ATOM      2  C1  UNL d   1       1.853  -0.957   2.371  0.00  0.00    -0.077 A 
ATOM      3  C2  UNL d   1       1.602  -2.291   2.026  0.00  0.00    -0.001 A 
ATOM      4  C3  UNL d   1       1.116  -3.187   2.979  0.00  0.00     0.003 A 
ATOM      5  C4  UNL d   1       0.876  -2.759   4.283  0.00  0.00    -0.005 A 
ATOM      6  C5  UNL d   1       1.120  -1.434   4.635  0.00  0.00     0.003 A 
ATOM      7  C6  UNL d   1       1.606  -0.536   3.683  0.00  0.00    -0.001 A 
ENDROOT
TORSDOF 0
ENDMDL
