MODEL 1
REMARK minimizedAffinity -1.31718075
REMARK minimizedRMSD -1
REMARK  0 active torsions:
REMARK  status: ('A' for Active; 'I' for Inactive)
ROOT
ATOM      1  C   UNL d   1       5.980   5.496  -5.992  0.00  0.00     0.078 C 
ATOM      2  C1  UNL d   1       5.318   5.389  -4.651  0.00  0.00    -0.077 A 
ATOM      3  C2  UNL d   1       5.875   6.000  -3.521  0.00  0.00    -0.001 A 
ATOM      4  C3  UNL d   1       5.253   5.884  -2.277  0.00  0.00     0.003 A 
ATOM      5  C4  UNL d   1       4.070   5.158  -2.151  0.00  0.00    -0.005 A 
ATOM      6  C5  UNL d   1       3.509   4.545  -3.270  0.00  0.00     0.003 A 
ATOM      7  C6  UNL d   1       4.130   4.660  -4.514  0.00  0.00    -0.001 A 
ENDROOT
TORSDOF 0
ENDMDL
