MODEL 1
REMARK minimizedAffinity 8.39182472
REMARK minimizedRMSD -1
REMARK  0 active torsions:
REMARK  status: ('A' for Active; 'I' for Inactive)
ROOT
ATOM      1  C   UNL d   1      -3.230   2.625  -1.569  0.00  0.00     0.078 C 
ATOM      2  C1  UNL d   1      -4.010   2.778  -0.298  0.00  0.00    -0.077 A 
ATOM      3  C2  UNL d   1      -5.287   3.354  -0.300  0.00  0.00    -0.001 A 
ATOM      4  C3  UNL d   1      -5.998   3.499   0.892  0.00  0.00     0.003 A 
ATOM      5  C4  UNL d   1      -5.440   3.072   2.096  0.00  0.00    -0.005 A 
ATOM      6  C5  UNL d   1      -4.169   2.500   2.108  0.00  0.00     0.003 A 
ATOM      7  C6  UNL d   1      -3.457   2.354   0.917  0.00  0.00    -0.001 A 
ENDROOT
TORSDOF 0
ENDMDL
