MODEL 1
REMARK minimizedAffinity 1.35463262
REMARK minimizedRMSD -1
REMARK  1 active torsions:
REMARK  status: ('A' for Active; 'I' for Inactive)
REMARK    1  A    between atoms: C1_2  and  C2_3 
ROOT
ATOM      1  C2  UNL d   1       0.967   3.044   0.571  0.00  0.00    -0.081 A 
ATOM      2  C3  UNL d   1       1.588   2.083   1.378  0.00  0.00     0.006 A 
ATOM      3  C4  UNL d   1       1.685   0.756   0.953  0.00  0.00     0.002 A 
ATOM      4  C5  UNL d   1       1.171   0.369  -0.289  0.00  0.00    -0.080 A 
ATOM      5  C6  UNL d   1       1.295  -1.046  -0.770  0.00  0.00     0.076 C 
ATOM      6  C7  UNL d   1       0.535   1.325  -1.088  0.00  0.00     0.002 A 
ATOM      7  C8  UNL d   1       0.437   2.652  -0.664  0.00  0.00     0.006 A 
ENDROOT
BRANCH   1   8
ATOM      8  C1  UNL d   1       0.918   4.488   0.998  0.00  0.00     0.054 C 
ATOM      9  C   UNL d   1       1.118   5.423  -0.187  0.00  0.00     0.018 C 
ENDBRANCH   1   8
TORSDOF 1
ENDMDL
