MODEL 1
REMARK minimizedAffinity -0.12473096
REMARK minimizedRMSD -1
REMARK  1 active torsions:
REMARK  status: ('A' for Active; 'I' for Inactive)
REMARK    1  A    between atoms: C1_2  and  C2_3 
ROOT
ATOM      1  C2  UNL d   1       1.338   0.262  -1.354  0.00  0.00    -0.081 A 
ATOM      2  C3  UNL d   1       1.233   1.448  -2.091  0.00  0.00     0.006 A 
ATOM      3  C4  UNL d   1       1.031   2.669  -1.443  0.00  0.00     0.002 A 
ATOM      4  C5  UNL d   1       0.939   2.726  -0.048  0.00  0.00    -0.080 A 
ATOM      5  C6  UNL d   1       0.752   4.034   0.662  0.00  0.00     0.076 C 
ATOM      6  C7  UNL d   1       1.026   1.539   0.687  0.00  0.00     0.002 A 
ATOM      7  C8  UNL d   1       1.227   0.318   0.040  0.00  0.00     0.006 A 
ENDROOT
BRANCH   1   8
ATOM      8  C1  UNL d   1       1.621  -1.047  -2.045  0.00  0.00     0.054 C 
ATOM      9  C   UNL d   1       1.664  -0.877  -3.557  0.00  0.00     0.018 C 
ENDBRANCH   1   8
TORSDOF 1
ENDMDL
