MODEL 1
REMARK minimizedAffinity 0.253157765
REMARK minimizedRMSD -1
REMARK  1 active torsions:
REMARK  status: ('A' for Active; 'I' for Inactive)
REMARK    1  A    between atoms: C1_2  and  C2_3 
ROOT
ATOM      1  C2  UNL d   1       0.797   1.509  -0.973  0.00  0.00    -0.081 A 
ATOM      2  C3  UNL d   1       0.840   2.301  -2.127  0.00  0.00     0.006 A 
ATOM      3  C4  UNL d   1       1.006   3.685  -2.031  0.00  0.00     0.002 A 
ATOM      4  C5  UNL d   1       1.141   4.298  -0.781  0.00  0.00    -0.080 A 
ATOM      5  C6  UNL d   1       1.351   5.779  -0.665  0.00  0.00     0.076 C 
ATOM      6  C7  UNL d   1       1.080   3.509   0.373  0.00  0.00     0.002 A 
ATOM      7  C8  UNL d   1       0.913   2.126   0.277  0.00  0.00     0.006 A 
ENDROOT
BRANCH   1   8
ATOM      8  C1  UNL d   1       0.682   0.010  -1.077  0.00  0.00     0.054 C 
ATOM      9  C   UNL d   1       1.618  -0.685  -0.099  0.00  0.00     0.018 C 
ENDBRANCH   1   8
TORSDOF 1
ENDMDL
