MODEL 1
REMARK minimizedAffinity 13.1998186
REMARK minimizedRMSD -1
REMARK  1 active torsions:
REMARK  status: ('A' for Active; 'I' for Inactive)
REMARK    1  A    between atoms: C1_2  and  C2_3 
ROOT
ATOM      1  C2  UNL d   1       2.153   0.939   0.325  0.00  0.00    -0.081 A 
ATOM      2  C3  UNL d   1       1.821   0.316  -0.884  0.00  0.00     0.006 A 
ATOM      3  C4  UNL d   1       1.123   1.014  -1.872  0.00  0.00     0.002 A 
ATOM      4  C5  UNL d   1       0.752   2.348  -1.671  0.00  0.00    -0.080 A 
ATOM      5  C6  UNL d   1       0.029   3.118  -2.736  0.00  0.00     0.076 C 
ATOM      6  C7  UNL d   1       1.069   2.965  -0.456  0.00  0.00     0.002 A 
ATOM      7  C8  UNL d   1       1.766   2.267   0.533  0.00  0.00     0.006 A 
ENDROOT
BRANCH   1   8
ATOM      8  C1  UNL d   1       2.963   0.209   1.367  0.00  0.00     0.054 C 
ATOM      9  C   UNL d   1       4.407   0.030   0.920  0.00  0.00     0.018 C 
ENDBRANCH   1   8
TORSDOF 1
ENDMDL
