MODEL 1
REMARK minimizedAffinity 3.54902673
REMARK minimizedRMSD -1
REMARK  1 active torsions:
REMARK  status: ('A' for Active; 'I' for Inactive)
REMARK    1  A    between atoms: C1_2  and  C2_3 
ROOT
ATOM      1  C2  UNL d   1       0.355   2.035   0.838  0.00  0.00    -0.081 A 
ATOM      2  C3  UNL d   1       0.686   0.700   1.099  0.00  0.00     0.006 A 
ATOM      3  C4  UNL d   1       1.181  -0.119   0.082  0.00  0.00     0.002 A 
ATOM      4  C5  UNL d   1       1.359   0.385  -1.211  0.00  0.00    -0.080 A 
ATOM      5  C6  UNL d   1       1.918  -0.475  -2.306  0.00  0.00     0.076 C 
ATOM      6  C7  UNL d   1       1.011   1.714  -1.477  0.00  0.00     0.002 A 
ATOM      7  C8  UNL d   1       0.516   2.533  -0.459  0.00  0.00     0.006 A 
ENDROOT
BRANCH   1   8
ATOM      8  C1  UNL d   1      -0.118   2.939   1.948  0.00  0.00     0.054 C 
ATOM      9  C   UNL d   1      -1.547   2.613   2.356  0.00  0.00     0.018 C 
ENDBRANCH   1   8
TORSDOF 1
ENDMDL
