MODEL 1
REMARK minimizedAffinity 5.54005098
REMARK minimizedRMSD -1
REMARK  1 active torsions:
REMARK  status: ('A' for Active; 'I' for Inactive)
REMARK    1  A    between atoms: C1_2  and  C2_3 
ROOT
ATOM      1  C2  UNL d   1       1.049   2.946  -1.160  0.00  0.00    -0.081 A 
ATOM      2  C3  UNL d   1       0.791   2.646   0.183  0.00  0.00     0.006 A 
ATOM      3  C4  UNL d   1       0.935   1.339   0.656  0.00  0.00     0.002 A 
ATOM      4  C5  UNL d   1       1.347   0.314  -0.203  0.00  0.00    -0.080 A 
ATOM      5  C6  UNL d   1       1.535  -1.086   0.300  0.00  0.00     0.076 C 
ATOM      6  C7  UNL d   1       1.588   0.612  -1.548  0.00  0.00     0.002 A 
ATOM      7  C8  UNL d   1       1.443   1.917  -2.022  0.00  0.00     0.006 A 
ENDROOT
BRANCH   1   8
ATOM      8  C1  UNL d   1       0.957   4.366  -1.659  0.00  0.00     0.054 C 
ATOM      9  C   UNL d   1       1.621   5.336  -0.692  0.00  0.00     0.018 C 
ENDBRANCH   1   8
TORSDOF 1
ENDMDL
