MODEL 1
REMARK minimizedAffinity 3.17510414
REMARK minimizedRMSD -1
REMARK  1 active torsions:
REMARK  status: ('A' for Active; 'I' for Inactive)
REMARK    1  A    between atoms: C1_2  and  C2_3 
ROOT
ATOM      1  C2  UNL d   1       1.035   2.580  -1.474  0.00  0.00    -0.081 A 
ATOM      2  C3  UNL d   1       1.844   1.584  -2.035  0.00  0.00     0.006 A 
ATOM      3  C4  UNL d   1       1.894   0.309  -1.467  0.00  0.00     0.002 A 
ATOM      4  C5  UNL d   1       1.131   0.006  -0.334  0.00  0.00    -0.080 A 
ATOM      5  C6  UNL d   1       1.152  -1.367   0.269  0.00  0.00     0.076 C 
ATOM      6  C7  UNL d   1       0.336   1.006   0.237  0.00  0.00     0.002 A 
ATOM      7  C8  UNL d   1       0.286   2.282  -0.330  0.00  0.00     0.006 A 
ENDROOT
BRANCH   1   8
ATOM      8  C1  UNL d   1       0.929   3.937  -2.122  0.00  0.00     0.054 C 
ATOM      9  C   UNL d   1       1.179   5.051  -1.117  0.00  0.00     0.018 C 
ENDBRANCH   1   8
TORSDOF 1
ENDMDL
