MODEL 1
REMARK minimizedAffinity -3.88559008
REMARK minimizedRMSD -1
REMARK  1 active torsions:
REMARK  status: ('A' for Active; 'I' for Inactive)
REMARK    1  A    between atoms: C1_2  and  C2_3 
ROOT
ATOM      1  C2  UNL d   1       0.966   3.553  -0.402  0.00  0.00    -0.081 A 
ATOM      2  C3  UNL d   1       0.633   2.796   0.728  0.00  0.00     0.006 A 
ATOM      3  C4  UNL d   1       0.816   1.411   0.731  0.00  0.00     0.002 A 
ATOM      4  C5  UNL d   1       1.342   0.762  -0.391  0.00  0.00    -0.080 A 
ATOM      5  C6  UNL d   1       1.572  -0.720  -0.389  0.00  0.00     0.076 C 
ATOM      6  C7  UNL d   1       1.658   1.516  -1.526  0.00  0.00     0.002 A 
ATOM      7  C8  UNL d   1       1.475   2.901  -1.530  0.00  0.00     0.006 A 
ENDROOT
BRANCH   1   8
ATOM      8  C1  UNL d   1       0.831   5.055  -0.385  0.00  0.00     0.054 C 
ATOM      9  C   UNL d   1       2.089   5.730  -0.911  0.00  0.00     0.018 C 
ENDBRANCH   1   8
TORSDOF 1
ENDMDL
