MODEL 1
REMARK minimizedAffinity 2.95954537
REMARK minimizedRMSD -1
REMARK  1 active torsions:
REMARK  status: ('A' for Active; 'I' for Inactive)
REMARK    1  A    between atoms: C1_2  and  C2_3 
ROOT
ATOM      1  C2  UNL d   1       0.499   2.297  -1.633  0.00  0.00    -0.081 A 
ATOM      2  C3  UNL d   1       1.087   2.973  -0.557  0.00  0.00     0.006 A 
ATOM      3  C4  UNL d   1       1.557   2.266   0.553  0.00  0.00     0.002 A 
ATOM      4  C5  UNL d   1       1.453   0.871   0.601  0.00  0.00    -0.080 A 
ATOM      5  C6  UNL d   1       1.980   0.097   1.773  0.00  0.00     0.076 C 
ATOM      6  C7  UNL d   1       0.850   0.197  -0.466  0.00  0.00     0.002 A 
ATOM      7  C8  UNL d   1       0.379   0.904  -1.575  0.00  0.00     0.006 A 
ENDROOT
BRANCH   1   8
ATOM      8  C1  UNL d   1       0.051   3.051  -2.859  0.00  0.00     0.054 C 
ATOM      9  C   UNL d   1      -1.421   3.430  -2.768  0.00  0.00     0.018 C 
ENDBRANCH   1   8
TORSDOF 1
ENDMDL
