MODEL 1
REMARK minimizedAffinity -2.9602685
REMARK minimizedRMSD -1
REMARK  1 active torsions:
REMARK  status: ('A' for Active; 'I' for Inactive)
REMARK    1  A    between atoms: C1_2  and  C2_3 
ROOT
ATOM      1  C2  UNL d   1       1.092   3.446   0.049  0.00  0.00    -0.081 A 
ATOM      2  C3  UNL d   1       0.950   2.549   1.115  0.00  0.00     0.006 A 
ATOM      3  C4  UNL d   1       0.785   1.183   0.874  0.00  0.00     0.002 A 
ATOM      4  C5  UNL d   1       0.768   0.690  -0.436  0.00  0.00    -0.080 A 
ATOM      5  C6  UNL d   1       0.622  -0.778  -0.707  0.00  0.00     0.076 C 
ATOM      6  C7  UNL d   1       0.892   1.588  -1.501  0.00  0.00     0.002 A 
ATOM      7  C8  UNL d   1       1.056   2.954  -1.261  0.00  0.00     0.006 A 
ENDROOT
BRANCH   1   8
ATOM      8  C1  UNL d   1       1.335   4.911   0.307  0.00  0.00     0.054 C 
ATOM      9  C   UNL d   1       1.244   5.721  -0.978  0.00  0.00     0.018 C 
ENDBRANCH   1   8
TORSDOF 1
ENDMDL
