MODEL 1
REMARK minimizedAffinity 7.99707794
REMARK minimizedRMSD -1
REMARK  1 active torsions:
REMARK  status: ('A' for Active; 'I' for Inactive)
REMARK    1  A    between atoms: C1_2  and  C2_3 
ROOT
ATOM      1  C2  UNL d   1       4.914  -2.505  -5.902  0.00  0.00    -0.077 A 
ATOM      2  C3  UNL d   1       3.563  -2.864  -5.794  0.00  0.00     0.002 A 
ATOM      3  C4  UNL d   1       2.570  -1.883  -5.784  0.00  0.00     0.002 A 
ATOM      4  C5  UNL d   1       2.916  -0.537  -5.885  0.00  0.00    -0.004 A 
ATOM      5  C6  UNL d   1       4.257  -0.170  -5.991  0.00  0.00     0.002 A 
ATOM      6  C7  UNL d   1       5.252  -1.149  -6.000  0.00  0.00     0.002 A 
ENDROOT
BRANCH   1   7
ATOM      7  C1  UNL d   1       5.984  -3.564  -5.962  0.00  0.00     0.055 C 
ATOM      8  C   UNL d   1       6.000  -4.407  -4.695  0.00  0.00     0.019 C 
ENDBRANCH   1   7
TORSDOF 1
ENDMDL
