MODEL 1
REMARK minimizedAffinity 17.0801773
REMARK minimizedRMSD -1
REMARK  1 active torsions:
REMARK  status: ('A' for Active; 'I' for Inactive)
REMARK    1  A    between atoms: C1_2  and  C2_3 
ROOT
ATOM      1  C2  UNL d   1      -0.131   2.250   3.656  0.00  0.00    -0.077 A 
ATOM      2  C3  UNL d   1       1.169   1.856   3.307  0.00  0.00     0.002 A 
ATOM      3  C4  UNL d   1       2.132   1.644   4.295  0.00  0.00     0.002 A 
ATOM      4  C5  UNL d   1       1.805   1.820   5.638  0.00  0.00    -0.004 A 
ATOM      5  C6  UNL d   1       0.516   2.214   5.995  0.00  0.00     0.002 A 
ATOM      6  C7  UNL d   1      -0.448   2.427   5.008  0.00  0.00     0.002 A 
ENDROOT
BRANCH   1   7
ATOM      7  C1  UNL d   1      -1.185   2.431   2.594  0.00  0.00     0.055 C 
ATOM      8  C   UNL d   1      -2.528   1.878   3.048  0.00  0.00     0.019 C 
ENDBRANCH   1   7
TORSDOF 1
ENDMDL
