MODEL 1
REMARK minimizedAffinity 8.84851456
REMARK minimizedRMSD -1
REMARK  1 active torsions:
REMARK  status: ('A' for Active; 'I' for Inactive)
REMARK    1  A    between atoms: C1_2  and  C2_3 
ROOT
ATOM      1  C2  UNL d   1      -3.954  -0.152   5.229  0.00  0.00    -0.077 A 
ATOM      2  C3  UNL d   1      -3.964  -0.043   3.832  0.00  0.00     0.002 A 
ATOM      3  C4  UNL d   1      -3.772   1.196   3.218  0.00  0.00     0.002 A 
ATOM      4  C5  UNL d   1      -3.565   2.335   3.994  0.00  0.00    -0.004 A 
ATOM      5  C6  UNL d   1      -3.556   2.237   5.385  0.00  0.00     0.002 A 
ATOM      6  C7  UNL d   1      -3.749   1.000   6.000  0.00  0.00     0.002 A 
ENDROOT
BRANCH   1   7
ATOM      7  C1  UNL d   1      -4.112  -1.496   5.892  0.00  0.00     0.055 C 
ATOM      8  C   UNL d   1      -4.106  -2.622   4.868  0.00  0.00     0.019 C 
ENDBRANCH   1   7
TORSDOF 1
ENDMDL
