MODEL 1
REMARK minimizedAffinity -2.15611649
REMARK minimizedRMSD -1
REMARK  1 active torsions:
REMARK  status: ('A' for Active; 'I' for Inactive)
REMARK    1  A    between atoms: C1_2  and  C2_3 
ROOT
ATOM      1  C2  UNL d   1      -2.597  -4.107  -5.135  0.00  0.00    -0.077 A 
ATOM      2  C3  UNL d   1      -2.151  -5.420  -5.340  0.00  0.00     0.002 A 
ATOM      3  C4  UNL d   1      -1.174  -5.972  -4.509  0.00  0.00     0.002 A 
ATOM      4  C5  UNL d   1      -0.639  -5.220  -3.465  0.00  0.00    -0.004 A 
ATOM      5  C6  UNL d   1      -1.074  -3.913  -3.255  0.00  0.00     0.002 A 
ATOM      6  C7  UNL d   1      -2.049  -3.359  -4.085  0.00  0.00     0.002 A 
ENDROOT
BRANCH   1   7
ATOM      7  C1  UNL d   1      -3.686  -3.527  -5.999  0.00  0.00     0.055 C 
ATOM      8  C   UNL d   1      -4.462  -2.447  -5.260  0.00  0.00     0.019 C 
ENDBRANCH   1   7
TORSDOF 1
ENDMDL
