MODEL 1
REMARK minimizedAffinity 6.03933239
REMARK minimizedRMSD -1
REMARK  1 active torsions:
REMARK  status: ('A' for Active; 'I' for Inactive)
REMARK    1  A    between atoms: C1_2  and  C2_3 
ROOT
ATOM      1  C2  UNL d   1      -0.949   1.735  -4.425  0.00  0.00    -0.077 A 
ATOM      2  C3  UNL d   1      -1.229   2.139  -5.738  0.00  0.00     0.002 A 
ATOM      3  C4  UNL d   1      -2.287   3.013  -5.997  0.00  0.00     0.002 A 
ATOM      4  C5  UNL d   1      -3.069   3.493  -4.949  0.00  0.00    -0.004 A 
ATOM      5  C6  UNL d   1      -2.800   3.094  -3.640  0.00  0.00     0.002 A 
ATOM      6  C7  UNL d   1      -1.744   2.220  -3.379  0.00  0.00     0.002 A 
ENDROOT
BRANCH   1   7
ATOM      7  C1  UNL d   1       0.222   0.831  -4.139  0.00  0.00     0.055 C 
ATOM      8  C   UNL d   1      -0.203  -0.386  -3.330  0.00  0.00     0.019 C 
ENDBRANCH   1   7
TORSDOF 1
ENDMDL
