MODEL 1
REMARK minimizedAffinity 0.779247344
REMARK minimizedRMSD -1
REMARK  1 active torsions:
REMARK  status: ('A' for Active; 'I' for Inactive)
REMARK    1  A    between atoms: C1_2  and  C2_3 
ROOT
ATOM      1  C2  UNL d   1      -3.323  -5.379  -5.277  0.00  0.00    -0.077 A 
ATOM      2  C3  UNL d   1      -3.183  -5.504  -3.887  0.00  0.00     0.002 A 
ATOM      3  C4  UNL d   1      -2.117  -4.889  -3.227  0.00  0.00     0.002 A 
ATOM      4  C5  UNL d   1      -1.187  -4.142  -3.946  0.00  0.00    -0.004 A 
ATOM      5  C6  UNL d   1      -1.316  -4.013  -5.328  0.00  0.00     0.002 A 
ATOM      6  C7  UNL d   1      -2.380  -4.628  -5.991  0.00  0.00     0.002 A 
ENDROOT
BRANCH   1   7
ATOM      7  C1  UNL d   1      -4.498  -6.000  -5.985  0.00  0.00     0.055 C 
ATOM      8  C   UNL d   1      -5.696  -5.061  -5.998  0.00  0.00     0.019 C 
ENDBRANCH   1   7
TORSDOF 1
ENDMDL
