MODEL 1
REMARK minimizedAffinity 0.367785603
REMARK minimizedRMSD -1
REMARK  1 active torsions:
REMARK  status: ('A' for Active; 'I' for Inactive)
REMARK    1  A    between atoms: C1_2  and  C2_3 
ROOT
ATOM      1  C2  UNL d   1      -1.948  -4.793  -3.778  0.00  0.00    -0.077 A 
ATOM      2  C3  UNL d   1      -2.770  -3.656  -3.759  0.00  0.00     0.002 A 
ATOM      3  C4  UNL d   1      -3.584  -3.355  -4.852  0.00  0.00     0.002 A 
ATOM      4  C5  UNL d   1      -3.588  -4.186  -5.970  0.00  0.00    -0.004 A 
ATOM      5  C6  UNL d   1      -2.773  -5.317  -6.000  0.00  0.00     0.002 A 
ATOM      6  C7  UNL d   1      -1.958  -5.620  -4.908  0.00  0.00     0.002 A 
ENDROOT
BRANCH   1   7
ATOM      7  C1  UNL d   1      -1.106  -5.146  -2.580  0.00  0.00     0.055 C 
ATOM      8  C   UNL d   1       0.378  -5.098  -2.913  0.00  0.00     0.019 C 
ENDBRANCH   1   7
TORSDOF 1
ENDMDL
