MODEL 1
REMARK minimizedAffinity 4.64220047
REMARK minimizedRMSD -1
REMARK  1 active torsions:
REMARK  status: ('A' for Active; 'I' for Inactive)
REMARK    1  A    between atoms: C1_2  and  C2_3 
ROOT
ATOM      1  C2  UNL d   1      -2.972  -3.601  -4.946  0.00  0.00    -0.077 A 
ATOM      2  C3  UNL d   1      -2.974  -4.525  -6.000  0.00  0.00     0.002 A 
ATOM      3  C4  UNL d   1      -2.249  -5.714  -5.898  0.00  0.00     0.002 A 
ATOM      4  C5  UNL d   1      -1.519  -5.990  -4.744  0.00  0.00    -0.004 A 
ATOM      5  C6  UNL d   1      -1.509  -5.076  -3.691  0.00  0.00     0.002 A 
ATOM      6  C7  UNL d   1      -2.233  -3.887  -3.791  0.00  0.00     0.002 A 
ENDROOT
BRANCH   1   7
ATOM      7  C1  UNL d   1      -3.794  -2.341  -5.034  0.00  0.00     0.055 C 
ATOM      8  C   UNL d   1      -4.958  -2.506  -5.999  0.00  0.00     0.019 C 
ENDBRANCH   1   7
TORSDOF 1
ENDMDL
