MODEL 1
REMARK minimizedAffinity 6.07266665
REMARK minimizedRMSD -1
REMARK  1 active torsions:
REMARK  status: ('A' for Active; 'I' for Inactive)
REMARK    1  A    between atoms: C1_2  and  C2_3 
ROOT
ATOM      1  C2  UNL d   1      -2.306  -3.981  -4.134  0.00  0.00    -0.077 A 
ATOM      2  C3  UNL d   1      -2.910  -2.721  -4.255  0.00  0.00     0.002 A 
ATOM      3  C4  UNL d   1      -3.931  -2.514  -5.184  0.00  0.00     0.002 A 
ATOM      4  C5  UNL d   1      -4.361  -3.563  -5.995  0.00  0.00    -0.004 A 
ATOM      5  C6  UNL d   1      -3.765  -4.818  -5.883  0.00  0.00     0.002 A 
ATOM      6  C7  UNL d   1      -2.743  -5.027  -4.956  0.00  0.00     0.002 A 
ENDROOT
BRANCH   1   7
ATOM      7  C1  UNL d   1      -1.238  -4.219  -3.098  0.00  0.00     0.055 C 
ATOM      8  C   UNL d   1      -0.381  -5.425  -3.454  0.00  0.00     0.019 C 
ENDBRANCH   1   7
TORSDOF 1
ENDMDL
