MODEL 1
REMARK minimizedAffinity 0.919941545
REMARK minimizedRMSD -1
REMARK  1 active torsions:
REMARK  status: ('A' for Active; 'I' for Inactive)
REMARK    1  A    between atoms: C1_2  and  C2_3 
ROOT
ATOM      1  C2  UNL d   1      -3.047  -3.433  -5.174  0.00  0.00    -0.077 A 
ATOM      2  C3  UNL d   1      -2.798  -4.712  -5.693  0.00  0.00     0.002 A 
ATOM      3  C4  UNL d   1      -2.142  -5.672  -4.921  0.00  0.00     0.002 A 
ATOM      4  C5  UNL d   1      -1.735  -5.366  -3.624  0.00  0.00    -0.004 A 
ATOM      5  C6  UNL d   1      -1.977  -4.097  -3.099  0.00  0.00     0.002 A 
ATOM      6  C7  UNL d   1      -2.631  -3.135  -3.871  0.00  0.00     0.002 A 
ENDROOT
BRANCH   1   7
ATOM      7  C1  UNL d   1      -3.798  -2.412  -5.988  0.00  0.00     0.055 C 
ATOM      8  C   UNL d   1      -5.293  -2.698  -5.994  0.00  0.00     0.019 C 
ENDBRANCH   1   7
TORSDOF 1
ENDMDL
