MODEL 1
REMARK minimizedAffinity 3.04974699
REMARK minimizedRMSD -1
REMARK  1 active torsions:
REMARK  status: ('A' for Active; 'I' for Inactive)
REMARK    1  A    between atoms: C1_2  and  C2_3 
ROOT
ATOM      1  C2  UNL d   1      -2.072  -4.153  -3.975  0.00  0.00    -0.077 A 
ATOM      2  C3  UNL d   1      -2.783  -2.945  -3.980  0.00  0.00     0.002 A 
ATOM      3  C4  UNL d   1      -3.711  -2.676  -4.988  0.00  0.00     0.002 A 
ATOM      4  C5  UNL d   1      -3.940  -3.612  -5.994  0.00  0.00    -0.004 A 
ATOM      5  C6  UNL d   1      -3.236  -4.816  -5.999  0.00  0.00     0.002 A 
ATOM      6  C7  UNL d   1      -2.307  -5.086  -4.993  0.00  0.00     0.002 A 
ENDROOT
BRANCH   1   7
ATOM      7  C1  UNL d   1      -1.107  -4.466  -2.861  0.00  0.00     0.055 C 
ATOM      8  C   UNL d   1      -0.757  -5.946  -2.831  0.00  0.00     0.019 C 
ENDBRANCH   1   7
TORSDOF 1
ENDMDL
