MODEL 1
REMARK minimizedAffinity -0.530178785
REMARK minimizedRMSD -1
REMARK  1 active torsions:
REMARK  status: ('A' for Active; 'I' for Inactive)
REMARK    1  A    between atoms: C1_2  and  C2_3 
ROOT
ATOM      1  C2  UNL d   1      -3.258  -3.744  -5.020  0.00  0.00    -0.077 A 
ATOM      2  C3  UNL d   1      -3.002  -4.714  -6.000  0.00  0.00     0.002 A 
ATOM      3  C4  UNL d   1      -2.116  -5.761  -5.743  0.00  0.00     0.002 A 
ATOM      4  C5  UNL d   1      -1.482  -5.852  -4.505  0.00  0.00    -0.004 A 
ATOM      5  C6  UNL d   1      -1.728  -4.892  -3.525  0.00  0.00     0.002 A 
ATOM      6  C7  UNL d   1      -2.613  -3.843  -3.780  0.00  0.00     0.002 A 
ENDROOT
BRANCH   1   7
ATOM      7  C1  UNL d   1      -4.251  -2.641  -5.278  0.00  0.00     0.055 C 
ATOM      8  C   UNL d   1      -5.486  -3.165  -5.997  0.00  0.00     0.019 C 
ENDBRANCH   1   7
TORSDOF 1
ENDMDL
