MODEL 1
REMARK minimizedAffinity -3.54288697
REMARK minimizedRMSD -1
REMARK  1 active torsions:
REMARK  status: ('A' for Active; 'I' for Inactive)
REMARK    1  A    between atoms: C1_2  and  C2_3 
ROOT
ATOM      1  C2  UNL d   1      -2.940  -4.351  -5.098  0.00  0.00    -0.077 A 
ATOM      2  C3  UNL d   1      -2.711  -3.046  -4.641  0.00  0.00     0.002 A 
ATOM      3  C4  UNL d   1      -1.601  -2.762  -3.844  0.00  0.00     0.002 A 
ATOM      4  C5  UNL d   1      -0.710  -3.776  -3.500  0.00  0.00    -0.004 A 
ATOM      5  C6  UNL d   1      -0.930  -5.078  -3.947  0.00  0.00     0.002 A 
ATOM      6  C7  UNL d   1      -2.040  -5.364  -4.744  0.00  0.00     0.002 A 
ENDROOT
BRANCH   1   7
ATOM      7  C1  UNL d   1      -4.110  -4.650  -5.999  0.00  0.00     0.055 C 
ATOM      8  C   UNL d   1      -5.116  -3.509  -5.998  0.00  0.00     0.019 C 
ENDBRANCH   1   7
TORSDOF 1
ENDMDL
