MODEL 1
REMARK minimizedAffinity 2.1532495
REMARK minimizedRMSD -1
REMARK  1 active torsions:
REMARK  status: ('A' for Active; 'I' for Inactive)
REMARK    1  A    between atoms: C1_2  and  C2_3 
ROOT
ATOM      1  C2  UNL d   1      -3.416  -3.625  -5.343  0.00  0.00    -0.077 A 
ATOM      2  C3  UNL d   1      -3.545  -4.857  -5.999  0.00  0.00     0.002 A 
ATOM      3  C4  UNL d   1      -2.926  -5.999  -5.486  0.00  0.00     0.002 A 
ATOM      4  C5  UNL d   1      -2.178  -5.920  -4.313  0.00  0.00    -0.004 A 
ATOM      5  C6  UNL d   1      -2.042  -4.699  -3.655  0.00  0.00     0.002 A 
ATOM      6  C7  UNL d   1      -2.659  -3.557  -4.167  0.00  0.00     0.002 A 
ENDROOT
BRANCH   1   7
ATOM      7  C1  UNL d   1      -4.123  -2.403  -5.868  0.00  0.00     0.055 C 
ATOM      8  C   UNL d   1      -5.620  -2.644  -6.000  0.00  0.00     0.019 C 
ENDBRANCH   1   7
TORSDOF 1
ENDMDL
