MODEL 1
REMARK minimizedAffinity 6.7544632
REMARK minimizedRMSD -1
REMARK  1 active torsions:
REMARK  status: ('A' for Active; 'I' for Inactive)
REMARK    1  A    between atoms: C1_2  and  C2_3 
ROOT
ATOM      1  C2  UNL d   1      -2.242  -4.823  -4.375  0.00  0.00    -0.077 A 
ATOM      2  C3  UNL d   1      -3.028  -5.342  -5.414  0.00  0.00     0.002 A 
ATOM      3  C4  UNL d   1      -4.028  -4.564  -6.000  0.00  0.00     0.002 A 
ATOM      4  C5  UNL d   1      -4.250  -3.262  -5.557  0.00  0.00    -0.004 A 
ATOM      5  C6  UNL d   1      -3.476  -2.737  -4.523  0.00  0.00     0.002 A 
ATOM      6  C7  UNL d   1      -2.476  -3.513  -3.935  0.00  0.00     0.002 A 
ENDROOT
BRANCH   1   7
ATOM      7  C1  UNL d   1      -1.130  -5.643  -3.775  0.00  0.00     0.055 C 
ATOM      8  C   UNL d   1       0.067  -4.774  -3.417  0.00  0.00     0.019 C 
ENDBRANCH   1   7
TORSDOF 1
ENDMDL
