MODEL 1
REMARK minimizedAffinity 17.1643696
REMARK minimizedRMSD -1
REMARK  2 active torsions:
REMARK  status: ('A' for Active; 'I' for Inactive)
REMARK    1  A    between atoms: C2'_3  and  C1'_4 
REMARK    2  A    between atoms: C1'_4  and  C1_5 
ROOT
ATOM      1  C1  I4B d   1       2.070   3.590  -0.614  0.00  0.00    -0.075 A 
ATOM      2  C2  I4B d   1       1.497   3.442  -1.852  0.00  0.00     0.003 A 
ATOM      3  C3  I4B d   1       1.876   4.292  -2.919  0.00  0.00     0.002 A 
ATOM      4  C4  I4B d   1       2.788   5.302  -2.693  0.00  0.00    -0.004 A 
ATOM      5  C5  I4B d   1       3.386   5.436  -1.443  0.00  0.00     0.002 A 
ATOM      6  C6  I4B d   1       3.034   4.567  -0.400  0.00  0.00     0.003 A 
ENDROOT
BRANCH   1   7
ATOM      7  C1' I4B d   1       1.623   2.697   0.499  0.00  0.00     0.060 C 
BRANCH   7   8
ATOM      8  C2' I4B d   1       2.856   2.214   1.236  0.00  0.00    -0.013 C 
ATOM      9  C4' I4B d   1       2.935   2.810   2.616  0.00  0.00     0.013 C 
ATOM     10  C3' I4B d   1       2.804   0.717   1.294  0.00  0.00     0.013 C 
ENDBRANCH   7   8
ENDBRANCH   1   7
TORSDOF 2
ENDMDL
