MODEL 1
REMARK minimizedAffinity 17.1592617
REMARK minimizedRMSD -1
REMARK  2 active torsions:
REMARK  status: ('A' for Active; 'I' for Inactive)
REMARK    1  A    between atoms: C2'_3  and  C1'_4 
REMARK    2  A    between atoms: C1'_4  and  C1_5 
ROOT
ATOM      1  C1  I4B d   1      -0.190   1.269   2.474  0.00  0.00    -0.075 A 
ATOM      2  C2  I4B d   1      -1.529   1.449   2.234  0.00  0.00     0.003 A 
ATOM      3  C3  I4B d   1      -1.969   1.946   0.983  0.00  0.00     0.002 A 
ATOM      4  C4  I4B d   1      -1.039   2.295   0.025  0.00  0.00    -0.004 A 
ATOM      5  C5  I4B d   1       0.317   2.090   0.262  0.00  0.00     0.002 A 
ATOM      6  C6  I4B d   1       0.745   1.563   1.489  0.00  0.00     0.003 A 
ENDROOT
BRANCH   1   7
ATOM      7  C1' I4B d   1       0.242   0.774   3.818  0.00  0.00     0.060 C 
BRANCH   7   8
ATOM      8  C2' I4B d   1       0.384  -0.732   3.736  0.00  0.00    -0.013 C 
ATOM      9  C4' I4B d   1       1.819  -1.133   3.514  0.00  0.00     0.013 C 
ATOM     10  C3' I4B d   1      -0.150  -1.317   5.009  0.00  0.00     0.013 C 
ENDBRANCH   7   8
ENDBRANCH   1   7
TORSDOF 2
ENDMDL
