MODEL 1
REMARK minimizedAffinity 19.615263
REMARK minimizedRMSD -1
REMARK  2 active torsions:
REMARK  status: ('A' for Active; 'I' for Inactive)
REMARK    1  A    between atoms: C2'_3  and  C1'_4 
REMARK    2  A    between atoms: C1'_4  and  C1_5 
ROOT
ATOM      1  C1  I4B d   1      -3.398   4.408  -3.378  0.00  0.00    -0.075 A 
ATOM      2  C2  I4B d   1      -4.747   4.529  -3.156  0.00  0.00     0.003 A 
ATOM      3  C3  I4B d   1      -5.658   3.674  -3.821  0.00  0.00     0.002 A 
ATOM      4  C4  I4B d   1      -5.185   2.752  -4.732  0.00  0.00    -0.004 A 
ATOM      5  C5  I4B d   1      -3.815   2.615  -4.939  0.00  0.00     0.002 A 
ATOM      6  C6  I4B d   1      -2.915   3.440  -4.249  0.00  0.00     0.003 A 
ENDROOT
BRANCH   1   7
ATOM      7  C1' I4B d   1      -2.465   5.349  -2.684  0.00  0.00     0.060 C 
BRANCH   7   8
ATOM      8  C2' I4B d   1      -2.082   4.730  -1.355  0.00  0.00    -0.013 C 
ATOM      9  C4' I4B d   1      -0.655   4.247  -1.370  0.00  0.00     0.013 C 
ATOM     10  C3' I4B d   1      -2.293   5.761  -0.287  0.00  0.00     0.013 C 
ENDBRANCH   7   8
ENDBRANCH   1   7
TORSDOF 2
ENDMDL
