MODEL 1
REMARK minimizedAffinity -0.918825507
REMARK minimizedRMSD -1
REMARK  0 active torsions:
REMARK  status: ('A' for Active; 'I' for Inactive)
ROOT
ATOM      1  C   UNL d   1       0.216   0.971  -0.232  0.00  0.00     0.078 C 
ATOM      2  C1  UNL d   1      -0.279  -0.439  -0.105  0.00  0.00    -0.077 A 
ATOM      3  C2  UNL d   1      -0.289  -1.301  -1.208  0.00  0.00    -0.001 A 
ATOM      4  C3  UNL d   1      -0.761  -2.608  -1.077  0.00  0.00     0.003 A 
ATOM      5  C4  UNL d   1      -1.228  -3.064   0.154  0.00  0.00    -0.005 A 
ATOM      6  C5  UNL d   1      -1.223  -2.212   1.257  0.00  0.00     0.003 A 
ATOM      7  C6  UNL d   1      -0.751  -0.905   1.128  0.00  0.00    -0.001 A 
ENDROOT
TORSDOF 0
ENDMDL
