MODEL 1
REMARK minimizedAffinity -2.75116324
REMARK minimizedRMSD -1
REMARK  0 active torsions:
REMARK  status: ('A' for Active; 'I' for Inactive)
ROOT
ATOM      1  C   UNL d   1      -0.184   0.500  -0.116  0.00  0.00     0.078 C 
ATOM      2  C1  UNL d   1       0.791   1.582   0.244  0.00  0.00    -0.077 A 
ATOM      3  C2  UNL d   1       2.147   1.470  -0.087  0.00  0.00    -0.001 A 
ATOM      4  C3  UNL d   1       3.045   2.479   0.263  0.00  0.00     0.003 A 
ATOM      5  C4  UNL d   1       2.596   3.608   0.946  0.00  0.00    -0.005 A 
ATOM      6  C5  UNL d   1       1.249   3.727   1.281  0.00  0.00     0.003 A 
ATOM      7  C6  UNL d   1       0.350   2.719   0.932  0.00  0.00    -0.001 A 
ENDROOT
TORSDOF 0
ENDMDL
