MODEL 1
REMARK minimizedAffinity 1.33842194
REMARK minimizedRMSD -1
REMARK  0 active torsions:
REMARK  status: ('A' for Active; 'I' for Inactive)
ROOT
ATOM      1  C   UNL d   1       0.416  -0.080  -2.454  0.00  0.00     0.078 C 
ATOM      2  C1  UNL d   1       0.011   0.119  -1.024  0.00  0.00    -0.077 A 
ATOM      3  C2  UNL d   1       0.686   1.031  -0.203  0.00  0.00    -0.001 A 
ATOM      4  C3  UNL d   1       0.304   1.200   1.129  0.00  0.00     0.003 A 
ATOM      5  C4  UNL d   1      -0.753   0.458   1.652  0.00  0.00    -0.005 A 
ATOM      6  C5  UNL d   1      -1.429  -0.453   0.844  0.00  0.00     0.003 A 
ATOM      7  C6  UNL d   1      -1.049  -0.623  -0.488  0.00  0.00    -0.001 A 
ENDROOT
TORSDOF 0
ENDMDL
