MODEL 1
REMARK minimizedAffinity 2.25359106
REMARK minimizedRMSD -1
REMARK  0 active torsions:
REMARK  status: ('A' for Active; 'I' for Inactive)
ROOT
ATOM      1  C   UNL d   1       0.054   0.332  -1.628  0.00  0.00     0.078 C 
ATOM      2  C1  UNL d   1      -0.356  -0.423  -0.399  0.00  0.00    -0.077 A 
ATOM      3  C2  UNL d   1      -0.220   0.143   0.875  0.00  0.00    -0.001 A 
ATOM      4  C3  UNL d   1      -0.597  -0.575   2.011  0.00  0.00     0.003 A 
ATOM      5  C4  UNL d   1      -1.112  -1.863   1.885  0.00  0.00    -0.005 A 
ATOM      6  C5  UNL d   1      -1.250  -2.436   0.622  0.00  0.00     0.003 A 
ATOM      7  C6  UNL d   1      -0.873  -1.720  -0.515  0.00  0.00    -0.001 A 
ENDROOT
TORSDOF 0
ENDMDL
