MODEL 1
REMARK minimizedAffinity -0.308004439
REMARK minimizedRMSD -1
REMARK  0 active torsions:
REMARK  status: ('A' for Active; 'I' for Inactive)
ROOT
ATOM      1  C   UNL d   1       0.005   0.550  -0.409  0.00  0.00     0.078 C 
ATOM      2  C1  UNL d   1       0.984   1.579   0.070  0.00  0.00    -0.077 A 
ATOM      3  C2  UNL d   1       0.564   2.674   0.835  0.00  0.00    -0.001 A 
ATOM      4  C3  UNL d   1       1.485   3.630   1.265  0.00  0.00     0.003 A 
ATOM      5  C4  UNL d   1       2.833   3.502   0.934  0.00  0.00    -0.005 A 
ATOM      6  C5  UNL d   1       3.260   2.417   0.171  0.00  0.00     0.003 A 
ATOM      7  C6  UNL d   1       2.340   1.460  -0.260  0.00  0.00    -0.001 A 
ENDROOT
TORSDOF 0
ENDMDL
