MODEL 1
REMARK minimizedAffinity -1.04694355
REMARK minimizedRMSD -1
REMARK  0 active torsions:
REMARK  status: ('A' for Active; 'I' for Inactive)
ROOT
ATOM      1  C   UNL d   1       0.014   0.521  -0.019  0.00  0.00     0.078 C 
ATOM      2  C1  UNL d   1       0.526   1.825   0.517  0.00  0.00    -0.077 A 
ATOM      3  C2  UNL d   1      -0.338   2.906   0.731  0.00  0.00    -0.001 A 
ATOM      4  C3  UNL d   1       0.154   4.116   1.222  0.00  0.00     0.003 A 
ATOM      5  C4  UNL d   1       1.511   4.258   1.502  0.00  0.00    -0.005 A 
ATOM      6  C5  UNL d   1       2.379   3.188   1.290  0.00  0.00     0.003 A 
ATOM      7  C6  UNL d   1       1.889   1.977   0.800  0.00  0.00    -0.001 A 
ENDROOT
TORSDOF 0
ENDMDL
