MODEL 1
REMARK minimizedAffinity 0.660552263
REMARK minimizedRMSD -1
REMARK  0 active torsions:
REMARK  status: ('A' for Active; 'I' for Inactive)
ROOT
ATOM      1  C   UNL d   1      -1.686  -2.137   1.822  0.00  0.00     0.078 C 
ATOM      2  C1  UNL d   1      -1.039  -0.845   1.422  0.00  0.00    -0.077 A 
ATOM      3  C2  UNL d   1      -1.494  -0.125   0.310  0.00  0.00    -0.001 A 
ATOM      4  C3  UNL d   1      -0.876   1.072  -0.057  0.00  0.00     0.003 A 
ATOM      5  C4  UNL d   1       0.201   1.558   0.681  0.00  0.00    -0.005 A 
ATOM      6  C5  UNL d   1       0.663   0.847   1.787  0.00  0.00     0.003 A 
ATOM      7  C6  UNL d   1       0.046  -0.350   2.156  0.00  0.00    -0.001 A 
ENDROOT
TORSDOF 0
ENDMDL
