MODEL 1
REMARK minimizedAffinity -3.04516411
REMARK minimizedRMSD -1
REMARK  0 active torsions:
REMARK  status: ('A' for Active; 'I' for Inactive)
ROOT
ATOM      1  C   UNL d   1      -0.810   0.559   0.316  0.00  0.00     0.078 C 
ATOM      2  C1  UNL d   1       0.532   1.228   0.323  0.00  0.00    -0.077 A 
ATOM      3  C2  UNL d   1       1.613   0.684  -0.380  0.00  0.00    -0.001 A 
ATOM      4  C3  UNL d   1       2.859   1.314  -0.357  0.00  0.00     0.003 A 
ATOM      5  C4  UNL d   1       3.035   2.489   0.370  0.00  0.00    -0.005 A 
ATOM      6  C5  UNL d   1       1.966   3.037   1.075  0.00  0.00     0.003 A 
ATOM      7  C6  UNL d   1       0.719   2.409   1.053  0.00  0.00    -0.001 A 
ENDROOT
TORSDOF 0
ENDMDL
