MODEL 1
REMARK minimizedAffinity -3.88554144
REMARK minimizedRMSD -1
REMARK  0 active torsions:
REMARK  status: ('A' for Active; 'I' for Inactive)
ROOT
ATOM      1  C   UNL d   1       2.018   3.376   1.205  0.00  0.00     0.078 C 
ATOM      2  C1  UNL d   1       1.645   2.193   0.362  0.00  0.00    -0.077 A 
ATOM      3  C2  UNL d   1       0.347   1.669   0.389  0.00  0.00    -0.001 A 
ATOM      4  C3  UNL d   1       0.016   0.562  -0.394  0.00  0.00     0.003 A 
ATOM      5  C4  UNL d   1       0.979  -0.032  -1.208  0.00  0.00    -0.005 A 
ATOM      6  C5  UNL d   1       2.274   0.481  -1.240  0.00  0.00     0.003 A 
ATOM      7  C6  UNL d   1       2.606   1.588  -0.458  0.00  0.00    -0.001 A 
ENDROOT
TORSDOF 0
ENDMDL
