MODEL 1
REMARK minimizedAffinity -0.682185769
REMARK minimizedRMSD -1
REMARK  0 active torsions:
REMARK  status: ('A' for Active; 'I' for Inactive)
ROOT
ATOM      1  C   UNL d   1      -1.129  -2.833   0.833  0.00  0.00     0.078 C 
ATOM      2  C1  UNL d   1      -0.681  -1.437   0.516  0.00  0.00    -0.077 A 
ATOM      3  C2  UNL d   1      -0.990  -0.370   1.367  0.00  0.00    -0.001 A 
ATOM      4  C3  UNL d   1      -0.574   0.926   1.054  0.00  0.00     0.003 A 
ATOM      5  C4  UNL d   1       0.151   1.165  -0.111  0.00  0.00    -0.005 A 
ATOM      6  C5  UNL d   1       0.462   0.110  -0.965  0.00  0.00     0.003 A 
ATOM      7  C6  UNL d   1       0.047  -1.186  -0.654  0.00  0.00    -0.001 A 
ENDROOT
TORSDOF 0
ENDMDL
