MODEL 1
REMARK minimizedAffinity -2.55934048
REMARK minimizedRMSD -1
REMARK  0 active torsions:
REMARK  status: ('A' for Active; 'I' for Inactive)
ROOT
ATOM      1  C   UNL d   1      -0.039  -1.618  -2.145  0.00  0.00     0.078 C 
ATOM      2  C1  UNL d   1      -0.262  -1.009  -0.793  0.00  0.00    -0.077 A 
ATOM      3  C2  UNL d   1      -0.354   0.379  -0.634  0.00  0.00    -0.001 A 
ATOM      4  C3  UNL d   1      -0.552   0.933   0.632  0.00  0.00     0.003 A 
ATOM      5  C4  UNL d   1      -0.660   0.106   1.749  0.00  0.00    -0.005 A 
ATOM      6  C5  UNL d   1      -0.568  -1.276   1.600  0.00  0.00     0.003 A 
ATOM      7  C6  UNL d   1      -0.370  -1.832   0.335  0.00  0.00    -0.001 A 
ENDROOT
TORSDOF 0
ENDMDL
