MODEL 1
REMARK minimizedAffinity -5.40939236
REMARK minimizedRMSD -1
REMARK  0 active torsions:
REMARK  status: ('A' for Active; 'I' for Inactive)
ROOT
ATOM      1  C   UNL d   1      -0.099   1.162   0.349  0.00  0.00     0.078 C 
ATOM      2  C1  UNL d   1      -0.088  -0.328   0.183  0.00  0.00    -0.077 A 
ATOM      3  C2  UNL d   1       0.040  -0.912  -1.083  0.00  0.00    -0.001 A 
ATOM      4  C3  UNL d   1       0.039  -2.301  -1.223  0.00  0.00     0.003 A 
ATOM      5  C4  UNL d   1      -0.092  -3.117  -0.102  0.00  0.00    -0.005 A 
ATOM      6  C5  UNL d   1      -0.222  -2.545   1.162  0.00  0.00     0.003 A 
ATOM      7  C6  UNL d   1      -0.221  -1.157   1.304  0.00  0.00    -0.001 A 
ENDROOT
TORSDOF 0
ENDMDL
