MODEL 1
REMARK minimizedAffinity -5.08744097
REMARK minimizedRMSD -1
REMARK  0 active torsions:
REMARK  status: ('A' for Active; 'I' for Inactive)
ROOT
ATOM      1  C   UNL d   1       0.284   1.189  -0.369  0.00  0.00     0.078 C 
ATOM      2  C1  UNL d   1       0.028  -0.263  -0.642  0.00  0.00    -0.077 A 
ATOM      3  C2  UNL d   1       0.259  -0.811  -1.910  0.00  0.00    -0.001 A 
ATOM      4  C3  UNL d   1       0.007  -2.162  -2.153  0.00  0.00     0.003 A 
ATOM      5  C4  UNL d   1      -0.478  -2.977  -1.132  0.00  0.00    -0.005 A 
ATOM      6  C5  UNL d   1      -0.713  -2.441   0.132  0.00  0.00     0.003 A 
ATOM      7  C6  UNL d   1      -0.461  -1.090   0.377  0.00  0.00    -0.001 A 
ENDROOT
TORSDOF 0
ENDMDL
