MODEL 1
REMARK minimizedAffinity -2.12570167
REMARK minimizedRMSD -1
REMARK  0 active torsions:
REMARK  status: ('A' for Active; 'I' for Inactive)
ROOT
ATOM      1  C   UNL d   1       0.327  -0.052  -2.770  0.00  0.00     0.078 C 
ATOM      2  C1  UNL d   1      -0.110  -0.053  -1.336  0.00  0.00    -0.077 A 
ATOM      3  C2  UNL d   1       0.255   0.985  -0.470  0.00  0.00    -0.001 A 
ATOM      4  C3  UNL d   1      -0.152   0.966   0.866  0.00  0.00     0.003 A 
ATOM      5  C4  UNL d   1      -0.924  -0.089   1.347  0.00  0.00    -0.005 A 
ATOM      6  C5  UNL d   1      -1.290  -1.128   0.493  0.00  0.00     0.003 A 
ATOM      7  C6  UNL d   1      -0.885  -1.110  -0.843  0.00  0.00    -0.001 A 
ENDROOT
TORSDOF 0
ENDMDL
