MODEL 1
REMARK minimizedAffinity -3.91104603
REMARK minimizedRMSD -1
REMARK  0 active torsions:
REMARK  status: ('A' for Active; 'I' for Inactive)
ROOT
ATOM      1  C   UNL d   1      -1.069  -2.853   0.282  0.00  0.00     0.078 C 
ATOM      2  C1  UNL d   1      -0.611  -1.548  -0.298  0.00  0.00    -0.077 A 
ATOM      3  C2  UNL d   1      -0.164  -1.465  -1.623  0.00  0.00    -0.001 A 
ATOM      4  C3  UNL d   1       0.269  -0.245  -2.146  0.00  0.00     0.003 A 
ATOM      5  C4  UNL d   1       0.261   0.899  -1.351  0.00  0.00    -0.005 A 
ATOM      6  C5  UNL d   1      -0.180   0.826  -0.032  0.00  0.00     0.003 A 
ATOM      7  C6  UNL d   1      -0.613  -0.393   0.494  0.00  0.00    -0.001 A 
ENDROOT
TORSDOF 0
ENDMDL
