MODEL 1
REMARK minimizedAffinity -3.44142342
REMARK minimizedRMSD -1
REMARK  0 active torsions:
REMARK  status: ('A' for Active; 'I' for Inactive)
ROOT
ATOM      1  C   UNL d   1       0.105   1.482  -0.034  0.00  0.00     0.078 C 
ATOM      2  C1  UNL d   1      -0.334   0.060   0.151  0.00  0.00    -0.077 A 
ATOM      3  C2  UNL d   1      -0.572  -0.462   1.429  0.00  0.00    -0.001 A 
ATOM      4  C3  UNL d   1      -0.970  -1.790   1.586  0.00  0.00     0.003 A 
ATOM      5  C4  UNL d   1      -1.135  -2.608   0.470  0.00  0.00    -0.005 A 
ATOM      6  C5  UNL d   1      -0.899  -2.099  -0.805  0.00  0.00     0.003 A 
ATOM      7  C6  UNL d   1      -0.500  -0.771  -0.965  0.00  0.00    -0.001 A 
ENDROOT
TORSDOF 0
ENDMDL
