MODEL 1
REMARK minimizedAffinity 2.47802138
REMARK minimizedRMSD -1
REMARK  1 active torsions:
REMARK  status: ('A' for Active; 'I' for Inactive)
REMARK    1  A    between atoms: N_2  and  C1_3 
ROOT
ATOM      1  C1  UNL d   1      -3.421   5.260  -5.421  0.00  0.00     0.143 A 
ATOM      2  C2  UNL d   1      -3.685   4.579  -4.228  0.00  0.00    -0.057 A 
ATOM      3  C3  UNL d   1      -4.964   4.579  -3.659  0.00  0.00     0.033 A 
ATOM      4  C4  UNL d   1      -5.999   5.288  -4.260  0.00  0.00    -0.042 A 
ATOM      5  C5  UNL d   1      -5.754   5.993  -5.433  0.00  0.00     0.033 A 
ATOM      6  C6  UNL d   1      -4.476   5.983  -6.000  0.00  0.00    -0.057 A 
ENDROOT
BRANCH   1   7
ATOM      7  N   UNL d   1      -2.148   5.379  -5.984  0.00  0.00    -0.732 N 
ATOM      8  C   UNL d   1      -0.964   5.154  -5.183  0.00  0.00     0.284 C 
ATOM      9  H3  UNL d   1      -2.099   4.983  -6.920  0.00  0.00     0.395 HD
ENDBRANCH   1   7
TORSDOF 1
ENDMDL
