MODEL 1
REMARK minimizedAffinity 11.4385281
REMARK minimizedRMSD -1
REMARK  1 active torsions:
REMARK  status: ('A' for Active; 'I' for Inactive)
REMARK    1  A    between atoms: N_2  and  C1_3 
ROOT
ATOM      1  C1  UNL d   1       4.088   2.062   0.604  0.00  0.00     0.143 A 
ATOM      2  C2  UNL d   1       5.042   2.762  -0.142  0.00  0.00    -0.057 A 
ATOM      3  C3  UNL d   1       5.999   3.572   0.481  0.00  0.00     0.033 A 
ATOM      4  C4  UNL d   1       5.999   3.721   1.864  0.00  0.00    -0.042 A 
ATOM      5  C5  UNL d   1       5.044   3.055   2.624  0.00  0.00     0.033 A 
ATOM      6  C6  UNL d   1       4.096   2.241   1.996  0.00  0.00    -0.057 A 
ENDROOT
BRANCH   1   7
ATOM      7  N   UNL d   1       3.050   1.319   0.037  0.00  0.00    -0.732 N 
ATOM      8  C   UNL d   1       2.666   1.522  -1.343  0.00  0.00     0.284 C 
ATOM      9  H3  UNL d   1       3.069   0.343   0.324  0.00  0.00     0.395 HD
ENDBRANCH   1   7
TORSDOF 1
ENDMDL
