MODEL 1
REMARK minimizedAffinity 5.19482613
REMARK minimizedRMSD -1
REMARK  1 active torsions:
REMARK  status: ('A' for Active; 'I' for Inactive)
REMARK    1  A    between atoms: N_2  and  C1_3 
ROOT
ATOM      1  C1  UNL d   1      -1.383   4.889  -3.776  0.00  0.00     0.143 A 
ATOM      2  C2  UNL d   1      -0.306   4.789  -2.888  0.00  0.00    -0.057 A 
ATOM      3  C3  UNL d   1      -0.504   4.793  -1.502  0.00  0.00     0.033 A 
ATOM      4  C4  UNL d   1      -1.786   4.926  -0.978  0.00  0.00    -0.042 A 
ATOM      5  C5  UNL d   1      -2.868   5.052  -1.841  0.00  0.00     0.033 A 
ATOM      6  C6  UNL d   1      -2.664   5.041  -3.224  0.00  0.00    -0.057 A 
ENDROOT
BRANCH   1   7
ATOM      7  N   UNL d   1      -1.241   4.990  -5.162  0.00  0.00    -0.732 N 
ATOM      8  C   UNL d   1      -2.366   5.364  -5.992  0.00  0.00     0.284 C 
ATOM      9  H3  UNL d   1      -0.362   5.425  -5.432  0.00  0.00     0.395 HD
ENDBRANCH   1   7
TORSDOF 1
ENDMDL
