MODEL 1
REMARK minimizedAffinity 12.2047195
REMARK minimizedRMSD -1
REMARK  1 active torsions:
REMARK  status: ('A' for Active; 'I' for Inactive)
REMARK    1  A    between atoms: N_2  and  C1_3 
ROOT
ATOM      1  C1  UNL d   1      -2.280  -0.308   3.512  0.00  0.00     0.143 A 
ATOM      2  C2  UNL d   1      -1.255  -0.767   2.678  0.00  0.00    -0.057 A 
ATOM      3  C3  UNL d   1      -1.470  -1.812   1.771  0.00  0.00     0.033 A 
ATOM      4  C4  UNL d   1      -2.710  -2.437   1.702  0.00  0.00    -0.042 A 
ATOM      5  C5  UNL d   1      -3.737  -2.014   2.539  0.00  0.00     0.033 A 
ATOM      6  C6  UNL d   1      -3.518  -0.966   3.438  0.00  0.00    -0.057 A 
ENDROOT
BRANCH   1   7
ATOM      7  N   UNL d   1      -2.102   0.660   4.503  0.00  0.00    -0.732 N 
ATOM      8  C   UNL d   1      -1.574   0.297   5.801  0.00  0.00     0.284 C 
ATOM      9  H3  UNL d   1      -1.732   1.532   4.133  0.00  0.00     0.395 HD
ENDBRANCH   1   7
TORSDOF 1
ENDMDL
