MODEL 1
REMARK minimizedAffinity 16.162365
REMARK minimizedRMSD -1
REMARK  1 active torsions:
REMARK  status: ('A' for Active; 'I' for Inactive)
REMARK    1  A    between atoms: N_2  and  C1_3 
ROOT
ATOM      1  C1  UNL d   1       4.767   3.542   0.058  0.00  0.00     0.143 A 
ATOM      2  C2  UNL d   1       4.150   2.480  -0.611  0.00  0.00    -0.057 A 
ATOM      3  C3  UNL d   1       2.996   1.873  -0.101  0.00  0.00     0.033 A 
ATOM      4  C4  UNL d   1       2.454   2.300   1.107  0.00  0.00    -0.042 A 
ATOM      5  C5  UNL d   1       3.066   3.337   1.802  0.00  0.00     0.033 A 
ATOM      6  C6  UNL d   1       4.214   3.944   1.284  0.00  0.00    -0.057 A 
ENDROOT
BRANCH   1   7
ATOM      7  N   UNL d   1       5.972   4.121  -0.348  0.00  0.00    -0.732 N 
ATOM      8  C   UNL d   1       6.000   5.083  -1.429  0.00  0.00     0.284 C 
ATOM      9  H3  UNL d   1       6.571   4.362   0.438  0.00  0.00     0.395 HD
ENDBRANCH   1   7
TORSDOF 1
ENDMDL
