MODEL 1
REMARK minimizedAffinity 12.4466381
REMARK minimizedRMSD -1
REMARK  1 active torsions:
REMARK  status: ('A' for Active; 'I' for Inactive)
REMARK    1  A    between atoms: N_2  and  C1_3 
ROOT
ATOM      1  C1  UNL d   1       3.246   3.113  -3.614  0.00  0.00     0.143 A 
ATOM      2  C2  UNL d   1       1.892   3.459  -3.562  0.00  0.00    -0.057 A 
ATOM      3  C3  UNL d   1       1.037   2.905  -2.601  0.00  0.00     0.033 A 
ATOM      4  C4  UNL d   1       1.518   1.970  -1.690  0.00  0.00    -0.042 A 
ATOM      5  C5  UNL d   1       2.855   1.593  -1.739  0.00  0.00     0.033 A 
ATOM      6  C6  UNL d   1       3.705   2.155  -2.697  0.00  0.00    -0.057 A 
ENDROOT
BRANCH   1   7
ATOM      7  N   UNL d   1       4.124   3.554  -4.607  0.00  0.00    -0.732 N 
ATOM      8  C   UNL d   1       3.730   3.538  -5.999  0.00  0.00     0.284 C 
ATOM      9  H3  UNL d   1       4.637   4.388  -4.330  0.00  0.00     0.395 HD
ENDBRANCH   1   7
TORSDOF 1
ENDMDL
