MODEL 1
REMARK minimizedAffinity 12.8197603
REMARK minimizedRMSD -1
REMARK  1 active torsions:
REMARK  status: ('A' for Active; 'I' for Inactive)
REMARK    1  A    between atoms: N_2  and  C1_3 
ROOT
ATOM      1  C1  UNL d   1      -0.847  -4.223  -2.832  0.00  0.00     0.143 A 
ATOM      2  C2  UNL d   1       0.165  -4.243  -3.799  0.00  0.00    -0.057 A 
ATOM      3  C3  UNL d   1       0.099  -5.104  -4.901  0.00  0.00     0.033 A 
ATOM      4  C4  UNL d   1      -0.968  -5.984  -5.041  0.00  0.00    -0.042 A 
ATOM      5  C5  UNL d   1      -1.973  -6.000  -4.079  0.00  0.00     0.033 A 
ATOM      6  C6  UNL d   1      -1.905  -5.133  -2.984  0.00  0.00    -0.057 A 
ENDROOT
BRANCH   1   7
ATOM      7  N   UNL d   1      -0.791  -3.461  -1.663  0.00  0.00    -0.732 N 
ATOM      8  C   UNL d   1      -0.634  -4.099  -0.374  0.00  0.00     0.284 C 
ATOM      9  H3  UNL d   1      -0.238  -2.614  -1.778  0.00  0.00     0.395 HD
ENDBRANCH   1   7
TORSDOF 1
ENDMDL
