MODEL 1
REMARK minimizedAffinity 10.5073881
REMARK minimizedRMSD -1
REMARK  1 active torsions:
REMARK  status: ('A' for Active; 'I' for Inactive)
REMARK    1  A    between atoms: N_2  and  C1_3 
ROOT
ATOM      1  C1  UNL d   1       4.871   4.189  -3.821  0.00  0.00     0.143 A 
ATOM      2  C2  UNL d   1       5.778   5.254  -3.802  0.00  0.00    -0.057 A 
ATOM      3  C3  UNL d   1       6.000   5.999  -2.637  0.00  0.00     0.033 A 
ATOM      4  C4  UNL d   1       5.295   5.708  -1.474  0.00  0.00    -0.042 A 
ATOM      5  C5  UNL d   1       4.370   4.669  -1.476  0.00  0.00     0.033 A 
ATOM      6  C6  UNL d   1       4.158   3.925  -2.641  0.00  0.00    -0.057 A 
ENDROOT
BRANCH   1   7
ATOM      7  N   UNL d   1       4.535   3.474  -4.973  0.00  0.00    -0.732 N 
ATOM      8  C   UNL d   1       3.711   4.076  -5.999  0.00  0.00     0.284 C 
ATOM      9  H3  UNL d   1       5.314   2.927  -5.332  0.00  0.00     0.395 HD
ENDBRANCH   1   7
TORSDOF 1
ENDMDL
