MODEL 1
REMARK minimizedAffinity 10.2744656
REMARK minimizedRMSD -1
REMARK  1 active torsions:
REMARK  status: ('A' for Active; 'I' for Inactive)
REMARK    1  A    between atoms: N_2  and  C1_3 
ROOT
ATOM      1  C1  UNL d   1       4.997   3.794   0.138  0.00  0.00     0.143 A 
ATOM      2  C2  UNL d   1       4.448   4.254   1.340  0.00  0.00    -0.057 A 
ATOM      3  C3  UNL d   1       3.376   3.590   1.949  0.00  0.00     0.033 A 
ATOM      4  C4  UNL d   1       2.815   2.467   1.350  0.00  0.00    -0.042 A 
ATOM      5  C5  UNL d   1       3.328   2.007   0.143  0.00  0.00     0.033 A 
ATOM      6  C6  UNL d   1       4.403   2.670  -0.457  0.00  0.00    -0.057 A 
ENDROOT
BRANCH   1   7
ATOM      7  N   UNL d   1       5.998   4.467  -0.567  0.00  0.00    -0.732 N 
ATOM      8  C   UNL d   1       5.660   5.508  -1.514  0.00  0.00     0.284 C 
ATOM      9  H3  UNL d   1       6.807   4.679   0.013  0.00  0.00     0.395 HD
ENDBRANCH   1   7
TORSDOF 1
ENDMDL
