MODEL 1
REMARK minimizedAffinity 7.95082235
REMARK minimizedRMSD -1
REMARK  1 active torsions:
REMARK  status: ('A' for Active; 'I' for Inactive)
REMARK    1  A    between atoms: N_2  and  C1_3 
ROOT
ATOM      1  C1  UNL d   1      -5.821   0.167  -3.510  0.00  0.00     0.143 A 
ATOM      2  C2  UNL d   1      -6.000   1.533  -3.262  0.00  0.00    -0.057 A 
ATOM      3  C3  UNL d   1      -5.907   2.054  -1.966  0.00  0.00     0.033 A 
ATOM      4  C4  UNL d   1      -5.661   1.211  -0.887  0.00  0.00    -0.042 A 
ATOM      5  C5  UNL d   1      -5.505  -0.153  -1.106  0.00  0.00     0.033 A 
ATOM      6  C6  UNL d   1      -5.593  -0.666  -2.404  0.00  0.00    -0.057 A 
ENDROOT
BRANCH   1   7
ATOM      7  N   UNL d   1      -5.999  -0.426  -4.762  0.00  0.00    -0.732 N 
ATOM      8  C   UNL d   1      -6.000   0.378  -5.965  0.00  0.00     0.284 C 
ATOM      9  H3  UNL d   1      -5.496  -1.306  -4.850  0.00  0.00     0.395 HD
ENDBRANCH   1   7
TORSDOF 1
ENDMDL
