MODEL 1
REMARK minimizedAffinity 9.31103992
REMARK minimizedRMSD -1
REMARK  1 active torsions:
REMARK  status: ('A' for Active; 'I' for Inactive)
REMARK    1  A    between atoms: N_2  and  C1_3 
ROOT
ATOM      1  C1  UNL d   1      -5.997  -1.616  -5.065  0.00  0.00     0.143 A 
ATOM      2  C2  UNL d   1      -5.999  -1.593  -3.666  0.00  0.00    -0.057 A 
ATOM      3  C3  UNL d   1      -5.965  -0.385  -2.959  0.00  0.00     0.033 A 
ATOM      4  C4  UNL d   1      -5.900   0.825  -3.642  0.00  0.00    -0.042 A 
ATOM      5  C5  UNL d   1      -5.871   0.825  -5.032  0.00  0.00     0.033 A 
ATOM      6  C6  UNL d   1      -5.912  -0.385  -5.732  0.00  0.00    -0.057 A 
ENDROOT
BRANCH   1   7
ATOM      7  N   UNL d   1      -5.930  -2.788  -5.823  0.00  0.00    -0.732 N 
ATOM      8  C   UNL d   1      -5.999  -4.085  -5.184  0.00  0.00     0.284 C 
ATOM      9  H3  UNL d   1      -6.461  -2.721  -6.688  0.00  0.00     0.395 HD
ENDBRANCH   1   7
TORSDOF 1
ENDMDL
