MODEL 1
REMARK minimizedAffinity -0.679216504
REMARK minimizedRMSD -1
REMARK  0 active torsions:
REMARK  status: ('A' for Active; 'I' for Inactive)
ROOT
ATOM      1  C1  DEN d   1       1.559   0.495  -2.537  0.00  0.00     0.130 A 
ATOM      2  C2  DEN d   1       0.856   1.774  -2.484  0.00  0.00    -0.031 A 
ATOM      3  C3  DEN d   1      -0.008   1.771  -1.287  0.00  0.00     0.027 A 
ATOM      4  C4  DEN d   1      -0.320  -0.078   0.484  0.00  0.00     0.027 A 
ATOM      5  C5  DEN d   1       0.056  -1.349   0.858  0.00  0.00    -0.003 A 
ATOM      6  C6  DEN d   1       0.926  -2.102   0.114  0.00  0.00     0.001 A 
ATOM      7  C7  DEN d   1       1.485  -1.572  -1.019  0.00  0.00     0.017 A 
ATOM      8  C8  DEN d   1       1.105  -0.293  -1.406  0.00  0.00    -0.094 A 
ATOM      9  C9  DEN d   1       0.233   0.456  -0.634  0.00  0.00    -0.072 A 
ENDROOT
TORSDOF 0
ENDMDL
