MODEL 1
REMARK minimizedAffinity -1.75494432
REMARK minimizedRMSD -1
REMARK  0 active torsions:
REMARK  status: ('A' for Active; 'I' for Inactive)
ROOT
ATOM      1  C1  DEN d   1       0.427   0.827   0.672  0.00  0.00     0.130 A 
ATOM      2  C2  DEN d   1       0.015  -0.094  -0.384  0.00  0.00    -0.031 A 
ATOM      3  C3  DEN d   1      -1.265  -0.708   0.021  0.00  0.00     0.027 A 
ATOM      4  C4  DEN d   1      -2.644  -0.322   2.167  0.00  0.00     0.027 A 
ATOM      5  C5  DEN d   1      -2.691   0.359   3.363  0.00  0.00    -0.003 A 
ATOM      6  C6  DEN d   1      -1.695   1.212   3.758  0.00  0.00     0.001 A 
ATOM      7  C7  DEN d   1      -0.628   1.440   2.929  0.00  0.00     0.017 A 
ATOM      8  C8  DEN d   1      -0.569   0.751   1.725  0.00  0.00    -0.094 A 
ATOM      9  C9  DEN d   1      -1.593  -0.098   1.338  0.00  0.00    -0.072 A 
ENDROOT
TORSDOF 0
ENDMDL
