MODEL 1
REMARK minimizedAffinity 0.0806926042
REMARK minimizedRMSD -1
REMARK  0 active torsions:
REMARK  status: ('A' for Active; 'I' for Inactive)
ROOT
ATOM      1  C1  DEN d   1       1.056   0.253  -2.099  0.00  0.00     0.130 A 
ATOM      2  C2  DEN d   1       1.927  -0.905  -2.281  0.00  0.00    -0.031 A 
ATOM      3  C3  DEN d   1       1.584  -1.901  -1.247  0.00  0.00     0.027 A 
ATOM      4  C4  DEN d   1      -0.205  -1.765   0.607  0.00  0.00     0.027 A 
ATOM      5  C5  DEN d   1      -1.182  -0.974   1.168  0.00  0.00    -0.003 A 
ATOM      6  C6  DEN d   1      -1.457   0.285   0.704  0.00  0.00     0.001 A 
ATOM      7  C7  DEN d   1      -0.777   0.773  -0.380  0.00  0.00     0.017 A 
ATOM      8  C8  DEN d   1       0.216  -0.016  -0.946  0.00  0.00    -0.094 A 
ATOM      9  C9  DEN d   1       0.470  -1.291  -0.471  0.00  0.00    -0.072 A 
ENDROOT
TORSDOF 0
ENDMDL
