MODEL 1
REMARK minimizedAffinity -3.08850503
REMARK minimizedRMSD -1
REMARK  0 active torsions:
REMARK  status: ('A' for Active; 'I' for Inactive)
ROOT
ATOM      1  C1  DEN d   1       1.022  -2.359   0.356  0.00  0.00     0.130 A 
ATOM      2  C2  DEN d   1       2.228  -2.251  -0.461  0.00  0.00    -0.031 A 
ATOM      3  C3  DEN d   1       2.174  -0.966  -1.186  0.00  0.00     0.027 A 
ATOM      4  C4  DEN d   1       0.353   0.860  -1.120  0.00  0.00     0.027 A 
ATOM      5  C5  DEN d   1      -0.865   1.212  -0.581  0.00  0.00    -0.003 A 
ATOM      6  C6  DEN d   1      -1.550   0.390   0.274  0.00  0.00     0.001 A 
ATOM      7  C7  DEN d   1      -1.000  -0.807   0.652  0.00  0.00     0.017 A 
ATOM      8  C8  DEN d   1       0.225  -1.171   0.107  0.00  0.00    -0.094 A 
ATOM      9  C9  DEN d   1       0.907  -0.321  -0.747  0.00  0.00    -0.072 A 
ENDROOT
TORSDOF 0
ENDMDL
