MODEL 1
REMARK minimizedAffinity -4.71047211
REMARK minimizedRMSD -1
REMARK  0 active torsions:
REMARK  status: ('A' for Active; 'I' for Inactive)
ROOT
ATOM      1  C1  DEN d   1       1.814   0.958  -2.554  0.00  0.00     0.130 A 
ATOM      2  C2  DEN d   1       2.729  -0.180  -2.537  0.00  0.00    -0.031 A 
ATOM      3  C3  DEN d   1       2.276  -1.114  -1.486  0.00  0.00     0.027 A 
ATOM      4  C4  DEN d   1       0.255  -0.911   0.104  0.00  0.00     0.027 A 
ATOM      5  C5  DEN d   1      -0.807  -0.115   0.474  0.00  0.00    -0.003 A 
ATOM      6  C6  DEN d   1      -1.048   1.099  -0.112  0.00  0.00     0.001 A 
ATOM      7  C7  DEN d   1      -0.242   1.533  -1.131  0.00  0.00     0.017 A 
ATOM      8  C8  DEN d   1       0.836   0.741  -1.504  0.00  0.00    -0.094 A 
ATOM      9  C9  DEN d   1       1.055  -0.490  -0.908  0.00  0.00    -0.072 A 
ENDROOT
TORSDOF 0
ENDMDL
