MODEL 1
REMARK minimizedAffinity -2.85474896
REMARK minimizedRMSD -1
REMARK  0 active torsions:
REMARK  status: ('A' for Active; 'I' for Inactive)
ROOT
ATOM      1  C1  DEN d   1       1.444  -1.611  -1.435  0.00  0.00     0.130 A 
ATOM      2  C2  DEN d   1       0.828  -2.240  -0.269  0.00  0.00    -0.031 A 
ATOM      3  C3  DEN d   1      -0.125  -1.277   0.319  0.00  0.00     0.027 A 
ATOM      4  C4  DEN d   1      -0.709   1.111  -0.461  0.00  0.00     0.027 A 
ATOM      5  C5  DEN d   1      -0.435   2.085  -1.397  0.00  0.00    -0.003 A 
ATOM      6  C6  DEN d   1       0.500   1.909  -2.381  0.00  0.00     0.001 A 
ATOM      7  C7  DEN d   1       1.165   0.715  -2.481  0.00  0.00     0.017 A 
ATOM      8  C8  DEN d   1       0.900  -0.268  -1.538  0.00  0.00    -0.094 A 
ATOM      9  C9  DEN d   1      -0.058  -0.076  -0.557  0.00  0.00    -0.072 A 
ENDROOT
TORSDOF 0
ENDMDL
