MODEL 1
REMARK minimizedAffinity -3.68433642
REMARK minimizedRMSD -1
REMARK  0 active torsions:
REMARK  status: ('A' for Active; 'I' for Inactive)
ROOT
ATOM      1  C1  DEN d   1       0.075   1.089  -0.755  0.00  0.00     0.130 A 
ATOM      2  C2  DEN d   1      -1.115   0.997   0.085  0.00  0.00    -0.031 A 
ATOM      3  C3  DEN d   1      -1.199  -0.382   0.609  0.00  0.00     0.027 A 
ATOM      4  C4  DEN d   1       0.394  -2.370   0.206  0.00  0.00     0.027 A 
ATOM      5  C5  DEN d   1       1.536  -2.779  -0.445  0.00  0.00    -0.003 A 
ATOM      6  C6  DEN d   1       2.247  -1.944  -1.266  0.00  0.00     0.001 A 
ATOM      7  C7  DEN d   1       1.848  -0.643  -1.421  0.00  0.00     0.017 A 
ATOM      8  C8  DEN d   1       0.693  -0.225  -0.773  0.00  0.00    -0.094 A 
ATOM      9  C9  DEN d   1      -0.005  -1.081   0.062  0.00  0.00    -0.072 A 
ENDROOT
TORSDOF 0
ENDMDL
