MODEL 1
REMARK minimizedAffinity 11.3917093
REMARK minimizedRMSD -1
REMARK  0 active torsions:
REMARK  status: ('A' for Active; 'I' for Inactive)
ROOT
ATOM      1  C1  DEN d   1      -2.384   0.325   2.271  0.00  0.00     0.130 A 
ATOM      2  C2  DEN d   1      -1.622   1.045   3.288  0.00  0.00    -0.031 A 
ATOM      3  C3  DEN d   1      -1.894   0.413   4.594  0.00  0.00     0.027 A 
ATOM      4  C4  DEN d   1      -3.409  -1.602   5.138  0.00  0.00     0.027 A 
ATOM      5  C5  DEN d   1      -4.270  -2.535   4.605  0.00  0.00    -0.003 A 
ATOM      6  C6  DEN d   1      -4.586  -2.559   3.272  0.00  0.00     0.001 A 
ATOM      7  C7  DEN d   1      -4.002  -1.660   2.420  0.00  0.00     0.017 A 
ATOM      8  C8  DEN d   1      -3.139  -0.711   2.952  0.00  0.00    -0.094 A 
ATOM      9  C9  DEN d   1      -2.822  -0.711   4.299  0.00  0.00    -0.072 A 
ENDROOT
TORSDOF 0
ENDMDL
