MODEL 1
REMARK minimizedAffinity -4.2379961
REMARK minimizedRMSD -1
REMARK  0 active torsions:
REMARK  status: ('A' for Active; 'I' for Inactive)
ROOT
ATOM      1  C1  DEN d   1      -2.840   1.346   2.380  0.00  0.00     0.130 A 
ATOM      2  C2  DEN d   1      -2.435   1.242   3.779  0.00  0.00    -0.031 A 
ATOM      3  C3  DEN d   1      -1.068   0.685   3.818  0.00  0.00     0.027 A 
ATOM      4  C4  DEN d   1       0.453  -0.020   1.858  0.00  0.00     0.027 A 
ATOM      5  C5  DEN d   1       0.541  -0.129   0.488  0.00  0.00    -0.003 A 
ATOM      6  C6  DEN d   1      -0.497   0.211  -0.339  0.00  0.00     0.001 A 
ATOM      7  C7  DEN d   1      -1.651   0.720   0.194  0.00  0.00     0.017 A 
ATOM      8  C8  DEN d   1      -1.750   0.825   1.575  0.00  0.00    -0.094 A 
ATOM      9  C9  DEN d   1      -0.685   0.488   2.394  0.00  0.00    -0.072 A 
ENDROOT
TORSDOF 0
ENDMDL
