MODEL 1
REMARK minimizedAffinity -5.66271687
REMARK minimizedRMSD -1
REMARK  0 active torsions:
REMARK  status: ('A' for Active; 'I' for Inactive)
ROOT
ATOM      1  C1  DEN d   1      -0.557   1.025  -0.327  0.00  0.00     0.130 A 
ATOM      2  C2  DEN d   1      -0.861  -0.230   0.355  0.00  0.00    -0.031 A 
ATOM      3  C3  DEN d   1       0.301  -1.127   0.200  0.00  0.00     0.027 A 
ATOM      4  C4  DEN d   1       2.533  -0.696  -1.019  0.00  0.00     0.027 A 
ATOM      5  C5  DEN d   1       3.250   0.219  -1.758  0.00  0.00    -0.003 A 
ATOM      6  C6  DEN d   1       2.739   1.444  -2.099  0.00  0.00     0.001 A 
ATOM      7  C7  DEN d   1       1.492   1.804  -1.661  0.00  0.00     0.017 A 
ATOM      8  C8  DEN d   1       0.761   0.885  -0.921  0.00  0.00    -0.094 A 
ATOM      9  C9  DEN d   1       1.299  -0.343  -0.576  0.00  0.00    -0.072 A 
ENDROOT
TORSDOF 0
ENDMDL
