MODEL 1
REMARK minimizedAffinity -3.54305506
REMARK minimizedRMSD -1
REMARK  0 active torsions:
REMARK  status: ('A' for Active; 'I' for Inactive)
ROOT
ATOM      1  C1  DEN d   1       1.101   1.646  -1.669  0.00  0.00     0.130 A 
ATOM      2  C2  DEN d   1       2.463   1.546  -2.187  0.00  0.00    -0.031 A 
ATOM      3  C3  DEN d   1       2.988   0.212  -1.834  0.00  0.00     0.027 A 
ATOM      4  C4  DEN d   1       1.830  -1.701  -0.548  0.00  0.00     0.027 A 
ATOM      5  C5  DEN d   1       0.675  -2.079   0.101  0.00  0.00    -0.003 A 
ATOM      6  C6  DEN d   1      -0.397  -1.237   0.234  0.00  0.00     0.001 A 
ATOM      7  C7  DEN d   1      -0.353   0.012  -0.329  0.00  0.00     0.017 A 
ATOM      8  C8  DEN d   1       0.810   0.403  -0.978  0.00  0.00    -0.094 A 
ATOM      9  C9  DEN d   1       1.879  -0.468  -1.113  0.00  0.00    -0.072 A 
ENDROOT
TORSDOF 0
ENDMDL
