MODEL 1
REMARK minimizedAffinity -1.5812217
REMARK minimizedRMSD -1
REMARK  0 active torsions:
REMARK  status: ('A' for Active; 'I' for Inactive)
ROOT
ATOM      1  C1  DEN d   1      -0.757   1.969  -1.048  0.00  0.00     0.130 A 
ATOM      2  C2  DEN d   1      -0.217   2.821  -2.104  0.00  0.00    -0.031 A 
ATOM      3  C3  DEN d   1       0.816   2.052  -2.827  0.00  0.00     0.027 A 
ATOM      4  C4  DEN d   1       1.623  -0.363  -2.420  0.00  0.00     0.027 A 
ATOM      5  C5  DEN d   1       1.468  -1.480  -1.629  0.00  0.00    -0.003 A 
ATOM      6  C6  DEN d   1       0.593  -1.514  -0.576  0.00  0.00     0.001 A 
ATOM      7  C7  DEN d   1      -0.195  -0.424  -0.314  0.00  0.00     0.017 A 
ATOM      8  C8  DEN d   1      -0.040   0.708  -1.102  0.00  0.00    -0.094 A 
ATOM      9  C9  DEN d   1       0.842   0.718  -2.170  0.00  0.00    -0.072 A 
ENDROOT
TORSDOF 0
ENDMDL
