MODEL 1
REMARK minimizedAffinity -3.82779074
REMARK minimizedRMSD -1
REMARK  0 active torsions:
REMARK  status: ('A' for Active; 'I' for Inactive)
ROOT
ATOM      1  C1  DEN d   1       0.875   1.590  -1.391  0.00  0.00     0.130 A 
ATOM      2  C2  DEN d   1       0.691   0.574  -0.358  0.00  0.00    -0.031 A 
ATOM      3  C3  DEN d   1       1.596  -0.552  -0.660  0.00  0.00     0.027 A 
ATOM      4  C4  DEN d   1       3.260  -0.819  -2.612  0.00  0.00     0.027 A 
ATOM      5  C5  DEN d   1       3.762  -0.225  -3.749  0.00  0.00    -0.003 A 
ATOM      6  C6  DEN d   1       3.315   0.991  -4.195  0.00  0.00     0.001 A 
ATOM      7  C7  DEN d   1       2.370   1.673  -3.475  0.00  0.00     0.017 A 
ATOM      8  C8  DEN d   1       1.855   1.076  -2.331  0.00  0.00    -0.094 A 
ATOM      9  C9  DEN d   1       2.328  -0.148  -1.890  0.00  0.00    -0.072 A 
ENDROOT
TORSDOF 0
ENDMDL
