MODEL 1
REMARK minimizedAffinity -4.11037922
REMARK minimizedRMSD -1
REMARK  3 active torsions:
REMARK  status: ('A' for Active; 'I' for Inactive)
REMARK    1  A    between atoms: C3'_2  and  C2'_3 
REMARK    2  A    between atoms: C2'_3  and  C1'_4 
REMARK    3  A    between atoms: C1'_4  and  C1_5 
ROOT
ATOM      1  C1  N4B d   1       0.151  -0.005  -0.010  0.00  0.00    -0.075 A 
ATOM      2  C2  N4B d   1       1.555  -0.139  -0.088  0.00  0.00     0.002 A 
ATOM      3  C3  N4B d   1       2.169  -1.250   0.436  0.00  0.00     0.002 A 
ATOM      4  C4  N4B d   1       1.405  -2.227   1.057  0.00  0.00    -0.004 A 
ATOM      5  C5  N4B d   1       0.047  -2.102   1.105  0.00  0.00     0.002 A 
ATOM      6  C6  N4B d   1      -0.584  -0.992   0.579  0.00  0.00     0.002 A 
ENDROOT
BRANCH   1   7
ATOM      7  C1' N4B d   1      -0.556   1.232  -0.492  0.00  0.00     0.057 C 
BRANCH   7   8
ATOM      8  C2' N4B d   1      -1.716   0.825  -1.397  0.00  0.00     0.009 C 
BRANCH   8   9
ATOM      9  C3' N4B d   1      -1.894   1.787  -2.559  0.00  0.00     0.004 C 
ATOM     10  C4' N4B d   1      -0.989   2.980  -2.470  0.00  0.00     0.003 C 
ENDBRANCH   8   9
ENDBRANCH   7   8
ENDBRANCH   1   7
TORSDOF 3
ENDMDL
