MODEL 1
REMARK minimizedAffinity -2.28315663
REMARK minimizedRMSD -1
REMARK  3 active torsions:
REMARK  status: ('A' for Active; 'I' for Inactive)
REMARK    1  A    between atoms: C3'_2  and  C2'_3 
REMARK    2  A    between atoms: C2'_3  and  C1'_4 
REMARK    3  A    between atoms: C1'_4  and  C1_5 
ROOT
ATOM      1  C1  N4B d   1      -0.267   0.255  -0.249  0.00  0.00    -0.075 A 
ATOM      2  C2  N4B d   1      -1.146  -0.065   0.809  0.00  0.00     0.002 A 
ATOM      3  C3  N4B d   1      -0.775  -0.991   1.753  0.00  0.00     0.002 A 
ATOM      4  C4  N4B d   1       0.456  -1.621   1.650  0.00  0.00    -0.004 A 
ATOM      5  C5  N4B d   1       1.310  -1.288   0.638  0.00  0.00     0.002 A 
ATOM      6  C6  N4B d   1       0.952  -0.356  -0.315  0.00  0.00     0.002 A 
ENDROOT
BRANCH   1   7
ATOM      7  C1' N4B d   1      -0.663   1.197  -1.353  0.00  0.00     0.057 C 
BRANCH   7   8
ATOM      8  C2' N4B d   1      -2.045   0.809  -1.871  0.00  0.00     0.009 C 
BRANCH   8   9
ATOM      9  C3' N4B d   1      -2.339   1.428  -3.226  0.00  0.00     0.004 C 
ATOM     10  C4' N4B d   1      -1.094   1.757  -3.996  0.00  0.00     0.003 C 
ENDBRANCH   8   9
ENDBRANCH   7   8
ENDBRANCH   1   7
TORSDOF 3
ENDMDL
