MODEL 1
REMARK minimizedAffinity -1.34059286
REMARK minimizedRMSD -1
REMARK  3 active torsions:
REMARK  status: ('A' for Active; 'I' for Inactive)
REMARK    1  A    between atoms: C3'_2  and  C2'_3 
REMARK    2  A    between atoms: C2'_3  and  C1'_4 
REMARK    3  A    between atoms: C1'_4  and  C1_5 
ROOT
ATOM      1  C1  N4B d   1       0.036  -0.026   0.000  0.00  0.00    -0.075 A 
ATOM      2  C2  N4B d   1      -0.806  -1.075   0.432  0.00  0.00     0.002 A 
ATOM      3  C3  N4B d   1      -0.265  -2.284   0.793  0.00  0.00     0.002 A 
ATOM      4  C4  N4B d   1       1.106  -2.474   0.712  0.00  0.00    -0.004 A 
ATOM      5  C5  N4B d   1       1.914  -1.448   0.318  0.00  0.00     0.002 A 
ATOM      6  C6  N4B d   1       1.385  -0.225  -0.044  0.00  0.00     0.002 A 
ENDROOT
BRANCH   1   7
ATOM      7  C1' N4B d   1      -0.517   1.286  -0.486  0.00  0.00     0.057 C 
BRANCH   7   8
ATOM      8  C2' N4B d   1      -0.267   1.410  -1.986  0.00  0.00     0.009 C 
BRANCH   8   9
ATOM      9  C3' N4B d   1      -1.403   2.129  -2.694  0.00  0.00     0.004 C 
ATOM     10  C4' N4B d   1      -2.112   1.258  -3.687  0.00  0.00     0.003 C 
ENDBRANCH   8   9
ENDBRANCH   7   8
ENDBRANCH   1   7
TORSDOF 3
ENDMDL
