MODEL 1
REMARK minimizedAffinity -4.09564114
REMARK minimizedRMSD -1
REMARK  3 active torsions:
REMARK  status: ('A' for Active; 'I' for Inactive)
REMARK    1  A    between atoms: C3'_2  and  C2'_3 
REMARK    2  A    between atoms: C2'_3  and  C1'_4 
REMARK    3  A    between atoms: C1'_4  and  C1_5 
ROOT
ATOM      1  C1  N4B d   1      -0.212  -0.445   0.389  0.00  0.00    -0.075 A 
ATOM      2  C2  N4B d   1       1.176  -0.309   0.165  0.00  0.00     0.002 A 
ATOM      3  C3  N4B d   1       2.000  -1.401   0.287  0.00  0.00     0.002 A 
ATOM      4  C4  N4B d   1       1.465  -2.628   0.649  0.00  0.00    -0.004 A 
ATOM      5  C5  N4B d   1       0.120  -2.755   0.839  0.00  0.00     0.002 A 
ATOM      6  C6  N4B d   1      -0.721  -1.668   0.716  0.00  0.00     0.002 A 
ENDROOT
BRANCH   1   7
ATOM      7  C1' N4B d   1      -1.141   0.738   0.351  0.00  0.00     0.057 C 
BRANCH   7   8
ATOM      8  C2' N4B d   1      -0.711   1.677  -0.771  0.00  0.00     0.009 C 
BRANCH   8   9
ATOM      9  C3' N4B d   1      -1.579   1.519  -2.008  0.00  0.00     0.004 C 
ATOM     10  C4' N4B d   1      -2.871   0.812  -1.725  0.00  0.00     0.003 C 
ENDBRANCH   8   9
ENDBRANCH   7   8
ENDBRANCH   1   7
TORSDOF 3
ENDMDL
