MODEL 1
REMARK minimizedAffinity -5.43139267
REMARK minimizedRMSD -1
REMARK  3 active torsions:
REMARK  status: ('A' for Active; 'I' for Inactive)
REMARK    1  A    between atoms: C3'_2  and  C2'_3 
REMARK    2  A    between atoms: C2'_3  and  C1'_4 
REMARK    3  A    between atoms: C1'_4  and  C1_5 
ROOT
ATOM      1  C1  N4B d   1       0.232  -0.765   0.306  0.00  0.00    -0.075 A 
ATOM      2  C2  N4B d   1       1.172  -1.813   0.198  0.00  0.00     0.002 A 
ATOM      3  C3  N4B d   1       1.254  -2.767   1.183  0.00  0.00     0.002 A 
ATOM      4  C4  N4B d   1       0.423  -2.682   2.290  0.00  0.00    -0.004 A 
ATOM      5  C5  N4B d   1      -0.500  -1.681   2.375  0.00  0.00     0.002 A 
ATOM      6  C6  N4B d   1      -0.596  -0.718   1.390  0.00  0.00     0.002 A 
ENDROOT
BRANCH   1   7
ATOM      7  C1' N4B d   1       0.165   0.348  -0.703  0.00  0.00     0.057 C 
BRANCH   7   8
ATOM      8  C2' N4B d   1      -0.518   1.557  -0.071  0.00  0.00     0.009 C 
BRANCH   8   9
ATOM      9  C3' N4B d   1      -1.155   2.460  -1.113  0.00  0.00     0.004 C 
ATOM     10  C4' N4B d   1      -2.046   1.715  -2.061  0.00  0.00     0.003 C 
ENDBRANCH   8   9
ENDBRANCH   7   8
ENDBRANCH   1   7
TORSDOF 3
ENDMDL
