MODEL 1
REMARK minimizedAffinity -4.60901117
REMARK minimizedRMSD -1
REMARK  3 active torsions:
REMARK  status: ('A' for Active; 'I' for Inactive)
REMARK    1  A    between atoms: C3'_2  and  C2'_3 
REMARK    2  A    between atoms: C2'_3  and  C1'_4 
REMARK    3  A    between atoms: C1'_4  and  C1_5 
ROOT
ATOM      1  C1  N4B d   1       0.373  -0.189  -0.104  0.00  0.00    -0.075 A 
ATOM      2  C2  N4B d   1      -0.482  -1.294   0.106  0.00  0.00     0.002 A 
ATOM      3  C3  N4B d   1       0.017  -2.456   0.642  0.00  0.00     0.002 A 
ATOM      4  C4  N4B d   1       1.364  -2.542   0.958  0.00  0.00    -0.004 A 
ATOM      5  C5  N4B d   1       2.178  -1.462   0.776  0.00  0.00     0.002 A 
ATOM      6  C6  N4B d   1       1.689  -0.287   0.241  0.00  0.00     0.002 A 
ENDROOT
BRANCH   1   7
ATOM      7  C1' N4B d   1      -0.109   1.072  -0.767  0.00  0.00     0.057 C 
BRANCH   7   8
ATOM      8  C2' N4B d   1      -1.477   0.819  -1.393  0.00  0.00     0.009 C 
BRANCH   8   9
ATOM      9  C3' N4B d   1      -1.859   1.906  -2.382  0.00  0.00     0.004 C 
ATOM     10  C4' N4B d   1      -1.454   1.580  -3.789  0.00  0.00     0.003 C 
ENDBRANCH   8   9
ENDBRANCH   7   8
ENDBRANCH   1   7
TORSDOF 3
ENDMDL
