MODEL 1
REMARK minimizedAffinity -4.26781511
REMARK minimizedRMSD -1
REMARK  3 active torsions:
REMARK  status: ('A' for Active; 'I' for Inactive)
REMARK    1  A    between atoms: C3'_2  and  C2'_3 
REMARK    2  A    between atoms: C2'_3  and  C1'_4 
REMARK    3  A    between atoms: C1'_4  and  C1_5 
ROOT
ATOM      1  C1  N4B d   1       0.281  -0.688   0.195  0.00  0.00    -0.075 A 
ATOM      2  C2  N4B d   1       1.368  -1.562   0.411  0.00  0.00     0.002 A 
ATOM      3  C3  N4B d   1       1.301  -2.509   1.403  0.00  0.00     0.002 A 
ATOM      4  C4  N4B d   1       0.169  -2.588   2.200  0.00  0.00    -0.004 A 
ATOM      5  C5  N4B d   1      -0.887  -1.757   1.968  0.00  0.00     0.002 A 
ATOM      6  C6  N4B d   1      -0.835  -0.803   0.972  0.00  0.00     0.002 A 
ENDROOT
BRANCH   1   7
ATOM      7  C1' N4B d   1       0.342   0.420  -0.821  0.00  0.00     0.057 C 
BRANCH   7   8
ATOM      8  C2' N4B d   1      -0.922   1.268  -0.714  0.00  0.00     0.009 C 
BRANCH   8   9
ATOM      9  C3' N4B d   1      -1.374   1.788  -2.068  0.00  0.00     0.004 C 
ATOM     10  C4' N4B d   1      -2.760   1.343  -2.427  0.00  0.00     0.003 C 
ENDBRANCH   8   9
ENDBRANCH   7   8
ENDBRANCH   1   7
TORSDOF 3
ENDMDL
