MODEL 1
REMARK minimizedAffinity 4.45872831
REMARK minimizedRMSD -1
REMARK  1 active torsions:
REMARK  status: ('A' for Active; 'I' for Inactive)
REMARK    1  A    between atoms: C3_4  and  O_7 
ROOT
ATOM      1  C   UNL d   1      -0.622  -1.691  -0.196  0.00  0.00    -0.033 A 
ATOM      2  C1  UNL d   1      -1.144  -0.711  -1.043  0.00  0.00     0.039 A 
ATOM      3  C2  UNL d   1      -0.489   0.514  -1.183  0.00  0.00    -0.080 A 
ATOM      4  C3  UNL d   1       0.686   0.746  -0.473  0.00  0.00     0.150 A 
ATOM      5  C4  UNL d   1       1.213  -0.227   0.370  0.00  0.00    -0.007 A 
ATOM      6  C5  UNL d   1       0.557  -1.449   0.509  0.00  0.00     0.039 A 
ENDROOT
BRANCH   4   7
ATOM      7  O   UNL d   1       1.358   1.928  -0.573  0.00  0.00    -0.526 OA
ATOM      8  H5  UNL d   1       0.862   2.514  -1.168  0.00  0.00     0.418 HD
ENDBRANCH   4   7
TORSDOF 1
ENDMDL
