MODEL 1
REMARK minimizedAffinity 1.66516805
REMARK minimizedRMSD -1
REMARK  1 active torsions:
REMARK  status: ('A' for Active; 'I' for Inactive)
REMARK    1  A    between atoms: C3_4  and  O_7 
ROOT
ATOM      1  C   UNL d   1       5.993  -1.185  -5.853  0.00  0.00    -0.033 A 
ATOM      2  C1  UNL d   1       5.997   0.210  -5.920  0.00  0.00     0.039 A 
ATOM      3  C2  UNL d   1       6.000   0.967  -4.747  0.00  0.00    -0.080 A 
ATOM      4  C3  UNL d   1       6.000   0.319  -3.516  0.00  0.00     0.150 A 
ATOM      5  C4  UNL d   1       6.000  -1.070  -3.441  0.00  0.00    -0.007 A 
ATOM      6  C5  UNL d   1       5.996  -1.825  -4.614  0.00  0.00     0.039 A 
ENDROOT
BRANCH   4   7
ATOM      7  O   UNL d   1       5.998   1.015  -2.344  0.00  0.00    -0.526 OA
ATOM      8  H5  UNL d   1       5.969   1.964  -2.550  0.00  0.00     0.418 HD
ENDBRANCH   4   7
TORSDOF 1
ENDMDL
