MODEL 1
REMARK minimizedAffinity -2.01789737
REMARK minimizedRMSD -1
REMARK  1 active torsions:
REMARK  status: ('A' for Active; 'I' for Inactive)
REMARK    1  A    between atoms: C3_4  and  O_7 
ROOT
ATOM      1  C   UNL d   1       0.972   1.039  -2.643  0.00  0.00    -0.033 A 
ATOM      2  C1  UNL d   1       1.461   1.648  -1.486  0.00  0.00     0.039 A 
ATOM      3  C2  UNL d   1       2.316   2.748  -1.581  0.00  0.00    -0.080 A 
ATOM      4  C3  UNL d   1       2.673   3.228  -2.838  0.00  0.00     0.150 A 
ATOM      5  C4  UNL d   1       2.186   2.628  -3.995  0.00  0.00    -0.007 A 
ATOM      6  C5  UNL d   1       1.333   1.530  -3.898  0.00  0.00     0.039 A 
ENDROOT
BRANCH   4   7
ATOM      7  O   UNL d   1       3.508   4.296  -2.982  0.00  0.00    -0.526 OA
ATOM      8  H5  UNL d   1       3.788   4.589  -2.099  0.00  0.00     0.418 HD
ENDBRANCH   4   7
TORSDOF 1
ENDMDL
