MODEL 1
REMARK minimizedAffinity 3.12737536
REMARK minimizedRMSD -1
REMARK  1 active torsions:
REMARK  status: ('A' for Active; 'I' for Inactive)
REMARK    1  A    between atoms: C3_4  and  O_7 
ROOT
ATOM      1  C   UNL d   1       0.112  -2.341   0.367  0.00  0.00    -0.033 A 
ATOM      2  C1  UNL d   1      -0.754  -3.366   0.753  0.00  0.00     0.039 A 
ATOM      3  C2  UNL d   1      -0.244  -4.605   1.144  0.00  0.00    -0.080 A 
ATOM      4  C3  UNL d   1       1.134  -4.806   1.146  0.00  0.00     0.150 A 
ATOM      5  C4  UNL d   1       2.004  -3.789   0.767  0.00  0.00    -0.007 A 
ATOM      6  C5  UNL d   1       1.492  -2.552   0.376  0.00  0.00     0.039 A 
ENDROOT
BRANCH   4   7
ATOM      7  O   UNL d   1       1.679  -6.000   1.515  0.00  0.00    -0.526 OA
ATOM      8  H5  UNL d   1       0.957  -6.616   1.723  0.00  0.00     0.418 HD
ENDBRANCH   4   7
TORSDOF 1
ENDMDL
