MODEL 1
REMARK minimizedAffinity -2.43061447
REMARK minimizedRMSD -1
REMARK  1 active torsions:
REMARK  status: ('A' for Active; 'I' for Inactive)
REMARK    1  A    between atoms: C3_4  and  O_7 
ROOT
ATOM      1  C   UNL d   1       5.965  -1.043  -5.839  0.00  0.00    -0.033 A 
ATOM      2  C1  UNL d   1       6.000  -1.600  -4.559  0.00  0.00     0.039 A 
ATOM      3  C2  UNL d   1       5.999  -0.771  -3.435  0.00  0.00    -0.080 A 
ATOM      4  C3  UNL d   1       5.961   0.610  -3.604  0.00  0.00     0.150 A 
ATOM      5  C4  UNL d   1       5.922   1.171  -4.877  0.00  0.00    -0.007 A 
ATOM      6  C5  UNL d   1       5.925   0.342  -5.998  0.00  0.00     0.039 A 
ENDROOT
BRANCH   4   7
ATOM      7  O   UNL d   1       5.963   1.459  -2.538  0.00  0.00    -0.526 OA
ATOM      8  H5  UNL d   1       6.021   0.931  -1.724  0.00  0.00     0.418 HD
ENDBRANCH   4   7
TORSDOF 1
ENDMDL
