MODEL 1
REMARK minimizedAffinity 6.40951824
REMARK minimizedRMSD -1
REMARK  1 active torsions:
REMARK  status: ('A' for Active; 'I' for Inactive)
REMARK    1  A    between atoms: C3_4  and  O_7 
ROOT
ATOM      1  C   UNL d   1      -4.557   5.991   3.433  0.00  0.00    -0.033 A 
ATOM      2  C1  UNL d   1      -5.123   6.000   4.709  0.00  0.00     0.039 A 
ATOM      3  C2  UNL d   1      -4.888   4.939   5.587  0.00  0.00    -0.080 A 
ATOM      4  C3  UNL d   1      -4.086   3.878   5.176  0.00  0.00     0.150 A 
ATOM      5  C4  UNL d   1      -3.516   3.864   3.908  0.00  0.00    -0.007 A 
ATOM      6  C5  UNL d   1      -3.753   4.924   3.033  0.00  0.00     0.039 A 
ENDROOT
BRANCH   4   7
ATOM      7  O   UNL d   1      -3.832   2.819   5.996  0.00  0.00    -0.526 OA
ATOM      8  H5  UNL d   1      -4.315   2.951   6.829  0.00  0.00     0.418 HD
ENDBRANCH   4   7
TORSDOF 1
ENDMDL
