MODEL 1
REMARK minimizedAffinity 5.28138161
REMARK minimizedRMSD -1
REMARK  1 active torsions:
REMARK  status: ('A' for Active; 'I' for Inactive)
REMARK    1  A    between atoms: C3_4  and  O_7 
ROOT
ATOM      1  C   UNL d   1      -4.856   6.000   5.698  0.00  0.00    -0.033 A 
ATOM      2  C1  UNL d   1      -3.975   5.993   4.615  0.00  0.00     0.039 A 
ATOM      3  C2  UNL d   1      -4.094   5.019   3.622  0.00  0.00    -0.080 A 
ATOM      4  C3  UNL d   1      -5.097   4.059   3.724  0.00  0.00     0.150 A 
ATOM      5  C4  UNL d   1      -5.980   4.062   4.799  0.00  0.00    -0.007 A 
ATOM      6  C5  UNL d   1      -5.859   5.035   5.790  0.00  0.00     0.039 A 
ENDROOT
BRANCH   4   7
ATOM      7  O   UNL d   1      -5.250   3.085   2.782  0.00  0.00    -0.526 OA
ATOM      8  H5  UNL d   1      -4.552   3.190   2.115  0.00  0.00     0.418 HD
ENDBRANCH   4   7
TORSDOF 1
ENDMDL
