MODEL 1
REMARK minimizedAffinity 0.198159456
REMARK minimizedRMSD -1
REMARK  1 active torsions:
REMARK  status: ('A' for Active; 'I' for Inactive)
REMARK    1  A    between atoms: C3_4  and  O_7 
ROOT
ATOM      1  C   UNL d   1       0.876   1.278  -0.557  0.00  0.00    -0.033 A 
ATOM      2  C1  UNL d   1       1.034  -0.037  -0.113  0.00  0.00     0.039 A 
ATOM      3  C2  UNL d   1       1.180  -1.075  -1.035  0.00  0.00    -0.080 A 
ATOM      4  C3  UNL d   1       1.168  -0.785  -2.397  0.00  0.00     0.150 A 
ATOM      5  C4  UNL d   1       1.015   0.522  -2.846  0.00  0.00    -0.007 A 
ATOM      6  C5  UNL d   1       0.869   1.557  -1.924  0.00  0.00     0.039 A 
ENDROOT
BRANCH   4   7
ATOM      7  O   UNL d   1       1.302  -1.766  -3.335  0.00  0.00    -0.526 OA
ATOM      8  H5  UNL d   1       1.369  -2.621  -2.878  0.00  0.00     0.418 HD
ENDBRANCH   4   7
TORSDOF 1
ENDMDL
