MODEL 1
REMARK minimizedAffinity -3.90898275
REMARK minimizedRMSD -1
REMARK  1 active torsions:
REMARK  status: ('A' for Active; 'I' for Inactive)
REMARK    1  A    between atoms: C3_4  and  O_7 
ROOT
ATOM      1  C   UNL d   1       1.300  -1.264  -0.970  0.00  0.00    -0.033 A 
ATOM      2  C1  UNL d   1       1.515  -1.257  -2.350  0.00  0.00     0.039 A 
ATOM      3  C2  UNL d   1       1.369  -0.072  -3.075  0.00  0.00    -0.080 A 
ATOM      4  C3  UNL d   1       1.011   1.097  -2.409  0.00  0.00     0.150 A 
ATOM      5  C4  UNL d   1       0.799   1.097  -1.034  0.00  0.00    -0.007 A 
ATOM      6  C5  UNL d   1       0.944  -0.087  -0.312  0.00  0.00     0.039 A 
ENDROOT
BRANCH   4   7
ATOM      7  O   UNL d   1       0.852   2.276  -3.074  0.00  0.00    -0.526 OA
ATOM      8  H5  UNL d   1       1.003   2.118  -4.021  0.00  0.00     0.418 HD
ENDBRANCH   4   7
TORSDOF 1
ENDMDL
