MODEL 1
REMARK minimizedAffinity 0.79467994
REMARK minimizedRMSD -1
REMARK  1 active torsions:
REMARK  status: ('A' for Active; 'I' for Inactive)
REMARK    1  A    between atoms: C3_4  and  O_7 
ROOT
ATOM      1  C   UNL d   1       1.062  -1.097  -1.427  0.00  0.00    -0.033 A 
ATOM      2  C1  UNL d   1       0.558  -0.001  -0.723  0.00  0.00     0.039 A 
ATOM      3  C2  UNL d   1       0.536   1.262  -1.317  0.00  0.00    -0.080 A 
ATOM      4  C3  UNL d   1       1.019   1.416  -2.614  0.00  0.00     0.150 A 
ATOM      5  C4  UNL d   1       1.518   0.328  -3.323  0.00  0.00    -0.007 A 
ATOM      6  C5  UNL d   1       1.540  -0.933  -2.727  0.00  0.00     0.039 A 
ENDROOT
BRANCH   4   7
ATOM      7  O   UNL d   1       1.022   2.630  -3.234  0.00  0.00    -0.526 OA
ATOM      8  H5  UNL d   1       0.675   3.293  -2.614  0.00  0.00     0.418 HD
ENDBRANCH   4   7
TORSDOF 1
ENDMDL
