MODEL 1
REMARK minimizedAffinity 1.83601284
REMARK minimizedRMSD -1
REMARK  1 active torsions:
REMARK  status: ('A' for Active; 'I' for Inactive)
REMARK    1  A    between atoms: C3_4  and  O_7 
ROOT
ATOM      1  C   UNL d   1       5.999   0.745  -4.894  0.00  0.00    -0.033 A 
ATOM      2  C1  UNL d   1       5.376   0.181  -3.779  0.00  0.00     0.039 A 
ATOM      3  C2  UNL d   1       3.991   0.003  -3.768  0.00  0.00    -0.080 A 
ATOM      4  C3  UNL d   1       3.243   0.392  -4.875  0.00  0.00     0.150 A 
ATOM      5  C4  UNL d   1       3.858   0.951  -5.990  0.00  0.00    -0.007 A 
ATOM      6  C5  UNL d   1       5.241   1.129  -6.000  0.00  0.00     0.039 A 
ENDROOT
BRANCH   4   7
ATOM      7  O   UNL d   1       1.888   0.243  -4.908  0.00  0.00    -0.526 OA
ATOM      8  H5  UNL d   1       1.599  -0.130  -4.058  0.00  0.00     0.418 HD
ENDBRANCH   4   7
TORSDOF 1
ENDMDL
