MODEL 1
REMARK minimizedAffinity -3.6787951
REMARK minimizedRMSD -1
REMARK  1 active torsions:
REMARK  status: ('A' for Active; 'I' for Inactive)
REMARK    1  A    between atoms: C3_4  and  O_7 
ROOT
ATOM      1  C   UNL d   1       1.499  -0.476  -2.000  0.00  0.00    -0.033 A 
ATOM      2  C1  UNL d   1       1.484   0.544  -2.952  0.00  0.00     0.039 A 
ATOM      3  C2  UNL d   1       1.326   0.236  -4.305  0.00  0.00    -0.080 A 
ATOM      4  C3  UNL d   1       1.183  -1.094  -4.691  0.00  0.00     0.150 A 
ATOM      5  C4  UNL d   1       1.193  -2.115  -3.747  0.00  0.00    -0.007 A 
ATOM      6  C5  UNL d   1       1.352  -1.806  -2.397  0.00  0.00     0.039 A 
ENDROOT
BRANCH   4   7
ATOM      7  O   UNL d   1       1.031  -1.443  -6.000  0.00  0.00    -0.526 OA
ATOM      8  H5  UNL d   1       1.072  -0.637  -6.541  0.00  0.00     0.418 HD
ENDBRANCH   4   7
TORSDOF 1
ENDMDL
