MODEL 1
REMARK minimizedAffinity 3.42696166
REMARK minimizedRMSD -1
REMARK  1 active torsions:
REMARK  status: ('A' for Active; 'I' for Inactive)
REMARK    1  A    between atoms: C3_4  and  O_7 
ROOT
ATOM      1  C   UNL d   1      -5.570  -2.552   3.731  0.00  0.00    -0.033 A 
ATOM      2  C1  UNL d   1      -4.425  -2.828   4.479  0.00  0.00     0.039 A 
ATOM      3  C2  UNL d   1      -3.702  -1.786   5.063  0.00  0.00    -0.080 A 
ATOM      4  C3  UNL d   1      -4.135  -0.474   4.892  0.00  0.00     0.150 A 
ATOM      5  C4  UNL d   1      -5.278  -0.192   4.150  0.00  0.00    -0.007 A 
ATOM      6  C5  UNL d   1      -5.998  -1.234   3.568  0.00  0.00     0.039 A 
ENDROOT
BRANCH   4   7
ATOM      7  O   UNL d   1      -3.460   0.576   5.438  0.00  0.00    -0.526 OA
ATOM      8  H5  UNL d   1      -2.676   0.233   5.898  0.00  0.00     0.418 HD
ENDBRANCH   4   7
TORSDOF 1
ENDMDL
