MODEL 1
REMARK minimizedAffinity 5.27827072
REMARK minimizedRMSD -1
REMARK  1 active torsions:
REMARK  status: ('A' for Active; 'I' for Inactive)
REMARK    1  A    between atoms: C3_4  and  O_7 
ROOT
ATOM      1  C   UNL d   1       1.873   3.435  -5.118  0.00  0.00    -0.033 A 
ATOM      2  C1  UNL d   1       1.853   2.090  -4.744  0.00  0.00     0.039 A 
ATOM      3  C2  UNL d   1       2.958   1.276  -5.000  0.00  0.00    -0.080 A 
ATOM      4  C3  UNL d   1       4.075   1.818  -5.628  0.00  0.00     0.150 A 
ATOM      5  C4  UNL d   1       4.104   3.158  -6.000  0.00  0.00    -0.007 A 
ATOM      6  C5  UNL d   1       2.999   3.969  -5.744  0.00  0.00     0.039 A 
ENDROOT
BRANCH   4   7
ATOM      7  O   UNL d   1       5.176   1.062  -5.903  0.00  0.00    -0.526 OA
ATOM      8  H5  UNL d   1       5.002   0.150  -5.616  0.00  0.00     0.418 HD
ENDBRANCH   4   7
TORSDOF 1
ENDMDL
