MODEL 1
REMARK minimizedAffinity -3.83229351
REMARK minimizedRMSD -1
REMARK  1 active torsions:
REMARK  status: ('A' for Active; 'I' for Inactive)
REMARK    1  A    between atoms: N_2  and  C1_3 
ROOT
ATOM      1  C1  UNL d   1       0.252  -0.084   0.183  0.00  0.00     0.143 A 
ATOM      2  C2  UNL d   1       0.660   0.052   1.514  0.00  0.00    -0.057 A 
ATOM      3  C3  UNL d   1       0.131   1.053   2.337  0.00  0.00     0.033 A 
ATOM      4  C4  UNL d   1      -0.798   1.957   1.834  0.00  0.00    -0.042 A 
ATOM      5  C5  UNL d   1      -1.200   1.857   0.506  0.00  0.00     0.033 A 
ATOM      6  C6  UNL d   1      -0.673   0.851  -0.309  0.00  0.00    -0.057 A 
ENDROOT
BRANCH   1   7
ATOM      7  N   UNL d   1       0.814  -0.995  -0.714  0.00  0.00    -0.732 N 
ATOM      8  C   UNL d   1       0.149  -2.247  -1.006  0.00  0.00     0.284 C 
ATOM      9  H3  UNL d   1       1.219  -0.540  -1.529  0.00  0.00     0.395 HD
ENDBRANCH   1   7
TORSDOF 1
ENDMDL
