MODEL 1
REMARK minimizedAffinity -3.26716018
REMARK minimizedRMSD -1
REMARK  1 active torsions:
REMARK  status: ('A' for Active; 'I' for Inactive)
REMARK    1  A    between atoms: N_2  and  C1_3 
ROOT
ATOM      1  C1  UNL d   1       0.292  -0.579  -0.713  0.00  0.00     0.143 A 
ATOM      2  C2  UNL d   1       0.172   0.225  -1.852  0.00  0.00    -0.057 A 
ATOM      3  C3  UNL d   1      -0.457   1.474  -1.797  0.00  0.00     0.033 A 
ATOM      4  C4  UNL d   1      -1.006   1.931  -0.603  0.00  0.00    -0.042 A 
ATOM      5  C5  UNL d   1      -0.920   1.138   0.537  0.00  0.00     0.033 A 
ATOM      6  C6  UNL d   1      -0.284  -0.105   0.476  0.00  0.00    -0.057 A 
ENDROOT
BRANCH   1   7
ATOM      7  N   UNL d   1       0.819  -1.872  -0.725  0.00  0.00    -0.732 N 
ATOM      8  C   UNL d   1       0.012  -2.993  -1.157  0.00  0.00     0.284 C 
ATOM      9  H3  UNL d   1       1.779  -1.897  -1.062  0.00  0.00     0.395 HD
ENDBRANCH   1   7
TORSDOF 1
ENDMDL
