MODEL 1
REMARK minimizedAffinity -4.2396059
REMARK minimizedRMSD -1
REMARK  1 active torsions:
REMARK  status: ('A' for Active; 'I' for Inactive)
REMARK    1  A    between atoms: N_2  and  C1_3 
ROOT
ATOM      1  C1  UNL d   1      -0.353   0.206  -0.098  0.00  0.00     0.143 A 
ATOM      2  C2  UNL d   1      -0.102   0.294   1.275  0.00  0.00    -0.057 A 
ATOM      3  C3  UNL d   1      -0.527   1.400   2.021  0.00  0.00     0.033 A 
ATOM      4  C4  UNL d   1      -1.187   2.454   1.399  0.00  0.00    -0.042 A 
ATOM      5  C5  UNL d   1      -1.425   2.399   0.030  0.00  0.00     0.033 A 
ATOM      6  C6  UNL d   1      -1.004   1.289  -0.708  0.00  0.00    -0.057 A 
ENDROOT
BRANCH   1   7
ATOM      7  N   UNL d   1       0.131  -0.822  -0.913  0.00  0.00    -0.732 N 
ATOM      8  C   UNL d   1      -0.385  -2.168  -0.785  0.00  0.00     0.284 C 
ATOM      9  H3  UNL d   1       0.274  -0.520  -1.874  0.00  0.00     0.395 HD
ENDBRANCH   1   7
TORSDOF 1
ENDMDL
