MODEL 1
REMARK minimizedAffinity -4.67812443
REMARK minimizedRMSD -1
REMARK  1 active torsions:
REMARK  status: ('A' for Active; 'I' for Inactive)
REMARK    1  A    between atoms: N_2  and  C1_3 
ROOT
ATOM      1  C1  UNL d   1      -0.480   1.130  -0.489  0.00  0.00     0.143 A 
ATOM      2  C2  UNL d   1      -0.565   1.120   0.907  0.00  0.00    -0.057 A 
ATOM      3  C3  UNL d   1      -1.120   2.197   1.608  0.00  0.00     0.033 A 
ATOM      4  C4  UNL d   1      -1.575   3.320   0.924  0.00  0.00    -0.042 A 
ATOM      5  C5  UNL d   1      -1.477   3.362  -0.462  0.00  0.00     0.033 A 
ATOM      6  C6  UNL d   1      -0.928   2.280  -1.157  0.00  0.00    -0.057 A 
ENDROOT
BRANCH   1   7
ATOM      7  N   UNL d   1       0.151   0.132  -1.237  0.00  0.00    -0.732 N 
ATOM      8  C   UNL d   1       0.884  -0.928  -0.580  0.00  0.00     0.284 C 
ATOM      9  H3  UNL d   1      -0.413  -0.178  -2.025  0.00  0.00     0.395 HD
ENDBRANCH   1   7
TORSDOF 1
ENDMDL
