MODEL 1
REMARK minimizedAffinity -4.15490961
REMARK minimizedRMSD -1
REMARK  1 active torsions:
REMARK  status: ('A' for Active; 'I' for Inactive)
REMARK    1  A    between atoms: N_2  and  C1_3 
ROOT
ATOM      1  C1  UNL d   1       0.133  -0.000  -0.050  0.00  0.00     0.143 A 
ATOM      2  C2  UNL d   1       0.721   0.000   1.219  0.00  0.00    -0.057 A 
ATOM      3  C3  UNL d   1       0.375   0.959   2.179  0.00  0.00     0.033 A 
ATOM      4  C4  UNL d   1      -0.546   1.956   1.875  0.00  0.00    -0.042 A 
ATOM      5  C5  UNL d   1      -1.125   1.990   0.611  0.00  0.00     0.033 A 
ATOM      6  C6  UNL d   1      -0.781   1.025  -0.341  0.00  0.00    -0.057 A 
ENDROOT
BRANCH   1   7
ATOM      7  N   UNL d   1       0.507  -0.866  -1.081  0.00  0.00    -0.732 N 
ATOM      8  C   UNL d   1       0.000  -2.221  -1.125  0.00  0.00     0.284 C 
ATOM      9  H3  UNL d   1       0.536  -0.404  -1.986  0.00  0.00     0.395 HD
ENDBRANCH   1   7
TORSDOF 1
ENDMDL
