MODEL 1
REMARK minimizedAffinity -4.75362778
REMARK minimizedRMSD -1
REMARK  1 active torsions:
REMARK  status: ('A' for Active; 'I' for Inactive)
REMARK    1  A    between atoms: N_2  and  C1_3 
ROOT
ATOM      1  C1  UNL d   1       0.127  -0.267   0.254  0.00  0.00     0.143 A 
ATOM      2  C2  UNL d   1       0.747   0.172   1.429  0.00  0.00    -0.057 A 
ATOM      3  C3  UNL d   1       0.214   1.226   2.180  0.00  0.00     0.033 A 
ATOM      4  C4  UNL d   1      -0.937   1.881   1.753  0.00  0.00    -0.042 A 
ATOM      5  C5  UNL d   1      -1.556   1.477   0.576  0.00  0.00     0.033 A 
ATOM      6  C6  UNL d   1      -1.022   0.420  -0.167  0.00  0.00    -0.057 A 
ENDROOT
BRANCH   1   7
ATOM      7  N   UNL d   1       0.662  -1.244  -0.589  0.00  0.00    -0.732 N 
ATOM      8  C   UNL d   1      -0.155  -2.344  -1.054  0.00  0.00     0.284 C 
ATOM      9  H3  UNL d   1       1.273  -0.850  -1.301  0.00  0.00     0.395 HD
ENDBRANCH   1   7
TORSDOF 1
ENDMDL
