MODEL 1
REMARK minimizedAffinity -3.32305455
REMARK minimizedRMSD -1
REMARK  1 active torsions:
REMARK  status: ('A' for Active; 'I' for Inactive)
REMARK    1  A    between atoms: N_2  and  C1_3 
ROOT
ATOM      1  C1  UNL d   1       0.216  -0.013  -0.169  0.00  0.00     0.143 A 
ATOM      2  C2  UNL d   1       0.818   0.006   1.093  0.00  0.00    -0.057 A 
ATOM      3  C3  UNL d   1       0.373   0.874   2.098  0.00  0.00     0.033 A 
ATOM      4  C4  UNL d   1      -0.669   1.761   1.847  0.00  0.00    -0.042 A 
ATOM      5  C5  UNL d   1      -1.266   1.777   0.591  0.00  0.00     0.033 A 
ATOM      6  C6  UNL d   1      -0.821   0.903  -0.405  0.00  0.00    -0.057 A 
ENDROOT
BRANCH   1   7
ATOM      7  N   UNL d   1       0.677  -0.783  -1.240  0.00  0.00    -0.732 N 
ATOM      8  C   UNL d   1       0.290  -2.171  -1.371  0.00  0.00     0.284 C 
ATOM      9  H3  UNL d   1       0.679  -0.267  -2.117  0.00  0.00     0.395 HD
ENDBRANCH   1   7
TORSDOF 1
ENDMDL
