MODEL 1
REMARK minimizedAffinity -5.25263977
REMARK minimizedRMSD -1
REMARK  0 active torsions:
REMARK  status: ('A' for Active; 'I' for Inactive)
ROOT
ATOM      1  C4' PXY d   1       0.664   1.468  -0.401  0.00  0.00     0.077 C 
ATOM      2  C1' PXY d   1      -2.628  -2.642   1.983  0.00  0.00     0.077 C 
ATOM      3  C1  PXY d   1      -1.754  -1.570   1.362  0.00  0.00    -0.082 A 
ATOM      4  C2  PXY d   1      -2.260  -0.371   1.121  0.00  0.00     0.003 A 
ATOM      5  C3  PXY d   1      -1.493   0.600   0.531  0.00  0.00     0.003 A 
ATOM      6  C4  PXY d   1      -0.179   0.358   0.233  0.00  0.00    -0.082 A 
ATOM      7  C5  PXY d   1       0.348  -0.859   0.485  0.00  0.00     0.003 A 
ATOM      8  C6  PXY d   1      -0.459  -1.844   1.047  0.00  0.00     0.003 A 
ENDROOT
TORSDOF 0
ENDMDL
