MODEL 1
REMARK minimizedAffinity -5.24179029
REMARK minimizedRMSD -1
REMARK  0 active torsions:
REMARK  status: ('A' for Active; 'I' for Inactive)
ROOT
ATOM      1  C4' PXY d   1       1.133   1.496  -0.938  0.00  0.00     0.077 C 
ATOM      2  C1' PXY d   1      -2.504  -2.249   1.544  0.00  0.00     0.077 C 
ATOM      3  C1  PXY d   1      -1.560  -1.260   0.889  0.00  0.00    -0.082 A 
ATOM      4  C2  PXY d   1      -0.334  -1.640   0.566  0.00  0.00     0.003 A 
ATOM      5  C3  PXY d   1       0.542  -0.749   0.002  0.00  0.00     0.003 A 
ATOM      6  C4  PXY d   1       0.143   0.529  -0.284  0.00  0.00    -0.082 A 
ATOM      7  C5  PXY d   1      -1.109   0.921   0.033  0.00  0.00     0.003 A 
ATOM      8  C6  PXY d   1      -1.970   0.014   0.643  0.00  0.00     0.003 A 
ENDROOT
TORSDOF 0
ENDMDL
