MODEL 1
REMARK minimizedAffinity -5.44008636
REMARK minimizedRMSD -1
REMARK  0 active torsions:
REMARK  status: ('A' for Active; 'I' for Inactive)
ROOT
ATOM      1  C4' PXY d   1       0.747   1.510  -0.021  0.00  0.00     0.077 C 
ATOM      2  C1' PXY d   1      -2.632  -2.863   1.675  0.00  0.00     0.077 C 
ATOM      3  C1  PXY d   1      -1.735  -1.723   1.233  0.00  0.00    -0.082 A 
ATOM      4  C2  PXY d   1      -2.217  -0.492   1.187  0.00  0.00     0.003 A 
ATOM      5  C3  PXY d   1      -1.430   0.546   0.760  0.00  0.00     0.003 A 
ATOM      6  C4  PXY d   1      -0.119   0.330   0.427  0.00  0.00    -0.082 A 
ATOM      7  C5  PXY d   1       0.383  -0.922   0.482  0.00  0.00     0.003 A 
ATOM      8  C6  PXY d   1      -0.445  -1.968   0.879  0.00  0.00     0.003 A 
ENDROOT
TORSDOF 0
ENDMDL
