MODEL 1
REMARK minimizedAffinity -0.737843812
REMARK minimizedRMSD -1
REMARK  0 active torsions:
REMARK  status: ('A' for Active; 'I' for Inactive)
ROOT
ATOM      1  C4' PXY d   1      -2.803   0.736   1.649  0.00  0.00     0.077 C 
ATOM      2  C1' PXY d   1       1.219  -3.081   0.014  0.00  0.00     0.077 C 
ATOM      3  C1  PXY d   1       0.172  -2.071   0.439  0.00  0.00    -0.082 A 
ATOM      4  C2  PXY d   1      -0.738  -2.410   1.337  0.00  0.00     0.003 A 
ATOM      5  C3  PXY d   1      -1.711  -1.519   1.710  0.00  0.00     0.003 A 
ATOM      6  C4  PXY d   1      -1.721  -0.249   1.197  0.00  0.00    -0.082 A 
ATOM      7  C5  PXY d   1      -0.789   0.108   0.288  0.00  0.00     0.003 A 
ATOM      8  C6  PXY d   1       0.166  -0.825  -0.107  0.00  0.00     0.003 A 
ENDROOT
TORSDOF 0
ENDMDL
