MODEL 1
REMARK minimizedAffinity -3.48195505
REMARK minimizedRMSD -1
REMARK  0 active torsions:
REMARK  status: ('A' for Active; 'I' for Inactive)
ROOT
ATOM      1  C4' PXY d   1       2.014  -2.132   0.058  0.00  0.00     0.077 C 
ATOM      2  C1' PXY d   1      -2.640   0.762   1.896  0.00  0.00     0.077 C 
ATOM      3  C1  PXY d   1      -1.418   0.012   1.405  0.00  0.00    -0.082 A 
ATOM      4  C2  PXY d   1      -1.289  -1.277   1.675  0.00  0.00     0.003 A 
ATOM      5  C3  PXY d   1      -0.175  -1.963   1.265  0.00  0.00     0.003 A 
ATOM      6  C4  PXY d   1       0.792  -1.337   0.526  0.00  0.00    -0.082 A 
ATOM      7  C5  PXY d   1       0.663  -0.024   0.237  0.00  0.00     0.003 A 
ATOM      8  C6  PXY d   1      -0.456   0.664   0.697  0.00  0.00     0.003 A 
ENDROOT
TORSDOF 0
ENDMDL
