MODEL 1
REMARK minimizedAffinity -2.2770443
REMARK minimizedRMSD -1
REMARK  0 active torsions:
REMARK  status: ('A' for Active; 'I' for Inactive)
ROOT
ATOM      1  C4' PXY d   1       2.519   2.242  -1.476  0.00  0.00     0.077 C 
ATOM      2  C1' PXY d   1      -0.020  -1.951   1.587  0.00  0.00     0.077 C 
ATOM      3  C1  PXY d   1       0.636  -0.852   0.775  0.00  0.00    -0.082 A 
ATOM      4  C2  PXY d   1       1.938  -0.642   0.890  0.00  0.00     0.003 A 
ATOM      5  C3  PXY d   1       2.542   0.369   0.187  0.00  0.00     0.003 A 
ATOM      6  C4  PXY d   1       1.816   1.137  -0.683  0.00  0.00    -0.082 A 
ATOM      7  C5  PXY d   1       0.490   0.922  -0.814  0.00  0.00     0.003 A 
ATOM      8  C6  PXY d   1      -0.112  -0.082  -0.060  0.00  0.00     0.003 A 
ENDROOT
TORSDOF 0
ENDMDL
