MODEL 1
REMARK minimizedAffinity -4.00015545
REMARK minimizedRMSD -1
REMARK  0 active torsions:
REMARK  status: ('A' for Active; 'I' for Inactive)
ROOT
ATOM      1  C4' PXY d   1       0.723   1.858  -0.904  0.00  0.00     0.077 C 
ATOM      2  C1' PXY d   1      -1.659  -2.629   1.855  0.00  0.00     0.077 C 
ATOM      3  C1  PXY d   1      -1.022  -1.457   1.133  0.00  0.00    -0.082 A 
ATOM      4  C2  PXY d   1      -1.655  -0.296   1.085  0.00  0.00     0.003 A 
ATOM      5  C3  PXY d   1      -1.108   0.764   0.410  0.00  0.00     0.003 A 
ATOM      6  C4  PXY d   1       0.123   0.651  -0.179  0.00  0.00    -0.082 A 
ATOM      7  C5  PXY d   1       0.779  -0.527  -0.126  0.00  0.00     0.003 A 
ATOM      8  C6  PXY d   1       0.189  -1.604   0.530  0.00  0.00     0.003 A 
ENDROOT
TORSDOF 0
ENDMDL
