MODEL 1
REMARK minimizedAffinity -3.60530257
REMARK minimizedRMSD -1
REMARK  0 active torsions:
REMARK  status: ('A' for Active; 'I' for Inactive)
ROOT
ATOM      1  C4' PXY d   1       0.884   1.972  -2.376  0.00  0.00     0.077 C 
ATOM      2  C1' PXY d   1      -0.132  -2.023   1.676  0.00  0.00     0.077 C 
ATOM      3  C1  PXY d   1       0.123  -0.969   0.617  0.00  0.00    -0.082 A 
ATOM      4  C2  PXY d   1       0.870  -1.266  -0.435  0.00  0.00     0.003 A 
ATOM      5  C3  PXY d   1       1.138  -0.315  -1.386  0.00  0.00     0.003 A 
ATOM      6  C4  PXY d   1       0.592   0.937  -1.287  0.00  0.00    -0.082 A 
ATOM      7  C5  PXY d   1      -0.180   1.244  -0.223  0.00  0.00     0.003 A 
ATOM      8  C6  PXY d   1      -0.406   0.277   0.753  0.00  0.00     0.003 A 
ENDROOT
TORSDOF 0
ENDMDL
