MODEL 1
REMARK minimizedAffinity -4.34353924
REMARK minimizedRMSD -1
REMARK  0 active torsions:
REMARK  status: ('A' for Active; 'I' for Inactive)
ROOT
ATOM      1  C4' PXY d   1      -0.688  -2.145   1.230  0.00  0.00     0.077 C 
ATOM      2  C1' PXY d   1       1.645   2.277  -1.672  0.00  0.00     0.077 C 
ATOM      3  C1  PXY d   1       1.044   1.111  -0.911  0.00  0.00    -0.082 A 
ATOM      4  C2  PXY d   1      -0.259   0.890  -0.974  0.00  0.00     0.003 A 
ATOM      5  C3  PXY d   1      -0.822  -0.140  -0.267  0.00  0.00     0.003 A 
ATOM      6  C4  PXY d   1      -0.037  -0.985   0.470  0.00  0.00    -0.082 A 
ATOM      7  C5  PXY d   1       1.294  -0.773   0.531  0.00  0.00     0.003 A 
ATOM      8  C6  PXY d   1       1.842   0.303  -0.161  0.00  0.00     0.003 A 
ENDROOT
TORSDOF 0
ENDMDL
