MODEL 1
REMARK minimizedAffinity 0.594061971
REMARK minimizedRMSD -1
REMARK  0 active torsions:
REMARK  status: ('A' for Active; 'I' for Inactive)
ROOT
ATOM      1  C4' PXY d   1      -2.924   0.882   1.951  0.00  0.00     0.077 C 
ATOM      2  C1' PXY d   1       1.243  -2.352  -0.414  0.00  0.00     0.077 C 
ATOM      3  C1  PXY d   1       0.143  -1.514   0.209  0.00  0.00    -0.082 A 
ATOM      4  C2  PXY d   1      -0.014  -0.256  -0.168  0.00  0.00     0.003 A 
ATOM      5  C3  PXY d   1      -0.983   0.525   0.408  0.00  0.00     0.003 A 
ATOM      6  C4  PXY d   1      -1.834  -0.003   1.342  0.00  0.00    -0.082 A 
ATOM      7  C5  PXY d   1      -1.687  -1.289   1.724  0.00  0.00     0.003 A 
ATOM      8  C6  PXY d   1      -0.671  -2.053   1.157  0.00  0.00     0.003 A 
ENDROOT
TORSDOF 0
ENDMDL
