MODEL 1
REMARK minimizedAffinity 0.359586239
REMARK minimizedRMSD -1
REMARK  0 active torsions:
REMARK  status: ('A' for Active; 'I' for Inactive)
ROOT
ATOM      1  C4' PXY d   1       1.460   2.209  -1.942  0.00  0.00     0.077 C 
ATOM      2  C1' PXY d   1      -0.065  -2.046   1.663  0.00  0.00     0.077 C 
ATOM      3  C1  PXY d   1       0.323  -0.927   0.716  0.00  0.00    -0.082 A 
ATOM      4  C2  PXY d   1       1.473  -0.989   0.066  0.00  0.00     0.003 A 
ATOM      5  C3  PXY d   1       1.854   0.030  -0.770  0.00  0.00     0.003 A 
ATOM      6  C4  PXY d   1       1.024   1.097  -0.983  0.00  0.00    -0.082 A 
ATOM      7  C5  PXY d   1      -0.157   1.163  -0.332  0.00  0.00     0.003 A 
ATOM      8  C6  PXY d   1      -0.506   0.139   0.544  0.00  0.00     0.003 A 
ENDROOT
TORSDOF 0
ENDMDL
