MODEL 1
REMARK minimizedAffinity -5.48818684
REMARK minimizedRMSD -1
REMARK  0 active torsions:
REMARK  status: ('A' for Active; 'I' for Inactive)
ROOT
ATOM      1  C4' PXY d   1      -2.961  -0.109   0.898  0.00  0.00     0.077 C 
ATOM      2  C1' PXY d   1       2.526  -1.890   0.529  0.00  0.00     0.077 C 
ATOM      3  C1  PXY d   1       1.083  -1.435   0.624  0.00  0.00    -0.082 A 
ATOM      4  C2  PXY d   1       0.778  -0.171   0.378  0.00  0.00     0.003 A 
ATOM      5  C3  PXY d   1      -0.517   0.264   0.491  0.00  0.00     0.003 A 
ATOM      6  C4  PXY d   1      -1.518  -0.615   0.805  0.00  0.00    -0.082 A 
ATOM      7  C5  PXY d   1      -1.217  -1.908   1.046  0.00  0.00     0.003 A 
ATOM      8  C6  PXY d   1       0.110  -2.321   0.968  0.00  0.00     0.003 A 
ENDROOT
TORSDOF 0
ENDMDL
