MODEL 1
REMARK minimizedAffinity -5.23680067
REMARK minimizedRMSD -1
REMARK  0 active torsions:
REMARK  status: ('A' for Active; 'I' for Inactive)
ROOT
ATOM      1  C4' PXY d   1       1.166   1.287  -0.663  0.00  0.00     0.077 C 
ATOM      2  C1' PXY d   1      -2.386  -2.408   2.011  0.00  0.00     0.077 C 
ATOM      3  C1  PXY d   1      -1.465  -1.434   1.303  0.00  0.00    -0.082 A 
ATOM      4  C2  PXY d   1      -0.188  -1.741   1.141  0.00  0.00     0.003 A 
ATOM      5  C3  PXY d   1       0.666  -0.858   0.532  0.00  0.00     0.003 A 
ATOM      6  C4  PXY d   1       0.198   0.329   0.037  0.00  0.00    -0.082 A 
ATOM      7  C5  PXY d   1      -1.106   0.646   0.189  0.00  0.00     0.003 A 
ATOM      8  C6  PXY d   1      -1.948  -0.246   0.847  0.00  0.00     0.003 A 
ENDROOT
TORSDOF 0
ENDMDL
