MODEL 1
REMARK minimizedAffinity -5.06431246
REMARK minimizedRMSD -1
REMARK  0 active torsions:
REMARK  status: ('A' for Active; 'I' for Inactive)
ROOT
ATOM      1  C4' PXY d   1      -3.374  -3.109   2.243  0.00  0.00     0.077 C 
ATOM      2  C1' PXY d   1       0.552   0.529   0.059  0.00  0.00     0.077 C 
ATOM      3  C1  PXY d   1      -0.483  -0.415   0.638  0.00  0.00    -0.082 A 
ATOM      4  C2  PXY d   1      -0.195  -1.700   0.771  0.00  0.00     0.003 A 
ATOM      5  C3  PXY d   1      -1.131  -2.573   1.263  0.00  0.00     0.003 A 
ATOM      6  C4  PXY d   1      -2.356  -2.118   1.673  0.00  0.00    -0.082 A 
ATOM      7  C5  PXY d   1      -2.653  -0.807   1.550  0.00  0.00     0.003 A 
ATOM      8  C6  PXY d   1      -1.704   0.056   1.010  0.00  0.00     0.003 A 
ENDROOT
TORSDOF 0
ENDMDL
