MODEL 1
REMARK minimizedAffinity -4.5076766
REMARK minimizedRMSD -1
REMARK  0 active torsions:
REMARK  status: ('A' for Active; 'I' for Inactive)
ROOT
ATOM      1  C4' PXY d   1      -3.651  -0.434   1.951  0.00  0.00     0.077 C 
ATOM      2  C1' PXY d   1       1.564  -2.221   0.211  0.00  0.00     0.077 C 
ATOM      3  C1  PXY d   1       0.192  -1.765   0.668  0.00  0.00    -0.082 A 
ATOM      4  C2  PXY d   1      -0.200  -0.525   0.422  0.00  0.00     0.003 A 
ATOM      5  C3  PXY d   1      -1.425  -0.086   0.855  0.00  0.00     0.003 A 
ATOM      6  C4  PXY d   1      -2.278  -0.941   1.500  0.00  0.00    -0.082 A 
ATOM      7  C5  PXY d   1      -1.889  -2.210   1.746  0.00  0.00     0.003 A 
ATOM      8  C6  PXY d   1      -0.626  -2.624   1.334  0.00  0.00     0.003 A 
ENDROOT
TORSDOF 0
ENDMDL
