MODEL 1
REMARK minimizedAffinity -3.06101966
REMARK minimizedRMSD -1
REMARK  0 active torsions:
REMARK  status: ('A' for Active; 'I' for Inactive)
ROOT
ATOM      1  C4' PXY d   1       1.318   2.251  -2.281  0.00  0.00     0.077 C 
ATOM      2  C1' PXY d   1      -0.209  -1.905   1.435  0.00  0.00     0.077 C 
ATOM      3  C1  PXY d   1       0.179  -0.810   0.462  0.00  0.00    -0.082 A 
ATOM      4  C2  PXY d   1       1.150  -1.025  -0.411  0.00  0.00     0.003 A 
ATOM      5  C3  PXY d   1       1.536  -0.034  -1.277  0.00  0.00     0.003 A 
ATOM      6  C4  PXY d   1       0.886   1.171  -1.286  0.00  0.00    -0.082 A 
ATOM      7  C5  PXY d   1      -0.113   1.394  -0.405  0.00  0.00     0.003 A 
ATOM      8  C6  PXY d   1      -0.462   0.390   0.493  0.00  0.00     0.003 A 
ENDROOT
TORSDOF 0
ENDMDL
