MODEL 1
REMARK minimizedAffinity -4.98656511
REMARK minimizedRMSD -1
REMARK  0 active torsions:
REMARK  status: ('A' for Active; 'I' for Inactive)
ROOT
ATOM      1  C4' PXY d   1      -3.060   0.586   1.488  0.00  0.00     0.077 C 
ATOM      2  C1' PXY d   1       2.051  -1.733   0.104  0.00  0.00     0.077 C 
ATOM      3  C1  PXY d   1       0.705  -1.136   0.466  0.00  0.00    -0.082 A 
ATOM      4  C2  PXY d   1       0.503   0.162   0.312  0.00  0.00     0.003 A 
ATOM      5  C3  PXY d   1      -0.698   0.723   0.664  0.00  0.00     0.003 A 
ATOM      6  C4  PXY d   1      -1.720  -0.061   1.128  0.00  0.00    -0.082 A 
ATOM      7  C5  PXY d   1      -1.525  -1.389   1.277  0.00  0.00     0.003 A 
ATOM      8  C6  PXY d   1      -0.285  -1.932   0.953  0.00  0.00     0.003 A 
ENDROOT
TORSDOF 0
ENDMDL
