MODEL 1
REMARK minimizedAffinity -3.75162077
REMARK minimizedRMSD -1
REMARK  0 active torsions:
REMARK  status: ('A' for Active; 'I' for Inactive)
ROOT
ATOM      1  C4' PXY d   1       1.084   2.188  -2.483  0.00  0.00     0.077 C 
ATOM      2  C1' PXY d   1      -0.400  -1.641   1.586  0.00  0.00     0.077 C 
ATOM      3  C1  PXY d   1      -0.018  -0.628   0.525  0.00  0.00    -0.082 A 
ATOM      4  C2  PXY d   1       0.338  -1.044  -0.679  0.00  0.00     0.003 A 
ATOM      5  C3  PXY d   1       0.717  -0.143  -1.641  0.00  0.00     0.003 A 
ATOM      6  C4  PXY d   1       0.681   1.201  -1.383  0.00  0.00    -0.082 A 
ATOM      7  C5  PXY d   1       0.309   1.634  -0.160  0.00  0.00     0.003 A 
ATOM      8  C6  PXY d   1      -0.033   0.702   0.815  0.00  0.00     0.003 A 
ENDROOT
TORSDOF 0
ENDMDL
