MODEL 1
REMARK minimizedAffinity -5.15886116
REMARK minimizedRMSD -1
REMARK  0 active torsions:
REMARK  status: ('A' for Active; 'I' for Inactive)
ROOT
ATOM      1  C4' PXY d   1       0.602  -0.159  -0.421  0.00  0.00     0.077 C 
ATOM      2  C1' PXY d   1      -3.456  -3.394   2.124  0.00  0.00     0.077 C 
ATOM      3  C1  PXY d   1      -2.389  -2.541   1.468  0.00  0.00    -0.082 A 
ATOM      4  C2  PXY d   1      -2.502  -2.220   0.189  0.00  0.00     0.003 A 
ATOM      5  C3  PXY d   1      -1.529  -1.476  -0.428  0.00  0.00     0.003 A 
ATOM      6  C4  PXY d   1      -0.457  -1.011   0.284  0.00  0.00    -0.082 A 
ATOM      7  C5  PXY d   1      -0.340  -1.324   1.592  0.00  0.00     0.003 A 
ATOM      8  C6  PXY d   1      -1.317  -2.115   2.190  0.00  0.00     0.003 A 
ENDROOT
TORSDOF 0
ENDMDL
