MODEL 1
REMARK minimizedAffinity -5.00936985
REMARK minimizedRMSD -1
REMARK  0 active torsions:
REMARK  status: ('A' for Active; 'I' for Inactive)
ROOT
ATOM      1  C4' PXY d   1      -1.878  -2.443   1.460  0.00  0.00     0.077 C 
ATOM      2  C1' PXY d   1       1.521   1.224  -1.441  0.00  0.00     0.077 C 
ATOM      3  C1  PXY d   1       0.638   0.252  -0.683  0.00  0.00    -0.082 A 
ATOM      4  C2  PXY d   1      -0.635   0.548  -0.480  0.00  0.00     0.003 A 
ATOM      5  C3  PXY d   1      -1.441  -0.304   0.231  0.00  0.00     0.003 A 
ATOM      6  C4  PXY d   1      -0.951  -1.496   0.692  0.00  0.00    -0.082 A 
ATOM      7  C5  PXY d   1       0.344  -1.811   0.479  0.00  0.00     0.003 A 
ATOM      8  C6  PXY d   1       1.156  -0.913  -0.209  0.00  0.00     0.003 A 
ENDROOT
TORSDOF 0
ENDMDL
