MODEL 1
REMARK minimizedAffinity 8.27345943
REMARK minimizedRMSD -1
REMARK  0 active torsions:
REMARK  status: ('A' for Active; 'I' for Inactive)
ROOT
ATOM      1  C   UNL d   1      -0.217  -4.741  -4.068  0.00  0.00     0.077 C 
ATOM      2  C1  UNL d   1      -1.367  -4.154  -3.304  0.00  0.00    -0.074 A 
ATOM      3  C2  UNL d   1      -1.427  -2.783  -3.035  0.00  0.00    -0.005 A 
ATOM      4  C3  UNL d   1      -2.507  -2.251  -2.332  0.00  0.00     0.006 A 
ATOM      5  C4  UNL d   1      -3.536  -3.082  -1.890  0.00  0.00    -0.005 A 
ATOM      6  C5  UNL d   1      -3.494  -4.456  -2.150  0.00  0.00    -0.074 A 
ATOM      7  C6  UNL d   1      -4.598  -5.362  -1.691  0.00  0.00     0.077 C 
ATOM      8  C7  UNL d   1      -2.409  -4.982  -2.864  0.00  0.00    -0.001 A 
ENDROOT
TORSDOF 0
ENDMDL
