MODEL 1
REMARK minimizedAffinity 6.69726181
REMARK minimizedRMSD -1
REMARK  0 active torsions:
REMARK  status: ('A' for Active; 'I' for Inactive)
ROOT
ATOM      1  C   UNL d   1       1.737   1.419   1.102  0.00  0.00     0.077 C 
ATOM      2  C1  UNL d   1       3.221   1.293   0.921  0.00  0.00    -0.074 A 
ATOM      3  C2  UNL d   1       3.942   2.253   0.205  0.00  0.00    -0.005 A 
ATOM      4  C3  UNL d   1       5.323   2.127   0.053  0.00  0.00     0.006 A 
ATOM      5  C4  UNL d   1       5.995   1.041   0.615  0.00  0.00    -0.005 A 
ATOM      6  C5  UNL d   1       5.291   0.071   1.335  0.00  0.00    -0.074 A 
ATOM      7  C6  UNL d   1       5.999  -1.097   1.953  0.00  0.00     0.077 C 
ATOM      8  C7  UNL d   1       3.905   0.209   1.489  0.00  0.00    -0.001 A 
ENDROOT
TORSDOF 0
ENDMDL
