MODEL 1
REMARK minimizedAffinity 5.36990929
REMARK minimizedRMSD -1
REMARK  0 active torsions:
REMARK  status: ('A' for Active; 'I' for Inactive)
ROOT
ATOM      1  C   UNL d   1       4.690   3.665   1.069  0.00  0.00     0.077 C 
ATOM      2  C1  UNL d   1       3.845   2.434   1.203  0.00  0.00    -0.074 A 
ATOM      3  C2  UNL d   1       4.326   1.184   0.801  0.00  0.00    -0.005 A 
ATOM      4  C3  UNL d   1       3.531   0.046   0.940  0.00  0.00     0.006 A 
ATOM      5  C4  UNL d   1       2.249   0.146   1.483  0.00  0.00    -0.005 A 
ATOM      6  C5  UNL d   1       1.752   1.388   1.891  0.00  0.00    -0.074 A 
ATOM      7  C6  UNL d   1       0.380   1.511   2.485  0.00  0.00     0.077 C 
ATOM      8  C7  UNL d   1       2.559   2.525   1.754  0.00  0.00    -0.001 A 
ENDROOT
TORSDOF 0
ENDMDL
