MODEL 1
REMARK minimizedAffinity 11.7046509
REMARK minimizedRMSD -1
REMARK  0 active torsions:
REMARK  status: ('A' for Active; 'I' for Inactive)
ROOT
ATOM      1  C   UNL d   1      -0.123   0.413   2.826  0.00  0.00     0.077 C 
ATOM      2  C1  UNL d   1       1.149   0.777   2.120  0.00  0.00    -0.074 A 
ATOM      3  C2  UNL d   1       1.264   1.984   1.423  0.00  0.00    -0.005 A 
ATOM      4  C3  UNL d   1       2.457   2.313   0.779  0.00  0.00     0.006 A 
ATOM      5  C4  UNL d   1       3.545   1.440   0.826  0.00  0.00    -0.005 A 
ATOM      6  C5  UNL d   1       3.449   0.229   1.519  0.00  0.00    -0.074 A 
ATOM      7  C6  UNL d   1       4.612  -0.715   1.588  0.00  0.00     0.077 C 
ATOM      8  C7  UNL d   1       2.249  -0.091   2.169  0.00  0.00    -0.001 A 
ENDROOT
TORSDOF 0
ENDMDL
