MODEL 1
REMARK minimizedAffinity -3.99654841
REMARK minimizedRMSD -1
REMARK  0 active torsions:
REMARK  status: ('A' for Active; 'I' for Inactive)
ROOT
ATOM      1  C   UNL d   1       1.569   0.761   0.432  0.00  0.00     0.077 C 
ATOM      2  C1  UNL d   1       3.007   1.043   0.752  0.00  0.00    -0.074 A 
ATOM      3  C2  UNL d   1       3.559   2.308   0.527  0.00  0.00    -0.005 A 
ATOM      4  C3  UNL d   1       4.895   2.558   0.838  0.00  0.00     0.006 A 
ATOM      5  C4  UNL d   1       5.692   1.547   1.377  0.00  0.00    -0.005 A 
ATOM      6  C5  UNL d   1       5.157   0.276   1.610  0.00  0.00    -0.074 A 
ATOM      7  C6  UNL d   1       5.997  -0.819   2.199  0.00  0.00     0.077 C 
ATOM      8  C7  UNL d   1       3.811   0.034   1.302  0.00  0.00    -0.001 A 
ENDROOT
TORSDOF 0
ENDMDL
