MODEL 1
REMARK minimizedAffinity 1.56373227
REMARK minimizedRMSD -1
REMARK  0 active torsions:
REMARK  status: ('A' for Active; 'I' for Inactive)
ROOT
ATOM      1  C   UNL d   1       6.000  -0.494   2.843  0.00  0.00     0.077 C 
ATOM      2  C1  UNL d   1       5.290   0.445   1.915  0.00  0.00    -0.074 A 
ATOM      3  C2  UNL d   1       6.000   1.391   1.168  0.00  0.00    -0.005 A 
ATOM      4  C3  UNL d   1       5.326   2.252   0.301  0.00  0.00     0.006 A 
ATOM      5  C4  UNL d   1       3.939   2.175   0.172  0.00  0.00    -0.005 A 
ATOM      6  C5  UNL d   1       3.213   1.235   0.909  0.00  0.00    -0.074 A 
ATOM      7  C6  UNL d   1       1.722   1.133   0.775  0.00  0.00     0.077 C 
ATOM      8  C7  UNL d   1       3.897   0.369   1.773  0.00  0.00    -0.001 A 
ENDROOT
TORSDOF 0
ENDMDL
