MODEL 1
REMARK minimizedAffinity -2.69365907
REMARK minimizedRMSD -1
REMARK  0 active torsions:
REMARK  status: ('A' for Active; 'I' for Inactive)
ROOT
ATOM      1  C   UNL d   1      -5.239   0.051   5.999  0.00  0.00     0.077 C 
ATOM      2  C1  UNL d   1      -5.221   1.341   5.234  0.00  0.00    -0.074 A 
ATOM      3  C2  UNL d   1      -4.908   1.364   3.871  0.00  0.00    -0.005 A 
ATOM      4  C3  UNL d   1      -4.904   2.571   3.170  0.00  0.00     0.006 A 
ATOM      5  C4  UNL d   1      -5.213   3.764   3.825  0.00  0.00    -0.005 A 
ATOM      6  C5  UNL d   1      -5.529   3.760   5.187  0.00  0.00    -0.074 A 
ATOM      7  C6  UNL d   1      -5.873   5.032   5.903  0.00  0.00     0.077 C 
ATOM      8  C7  UNL d   1      -5.538   2.543   5.882  0.00  0.00    -0.001 A 
ENDROOT
TORSDOF 0
ENDMDL
