MODEL 1
REMARK minimizedAffinity 8.07821274
REMARK minimizedRMSD -1
REMARK  0 active torsions:
REMARK  status: ('A' for Active; 'I' for Inactive)
ROOT
ATOM      1  C   UNL d   1      -5.967  -2.960   3.609  0.00  0.00     0.077 C 
ATOM      2  C1  UNL d   1      -5.635  -1.612   4.176  0.00  0.00    -0.074 A 
ATOM      3  C2  UNL d   1      -6.000  -1.272   5.482  0.00  0.00    -0.005 A 
ATOM      4  C3  UNL d   1      -5.675  -0.018   5.999  0.00  0.00     0.006 A 
ATOM      5  C4  UNL d   1      -4.984   0.908   5.216  0.00  0.00    -0.005 A 
ATOM      6  C5  UNL d   1      -4.610   0.585   3.908  0.00  0.00    -0.074 A 
ATOM      7  C6  UNL d   1      -3.859   1.565   3.056  0.00  0.00     0.077 C 
ATOM      8  C7  UNL d   1      -4.934  -0.680   3.398  0.00  0.00    -0.001 A 
ENDROOT
TORSDOF 0
ENDMDL
