MODEL 1
REMARK minimizedAffinity 15.5677004
REMARK minimizedRMSD -1
REMARK  0 active torsions:
REMARK  status: ('A' for Active; 'I' for Inactive)
ROOT
ATOM      1  C   UNL d   1       4.321  -0.002   3.361  0.00  0.00     0.077 C 
ATOM      2  C1  UNL d   1       3.425   0.478   2.257  0.00  0.00    -0.074 A 
ATOM      3  C2  UNL d   1       3.651   0.095   0.931  0.00  0.00    -0.005 A 
ATOM      4  C3  UNL d   1       2.805   0.541  -0.083  0.00  0.00     0.006 A 
ATOM      5  C4  UNL d   1       1.725   1.373   0.217  0.00  0.00    -0.005 A 
ATOM      6  C5  UNL d   1       1.483   1.765   1.538  0.00  0.00    -0.074 A 
ATOM      7  C6  UNL d   1       0.321   2.650   1.879  0.00  0.00     0.077 C 
ATOM      8  C7  UNL d   1       2.334   1.307   2.552  0.00  0.00    -0.001 A 
ENDROOT
TORSDOF 0
ENDMDL
