MODEL 1
REMARK minimizedAffinity 10.2604837
REMARK minimizedRMSD -1
REMARK  0 active torsions:
REMARK  status: ('A' for Active; 'I' for Inactive)
ROOT
ATOM      1  C   UNL d   1       1.223   2.176   1.394  0.00  0.00     0.077 C 
ATOM      2  C1  UNL d   1       2.486   1.462   1.015  0.00  0.00    -0.074 A 
ATOM      3  C2  UNL d   1       2.933   0.355   1.744  0.00  0.00    -0.005 A 
ATOM      4  C3  UNL d   1       4.105  -0.305   1.374  0.00  0.00     0.006 A 
ATOM      5  C4  UNL d   1       4.841   0.135   0.273  0.00  0.00    -0.005 A 
ATOM      6  C5  UNL d   1       4.410   1.240  -0.468  0.00  0.00    -0.074 A 
ATOM      7  C6  UNL d   1       5.184   1.720  -1.659  0.00  0.00     0.077 C 
ATOM      8  C7  UNL d   1       3.227   1.893  -0.094  0.00  0.00    -0.001 A 
ENDROOT
TORSDOF 0
ENDMDL
