MODEL 1
REMARK minimizedAffinity 10.254632
REMARK minimizedRMSD -1
REMARK  0 active torsions:
REMARK  status: ('A' for Active; 'I' for Inactive)
ROOT
ATOM      1  C   UNL d   1      -1.800  -1.875  -2.273  0.00  0.00     0.077 C 
ATOM      2  C1  UNL d   1      -1.135  -2.203  -3.577  0.00  0.00    -0.074 A 
ATOM      3  C2  UNL d   1      -1.763  -1.920  -4.795  0.00  0.00    -0.005 A 
ATOM      4  C3  UNL d   1      -1.128  -2.222  -6.000  0.00  0.00     0.006 A 
ATOM      5  C4  UNL d   1       0.138  -2.809  -6.000  0.00  0.00    -0.005 A 
ATOM      6  C5  UNL d   1       0.781  -3.099  -4.792  0.00  0.00    -0.074 A 
ATOM      7  C6  UNL d   1       2.145  -3.721  -4.774  0.00  0.00     0.077 C 
ATOM      8  C7  UNL d   1       0.140  -2.786  -3.585  0.00  0.00    -0.001 A 
ENDROOT
TORSDOF 0
ENDMDL
