MODEL 1
REMARK minimizedAffinity 13.4824247
REMARK minimizedRMSD -1
REMARK  0 active torsions:
REMARK  status: ('A' for Active; 'I' for Inactive)
ROOT
ATOM      1  C   UNL d   1       0.437   0.158   5.277  0.00  0.00     0.077 C 
ATOM      2  C1  UNL d   1       0.863   0.819   4.000  0.00  0.00    -0.074 A 
ATOM      3  C2  UNL d   1       0.198   1.952   3.520  0.00  0.00    -0.005 A 
ATOM      4  C3  UNL d   1       0.611   2.561   2.335  0.00  0.00     0.006 A 
ATOM      5  C4  UNL d   1       1.692   2.045   1.620  0.00  0.00    -0.005 A 
ATOM      6  C5  UNL d   1       2.371   0.914   2.085  0.00  0.00    -0.074 A 
ATOM      7  C6  UNL d   1       3.541   0.352   1.333  0.00  0.00     0.077 C 
ATOM      8  C7  UNL d   1       1.954   0.311   3.279  0.00  0.00    -0.001 A 
ENDROOT
TORSDOF 0
ENDMDL
