MODEL 1
REMARK minimizedAffinity 3.21547413
REMARK minimizedRMSD -1
REMARK  0 active torsions:
REMARK  status: ('A' for Active; 'I' for Inactive)
ROOT
ATOM      1  C   UNL d   1       4.413   0.447  -5.993  0.00  0.00     0.077 C 
ATOM      2  C1  UNL d   1       4.372   1.741  -5.237  0.00  0.00    -0.074 A 
ATOM      3  C2  UNL d   1       4.538   1.767  -3.848  0.00  0.00    -0.005 A 
ATOM      4  C3  UNL d   1       4.506   2.980  -3.159  0.00  0.00     0.006 A 
ATOM      5  C4  UNL d   1       4.308   4.176  -3.850  0.00  0.00    -0.005 A 
ATOM      6  C5  UNL d   1       4.141   4.169  -5.238  0.00  0.00    -0.074 A 
ATOM      7  C6  UNL d   1       3.937   5.447  -5.997  0.00  0.00     0.077 C 
ATOM      8  C7  UNL d   1       4.181   2.948  -5.924  0.00  0.00    -0.001 A 
ENDROOT
TORSDOF 0
ENDMDL
