MODEL 1
REMARK minimizedAffinity 6.49478245
REMARK minimizedRMSD -1
REMARK  0 active torsions:
REMARK  status: ('A' for Active; 'I' for Inactive)
ROOT
ATOM      1  C   UNL d   1       0.760   0.356   2.897  0.00  0.00     0.077 C 
ATOM      2  C1  UNL d   1       2.017   0.515   2.094  0.00  0.00    -0.074 A 
ATOM      3  C2  UNL d   1       2.048   1.337   0.963  0.00  0.00    -0.005 A 
ATOM      4  C3  UNL d   1       3.227   1.483   0.232  0.00  0.00     0.006 A 
ATOM      5  C4  UNL d   1       4.385   0.809   0.623  0.00  0.00    -0.005 A 
ATOM      6  C5  UNL d   1       4.373  -0.017   1.752  0.00  0.00    -0.074 A 
ATOM      7  C6  UNL d   1       5.611  -0.740   2.192  0.00  0.00     0.077 C 
ATOM      8  C7  UNL d   1       3.186  -0.152   2.486  0.00  0.00    -0.001 A 
ENDROOT
TORSDOF 0
ENDMDL
