MODEL 1
REMARK minimizedAffinity 12.3650799
REMARK minimizedRMSD -1
REMARK  0 active torsions:
REMARK  status: ('A' for Active; 'I' for Inactive)
ROOT
ATOM      1  C   UNL d   1      -1.157  -2.685  -3.847  0.00  0.00     0.077 C 
ATOM      2  C1  UNL d   1      -1.725  -2.751  -2.461  0.00  0.00    -0.074 A 
ATOM      3  C2  UNL d   1      -3.093  -2.957  -2.253  0.00  0.00    -0.005 A 
ATOM      4  C3  UNL d   1      -3.605  -3.026  -0.958  0.00  0.00     0.006 A 
ATOM      5  C4  UNL d   1      -2.757  -2.889   0.141  0.00  0.00    -0.005 A 
ATOM      6  C5  UNL d   1      -1.386  -2.683  -0.046  0.00  0.00    -0.074 A 
ATOM      7  C6  UNL d   1      -0.459  -2.543   1.124  0.00  0.00     0.077 C 
ATOM      8  C7  UNL d   1      -0.878  -2.622  -1.351  0.00  0.00    -0.001 A 
ENDROOT
TORSDOF 0
ENDMDL
