MODEL 1
REMARK minimizedAffinity 7.90316296
REMARK minimizedRMSD -1
REMARK  0 active torsions:
REMARK  status: ('A' for Active; 'I' for Inactive)
ROOT
ATOM      1  C   UNL d   1      -1.863  -2.237  -3.661  0.00  0.00     0.077 C 
ATOM      2  C1  UNL d   1      -2.082  -2.904  -2.335  0.00  0.00    -0.074 A 
ATOM      3  C2  UNL d   1      -3.086  -3.864  -2.172  0.00  0.00    -0.005 A 
ATOM      4  C3  UNL d   1      -3.272  -4.483  -0.936  0.00  0.00     0.006 A 
ATOM      5  C4  UNL d   1      -2.458  -4.150   0.147  0.00  0.00    -0.005 A 
ATOM      6  C5  UNL d   1      -1.448  -3.193   0.002  0.00  0.00    -0.074 A 
ATOM      7  C6  UNL d   1      -0.558  -2.830   1.153  0.00  0.00     0.077 C 
ATOM      8  C7  UNL d   1      -1.263  -2.580  -1.245  0.00  0.00    -0.001 A 
ENDROOT
TORSDOF 0
ENDMDL
