MODEL 1
REMARK minimizedAffinity 6.24002552
REMARK minimizedRMSD -1
REMARK  1 active torsions:
REMARK  status: ('A' for Active; 'I' for Inactive)
REMARK    1  A    between atoms: N_2  and  C1_3 
ROOT
ATOM      1  C1  UNL d   1       3.690   4.161   0.053  0.00  0.00     0.143 A 
ATOM      2  C2  UNL d   1       3.405   5.281   0.840  0.00  0.00    -0.057 A 
ATOM      3  C3  UNL d   1       2.094   5.582   1.228  0.00  0.00     0.033 A 
ATOM      4  C4  UNL d   1       1.037   4.780   0.809  0.00  0.00    -0.042 A 
ATOM      5  C5  UNL d   1       1.294   3.675   0.005  0.00  0.00     0.033 A 
ATOM      6  C6  UNL d   1       2.607   3.377  -0.374  0.00  0.00    -0.057 A 
ENDROOT
BRANCH   1   7
ATOM      7  N   UNL d   1       4.961   3.864  -0.447  0.00  0.00    -0.732 N 
ATOM      8  C   UNL d   1       5.580   4.717  -1.440  0.00  0.00     0.284 C 
ATOM      9  H3  UNL d   1       5.597   3.539   0.277  0.00  0.00     0.395 HD
ENDBRANCH   1   7
TORSDOF 1
ENDMDL
