MODEL 1
REMARK minimizedAffinity 6.2448864
REMARK minimizedRMSD -1
REMARK  1 active torsions:
REMARK  status: ('A' for Active; 'I' for Inactive)
REMARK    1  A    between atoms: N_2  and  C1_3 
ROOT
ATOM      1  C1  UNL d   1       0.466  -5.716  -3.146  0.00  0.00     0.143 A 
ATOM      2  C2  UNL d   1       1.491  -5.834  -4.092  0.00  0.00    -0.057 A 
ATOM      3  C3  UNL d   1       1.208  -5.958  -5.457  0.00  0.00     0.033 A 
ATOM      4  C4  UNL d   1      -0.110  -5.996  -5.900  0.00  0.00    -0.042 A 
ATOM      5  C5  UNL d   1      -1.145  -5.906  -4.976  0.00  0.00     0.033 A 
ATOM      6  C6  UNL d   1      -0.856  -5.775  -3.614  0.00  0.00    -0.057 A 
ENDROOT
BRANCH   1   7
ATOM      7  N   UNL d   1       0.681  -5.689  -1.766  0.00  0.00    -0.732 N 
ATOM      8  C   UNL d   1       0.402  -4.493  -1.000  0.00  0.00     0.284 C 
ATOM      9  H3  UNL d   1       0.391  -6.552  -1.311  0.00  0.00     0.395 HD
ENDBRANCH   1   7
TORSDOF 1
ENDMDL
