MODEL 1
REMARK minimizedAffinity 2.97748661
REMARK minimizedRMSD -1
REMARK  1 active torsions:
REMARK  status: ('A' for Active; 'I' for Inactive)
REMARK    1  A    between atoms: N_2  and  C1_3 
ROOT
ATOM      1  C1  UNL d   1      -1.500  -5.924  -3.493  0.00  0.00     0.143 A 
ATOM      2  C2  UNL d   1      -0.251  -5.977  -2.864  0.00  0.00    -0.057 A 
ATOM      3  C3  UNL d   1       0.935  -6.000  -3.607  0.00  0.00     0.033 A 
ATOM      4  C4  UNL d   1       0.893  -5.999  -4.997  0.00  0.00    -0.042 A 
ATOM      5  C5  UNL d   1      -0.338  -5.972  -5.644  0.00  0.00     0.033 A 
ATOM      6  C6  UNL d   1      -1.519  -5.943  -4.896  0.00  0.00    -0.057 A 
ENDROOT
BRANCH   1   7
ATOM      7  N   UNL d   1      -2.718  -5.999  -2.812  0.00  0.00    -0.732 N 
ATOM      8  C   UNL d   1      -3.515  -4.811  -2.594  0.00  0.00     0.284 C 
ATOM      9  H3  UNL d   1      -3.259  -6.820  -3.072  0.00  0.00     0.395 HD
ENDBRANCH   1   7
TORSDOF 1
ENDMDL
