MODEL 1
REMARK minimizedAffinity 14.3501892
REMARK minimizedRMSD -1
REMARK  1 active torsions:
REMARK  status: ('A' for Active; 'I' for Inactive)
REMARK    1  A    between atoms: N_2  and  C1_3 
ROOT
ATOM      1  C1  UNL d   1       3.386   2.297   0.291  0.00  0.00     0.143 A 
ATOM      2  C2  UNL d   1       4.158   1.132   0.356  0.00  0.00    -0.057 A 
ATOM      3  C3  UNL d   1       3.562  -0.128   0.491  0.00  0.00     0.033 A 
ATOM      4  C4  UNL d   1       2.180  -0.242   0.591  0.00  0.00    -0.042 A 
ATOM      5  C5  UNL d   1       1.394   0.904   0.554  0.00  0.00     0.033 A 
ATOM      6  C6  UNL d   1       1.995   2.159   0.413  0.00  0.00    -0.057 A 
ENDROOT
BRANCH   1   7
ATOM      7  N   UNL d   1       3.925   3.586   0.257  0.00  0.00    -0.732 N 
ATOM      8  C   UNL d   1       5.225   3.826  -0.329  0.00  0.00     0.284 C 
ATOM      9  H3  UNL d   1       3.228   4.292   0.028  0.00  0.00     0.395 HD
ENDBRANCH   1   7
TORSDOF 1
ENDMDL
