MODEL 1
REMARK minimizedAffinity -1.74194896
REMARK minimizedRMSD -1
REMARK  1 active torsions:
REMARK  status: ('A' for Active; 'I' for Inactive)
REMARK    1  A    between atoms: N_2  and  C1_3 
ROOT
ATOM      1  C1  UNL d   1      -1.702  -6.000  -3.943  0.00  0.00     0.143 A 
ATOM      2  C2  UNL d   1      -1.125  -5.961  -5.217  0.00  0.00    -0.057 A 
ATOM      3  C3  UNL d   1       0.265  -5.962  -5.384  0.00  0.00     0.033 A 
ATOM      4  C4  UNL d   1       1.106  -5.973  -4.276  0.00  0.00    -0.042 A 
ATOM      5  C5  UNL d   1       0.554  -5.987  -3.000  0.00  0.00     0.033 A 
ATOM      6  C6  UNL d   1      -0.835  -5.993  -2.839  0.00  0.00    -0.057 A 
ENDROOT
BRANCH   1   7
ATOM      7  N   UNL d   1      -3.076  -5.901  -3.708  0.00  0.00    -0.732 N 
ATOM      8  C   UNL d   1      -3.603  -6.000  -2.364  0.00  0.00     0.284 C 
ATOM      9  H3  UNL d   1      -3.516  -5.180  -4.275  0.00  0.00     0.395 HD
ENDBRANCH   1   7
TORSDOF 1
ENDMDL
