MODEL 1
REMARK minimizedAffinity -0.138477176
REMARK minimizedRMSD -1
REMARK  1 active torsions:
REMARK  status: ('A' for Active; 'I' for Inactive)
REMARK    1  A    between atoms: N_2  and  C1_3 
ROOT
ATOM      1  C1  UNL d   1      -1.865  -5.921  -3.627  0.00  0.00     0.143 A 
ATOM      2  C2  UNL d   1      -1.848  -5.648  -4.999  0.00  0.00    -0.057 A 
ATOM      3  C3  UNL d   1      -0.642  -5.494  -5.694  0.00  0.00     0.033 A 
ATOM      4  C4  UNL d   1       0.572  -5.581  -5.020  0.00  0.00    -0.042 A 
ATOM      5  C5  UNL d   1       0.578  -5.827  -3.652  0.00  0.00     0.033 A 
ATOM      6  C6  UNL d   1      -0.629  -5.987  -2.965  0.00  0.00    -0.057 A 
ENDROOT
BRANCH   1   7
ATOM      7  N   UNL d   1      -3.032  -5.988  -2.861  0.00  0.00    -0.732 N 
ATOM      8  C   UNL d   1      -4.332  -5.984  -3.497  0.00  0.00     0.284 C 
ATOM      9  H3  UNL d   1      -2.950  -6.641  -2.085  0.00  0.00     0.395 HD
ENDBRANCH   1   7
TORSDOF 1
ENDMDL
