MODEL 1
REMARK minimizedAffinity 6.92921352
REMARK minimizedRMSD -1
REMARK  1 active torsions:
REMARK  status: ('A' for Active; 'I' for Inactive)
REMARK    1  A    between atoms: N_2  and  C1_3 
ROOT
ATOM      1  C1  UNL d   1       0.378  -5.058  -1.448  0.00  0.00     0.143 A 
ATOM      2  C2  UNL d   1      -0.832  -5.521  -1.977  0.00  0.00    -0.057 A 
ATOM      3  C3  UNL d   1      -0.915  -5.998  -3.291  0.00  0.00     0.033 A 
ATOM      4  C4  UNL d   1       0.209  -5.994  -4.111  0.00  0.00    -0.042 A 
ATOM      5  C5  UNL d   1       1.416  -5.515  -3.614  0.00  0.00     0.033 A 
ATOM      6  C6  UNL d   1       1.494  -5.046  -2.299  0.00  0.00    -0.057 A 
ENDROOT
BRANCH   1   7
ATOM      7  N   UNL d   1       0.502  -4.480  -0.183  0.00  0.00    -0.732 N 
ATOM      8  C   UNL d   1      -0.577  -3.697   0.380  0.00  0.00     0.284 C 
ATOM      9  H3  UNL d   1       0.958  -5.099   0.484  0.00  0.00     0.395 HD
ENDBRANCH   1   7
TORSDOF 1
ENDMDL
