MODEL 1
REMARK minimizedAffinity 6.1831007
REMARK minimizedRMSD -1
REMARK  1 active torsions:
REMARK  status: ('A' for Active; 'I' for Inactive)
REMARK    1  A    between atoms: N_2  and  C1_3 
ROOT
ATOM      1  C1  UNL d   1      -0.889  -5.920  -3.965  0.00  0.00     0.143 A 
ATOM      2  C2  UNL d   1       0.284  -5.939  -3.204  0.00  0.00    -0.057 A 
ATOM      3  C3  UNL d   1       1.545  -5.960  -3.813  0.00  0.00     0.033 A 
ATOM      4  C4  UNL d   1       1.653  -5.993  -5.200  0.00  0.00    -0.042 A 
ATOM      5  C5  UNL d   1       0.500  -6.000  -5.976  0.00  0.00     0.033 A 
ATOM      6  C6  UNL d   1      -0.756  -5.972  -5.362  0.00  0.00    -0.057 A 
ENDROOT
BRANCH   1   7
ATOM      7  N   UNL d   1      -2.172  -5.998  -3.418  0.00  0.00    -0.732 N 
ATOM      8  C   UNL d   1      -2.570  -5.116  -2.342  0.00  0.00     0.284 C 
ATOM      9  H3  UNL d   1      -2.889  -6.139  -4.127  0.00  0.00     0.395 HD
ENDBRANCH   1   7
TORSDOF 1
ENDMDL
