MODEL 1
REMARK minimizedAffinity 4.85951614
REMARK minimizedRMSD -1
REMARK  1 active torsions:
REMARK  status: ('A' for Active; 'I' for Inactive)
REMARK    1  A    between atoms: N_2  and  C1_3 
ROOT
ATOM      1  C1  UNL d   1       3.876   0.059   0.873  0.00  0.00     0.143 A 
ATOM      2  C2  UNL d   1       3.712   0.264  -0.501  0.00  0.00    -0.057 A 
ATOM      3  C3  UNL d   1       2.444   0.473  -1.057  0.00  0.00     0.033 A 
ATOM      4  C4  UNL d   1       1.312   0.451  -0.250  0.00  0.00    -0.042 A 
ATOM      5  C5  UNL d   1       1.449   0.224   1.115  0.00  0.00     0.033 A 
ATOM      6  C6  UNL d   1       2.718   0.022   1.666  0.00  0.00    -0.057 A 
ENDROOT
BRANCH   1   7
ATOM      7  N   UNL d   1       5.099  -0.253   1.473  0.00  0.00    -0.732 N 
ATOM      8  C   UNL d   1       5.472   0.341   2.739  0.00  0.00     0.284 C 
ATOM      9  H3  UNL d   1       5.331  -1.240   1.392  0.00  0.00     0.395 HD
ENDBRANCH   1   7
TORSDOF 1
ENDMDL
