MODEL 1
REMARK minimizedAffinity -2.8275969
REMARK minimizedRMSD -1
REMARK  1 active torsions:
REMARK  status: ('A' for Active; 'I' for Inactive)
REMARK    1  A    between atoms: N_2  and  C1_3 
ROOT
ATOM      1  C1  UNL d   1      -1.406  -5.553  -3.458  0.00  0.00     0.143 A 
ATOM      2  C2  UNL d   1      -0.109  -5.113  -3.174  0.00  0.00    -0.057 A 
ATOM      3  C3  UNL d   1       0.789  -4.789  -4.199  0.00  0.00     0.033 A 
ATOM      4  C4  UNL d   1       0.412  -4.928  -5.531  0.00  0.00    -0.042 A 
ATOM      5  C5  UNL d   1      -0.864  -5.387  -5.836  0.00  0.00     0.033 A 
ATOM      6  C6  UNL d   1      -1.758  -5.702  -4.808  0.00  0.00    -0.057 A 
ENDROOT
BRANCH   1   7
ATOM      7  N   UNL d   1      -2.312  -5.983  -2.485  0.00  0.00    -0.732 N 
ATOM      8  C   UNL d   1      -3.734  -5.989  -2.753  0.00  0.00     0.284 C 
ATOM      9  H3  UNL d   1      -1.980  -6.803  -1.981  0.00  0.00     0.395 HD
ENDBRANCH   1   7
TORSDOF 1
ENDMDL
