MODEL 1
REMARK minimizedAffinity -0.524980366
REMARK minimizedRMSD -1
REMARK  1 active torsions:
REMARK  status: ('A' for Active; 'I' for Inactive)
REMARK    1  A    between atoms: N_2  and  C1_3 
ROOT
ATOM      1  C1  UNL d   1      -1.355  -5.999  -3.448  0.00  0.00     0.143 A 
ATOM      2  C2  UNL d   1      -1.502  -5.918  -4.837  0.00  0.00    -0.057 A 
ATOM      3  C3  UNL d   1      -0.388  -5.820  -5.680  0.00  0.00     0.033 A 
ATOM      4  C4  UNL d   1       0.895  -5.772  -5.145  0.00  0.00    -0.042 A 
ATOM      5  C5  UNL d   1       1.063  -5.826  -3.766  0.00  0.00     0.033 A 
ATOM      6  C6  UNL d   1      -0.052  -5.930  -2.929  0.00  0.00    -0.057 A 
ENDROOT
BRANCH   1   7
ATOM      7  N   UNL d   1      -2.426  -5.999  -2.551  0.00  0.00    -0.732 N 
ATOM      8  C   UNL d   1      -3.779  -5.781  -3.019  0.00  0.00     0.284 C 
ATOM      9  H3  UNL d   1      -2.343  -6.727  -1.846  0.00  0.00     0.395 HD
ENDBRANCH   1   7
TORSDOF 1
ENDMDL
