MODEL 1
REMARK minimizedAffinity 7.99719477
REMARK minimizedRMSD -1
REMARK  1 active torsions:
REMARK  status: ('A' for Active; 'I' for Inactive)
REMARK    1  A    between atoms: N_2  and  C1_3 
ROOT
ATOM      1  C1  UNL d   1      -2.266  -5.992  -3.558  0.00  0.00     0.143 A 
ATOM      2  C2  UNL d   1      -2.774  -5.964  -4.861  0.00  0.00    -0.057 A 
ATOM      3  C3  UNL d   1      -1.924  -5.979  -5.973  0.00  0.00     0.033 A 
ATOM      4  C4  UNL d   1      -0.544  -5.994  -5.801  0.00  0.00    -0.042 A 
ATOM      5  C5  UNL d   1      -0.015  -5.996  -4.515  0.00  0.00     0.033 A 
ATOM      6  C6  UNL d   1      -0.870  -5.988  -3.408  0.00  0.00    -0.057 A 
ENDROOT
BRANCH   1   7
ATOM      7  N   UNL d   1      -3.056  -5.879  -2.412  0.00  0.00    -0.732 N 
ATOM      8  C   UNL d   1      -4.453  -5.514  -2.513  0.00  0.00     0.284 C 
ATOM      9  H3  UNL d   1      -2.867  -6.615  -1.735  0.00  0.00     0.395 HD
ENDBRANCH   1   7
TORSDOF 1
ENDMDL
