MODEL 1
REMARK minimizedAffinity 1.22167742
REMARK minimizedRMSD -1
REMARK  1 active torsions:
REMARK  status: ('A' for Active; 'I' for Inactive)
REMARK    1  A    between atoms: N_2  and  C1_3 
ROOT
ATOM      1  C1  UNL d   1       0.272  -0.672  -0.886  0.00  0.00     0.143 A 
ATOM      2  C2  UNL d   1       0.190  -2.053  -0.673  0.00  0.00    -0.057 A 
ATOM      3  C3  UNL d   1       0.197  -2.589   0.620  0.00  0.00     0.033 A 
ATOM      4  C4  UNL d   1       0.315  -1.754   1.726  0.00  0.00    -0.042 A 
ATOM      5  C5  UNL d   1       0.423  -0.381   1.537  0.00  0.00     0.033 A 
ATOM      6  C6  UNL d   1       0.409   0.150   0.244  0.00  0.00    -0.057 A 
ENDROOT
BRANCH   1   7
ATOM      7  N   UNL d   1       0.370  -0.085  -2.150  0.00  0.00    -0.732 N 
ATOM      8  C   UNL d   1      -0.722   0.701  -2.683  0.00  0.00     0.284 C 
ATOM      9  H3  UNL d   1       1.291   0.310  -2.324  0.00  0.00     0.395 HD
ENDBRANCH   1   7
TORSDOF 1
ENDMDL
