MODEL 1
REMARK minimizedAffinity -1.11688304
REMARK minimizedRMSD -1
REMARK  0 active torsions:
REMARK  status: ('A' for Active; 'I' for Inactive)
ROOT
ATOM      1  C2' OXE d   1      -4.512   1.987   1.500  0.00  0.00     0.078 C 
ATOM      2  C1' OXE d   1      -4.500   4.131  -0.312  0.00  0.00     0.078 C 
ATOM      3  C1  OXE d   1      -5.018   4.390   1.081  0.00  0.00    -0.078 A 
ATOM      4  C2  OXE d   1      -5.064   3.324   1.947  0.00  0.00    -0.078 A 
ATOM      5  C3  OXE d   1      -5.482   3.520   3.260  0.00  0.00     0.003 A 
ATOM      6  C4  OXE d   1      -5.999   4.757   3.662  0.00  0.00    -0.002 A 
ATOM      7  C5  OXE d   1      -5.999   5.846   2.783  0.00  0.00    -0.002 A 
ATOM      8  C6  OXE d   1      -5.473   5.691   1.505  0.00  0.00     0.003 A 
ENDROOT
TORSDOF 0
ENDMDL
