MODEL 1
REMARK minimizedAffinity 2.15753317
REMARK minimizedRMSD -1
REMARK  0 active torsions:
REMARK  status: ('A' for Active; 'I' for Inactive)
ROOT
ATOM      1  C2' OXE d   1      -5.865   3.193   5.507  0.00  0.00     0.078 C 
ATOM      2  C1' OXE d   1      -5.961   5.998   5.495  0.00  0.00     0.078 C 
ATOM      3  C1  OXE d   1      -5.943   5.289   4.164  0.00  0.00    -0.078 A 
ATOM      4  C2  OXE d   1      -5.848   3.919   4.179  0.00  0.00    -0.078 A 
ATOM      5  C3  OXE d   1      -5.883   3.212   2.980  0.00  0.00     0.003 A 
ATOM      6  C4  OXE d   1      -5.858   3.892   1.756  0.00  0.00    -0.002 A 
ATOM      7  C5  OXE d   1      -5.913   5.289   1.718  0.00  0.00    -0.002 A 
ATOM      8  C6  OXE d   1      -5.999   6.000   2.910  0.00  0.00     0.003 A 
ENDROOT
TORSDOF 0
ENDMDL
