MODEL 1
REMARK minimizedAffinity -2.10211134
REMARK minimizedRMSD -1
REMARK  0 active torsions:
REMARK  status: ('A' for Active; 'I' for Inactive)
ROOT
ATOM      1  C2' OXE d   1      -4.500   3.035   5.247  0.00  0.00     0.078 C 
ATOM      2  C1' OXE d   1      -5.861   5.412   5.862  0.00  0.00     0.078 C 
ATOM      3  C1  OXE d   1      -5.576   5.120   4.410  0.00  0.00    -0.078 A 
ATOM      4  C2  OXE d   1      -4.869   3.978   4.122  0.00  0.00    -0.078 A 
ATOM      5  C3  OXE d   1      -4.627   3.633   2.795  0.00  0.00     0.003 A 
ATOM      6  C4  OXE d   1      -4.963   4.516   1.761  0.00  0.00    -0.002 A 
ATOM      7  C5  OXE d   1      -5.649   5.704   2.036  0.00  0.00    -0.002 A 
ATOM      8  C6  OXE d   1      -6.000   5.999   3.349  0.00  0.00     0.003 A 
ENDROOT
TORSDOF 0
ENDMDL
