MODEL 1
REMARK minimizedAffinity -2.08855295
REMARK minimizedRMSD -1
REMARK  0 active torsions:
REMARK  status: ('A' for Active; 'I' for Inactive)
ROOT
ATOM      1  C2' OXE d   1      -5.999   2.577   4.517  0.00  0.00     0.078 C 
ATOM      2  C1' OXE d   1      -5.226   5.125   5.407  0.00  0.00     0.078 C 
ATOM      3  C1  OXE d   1      -5.422   4.927   3.925  0.00  0.00    -0.078 A 
ATOM      4  C2  OXE d   1      -5.754   3.666   3.494  0.00  0.00    -0.078 A 
ATOM      5  C3  OXE d   1      -6.000   3.442   2.142  0.00  0.00     0.003 A 
ATOM      6  C4  OXE d   1      -5.762   4.451   1.201  0.00  0.00    -0.002 A 
ATOM      7  C5  OXE d   1      -5.384   5.732   1.615  0.00  0.00    -0.002 A 
ATOM      8  C6  OXE d   1      -5.251   5.998   2.974  0.00  0.00     0.003 A 
ENDROOT
TORSDOF 0
ENDMDL
