MODEL 1
REMARK minimizedAffinity -0.687037706
REMARK minimizedRMSD -1
REMARK  0 active torsions:
REMARK  status: ('A' for Active; 'I' for Inactive)
ROOT
ATOM      1  C2' OXE d   1      -3.667  -0.744   0.107  0.00  0.00     0.078 C 
ATOM      2  C1' OXE d   1      -1.936  -1.181  -2.059  0.00  0.00     0.078 C 
ATOM      3  C1  OXE d   1      -1.327  -0.755  -0.747  0.00  0.00    -0.078 A 
ATOM      4  C2  OXE d   1      -2.185  -0.498   0.295  0.00  0.00    -0.078 A 
ATOM      5  C3  OXE d   1      -1.672  -0.155   1.543  0.00  0.00     0.003 A 
ATOM      6  C4  OXE d   1      -0.302   0.081   1.705  0.00  0.00    -0.002 A 
ATOM      7  C5  OXE d   1       0.586  -0.137   0.646  0.00  0.00    -0.002 A 
ATOM      8  C6  OXE d   1       0.096  -0.595  -0.572  0.00  0.00     0.003 A 
ENDROOT
TORSDOF 0
ENDMDL
