MODEL 1
REMARK minimizedAffinity 0.614462674
REMARK minimizedRMSD -1
REMARK  0 active torsions:
REMARK  status: ('A' for Active; 'I' for Inactive)
ROOT
ATOM      1  C2' OXE d   1      -4.397   3.389   4.690  0.00  0.00     0.078 C 
ATOM      2  C1' OXE d   1      -4.340   2.045   2.226  0.00  0.00     0.078 C 
ATOM      3  C1  OXE d   1      -4.915   3.439   2.254  0.00  0.00    -0.078 A 
ATOM      4  C2  OXE d   1      -4.981   4.071   3.472  0.00  0.00    -0.078 A 
ATOM      5  C3  OXE d   1      -5.452   5.379   3.546  0.00  0.00     0.003 A 
ATOM      6  C4  OXE d   1      -6.000   6.000   2.417  0.00  0.00    -0.002 A 
ATOM      7  C5  OXE d   1      -5.978   5.358   1.173  0.00  0.00    -0.002 A 
ATOM      8  C6  OXE d   1      -5.402   4.098   1.067  0.00  0.00     0.003 A 
ENDROOT
TORSDOF 0
ENDMDL
