MODEL 1
REMARK minimizedAffinity -0.737747252
REMARK minimizedRMSD -1
REMARK  0 active torsions:
REMARK  status: ('A' for Active; 'I' for Inactive)
ROOT
ATOM      1  C2' OXE d   1      -5.719   6.000   2.159  0.00  0.00     0.078 C 
ATOM      2  C1' OXE d   1      -5.705   3.193   2.194  0.00  0.00     0.078 C 
ATOM      3  C1  OXE d   1      -5.825   3.912   3.514  0.00  0.00    -0.078 A 
ATOM      4  C2  OXE d   1      -5.784   5.286   3.492  0.00  0.00    -0.078 A 
ATOM      5  C3  OXE d   1      -5.945   6.000   4.676  0.00  0.00     0.003 A 
ATOM      6  C4  OXE d   1      -5.995   5.332   5.905  0.00  0.00    -0.002 A 
ATOM      7  C5  OXE d   1      -5.998   3.934   5.954  0.00  0.00    -0.002 A 
ATOM      8  C6  OXE d   1      -5.957   3.210   4.767  0.00  0.00     0.003 A 
ENDROOT
TORSDOF 0
ENDMDL
