MODEL 1
REMARK minimizedAffinity -1.84208286
REMARK minimizedRMSD -1
REMARK  0 active torsions:
REMARK  status: ('A' for Active; 'I' for Inactive)
ROOT
ATOM      1  C2' OXE d   1      -5.946   5.188   5.202  0.00  0.00     0.078 C 
ATOM      2  C1' OXE d   1      -4.269   3.079   4.414  0.00  0.00     0.078 C 
ATOM      3  C1  OXE d   1      -4.730   4.046   3.352  0.00  0.00    -0.078 A 
ATOM      4  C2  OXE d   1      -5.587   5.048   3.738  0.00  0.00    -0.078 A 
ATOM      5  C3  OXE d   1      -5.999   5.999   2.809  0.00  0.00     0.003 A 
ATOM      6  C4  OXE d   1      -5.671   5.856   1.456  0.00  0.00    -0.002 A 
ATOM      7  C5  OXE d   1      -4.831   4.820   1.034  0.00  0.00    -0.002 A 
ATOM      8  C6  OXE d   1      -4.318   3.933   1.975  0.00  0.00     0.003 A 
ENDROOT
TORSDOF 0
ENDMDL
