MODEL 1
REMARK minimizedAffinity -1.73477697
REMARK minimizedRMSD -1
REMARK  0 active torsions:
REMARK  status: ('A' for Active; 'I' for Inactive)
ROOT
ATOM      1  C2' OXE d   1      -5.975   2.748   5.277  0.00  0.00     0.078 C 
ATOM      2  C1' OXE d   1      -5.040   5.294   5.999  0.00  0.00     0.078 C 
ATOM      3  C1  OXE d   1      -5.244   5.009   4.532  0.00  0.00    -0.078 A 
ATOM      4  C2  OXE d   1      -5.657   3.746   4.184  0.00  0.00    -0.078 A 
ATOM      5  C3  OXE d   1      -5.913   3.447   2.849  0.00  0.00     0.003 A 
ATOM      6  C4  OXE d   1      -5.606   4.372   1.844  0.00  0.00    -0.002 A 
ATOM      7  C5  OXE d   1      -5.146   5.652   2.174  0.00  0.00    -0.002 A 
ATOM      8  C6  OXE d   1      -5.001   6.000   3.512  0.00  0.00     0.003 A 
ENDROOT
TORSDOF 0
ENDMDL
