MODEL 1
REMARK minimizedAffinity 0.73612684
REMARK minimizedRMSD -1
REMARK  0 active torsions:
REMARK  status: ('A' for Active; 'I' for Inactive)
ROOT
ATOM      1  C2' OXE d   1      -5.193   2.302   3.963  0.00  0.00     0.078 C 
ATOM      2  C1' OXE d   1      -3.745   4.516   4.904  0.00  0.00     0.078 C 
ATOM      3  C1  OXE d   1      -4.537   4.682   3.631  0.00  0.00    -0.078 A 
ATOM      4  C2  OXE d   1      -5.205   3.581   3.153  0.00  0.00    -0.078 A 
ATOM      5  C3  OXE d   1      -5.996   3.695   2.013  0.00  0.00     0.003 A 
ATOM      6  C4  OXE d   1      -5.993   4.878   1.265  0.00  0.00    -0.002 A 
ATOM      7  C5  OXE d   1      -5.288   6.000   1.712  0.00  0.00    -0.002 A 
ATOM      8  C6  OXE d   1      -4.591   5.932   2.913  0.00  0.00     0.003 A 
ENDROOT
TORSDOF 0
ENDMDL
