MODEL 1
REMARK minimizedAffinity -3.28879476
REMARK minimizedRMSD -1
REMARK  0 active torsions:
REMARK  status: ('A' for Active; 'I' for Inactive)
ROOT
ATOM      1  C2' OXE d   1      -4.508   5.989   2.264  0.00  0.00     0.078 C 
ATOM      2  C1' OXE d   1      -6.000   3.638   1.905  0.00  0.00     0.078 C 
ATOM      3  C1  OXE d   1      -5.611   4.016   3.312  0.00  0.00    -0.078 A 
ATOM      4  C2  OXE d   1      -4.841   5.143   3.474  0.00  0.00    -0.078 A 
ATOM      5  C3  OXE d   1      -4.501   5.567   4.756  0.00  0.00     0.003 A 
ATOM      6  C4  OXE d   1      -4.804   4.773   5.869  0.00  0.00    -0.002 A 
ATOM      7  C5  OXE d   1      -5.553   3.601   5.722  0.00  0.00    -0.002 A 
ATOM      8  C6  OXE d   1      -6.000   3.231   4.458  0.00  0.00     0.003 A 
ENDROOT
TORSDOF 0
ENDMDL
