MODEL 1
REMARK minimizedAffinity -2.1346457
REMARK minimizedRMSD -1
REMARK  0 active torsions:
REMARK  status: ('A' for Active; 'I' for Inactive)
ROOT
ATOM      1  C2' OXE d   1      -5.294   5.966   1.811  0.00  0.00     0.078 C 
ATOM      2  C1' OXE d   1      -5.610   3.177   1.838  0.00  0.00     0.078 C 
ATOM      3  C1  OXE d   1      -5.710   3.909   3.153  0.00  0.00    -0.078 A 
ATOM      4  C2  OXE d   1      -5.507   5.268   3.137  0.00  0.00    -0.078 A 
ATOM      5  C3  OXE d   1      -5.643   6.000   4.314  0.00  0.00     0.003 A 
ATOM      6  C4  OXE d   1      -5.830   5.345   5.537  0.00  0.00    -0.002 A 
ATOM      7  C5  OXE d   1      -5.999   3.957   5.581  0.00  0.00    -0.002 A 
ATOM      8  C6  OXE d   1      -5.984   3.231   4.396  0.00  0.00     0.003 A 
ENDROOT
TORSDOF 0
ENDMDL
