MODEL 1
REMARK minimizedAffinity -3.50670409
REMARK minimizedRMSD -1
REMARK  0 active torsions:
REMARK  status: ('A' for Active; 'I' for Inactive)
ROOT
ATOM      1  C2' OXE d   1      -6.000   2.157   4.259  0.00  0.00     0.078 C 
ATOM      2  C1' OXE d   1      -5.453   4.339   5.938  0.00  0.00     0.078 C 
ATOM      3  C1  OXE d   1      -5.271   4.531   4.454  0.00  0.00    -0.078 A 
ATOM      4  C2  OXE d   1      -5.496   3.444   3.643  0.00  0.00    -0.078 A 
ATOM      5  C3  OXE d   1      -5.396   3.582   2.262  0.00  0.00     0.003 A 
ATOM      6  C4  OXE d   1      -4.919   4.773   1.701  0.00  0.00    -0.002 A 
ATOM      7  C5  OXE d   1      -4.646   5.880   2.512  0.00  0.00    -0.002 A 
ATOM      8  C6  OXE d   1      -4.857   5.789   3.883  0.00  0.00     0.003 A 
ENDROOT
TORSDOF 0
ENDMDL
