MODEL 1
REMARK minimizedAffinity -3.25844288
REMARK minimizedRMSD -1
REMARK  0 active torsions:
REMARK  status: ('A' for Active; 'I' for Inactive)
ROOT
ATOM      1  C2' OXE d   1      -5.253   2.359   4.685  0.00  0.00     0.078 C 
ATOM      2  C1' OXE d   1      -5.999   4.724   6.000  0.00  0.00     0.078 C 
ATOM      3  C1  OXE d   1      -5.788   4.785   4.507  0.00  0.00    -0.078 A 
ATOM      4  C2  OXE d   1      -5.377   3.634   3.879  0.00  0.00    -0.078 A 
ATOM      5  C3  OXE d   1      -5.221   3.621   2.496  0.00  0.00     0.003 A 
ATOM      6  C4  OXE d   1      -5.329   4.807   1.760  0.00  0.00    -0.002 A 
ATOM      7  C5  OXE d   1      -5.707   6.000   2.386  0.00  0.00    -0.002 A 
ATOM      8  C6  OXE d   1      -5.982   5.996   3.749  0.00  0.00     0.003 A 
ENDROOT
TORSDOF 0
ENDMDL
