MODEL 1
REMARK minimizedAffinity -3.33662081
REMARK minimizedRMSD -1
REMARK  0 active torsions:
REMARK  status: ('A' for Active; 'I' for Inactive)
ROOT
ATOM      1  C2' OXE d   1      -4.563   5.351   6.000  0.00  0.00     0.078 C 
ATOM      2  C1' OXE d   1      -5.998   3.044   5.296  0.00  0.00     0.078 C 
ATOM      3  C1  OXE d   1      -5.583   3.979   4.188  0.00  0.00    -0.078 A 
ATOM      4  C2  OXE d   1      -4.922   5.129   4.546  0.00  0.00    -0.078 A 
ATOM      5  C3  OXE d   1      -4.468   5.999   3.559  0.00  0.00     0.003 A 
ATOM      6  C4  OXE d   1      -4.812   5.791   2.218  0.00  0.00    -0.002 A 
ATOM      7  C5  OXE d   1      -5.519   4.646   1.836  0.00  0.00    -0.002 A 
ATOM      8  C6  OXE d   1      -5.874   3.711   2.802  0.00  0.00     0.003 A 
ENDROOT
TORSDOF 0
ENDMDL
