MODEL 1
REMARK minimizedAffinity -3.8997612
REMARK minimizedRMSD -1
REMARK  0 active torsions:
REMARK  status: ('A' for Active; 'I' for Inactive)
ROOT
ATOM      1  C2' OXE d   1      -5.204   3.301   5.892  0.00  0.00     0.078 C 
ATOM      2  C1' OXE d   1      -5.994   5.995   5.868  0.00  0.00     0.078 C 
ATOM      3  C1  OXE d   1      -5.784   5.312   4.540  0.00  0.00    -0.078 A 
ATOM      4  C2  OXE d   1      -5.352   4.007   4.561  0.00  0.00    -0.078 A 
ATOM      5  C3  OXE d   1      -5.195   3.314   3.365  0.00  0.00     0.003 A 
ATOM      6  C4  OXE d   1      -5.325   3.977   2.138  0.00  0.00    -0.002 A 
ATOM      7  C5  OXE d   1      -5.725   5.317   2.095  0.00  0.00    -0.002 A 
ATOM      8  C6  OXE d   1      -5.999   5.985   3.283  0.00  0.00     0.003 A 
ENDROOT
TORSDOF 0
ENDMDL
