MODEL 1
REMARK minimizedAffinity -3.12001133
REMARK minimizedRMSD -1
REMARK  0 active torsions:
REMARK  status: ('A' for Active; 'I' for Inactive)
ROOT
ATOM      1  C2' OXE d   1      -3.549  -1.064  -0.033  0.00  0.00     0.078 C 
ATOM      2  C1' OXE d   1      -2.143  -2.392   2.002  0.00  0.00     0.078 C 
ATOM      3  C1  OXE d   1      -1.341  -1.653   0.960  0.00  0.00    -0.078 A 
ATOM      4  C2  OXE d   1      -2.036  -1.046  -0.059  0.00  0.00    -0.078 A 
ATOM      5  C3  OXE d   1      -1.348  -0.304  -1.016  0.00  0.00     0.003 A 
ATOM      6  C4  OXE d   1       0.052  -0.300  -1.038  0.00  0.00    -0.002 A 
ATOM      7  C5  OXE d   1       0.779  -0.946  -0.033  0.00  0.00    -0.002 A 
ATOM      8  C6  OXE d   1       0.099  -1.590   0.995  0.00  0.00     0.003 A 
ENDROOT
TORSDOF 0
ENDMDL
