MODEL 1
REMARK minimizedAffinity -1.09647799
REMARK minimizedRMSD -1
REMARK  0 active torsions:
REMARK  status: ('A' for Active; 'I' for Inactive)
ROOT
ATOM      1  C2' OXE d   1      -6.000   5.879   4.003  0.00  0.00     0.078 C 
ATOM      2  C1' OXE d   1      -4.913   4.344   1.919  0.00  0.00     0.078 C 
ATOM      3  C1  OXE d   1      -5.000   3.713   3.286  0.00  0.00    -0.078 A 
ATOM      4  C2  OXE d   1      -5.490   4.487   4.310  0.00  0.00    -0.078 A 
ATOM      5  C3  OXE d   1      -5.643   3.936   5.579  0.00  0.00     0.003 A 
ATOM      6  C4  OXE d   1      -5.160   2.652   5.857  0.00  0.00    -0.002 A 
ATOM      7  C5  OXE d   1      -4.621   1.860   4.837  0.00  0.00    -0.002 A 
ATOM      8  C6  OXE d   1      -4.573   2.359   3.540  0.00  0.00     0.003 A 
ENDROOT
TORSDOF 0
ENDMDL
