MODEL 1
REMARK minimizedAffinity -3.62357354
REMARK minimizedRMSD -1
REMARK  0 active torsions:
REMARK  status: ('A' for Active; 'I' for Inactive)
ROOT
ATOM      1  C2' OXE d   1      -5.627   2.385   4.883  0.00  0.00     0.078 C 
ATOM      2  C1' OXE d   1      -5.687   4.960   6.000  0.00  0.00     0.078 C 
ATOM      3  C1  OXE d   1      -5.692   4.845   4.496  0.00  0.00    -0.078 A 
ATOM      4  C2  OXE d   1      -5.615   3.583   3.958  0.00  0.00    -0.078 A 
ATOM      5  C3  OXE d   1      -5.670   3.418   2.577  0.00  0.00     0.003 A 
ATOM      6  C4  OXE d   1      -5.649   4.531   1.728  0.00  0.00    -0.002 A 
ATOM      7  C5  OXE d   1      -5.687   5.826   2.256  0.00  0.00    -0.002 A 
ATOM      8  C6  OXE d   1      -5.752   5.999   3.634  0.00  0.00     0.003 A 
ENDROOT
TORSDOF 0
ENDMDL
