MODEL 1
REMARK minimizedAffinity 11.6833649
REMARK minimizedRMSD -1
REMARK  0 active torsions:
REMARK  status: ('A' for Active; 'I' for Inactive)
ROOT
ATOM      1  C4' PXY d   1       2.278  -0.123  -0.162  0.00  0.00     0.077 C 
ATOM      2  C1' PXY d   1      -1.397   3.399  -2.902  0.00  0.00     0.077 C 
ATOM      3  C1  PXY d   1      -0.429   2.471  -2.195  0.00  0.00    -0.082 A 
ATOM      4  C2  PXY d   1      -0.693   2.065  -0.964  0.00  0.00     0.003 A 
ATOM      5  C3  PXY d   1       0.187   1.252  -0.298  0.00  0.00     0.003 A 
ATOM      6  C4  PXY d   1       1.324   0.806  -0.918  0.00  0.00    -0.082 A 
ATOM      7  C5  PXY d   1       1.596   1.208  -2.178  0.00  0.00     0.003 A 
ATOM      8  C6  PXY d   1       0.709   2.066  -2.822  0.00  0.00     0.003 A 
ENDROOT
TORSDOF 0
ENDMDL
