MODEL 1
REMARK minimizedAffinity 1.19688916
REMARK minimizedRMSD -1
REMARK  0 active torsions:
REMARK  status: ('A' for Active; 'I' for Inactive)
ROOT
ATOM      1  C4' PXY d   1      -0.672   5.998  -4.974  0.00  0.00     0.077 C 
ATOM      2  C1' PXY d   1      -4.748   1.906  -4.733  0.00  0.00     0.077 C 
ATOM      3  C1  PXY d   1      -3.671   2.971  -4.790  0.00  0.00    -0.082 A 
ATOM      4  C2  PXY d   1      -4.015   4.245  -4.882  0.00  0.00     0.003 A 
ATOM      5  C3  PXY d   1      -3.053   5.219  -4.967  0.00  0.00     0.003 A 
ATOM      6  C4  PXY d   1      -1.726   4.889  -4.904  0.00  0.00    -0.082 A 
ATOM      7  C5  PXY d   1      -1.367   3.592  -4.799  0.00  0.00     0.003 A 
ATOM      8  C6  PXY d   1      -2.358   2.616  -4.756  0.00  0.00     0.003 A 
ENDROOT
TORSDOF 0
ENDMDL
