MODEL 1
REMARK minimizedAffinity 8.47898197
REMARK minimizedRMSD -1
REMARK  0 active torsions:
REMARK  status: ('A' for Active; 'I' for Inactive)
ROOT
ATOM      1  C4' PXY d   1      -4.746   2.415  -5.060  0.00  0.00     0.077 C 
ATOM      2  C1' PXY d   1      -0.253   5.994  -4.415  0.00  0.00     0.077 C 
ATOM      3  C1  PXY d   1      -1.424   5.046  -4.588  0.00  0.00    -0.082 A 
ATOM      4  C2  PXY d   1      -2.636   5.534  -4.796  0.00  0.00     0.003 A 
ATOM      5  C3  PXY d   1      -3.710   4.692  -4.923  0.00  0.00     0.003 A 
ATOM      6  C4  PXY d   1      -3.534   3.335  -4.889  0.00  0.00    -0.082 A 
ATOM      7  C5  PXY d   1      -2.299   2.829  -4.688  0.00  0.00     0.003 A 
ATOM      8  C6  PXY d   1      -1.228   3.701  -4.521  0.00  0.00     0.003 A 
ENDROOT
TORSDOF 0
ENDMDL
