MODEL 1
REMARK minimizedAffinity 12.2843103
REMARK minimizedRMSD -1
REMARK  0 active torsions:
REMARK  status: ('A' for Active; 'I' for Inactive)
ROOT
ATOM      1  C4' PXY d   1      -1.876   0.747   4.182  0.00  0.00     0.077 C 
ATOM      2  C1' PXY d   1      -0.361  -4.543   5.953  0.00  0.00     0.077 C 
ATOM      3  C1  PXY d   1      -0.771  -3.158   5.491  0.00  0.00    -0.082 A 
ATOM      4  C2  PXY d   1      -0.031  -2.520   4.599  0.00  0.00     0.003 A 
ATOM      5  C3  PXY d   1      -0.369  -1.255   4.195  0.00  0.00     0.003 A 
ATOM      6  C4  PXY d   1      -1.506  -0.657   4.669  0.00  0.00    -0.082 A 
ATOM      7  C5  PXY d   1      -2.272  -1.305   5.571  0.00  0.00     0.003 A 
ATOM      8  C6  PXY d   1      -1.889  -2.573   6.000  0.00  0.00     0.003 A 
ENDROOT
TORSDOF 0
ENDMDL
