MODEL 1
REMARK minimizedAffinity 15.2582216
REMARK minimizedRMSD -1
REMARK  0 active torsions:
REMARK  status: ('A' for Active; 'I' for Inactive)
ROOT
ATOM      1  C4' PXY d   1       0.790   0.037   2.495  0.00  0.00     0.077 C 
ATOM      2  C1' PXY d   1      -2.926   3.222  -0.580  0.00  0.00     0.077 C 
ATOM      3  C1  PXY d   1      -1.960   2.388   0.236  0.00  0.00    -0.082 A 
ATOM      4  C2  PXY d   1      -0.675   2.376  -0.081  0.00  0.00     0.003 A 
ATOM      5  C3  PXY d   1       0.208   1.602   0.627  0.00  0.00     0.003 A 
ATOM      6  C4  PXY d   1      -0.220   0.873   1.704  0.00  0.00    -0.082 A 
ATOM      7  C5  PXY d   1      -1.527   0.888   2.041  0.00  0.00     0.003 A 
ATOM      8  C6  PXY d   1      -2.414   1.648   1.284  0.00  0.00     0.003 A 
ENDROOT
TORSDOF 0
ENDMDL
