MODEL 1
REMARK minimizedAffinity 6.75295973
REMARK minimizedRMSD -1
REMARK  0 active torsions:
REMARK  status: ('A' for Active; 'I' for Inactive)
ROOT
ATOM      1  C4' PXY d   1      -5.434   2.340  -5.673  0.00  0.00     0.077 C 
ATOM      2  C1' PXY d   1      -1.131   6.000  -4.445  0.00  0.00     0.077 C 
ATOM      3  C1  PXY d   1      -2.267   5.050  -4.770  0.00  0.00    -0.082 A 
ATOM      4  C2  PXY d   1      -2.324   3.870  -4.175  0.00  0.00     0.003 A 
ATOM      5  C3  PXY d   1      -3.326   2.986  -4.482  0.00  0.00     0.003 A 
ATOM      6  C4  PXY d   1      -4.310   3.334  -5.368  0.00  0.00    -0.082 A 
ATOM      7  C5  PXY d   1      -4.265   4.541  -5.971  0.00  0.00     0.003 A 
ATOM      8  C6  PXY d   1      -3.217   5.408  -5.677  0.00  0.00     0.003 A 
ENDROOT
TORSDOF 0
ENDMDL
