MODEL 1
REMARK minimizedAffinity -0.492194861
REMARK minimizedRMSD -1
REMARK  0 active torsions:
REMARK  status: ('A' for Active; 'I' for Inactive)
ROOT
ATOM      1  C4' PXY d   1      -5.110   2.287  -6.000  0.00  0.00     0.077 C 
ATOM      2  C1' PXY d   1      -0.806   5.999  -4.947  0.00  0.00     0.077 C 
ATOM      3  C1  PXY d   1      -1.943   5.035  -5.222  0.00  0.00    -0.082 A 
ATOM      4  C2  PXY d   1      -1.783   3.746  -4.972  0.00  0.00     0.003 A 
ATOM      5  C3  PXY d   1      -2.790   2.856  -5.245  0.00  0.00     0.003 A 
ATOM      6  C4  PXY d   1      -3.992   3.298  -5.729  0.00  0.00    -0.082 A 
ATOM      7  C5  PXY d   1      -4.167   4.613  -5.977  0.00  0.00     0.003 A 
ATOM      8  C6  PXY d   1      -3.118   5.495  -5.732  0.00  0.00     0.003 A 
ENDROOT
TORSDOF 0
ENDMDL
