MODEL 1
REMARK minimizedAffinity 14.4554243
REMARK minimizedRMSD -1
REMARK  0 active torsions:
REMARK  status: ('A' for Active; 'I' for Inactive)
ROOT
ATOM      1  C4' PXY d   1      -2.526  -0.092   5.395  0.00  0.00     0.077 C 
ATOM      2  C1' PXY d   1      -0.012  -5.278   5.840  0.00  0.00     0.077 C 
ATOM      3  C1  PXY d   1      -0.680  -3.923   5.715  0.00  0.00    -0.082 A 
ATOM      4  C2  PXY d   1       0.006  -2.827   5.998  0.00  0.00     0.003 A 
ATOM      5  C3  PXY d   1      -0.592  -1.596   5.921  0.00  0.00     0.003 A 
ATOM      6  C4  PXY d   1      -1.889  -1.481   5.499  0.00  0.00    -0.082 A 
ATOM      7  C5  PXY d   1      -2.592  -2.593   5.197  0.00  0.00     0.003 A 
ATOM      8  C6  PXY d   1      -1.979  -3.837   5.322  0.00  0.00     0.003 A 
ENDROOT
TORSDOF 0
ENDMDL
