MODEL 1
REMARK minimizedAffinity 17.0041733
REMARK minimizedRMSD -1
REMARK  0 active torsions:
REMARK  status: ('A' for Active; 'I' for Inactive)
ROOT
ATOM      1  C4' PXY d   1      -5.264   5.658   1.151  0.00  0.00     0.077 C 
ATOM      2  C1' PXY d   1      -1.306   1.619  -0.050  0.00  0.00     0.077 C 
ATOM      3  C1  PXY d   1      -2.335   2.688   0.263  0.00  0.00    -0.082 A 
ATOM      4  C2  PXY d   1      -3.362   2.398   1.045  0.00  0.00     0.003 A 
ATOM      5  C3  PXY d   1      -4.319   3.343   1.312  0.00  0.00     0.003 A 
ATOM      6  C4  PXY d   1      -4.195   4.613   0.816  0.00  0.00    -0.082 A 
ATOM      7  C5  PXY d   1      -3.145   4.920   0.025  0.00  0.00     0.003 A 
ATOM      8  C6  PXY d   1      -2.206   3.934  -0.267  0.00  0.00     0.003 A 
ENDROOT
TORSDOF 0
ENDMDL
