MODEL 1
REMARK minimizedAffinity 7.06000996
REMARK minimizedRMSD -1
REMARK  0 active torsions:
REMARK  status: ('A' for Active; 'I' for Inactive)
ROOT
ATOM      1  C4' PXY d   1      -5.999  -5.645   5.202  0.00  0.00     0.077 C 
ATOM      2  C1' PXY d   1      -2.244  -1.250   5.252  0.00  0.00     0.077 C 
ATOM      3  C1  PXY d   1      -3.233  -2.399   5.251  0.00  0.00    -0.082 A 
ATOM      4  C2  PXY d   1      -2.987  -3.473   4.519  0.00  0.00     0.003 A 
ATOM      5  C3  PXY d   1      -3.886  -4.508   4.481  0.00  0.00     0.003 A 
ATOM      6  C4  PXY d   1      -5.024  -4.465   5.241  0.00  0.00    -0.082 A 
ATOM      7  C5  PXY d   1      -5.277  -3.377   5.999  0.00  0.00     0.003 A 
ATOM      8  C6  PXY d   1      -4.372  -2.320   5.992  0.00  0.00     0.003 A 
ENDROOT
TORSDOF 0
ENDMDL
