MODEL 1
REMARK minimizedAffinity 4.46871138
REMARK minimizedRMSD -1
REMARK  0 active torsions:
REMARK  status: ('A' for Active; 'I' for Inactive)
ROOT
ATOM      1  C4' PXY d   1      -5.114   1.719  -5.716  0.00  0.00     0.077 C 
ATOM      2  C1' PXY d   1      -1.075   5.813  -5.131  0.00  0.00     0.077 C 
ATOM      3  C1  PXY d   1      -2.143   4.748  -5.284  0.00  0.00    -0.082 A 
ATOM      4  C2  PXY d   1      -1.881   3.502  -4.927  0.00  0.00     0.003 A 
ATOM      5  C3  PXY d   1      -2.825   2.520  -5.089  0.00  0.00     0.003 A 
ATOM      6  C4  PXY d   1      -4.069   2.828  -5.571  0.00  0.00    -0.082 A 
ATOM      7  C5  PXY d   1      -4.348   4.100  -5.927  0.00  0.00     0.003 A 
ATOM      8  C6  PXY d   1      -3.362   5.074  -5.794  0.00  0.00     0.003 A 
ENDROOT
TORSDOF 0
ENDMDL
