MODEL 1
REMARK minimizedAffinity 0.540457368
REMARK minimizedRMSD -1
REMARK  0 active torsions:
REMARK  status: ('A' for Active; 'I' for Inactive)
ROOT
ATOM      1  C4' PXY d   1      -6.000   2.887  -5.955  0.00  0.00     0.077 C 
ATOM      2  C1' PXY d   1      -1.467   6.000  -4.171  0.00  0.00     0.077 C 
ATOM      3  C1  PXY d   1      -2.663   5.194  -4.639  0.00  0.00    -0.082 A 
ATOM      4  C2  PXY d   1      -2.690   3.887  -4.439  0.00  0.00     0.003 A 
ATOM      5  C3  PXY d   1      -3.749   3.138  -4.883  0.00  0.00     0.003 A 
ATOM      6  C4  PXY d   1      -4.817   3.742  -5.492  0.00  0.00    -0.082 A 
ATOM      7  C5  PXY d   1      -4.802   5.077  -5.689  0.00  0.00     0.003 A 
ATOM      8  C6  PXY d   1      -3.699   5.813  -5.267  0.00  0.00     0.003 A 
ENDROOT
TORSDOF 0
ENDMDL
