MODEL 1
REMARK minimizedAffinity 19.8423347
REMARK minimizedRMSD -1
REMARK  0 active torsions:
REMARK  status: ('A' for Active; 'I' for Inactive)
ROOT
ATOM      1  C4' PXY d   1      -1.537   0.934   4.033  0.00  0.00     0.077 C 
ATOM      2  C1' PXY d   1      -1.107  -4.484   6.000  0.00  0.00     0.077 C 
ATOM      3  C1  PXY d   1      -1.233  -3.063   5.487  0.00  0.00    -0.082 A 
ATOM      4  C2  PXY d   1      -0.381  -2.619   4.577  0.00  0.00     0.003 A 
ATOM      5  C3  PXY d   1      -0.460  -1.326   4.126  0.00  0.00     0.003 A 
ATOM      6  C4  PXY d   1      -1.454  -0.496   4.572  0.00  0.00    -0.082 A 
ATOM      7  C5  PXY d   1      -2.333  -0.946   5.493  0.00  0.00     0.003 A 
ATOM      8  C6  PXY d   1      -2.210  -2.248   5.969  0.00  0.00     0.003 A 
ENDROOT
TORSDOF 0
ENDMDL
