MODEL 1
REMARK minimizedAffinity 16.2660255
REMARK minimizedRMSD -1
REMARK  0 active torsions:
REMARK  status: ('A' for Active; 'I' for Inactive)
ROOT
ATOM      1  C4' PXY d   1       0.721  -3.355   0.381  0.00  0.00     0.077 C 
ATOM      2  C1' PXY d   1       4.890  -5.999  -2.626  0.00  0.00     0.077 C 
ATOM      3  C1  PXY d   1       3.805  -5.306  -1.827  0.00  0.00    -0.082 A 
ATOM      4  C2  PXY d   1       2.540  -5.433  -2.194  0.00  0.00     0.003 A 
ATOM      5  C3  PXY d   1       1.549  -4.787  -1.502  0.00  0.00     0.003 A 
ATOM      6  C4  PXY d   1       1.850  -4.045  -0.391  0.00  0.00    -0.082 A 
ATOM      7  C5  PXY d   1       3.137  -3.919  -0.004  0.00  0.00     0.003 A 
ATOM      8  C6  PXY d   1       4.132  -4.550  -0.744  0.00  0.00     0.003 A 
ENDROOT
TORSDOF 0
ENDMDL
