MODEL 1
REMARK minimizedAffinity 8.72374725
REMARK minimizedRMSD -1
REMARK  0 active torsions:
REMARK  status: ('A' for Active; 'I' for Inactive)
ROOT
ATOM      1  C4' PXY d   1      -1.100  -1.842   5.265  0.00  0.00     0.077 C 
ATOM      2  C1' PXY d   1      -5.999  -4.908   5.142  0.00  0.00     0.077 C 
ATOM      3  C1  PXY d   1      -4.721  -4.093   5.178  0.00  0.00    -0.082 A 
ATOM      4  C2  PXY d   1      -3.687  -4.466   4.442  0.00  0.00     0.003 A 
ATOM      5  C3  PXY d   1      -2.513  -3.759   4.487  0.00  0.00     0.003 A 
ATOM      6  C4  PXY d   1      -2.413  -2.629   5.253  0.00  0.00    -0.082 A 
ATOM      7  C5  PXY d   1      -3.468  -2.236   6.000  0.00  0.00     0.003 A 
ATOM      8  C6  PXY d   1      -4.637  -2.991   5.971  0.00  0.00     0.003 A 
ENDROOT
TORSDOF 0
ENDMDL
