MODEL 1
REMARK minimizedAffinity 12.2757235
REMARK minimizedRMSD -1
REMARK  0 active torsions:
REMARK  status: ('A' for Active; 'I' for Inactive)
ROOT
ATOM      1  C4' PXY d   1      -1.615  -2.885   5.182  0.00  0.00     0.077 C 
ATOM      2  C1' PXY d   1       2.202  -1.654   1.019  0.00  0.00     0.077 C 
ATOM      3  C1  PXY d   1       1.196  -1.986   2.103  0.00  0.00    -0.082 A 
ATOM      4  C2  PXY d   1       0.903  -1.081   3.024  0.00  0.00     0.003 A 
ATOM      5  C3  PXY d   1       0.019  -1.376   4.029  0.00  0.00     0.003 A 
ATOM      6  C4  PXY d   1      -0.612  -2.590   4.063  0.00  0.00    -0.082 A 
ATOM      7  C5  PXY d   1      -0.327  -3.515   3.121  0.00  0.00     0.003 A 
ATOM      8  C6  PXY d   1       0.604  -3.210   2.132  0.00  0.00     0.003 A 
ENDROOT
TORSDOF 0
ENDMDL
