MODEL 1
REMARK minimizedAffinity 3.89810681
REMARK minimizedRMSD -1
REMARK  0 active torsions:
REMARK  status: ('A' for Active; 'I' for Inactive)
ROOT
ATOM      1  C4' PXY d   1      -4.615   1.817  -5.996  0.00  0.00     0.077 C 
ATOM      2  C1' PXY d   1      -1.086   6.000  -4.135  0.00  0.00     0.077 C 
ATOM      3  C1  PXY d   1      -2.020   4.912  -4.627  0.00  0.00    -0.082 A 
ATOM      4  C2  PXY d   1      -1.896   3.681  -4.156  0.00  0.00     0.003 A 
ATOM      5  C3  PXY d   1      -2.712   2.678  -4.613  0.00  0.00     0.003 A 
ATOM      6  C4  PXY d   1      -3.700   2.949  -5.522  0.00  0.00    -0.082 A 
ATOM      7  C5  PXY d   1      -3.840   4.204  -5.999  0.00  0.00     0.003 A 
ATOM      8  C6  PXY d   1      -2.975   5.199  -5.553  0.00  0.00     0.003 A 
ENDROOT
TORSDOF 0
ENDMDL
