MODEL 1
REMARK minimizedAffinity 2.49798369
REMARK minimizedRMSD -1
REMARK  0 active torsions:
REMARK  status: ('A' for Active; 'I' for Inactive)
ROOT
ATOM      1  C4' PXY d   1      -1.799   5.999  -4.985  0.00  0.00     0.077 C 
ATOM      2  C1' PXY d   1      -5.992   2.142  -5.965  0.00  0.00     0.077 C 
ATOM      3  C1  PXY d   1      -4.898   3.161  -5.717  0.00  0.00    -0.082 A 
ATOM      4  C2  PXY d   1      -3.738   2.767  -5.217  0.00  0.00     0.003 A 
ATOM      5  C3  PXY d   1      -2.749   3.680  -4.957  0.00  0.00     0.003 A 
ATOM      6  C4  PXY d   1      -2.930   5.003  -5.260  0.00  0.00    -0.082 A 
ATOM      7  C5  PXY d   1      -4.106   5.412  -5.781  0.00  0.00     0.003 A 
ATOM      8  C6  PXY d   1      -5.112   4.475  -5.999  0.00  0.00     0.003 A 
ENDROOT
TORSDOF 0
ENDMDL
