MODEL 1
REMARK minimizedAffinity 10.5889711
REMARK minimizedRMSD -1
REMARK  0 active torsions:
REMARK  status: ('A' for Active; 'I' for Inactive)
ROOT
ATOM      1  C4' PXY d   1      -5.837   1.274  -5.973  0.00  0.00     0.077 C 
ATOM      2  C1' PXY d   1      -1.537   4.910  -4.668  0.00  0.00     0.077 C 
ATOM      3  C1  PXY d   1      -2.657   3.947  -5.009  0.00  0.00    -0.082 A 
ATOM      4  C2  PXY d   1      -3.697   4.373  -5.707  0.00  0.00     0.003 A 
ATOM      5  C3  PXY d   1      -4.733   3.523  -5.996  0.00  0.00     0.003 A 
ATOM      6  C4  PXY d   1      -4.680   2.209  -5.614  0.00  0.00    -0.082 A 
ATOM      7  C5  PXY d   1      -3.617   1.764  -4.911  0.00  0.00     0.003 A 
ATOM      8  C6  PXY d   1      -2.594   2.653  -4.592  0.00  0.00     0.003 A 
ENDROOT
TORSDOF 0
ENDMDL
