MODEL 1
REMARK minimizedAffinity 7.27247906
REMARK minimizedRMSD -1
REMARK  1 active torsions:
REMARK  status: ('A' for Active; 'I' for Inactive)
REMARK    1  A    between atoms: C1_2  and  C2_3 
ROOT
ATOM      1  C2  UNL d   1      -1.720  -2.762  -3.678  0.00  0.00    -0.077 A 
ATOM      2  C3  UNL d   1      -2.815  -3.638  -3.669  0.00  0.00     0.002 A 
ATOM      3  C4  UNL d   1      -3.120  -4.397  -4.800  0.00  0.00     0.002 A 
ATOM      4  C5  UNL d   1      -2.334  -4.292  -5.945  0.00  0.00    -0.004 A 
ATOM      5  C6  UNL d   1      -1.245  -3.423  -5.964  0.00  0.00     0.002 A 
ATOM      6  C7  UNL d   1      -0.938  -2.662  -4.836  0.00  0.00     0.002 A 
ENDROOT
BRANCH   1   7
ATOM      7  C1  UNL d   1      -1.359  -1.978  -2.443  0.00  0.00     0.055 C 
ATOM      8  C   UNL d   1      -0.089  -2.514  -1.798  0.00  0.00     0.019 C 
ENDBRANCH   1   7
TORSDOF 1
ENDMDL
