MODEL 1
REMARK minimizedAffinity 5.39276886
REMARK minimizedRMSD -1
REMARK  1 active torsions:
REMARK  status: ('A' for Active; 'I' for Inactive)
REMARK    1  A    between atoms: C1_2  and  C2_3 
ROOT
ATOM      1  C2  UNL d   1      -1.582  -1.879  -3.718  0.00  0.00    -0.077 A 
ATOM      2  C3  UNL d   1      -2.816  -2.543  -3.737  0.00  0.00     0.002 A 
ATOM      3  C4  UNL d   1      -3.225  -3.242  -4.875  0.00  0.00     0.002 A 
ATOM      4  C5  UNL d   1      -2.405  -3.286  -6.000  0.00  0.00    -0.004 A 
ATOM      5  C6  UNL d   1      -1.176  -2.626  -5.992  0.00  0.00     0.002 A 
ATOM      6  C7  UNL d   1      -0.766  -1.927  -4.856  0.00  0.00     0.002 A 
ENDROOT
BRANCH   1   7
ATOM      7  C1  UNL d   1      -1.117  -1.167  -2.475  0.00  0.00     0.055 C 
ATOM      8  C   UNL d   1      -0.745  -2.154  -1.378  0.00  0.00     0.019 C 
ENDBRANCH   1   7
TORSDOF 1
ENDMDL
