MODEL 1
REMARK minimizedAffinity 9.34409142
REMARK minimizedRMSD -1
REMARK  1 active torsions:
REMARK  status: ('A' for Active; 'I' for Inactive)
REMARK    1  A    between atoms: C1_2  and  C2_3 
ROOT
ATOM      1  C2  UNL d   1       3.739   5.478  -1.898  0.00  0.00    -0.077 A 
ATOM      2  C3  UNL d   1       3.078   5.295  -0.676  0.00  0.00     0.002 A 
ATOM      3  C4  UNL d   1       1.694   5.462  -0.590  0.00  0.00     0.002 A 
ATOM      4  C5  UNL d   1       0.961   5.808  -1.723  0.00  0.00    -0.004 A 
ATOM      5  C6  UNL d   1       1.610   5.994  -2.942  0.00  0.00     0.002 A 
ATOM      6  C7  UNL d   1       2.993   5.829  -3.030  0.00  0.00     0.002 A 
ENDROOT
BRANCH   1   7
ATOM      7  C1  UNL d   1       5.225   5.251  -2.004  0.00  0.00     0.055 C 
ATOM      8  C   UNL d   1       5.978   5.999  -0.914  0.00  0.00     0.019 C 
ENDBRANCH   1   7
TORSDOF 1
ENDMDL
