MODEL 1
REMARK minimizedAffinity 14.1030703
REMARK minimizedRMSD -1
REMARK  1 active torsions:
REMARK  status: ('A' for Active; 'I' for Inactive)
REMARK    1  A    between atoms: C1_2  and  C2_3 
ROOT
ATOM      1  C2  UNL d   1       4.643  -4.922  -3.595  0.00  0.00    -0.077 A 
ATOM      2  C3  UNL d   1       3.461  -5.340  -2.968  0.00  0.00     0.002 A 
ATOM      3  C4  UNL d   1       2.219  -4.945  -3.466  0.00  0.00     0.002 A 
ATOM      4  C5  UNL d   1       2.146  -4.133  -4.596  0.00  0.00    -0.004 A 
ATOM      5  C6  UNL d   1       3.316  -3.710  -5.226  0.00  0.00     0.002 A 
ATOM      6  C7  UNL d   1       4.559  -4.104  -4.729  0.00  0.00     0.002 A 
ENDROOT
BRANCH   1   7
ATOM      7  C1  UNL d   1       5.983  -5.388  -3.088  0.00  0.00     0.055 C 
ATOM      8  C   UNL d   1       5.994  -5.495  -1.570  0.00  0.00     0.019 C 
ENDBRANCH   1   7
TORSDOF 1
ENDMDL
