MODEL 1
REMARK minimizedAffinity 11.6379099
REMARK minimizedRMSD -1
REMARK  1 active torsions:
REMARK  status: ('A' for Active; 'I' for Inactive)
REMARK    1  A    between atoms: C1_2  and  C2_3 
ROOT
ATOM      1  C2  UNL d   1      -0.902  -2.602  -1.990  0.00  0.00    -0.077 A 
ATOM      2  C3  UNL d   1       0.176  -3.392  -1.566  0.00  0.00     0.002 A 
ATOM      3  C4  UNL d   1       0.419  -3.583  -0.204  0.00  0.00     0.002 A 
ATOM      4  C5  UNL d   1      -0.413  -2.991   0.744  0.00  0.00    -0.004 A 
ATOM      5  C6  UNL d   1      -1.486  -2.201   0.332  0.00  0.00     0.002 A 
ATOM      6  C7  UNL d   1      -1.730  -2.009  -1.028  0.00  0.00     0.002 A 
ENDROOT
BRANCH   1   7
ATOM      7  C1  UNL d   1      -1.196  -2.435  -3.458  0.00  0.00     0.055 C 
ATOM      8  C   UNL d   1      -2.599  -2.914  -3.800  0.00  0.00     0.019 C 
ENDBRANCH   1   7
TORSDOF 1
ENDMDL
