MODEL 1
REMARK minimizedAffinity 13.0141859
REMARK minimizedRMSD -1
REMARK  1 active torsions:
REMARK  status: ('A' for Active; 'I' for Inactive)
REMARK    1  A    between atoms: C1_2  and  C2_3 
ROOT
ATOM      1  C2  UNL d   1      -1.252  -2.362  -0.040  0.00  0.00    -0.077 A 
ATOM      2  C3  UNL d   1      -0.685  -1.185  -0.550  0.00  0.00     0.002 A 
ATOM      3  C4  UNL d   1      -0.188  -1.149  -1.854  0.00  0.00     0.002 A 
ATOM      4  C5  UNL d   1      -0.256  -2.284  -2.660  0.00  0.00    -0.004 A 
ATOM      5  C6  UNL d   1      -0.817  -3.459  -2.161  0.00  0.00     0.002 A 
ATOM      6  C7  UNL d   1      -1.313  -3.497  -0.857  0.00  0.00     0.002 A 
ENDROOT
BRANCH   1   7
ATOM      7  C1  UNL d   1      -1.833  -2.389   1.350  0.00  0.00     0.055 C 
ATOM      8  C   UNL d   1      -3.069  -1.506   1.450  0.00  0.00     0.019 C 
ENDBRANCH   1   7
TORSDOF 1
ENDMDL
