MODEL 1
REMARK minimizedAffinity 8.62893963
REMARK minimizedRMSD -1
REMARK  1 active torsions:
REMARK  status: ('A' for Active; 'I' for Inactive)
REMARK    1  A    between atoms: C1_2  and  C2_3 
ROOT
ATOM      1  C2  UNL d   1      -1.000  -2.622  -2.412  0.00  0.00    -0.077 A 
ATOM      2  C3  UNL d   1      -0.027  -3.498  -1.910  0.00  0.00     0.002 A 
ATOM      3  C4  UNL d   1       0.225  -3.563  -0.538  0.00  0.00     0.002 A 
ATOM      4  C5  UNL d   1      -0.496  -2.758   0.343  0.00  0.00    -0.004 A 
ATOM      5  C6  UNL d   1      -1.464  -1.883  -0.147  0.00  0.00     0.002 A 
ATOM      6  C7  UNL d   1      -1.716  -1.816  -1.518  0.00  0.00     0.002 A 
ENDROOT
BRANCH   1   7
ATOM      7  C1  UNL d   1      -1.306  -2.586  -3.887  0.00  0.00     0.055 C 
ATOM      8  C   UNL d   1      -2.717  -3.082  -4.171  0.00  0.00     0.019 C 
ENDBRANCH   1   7
TORSDOF 1
ENDMDL
