MODEL 1
REMARK minimizedAffinity 11.5108118
REMARK minimizedRMSD -1
REMARK  1 active torsions:
REMARK  status: ('A' for Active; 'I' for Inactive)
REMARK    1  A    between atoms: C1_2  and  C2_3 
ROOT
ATOM      1  C2  UNL d   1       3.768   4.458  -1.647  0.00  0.00    -0.077 A 
ATOM      2  C3  UNL d   1       2.856   4.909  -2.612  0.00  0.00     0.002 A 
ATOM      3  C4  UNL d   1       1.483   4.857  -2.364  0.00  0.00     0.002 A 
ATOM      4  C5  UNL d   1       1.010   4.359  -1.152  0.00  0.00    -0.004 A 
ATOM      5  C6  UNL d   1       1.909   3.906  -0.187  0.00  0.00     0.002 A 
ATOM      6  C7  UNL d   1       3.282   3.956  -0.433  0.00  0.00     0.002 A 
ENDROOT
BRANCH   1   7
ATOM      7  C1  UNL d   1       5.251   4.558  -1.893  0.00  0.00     0.055 C 
ATOM      8  C   UNL d   1       5.736   5.995  -1.769  0.00  0.00     0.019 C 
ENDBRANCH   1   7
TORSDOF 1
ENDMDL
