MODEL 1
REMARK minimizedAffinity 5.21242237
REMARK minimizedRMSD -1
REMARK  1 active torsions:
REMARK  status: ('A' for Active; 'I' for Inactive)
REMARK    1  A    between atoms: C1_2  and  C2_3 
ROOT
ATOM      1  C2  UNL d   1       4.202   5.509  -2.674  0.00  0.00    -0.077 A 
ATOM      2  C3  UNL d   1       3.609   4.583  -1.805  0.00  0.00     0.002 A 
ATOM      3  C4  UNL d   1       2.296   4.157  -2.015  0.00  0.00     0.002 A 
ATOM      4  C5  UNL d   1       1.567   4.649  -3.095  0.00  0.00    -0.004 A 
ATOM      5  C6  UNL d   1       2.147   5.572  -3.964  0.00  0.00     0.002 A 
ATOM      6  C7  UNL d   1       3.459   6.000  -3.755  0.00  0.00     0.002 A 
ENDROOT
BRANCH   1   7
ATOM      7  C1  UNL d   1       5.634   5.932  -2.477  0.00  0.00     0.055 C 
ATOM      8  C   UNL d   1       5.995   5.998  -1.000  0.00  0.00     0.019 C 
ENDBRANCH   1   7
TORSDOF 1
ENDMDL
