MODEL 1
REMARK minimizedAffinity 14.1111145
REMARK minimizedRMSD -1
REMARK  1 active torsions:
REMARK  status: ('A' for Active; 'I' for Inactive)
REMARK    1  A    between atoms: C1_2  and  C2_3 
ROOT
ATOM      1  C2  UNL d   1       3.657   5.338   0.279  0.00  0.00    -0.077 A 
ATOM      2  C3  UNL d   1       4.835   4.742   0.752  0.00  0.00     0.002 A 
ATOM      3  C4  UNL d   1       6.000   4.775  -0.017  0.00  0.00     0.002 A 
ATOM      4  C5  UNL d   1       6.000   5.405  -1.259  0.00  0.00    -0.004 A 
ATOM      5  C6  UNL d   1       4.833   5.999  -1.739  0.00  0.00     0.002 A 
ATOM      6  C7  UNL d   1       3.667   5.966  -0.973  0.00  0.00     0.002 A 
ENDROOT
BRANCH   1   7
ATOM      7  C1  UNL d   1       2.412   5.347   1.128  0.00  0.00     0.055 C 
ATOM      8  C   UNL d   1       1.192   4.920   0.325  0.00  0.00     0.019 C 
ENDBRANCH   1   7
TORSDOF 1
ENDMDL
