MODEL 1
REMARK minimizedAffinity 6.36952877
REMARK minimizedRMSD -1
REMARK  1 active torsions:
REMARK  status: ('A' for Active; 'I' for Inactive)
REMARK    1  A    between atoms: C1_2  and  C2_3 
ROOT
ATOM      1  C2  UNL d   1       5.875   5.088  -2.972  0.00  0.00    -0.077 A 
ATOM      2  C3  UNL d   1       5.879   5.876  -4.131  0.00  0.00     0.002 A 
ATOM      3  C4  UNL d   1       5.942   5.278  -5.391  0.00  0.00     0.002 A 
ATOM      4  C5  UNL d   1       5.998   3.890  -5.504  0.00  0.00    -0.004 A 
ATOM      5  C6  UNL d   1       5.997   3.098  -4.357  0.00  0.00     0.002 A 
ATOM      6  C7  UNL d   1       5.935   3.694  -3.097  0.00  0.00     0.002 A 
ENDROOT
BRANCH   1   7
ATOM      7  C1  UNL d   1       5.757   5.728  -1.614  0.00  0.00     0.055 C 
ATOM      8  C   UNL d   1       4.992   4.837  -0.646  0.00  0.00     0.019 C 
ENDBRANCH   1   7
TORSDOF 1
ENDMDL
