MODEL 1
REMARK minimizedAffinity 4.77760029
REMARK minimizedRMSD -1
REMARK  1 active torsions:
REMARK  status: ('A' for Active; 'I' for Inactive)
REMARK    1  A    between atoms: C1_2  and  C2_3 
ROOT
ATOM      1  C2  UNL d   1       5.794   4.775  -3.926  0.00  0.00    -0.077 A 
ATOM      2  C3  UNL d   1       5.506   3.602  -3.215  0.00  0.00     0.002 A 
ATOM      3  C4  UNL d   1       5.425   3.622  -1.822  0.00  0.00     0.002 A 
ATOM      4  C5  UNL d   1       5.628   4.813  -1.128  0.00  0.00    -0.004 A 
ATOM      5  C6  UNL d   1       5.918   5.985  -1.825  0.00  0.00     0.002 A 
ATOM      6  C7  UNL d   1       6.000   5.966  -3.218  0.00  0.00     0.002 A 
ENDROOT
BRANCH   1   7
ATOM      7  C1  UNL d   1       5.833   4.766  -5.432  0.00  0.00     0.055 C 
ATOM      8  C   UNL d   1       5.479   3.393  -5.986  0.00  0.00     0.019 C 
ENDBRANCH   1   7
TORSDOF 1
ENDMDL
