MODEL 1
REMARK minimizedAffinity 8.23850822
REMARK minimizedRMSD -1
REMARK  1 active torsions:
REMARK  status: ('A' for Active; 'I' for Inactive)
REMARK    1  A    between atoms: C1_2  and  C2_3 
ROOT
ATOM      1  C2  UNL d   1       3.347   4.520  -1.871  0.00  0.00    -0.077 A 
ATOM      2  C3  UNL d   1       3.950   5.725  -1.484  0.00  0.00     0.002 A 
ATOM      3  C4  UNL d   1       5.272   6.000  -1.840  0.00  0.00     0.002 A 
ATOM      4  C5  UNL d   1       6.000   5.077  -2.589  0.00  0.00    -0.004 A 
ATOM      5  C6  UNL d   1       5.409   3.875  -2.977  0.00  0.00     0.002 A 
ATOM      6  C7  UNL d   1       4.089   3.598  -2.621  0.00  0.00     0.002 A 
ENDROOT
BRANCH   1   7
ATOM      7  C1  UNL d   1       1.906   4.244  -1.530  0.00  0.00     0.055 C 
ATOM      8  C   UNL d   1       1.764   3.727  -0.106  0.00  0.00     0.019 C 
ENDBRANCH   1   7
TORSDOF 1
ENDMDL
