MODEL 1
REMARK minimizedAffinity 4.54516649
REMARK minimizedRMSD -1
REMARK  1 active torsions:
REMARK  status: ('A' for Active; 'I' for Inactive)
REMARK    1  A    between atoms: C1_2  and  C2_3 
ROOT
ATOM      1  C2  UNL d   1       5.118   4.740  -2.915  0.00  0.00    -0.077 A 
ATOM      2  C3  UNL d   1       5.488   5.590  -3.966  0.00  0.00     0.002 A 
ATOM      3  C4  UNL d   1       5.927   5.062  -5.181  0.00  0.00     0.002 A 
ATOM      4  C5  UNL d   1       5.996   3.681  -5.358  0.00  0.00    -0.004 A 
ATOM      5  C6  UNL d   1       5.632   2.827  -4.318  0.00  0.00     0.002 A 
ATOM      6  C7  UNL d   1       5.194   3.354  -3.102  0.00  0.00     0.002 A 
ENDROOT
BRANCH   1   7
ATOM      7  C1  UNL d   1       4.597   5.307  -1.620  0.00  0.00     0.055 C 
ATOM      8  C   UNL d   1       5.734   5.783  -0.727  0.00  0.00     0.019 C 
ENDBRANCH   1   7
TORSDOF 1
ENDMDL
