MODEL 1
REMARK minimizedAffinity -4.47169304
REMARK minimizedRMSD -1
REMARK  1 active torsions:
REMARK  status: ('A' for Active; 'I' for Inactive)
REMARK    1  A    between atoms: C1_2  and  C2_3 
ROOT
ATOM      1  C2  UNL d   1       0.025  -0.121   0.373  0.00  0.00    -0.081 A 
ATOM      2  C3  UNL d   1       0.469   0.856  -0.526  0.00  0.00     0.006 A 
ATOM      3  C4  UNL d   1       1.229   0.497  -1.642  0.00  0.00     0.002 A 
ATOM      4  C5  UNL d   1       1.549  -0.844  -1.882  0.00  0.00    -0.080 A 
ATOM      5  C6  UNL d   1       2.338  -1.246  -3.092  0.00  0.00     0.076 C 
ATOM      6  C7  UNL d   1       1.120  -1.817  -0.973  0.00  0.00     0.002 A 
ATOM      7  C8  UNL d   1       0.361  -1.459   0.143  0.00  0.00     0.006 A 
ENDROOT
BRANCH   1   8
ATOM      8  C1  UNL d   1      -0.849   0.256   1.543  0.00  0.00     0.054 C 
ATOM      9  C   UNL d   1      -2.316   0.310   1.142  0.00  0.00     0.018 C 
ENDBRANCH   1   8
TORSDOF 1
ENDMDL
