MODEL 1
REMARK minimizedAffinity -2.72615623
REMARK minimizedRMSD -1
REMARK  1 active torsions:
REMARK  status: ('A' for Active; 'I' for Inactive)
REMARK    1  A    between atoms: C1_2  and  C2_3 
ROOT
ATOM      1  C2  UNL d   1      -0.711  -0.017   0.859  0.00  0.00    -0.081 A 
ATOM      2  C3  UNL d   1       0.113  -1.118   0.596  0.00  0.00     0.006 A 
ATOM      3  C4  UNL d   1       1.202  -0.997  -0.272  0.00  0.00     0.002 A 
ATOM      4  C5  UNL d   1       1.488   0.227  -0.884  0.00  0.00    -0.080 A 
ATOM      5  C6  UNL d   1       2.671   0.378  -1.794  0.00  0.00     0.076 C 
ATOM      6  C7  UNL d   1       0.655   1.323  -0.636  0.00  0.00     0.002 A 
ATOM      7  C8  UNL d   1      -0.434   1.203   0.231  0.00  0.00     0.006 A 
ENDROOT
BRANCH   1   8
ATOM      8  C1  UNL d   1      -1.846  -0.127   1.844  0.00  0.00     0.054 C 
ATOM      9  C   UNL d   1      -3.157   0.347   1.233  0.00  0.00     0.018 C 
ENDBRANCH   1   8
TORSDOF 1
ENDMDL
