MODEL 1
REMARK minimizedAffinity -4.56041431
REMARK minimizedRMSD -1
REMARK  1 active torsions:
REMARK  status: ('A' for Active; 'I' for Inactive)
REMARK    1  A    between atoms: C1_2  and  C2_3 
ROOT
ATOM      1  C2  UNL d   1      -0.830   0.210   0.763  0.00  0.00    -0.081 A 
ATOM      2  C3  UNL d   1      -0.055   1.344   0.496  0.00  0.00     0.006 A 
ATOM      3  C4  UNL d   1       0.833   1.357  -0.582  0.00  0.00     0.002 A 
ATOM      4  C5  UNL d   1       0.955   0.239  -1.415  0.00  0.00    -0.080 A 
ATOM      5  C6  UNL d   1       1.883   0.251  -2.593  0.00  0.00     0.076 C 
ATOM      6  C7  UNL d   1       0.193  -0.901  -1.137  0.00  0.00     0.002 A 
ATOM      7  C8  UNL d   1      -0.694  -0.914  -0.059  0.00  0.00     0.006 A 
ENDROOT
BRANCH   1   8
ATOM      8  C1  UNL d   1      -1.836   0.216   1.886  0.00  0.00     0.054 C 
ATOM      9  C   UNL d   1      -3.261   0.196   1.352  0.00  0.00     0.018 C 
ENDBRANCH   1   8
TORSDOF 1
ENDMDL
