MODEL 1
REMARK minimizedAffinity -4.39954853
REMARK minimizedRMSD -1
REMARK  1 active torsions:
REMARK  status: ('A' for Active; 'I' for Inactive)
REMARK    1  A    between atoms: C1_2  and  C2_3 
ROOT
ATOM      1  C2  UNL d   1       1.266  -1.872  -1.677  0.00  0.00    -0.081 A 
ATOM      2  C3  UNL d   1       2.066  -0.801  -2.093  0.00  0.00     0.006 A 
ATOM      3  C4  UNL d   1       1.912   0.463  -1.519  0.00  0.00     0.002 A 
ATOM      4  C5  UNL d   1       0.962   0.675  -0.514  0.00  0.00    -0.080 A 
ATOM      5  C6  UNL d   1       0.807   2.020   0.131  0.00  0.00     0.076 C 
ATOM      6  C7  UNL d   1       0.150  -0.390  -0.111  0.00  0.00     0.002 A 
ATOM      7  C8  UNL d   1       0.303  -1.654  -0.685  0.00  0.00     0.006 A 
ENDROOT
BRANCH   1   8
ATOM      8  C1  UNL d   1       1.473  -3.252  -2.248  0.00  0.00     0.054 C 
ATOM      9  C   UNL d   1       1.147  -4.329  -1.224  0.00  0.00     0.018 C 
ENDBRANCH   1   8
TORSDOF 1
ENDMDL
