MODEL 1
REMARK minimizedAffinity -2.26715064
REMARK minimizedRMSD -1
REMARK  1 active torsions:
REMARK  status: ('A' for Active; 'I' for Inactive)
REMARK    1  A    between atoms: C1_2  and  C2_3 
ROOT
ATOM      1  C2  UNL d   1       0.376  -0.173   0.841  0.00  0.00    -0.081 A 
ATOM      2  C3  UNL d   1       1.174   0.871   0.357  0.00  0.00     0.006 A 
ATOM      3  C4  UNL d   1       1.561   0.903  -0.984  0.00  0.00     0.002 A 
ATOM      4  C5  UNL d   1       1.151  -0.103  -1.866  0.00  0.00    -0.080 A 
ATOM      5  C6  UNL d   1       1.535  -0.065  -3.315  0.00  0.00     0.076 C 
ATOM      6  C7  UNL d   1       0.369  -1.156  -1.378  0.00  0.00     0.002 A 
ATOM      7  C8  UNL d   1      -0.018  -1.189  -0.037  0.00  0.00     0.006 A 
ENDROOT
BRANCH   1   8
ATOM      8  C1  UNL d   1      -0.096  -0.177   2.273  0.00  0.00     0.054 C 
ATOM      9  C   UNL d   1      -1.515   0.363   2.388  0.00  0.00     0.018 C 
ENDBRANCH   1   8
TORSDOF 1
ENDMDL
