MODEL 1
REMARK minimizedAffinity -5.41858435
REMARK minimizedRMSD -1
REMARK  1 active torsions:
REMARK  status: ('A' for Active; 'I' for Inactive)
REMARK    1  A    between atoms: C1_2  and  C2_3 
ROOT
ATOM      1  C2  UNL d   1       0.078  -0.347   0.430  0.00  0.00    -0.081 A 
ATOM      2  C3  UNL d   1       0.256  -1.599  -0.172  0.00  0.00     0.006 A 
ATOM      3  C4  UNL d   1       0.969  -1.715  -1.367  0.00  0.00     0.002 A 
ATOM      4  C5  UNL d   1       1.523  -0.584  -1.976  0.00  0.00    -0.080 A 
ATOM      5  C6  UNL d   1       2.317  -0.700  -3.244  0.00  0.00     0.076 C 
ATOM      6  C7  UNL d   1       1.331   0.669  -1.385  0.00  0.00     0.002 A 
ATOM      7  C8  UNL d   1       0.618   0.786  -0.190  0.00  0.00     0.006 A 
ENDROOT
BRANCH   1   8
ATOM      8  C1  UNL d   1      -0.635  -0.226   1.752  0.00  0.00     0.054 C 
ATOM      9  C   UNL d   1      -2.128  -0.004   1.557  0.00  0.00     0.018 C 
ENDBRANCH   1   8
TORSDOF 1
ENDMDL
