MODEL 1
REMARK minimizedAffinity -4.25129604
REMARK minimizedRMSD -1
REMARK  1 active torsions:
REMARK  status: ('A' for Active; 'I' for Inactive)
REMARK    1  A    between atoms: C1_2  and  C2_3 
ROOT
ATOM      1  C2  UNL d   1      -0.321  -0.031   0.740  0.00  0.00    -0.081 A 
ATOM      2  C3  UNL d   1       0.471   1.081   0.427  0.00  0.00     0.006 A 
ATOM      3  C4  UNL d   1       1.210   1.113  -0.758  0.00  0.00     0.002 A 
ATOM      4  C5  UNL d   1       1.164   0.039  -1.653  0.00  0.00    -0.080 A 
ATOM      5  C6  UNL d   1       1.929   0.074  -2.943  0.00  0.00     0.076 C 
ATOM      6  C7  UNL d   1       0.387  -1.080  -1.332  0.00  0.00     0.002 A 
ATOM      7  C8  UNL d   1      -0.352  -1.113  -0.147  0.00  0.00     0.006 A 
ENDROOT
BRANCH   1   8
ATOM      8  C1  UNL d   1      -1.169  -0.042   1.985  0.00  0.00     0.054 C 
ATOM      9  C   UNL d   1      -2.645   0.119   1.651  0.00  0.00     0.018 C 
ENDBRANCH   1   8
TORSDOF 1
ENDMDL
