MODEL 1
REMARK minimizedAffinity -4.48981142
REMARK minimizedRMSD -1
REMARK  1 active torsions:
REMARK  status: ('A' for Active; 'I' for Inactive)
REMARK    1  A    between atoms: C1_2  and  C2_3 
ROOT
ATOM      1  C2  UNL d   1       0.770   0.601  -0.941  0.00  0.00    -0.081 A 
ATOM      2  C3  UNL d   1       0.400  -0.573  -0.272  0.00  0.00     0.006 A 
ATOM      3  C4  UNL d   1      -0.689  -0.576   0.603  0.00  0.00     0.002 A 
ATOM      4  C5  UNL d   1      -1.429   0.592   0.819  0.00  0.00    -0.080 A 
ATOM      5  C6  UNL d   1      -2.619   0.595   1.732  0.00  0.00     0.076 C 
ATOM      6  C7  UNL d   1      -1.049   1.768   0.164  0.00  0.00     0.002 A 
ATOM      7  C8  UNL d   1       0.040   1.772  -0.710  0.00  0.00     0.006 A 
ENDROOT
BRANCH   1   8
ATOM      8  C1  UNL d   1       1.904   0.591  -1.934  0.00  0.00     0.054 C 
ATOM      9  C   UNL d   1       1.984  -0.739  -2.670  0.00  0.00     0.018 C 
ENDBRANCH   1   8
TORSDOF 1
ENDMDL
