MODEL 1
REMARK minimizedAffinity -5.25110483
REMARK minimizedRMSD -1
REMARK  1 active torsions:
REMARK  status: ('A' for Active; 'I' for Inactive)
REMARK    1  A    between atoms: C1_2  and  C2_3 
ROOT
ATOM      1  C2  UNL d   1       0.026  -0.075   0.703  0.00  0.00    -0.081 A 
ATOM      2  C3  UNL d   1       0.687   1.039   0.173  0.00  0.00     0.006 A 
ATOM      3  C4  UNL d   1       1.370   0.945  -1.042  0.00  0.00     0.002 A 
ATOM      4  C5  UNL d   1       1.397  -0.261  -1.750  0.00  0.00    -0.080 A 
ATOM      5  C6  UNL d   1       2.101  -0.367  -3.070  0.00  0.00     0.076 C 
ATOM      6  C7  UNL d   1       0.750  -1.379  -1.212  0.00  0.00     0.002 A 
ATOM      7  C8  UNL d   1       0.068  -1.286   0.003  0.00  0.00     0.006 A 
ENDROOT
BRANCH   1   8
ATOM      8  C1  UNL d   1      -0.766   0.040   1.981  0.00  0.00     0.054 C 
ATOM      9  C   UNL d   1      -2.235   0.319   1.698  0.00  0.00     0.018 C 
ENDBRANCH   1   8
TORSDOF 1
ENDMDL
