MODEL 1
REMARK minimizedAffinity -3.3726666
REMARK minimizedRMSD -1
REMARK  1 active torsions:
REMARK  status: ('A' for Active; 'I' for Inactive)
REMARK    1  A    between atoms: C1_2  and  C2_3 
ROOT
ATOM      1  C2  UNL d   1      -0.579   0.043   0.542  0.00  0.00    -0.081 A 
ATOM      2  C3  UNL d   1      -0.490  -1.129  -0.220  0.00  0.00     0.006 A 
ATOM      3  C4  UNL d   1       0.350  -1.187  -1.335  0.00  0.00     0.002 A 
ATOM      4  C5  UNL d   1       1.120  -0.078  -1.701  0.00  0.00    -0.080 A 
ATOM      5  C6  UNL d   1       2.048  -0.136  -2.878  0.00  0.00     0.076 C 
ATOM      6  C7  UNL d   1       1.018   1.098  -0.950  0.00  0.00     0.002 A 
ATOM      7  C8  UNL d   1       0.178   1.157   0.164  0.00  0.00     0.006 A 
ENDROOT
BRANCH   1   8
ATOM      8  C1  UNL d   1      -1.434   0.087   1.783  0.00  0.00     0.054 C 
ATOM      9  C   UNL d   1      -2.898   0.323   1.437  0.00  0.00     0.018 C 
ENDBRANCH   1   8
TORSDOF 1
ENDMDL
