MODEL 1
REMARK minimizedAffinity -4.25065136
REMARK minimizedRMSD -1
REMARK  1 active torsions:
REMARK  status: ('A' for Active; 'I' for Inactive)
REMARK    1  A    between atoms: C1_2  and  C2_3 
ROOT
ATOM      1  C2  UNL d   1      -0.559   0.262   1.158  0.00  0.00    -0.081 A 
ATOM      2  C3  UNL d   1       0.383   1.224   0.777  0.00  0.00     0.006 A 
ATOM      3  C4  UNL d   1       1.127   1.062  -0.395  0.00  0.00     0.002 A 
ATOM      4  C5  UNL d   1       0.936  -0.061  -1.207  0.00  0.00    -0.080 A 
ATOM      5  C6  UNL d   1       1.706  -0.233  -2.482  0.00  0.00     0.076 C 
ATOM      6  C7  UNL d   1       0.007  -1.032  -0.816  0.00  0.00     0.002 A 
ATOM      7  C8  UNL d   1      -0.736  -0.870   0.355  0.00  0.00     0.006 A 
ENDROOT
BRANCH   1   8
ATOM      8  C1  UNL d   1      -1.409   0.466   2.387  0.00  0.00     0.054 C 
ATOM      9  C   UNL d   1      -2.809   0.934   2.019  0.00  0.00     0.018 C 
ENDBRANCH   1   8
TORSDOF 1
ENDMDL
