MODEL 1
REMARK minimizedAffinity -5.41625547
REMARK minimizedRMSD -1
REMARK  1 active torsions:
REMARK  status: ('A' for Active; 'I' for Inactive)
REMARK    1  A    between atoms: C1_2  and  C2_3 
ROOT
ATOM      1  C2  UNL d   1      -0.916   0.303   0.813  0.00  0.00    -0.081 A 
ATOM      2  C3  UNL d   1      -0.259  -0.895   0.509  0.00  0.00     0.006 A 
ATOM      3  C4  UNL d   1       0.538  -0.996  -0.634  0.00  0.00     0.002 A 
ATOM      4  C5  UNL d   1       0.698   0.102  -1.487  0.00  0.00    -0.080 A 
ATOM      5  C6  UNL d   1       1.574   0.016  -2.700  0.00  0.00     0.076 C 
ATOM      6  C7  UNL d   1       0.028   1.294  -1.192  0.00  0.00     0.002 A 
ATOM      7  C8  UNL d   1      -0.770   1.395  -0.050  0.00  0.00     0.006 A 
ENDROOT
BRANCH   1   8
ATOM      8  C1  UNL d   1      -1.724   0.435   2.079  0.00  0.00     0.054 C 
ATOM      9  C   UNL d   1      -3.171   0.796   1.777  0.00  0.00     0.018 C 
ENDBRANCH   1   8
TORSDOF 1
ENDMDL
