MODEL 1
REMARK minimizedAffinity -4.3491106
REMARK minimizedRMSD -1
REMARK  1 active torsions:
REMARK  status: ('A' for Active; 'I' for Inactive)
REMARK    1  A    between atoms: C1_2  and  C2_3 
ROOT
ATOM      1  C2  UNL d   1       1.872   0.418   0.091  0.00  0.00    -0.076 A 
ATOM      2  C3  UNL d   1       0.685  -0.193   0.530  0.00  0.00     0.004 A 
ATOM      3  C4  UNL d   1       0.499  -1.569   0.408  0.00  0.00    -0.003 A 
ATOM      4  C5  UNL d   1       1.498  -2.356  -0.154  0.00  0.00     0.000 A 
ATOM      5  C6  UNL d   1       2.689  -1.769  -0.578  0.00  0.00     0.000 A 
ATOM      6  C7  UNL d   1       2.899  -0.386  -0.448  0.00  0.00    -0.073 A 
ATOM      7  C8  UNL d   1       4.201   0.195  -0.928  0.00  0.00     0.078 C 
ENDROOT
BRANCH   1   8
ATOM      8  C1  UNL d   1       2.006   1.918   0.224  0.00  0.00     0.053 C 
ATOM      9  C   UNL d   1       0.850   2.666  -0.423  0.00  0.00     0.018 C 
ENDBRANCH   1   8
TORSDOF 1
ENDMDL
