MODEL 1
REMARK minimizedAffinity -3.63591003
REMARK minimizedRMSD -1
REMARK  1 active torsions:
REMARK  status: ('A' for Active; 'I' for Inactive)
REMARK    1  A    between atoms: C1_2  and  C2_3 
ROOT
ATOM      1  C2  UNL d   1       1.576  -0.328  -0.187  0.00  0.00    -0.076 A 
ATOM      2  C3  UNL d   1       1.961   0.990   0.116  0.00  0.00     0.004 A 
ATOM      3  C4  UNL d   1       1.091   2.058  -0.093  0.00  0.00    -0.003 A 
ATOM      4  C5  UNL d   1      -0.180   1.826  -0.608  0.00  0.00     0.000 A 
ATOM      5  C6  UNL d   1      -0.585   0.524  -0.898  0.00  0.00     0.000 A 
ATOM      6  C7  UNL d   1       0.275  -0.566  -0.678  0.00  0.00    -0.073 A 
ATOM      7  C8  UNL d   1      -0.212  -1.949  -1.014  0.00  0.00     0.078 C 
ENDROOT
BRANCH   1   8
ATOM      8  C1  UNL d   1       2.573  -1.443   0.035  0.00  0.00     0.053 C 
ATOM      9  C   UNL d   1       3.302  -1.317   1.364  0.00  0.00     0.018 C 
ENDBRANCH   1   8
TORSDOF 1
ENDMDL
