MODEL 1
REMARK minimizedAffinity 5.32417107
REMARK minimizedRMSD -1
REMARK  1 active torsions:
REMARK  status: ('A' for Active; 'I' for Inactive)
REMARK    1  A    between atoms: C1_2  and  C2_3 
ROOT
ATOM      1  C2  UNL d   1       1.591  -0.168  -0.001  0.00  0.00    -0.076 A 
ATOM      2  C3  UNL d   1       1.980   1.136   0.355  0.00  0.00     0.004 A 
ATOM      3  C4  UNL d   1       1.058   2.180   0.372  0.00  0.00    -0.003 A 
ATOM      4  C5  UNL d   1      -0.270   1.938   0.035  0.00  0.00     0.000 A 
ATOM      5  C6  UNL d   1      -0.677   0.648  -0.303  0.00  0.00     0.000 A 
ATOM      6  C7  UNL d   1       0.237  -0.419  -0.310  0.00  0.00    -0.073 A 
ATOM      7  C8  UNL d   1      -0.255  -1.789  -0.688  0.00  0.00     0.078 C 
ENDROOT
BRANCH   1   8
ATOM      8  C1  UNL d   1       2.641  -1.255  -0.029  0.00  0.00     0.053 C 
ATOM      9  C   UNL d   1       3.201  -1.489  -1.423  0.00  0.00     0.018 C 
ENDBRANCH   1   8
TORSDOF 1
ENDMDL
