MODEL 1
REMARK minimizedAffinity -5.32744694
REMARK minimizedRMSD -1
REMARK  1 active torsions:
REMARK  status: ('A' for Active; 'I' for Inactive)
REMARK    1  A    between atoms: C1_2  and  C2_3 
ROOT
ATOM      1  C2  UNL d   1       0.732  -0.758  -0.987  0.00  0.00    -0.076 A 
ATOM      2  C3  UNL d   1       1.267  -2.000  -0.603  0.00  0.00     0.004 A 
ATOM      3  C4  UNL d   1       2.286  -2.081   0.345  0.00  0.00    -0.003 A 
ATOM      4  C5  UNL d   1       2.786  -0.920   0.925  0.00  0.00     0.000 A 
ATOM      5  C6  UNL d   1       2.256   0.319   0.569  0.00  0.00     0.000 A 
ATOM      6  C7  UNL d   1       1.217   0.416  -0.373  0.00  0.00    -0.073 A 
ATOM      7  C8  UNL d   1       0.686   1.779  -0.724  0.00  0.00     0.078 C 
ENDROOT
BRANCH   1   8
ATOM      8  C1  UNL d   1      -0.353  -0.731  -2.039  0.00  0.00     0.053 C 
ATOM      9  C   UNL d   1      -0.382  -1.999  -2.879  0.00  0.00     0.018 C 
ENDBRANCH   1   8
TORSDOF 1
ENDMDL
