MODEL 1
REMARK minimizedAffinity -0.766246736
REMARK minimizedRMSD -1
REMARK  1 active torsions:
REMARK  status: ('A' for Active; 'I' for Inactive)
REMARK    1  A    between atoms: C1_2  and  C2_3 
ROOT
ATOM      1  C2  UNL d   1       0.944   0.219   0.087  0.00  0.00    -0.076 A 
ATOM      2  C3  UNL d   1      -0.254   0.941  -0.053  0.00  0.00     0.004 A 
ATOM      3  C4  UNL d   1      -1.334   0.410  -0.756  0.00  0.00    -0.003 A 
ATOM      4  C5  UNL d   1      -1.233  -0.852  -1.330  0.00  0.00     0.000 A 
ATOM      5  C6  UNL d   1      -0.059  -1.590  -1.186  0.00  0.00     0.000 A 
ATOM      6  C7  UNL d   1       1.033  -1.076  -0.466  0.00  0.00    -0.073 A 
ATOM      7  C8  UNL d   1       2.278  -1.912  -0.347  0.00  0.00     0.078 C 
ENDROOT
BRANCH   1   8
ATOM      8  C1  UNL d   1       2.091   0.858   0.838  0.00  0.00     0.053 C 
ATOM      9  C   UNL d   1       2.366   0.177   2.170  0.00  0.00     0.018 C 
ENDBRANCH   1   8
TORSDOF 1
ENDMDL
