MODEL 1
REMARK minimizedAffinity 17.3227177
REMARK minimizedRMSD -1
REMARK  0 active torsions:
REMARK  status: ('A' for Active; 'I' for Inactive)
ROOT
ATOM      1  C   UNL d   1       0.555   1.967   1.456  0.00  0.00     0.124 A 
ATOM      2  C1  UNL d   1      -0.127   1.202   2.392  0.00  0.00     0.062 A 
ATOM      3  C2  UNL d   1      -1.145   0.344   1.987  0.00  0.00     0.162 A 
ATOM      4  C3  UNL d   1      -1.487   0.244   0.638  0.00  0.00    -0.034 A 
ATOM      5  C4  UNL d   1      -0.797   1.017  -0.297  0.00  0.00     0.162 A 
ATOM      6  C5  UNL d   1       0.220   1.874   0.112  0.00  0.00     0.062 A 
ATOM      7  F   UNL d   1       0.877   2.612  -0.794  0.00  0.00    -0.097 F 
ATOM      8  F1  UNL d   1      -1.100   0.946  -1.602  0.00  0.00    -0.096 F 
ATOM      9  I   UNL d   1      -3.008  -1.038   0.029  0.00  0.00    -0.060 I 
ATOM     10  F2  UNL d   1      -1.787  -0.383   2.913  0.00  0.00    -0.096 F 
ATOM     11  F3  UNL d   1       0.195   1.291   3.691  0.00  0.00    -0.097 F 
ATOM     12  F4  UNL d   1       1.533   2.793   1.848  0.00  0.00    -0.092 F 
ENDROOT
TORSDOF 0
ENDMDL
