MODEL 1
REMARK minimizedAffinity 32.5954628
REMARK minimizedRMSD -1
REMARK  0 active torsions:
REMARK  status: ('A' for Active; 'I' for Inactive)
ROOT
ATOM      1  C   UNL d   1       0.572   2.272   2.930  0.00  0.00     0.124 A 
ATOM      2  C1  UNL d   1      -0.457   2.609   2.062  0.00  0.00     0.062 A 
ATOM      3  C2  UNL d   1      -1.342   1.632   1.613  0.00  0.00     0.162 A 
ATOM      4  C3  UNL d   1      -1.202   0.309   2.032  0.00  0.00    -0.034 A 
ATOM      5  C4  UNL d   1      -0.163  -0.022   2.905  0.00  0.00     0.162 A 
ATOM      6  C5  UNL d   1       0.718   0.958   3.350  0.00  0.00     0.062 A 
ATOM      7  F   UNL d   1       1.712   0.630   4.189  0.00  0.00    -0.097 F 
ATOM      8  F1  UNL d   1       0.000  -1.284   3.327  0.00  0.00    -0.096 F 
ATOM      9  I   UNL d   1      -2.522  -1.153   1.363  0.00  0.00    -0.060 I 
ATOM     10  F2  UNL d   1      -2.327   1.986   0.775  0.00  0.00    -0.096 F 
ATOM     11  F3  UNL d   1      -0.600   3.878   1.654  0.00  0.00    -0.097 F 
ATOM     12  F4  UNL d   1       1.423   3.213   3.360  0.00  0.00    -0.092 F 
ENDROOT
TORSDOF 0
ENDMDL
