MODEL 1
REMARK minimizedAffinity 28.7408295
REMARK minimizedRMSD -1
REMARK  0 active torsions:
REMARK  status: ('A' for Active; 'I' for Inactive)
ROOT
ATOM      1  C   UNL d   1       1.478  -0.762  -3.303  0.00  0.00     0.124 A 
ATOM      2  C1  UNL d   1       1.207   0.371  -2.548  0.00  0.00     0.062 A 
ATOM      3  C2  UNL d   1       1.687   1.613  -2.952  0.00  0.00     0.162 A 
ATOM      4  C3  UNL d   1       2.443   1.730  -4.119  0.00  0.00    -0.034 A 
ATOM      5  C4  UNL d   1       2.712   0.586  -4.873  0.00  0.00     0.162 A 
ATOM      6  C5  UNL d   1       2.230  -0.653  -4.464  0.00  0.00     0.062 A 
ATOM      7  F   UNL d   1       2.493  -1.746  -5.194  0.00  0.00    -0.097 F 
ATOM      8  F1  UNL d   1       3.436   0.662  -5.999  0.00  0.00    -0.096 F 
ATOM      9  I   UNL d   1       3.162   3.586  -4.728  0.00  0.00    -0.060 I 
ATOM     10  F2  UNL d   1       1.410   2.691  -2.203  0.00  0.00    -0.096 F 
ATOM     11  F3  UNL d   1       0.482   0.269  -1.425  0.00  0.00    -0.097 F 
ATOM     12  F4  UNL d   1       1.016  -1.956  -2.910  0.00  0.00    -0.092 F 
ENDROOT
TORSDOF 0
ENDMDL
