MODEL 1
REMARK minimizedAffinity 15.4023724
REMARK minimizedRMSD -1
REMARK  0 active torsions:
REMARK  status: ('A' for Active; 'I' for Inactive)
ROOT
ATOM      1  C   UNL d   1      -4.781  -2.635  -5.082  0.00  0.00     0.124 A 
ATOM      2  C1  UNL d   1      -4.813  -3.995  -5.357  0.00  0.00     0.062 A 
ATOM      3  C2  UNL d   1      -3.632  -4.685  -5.616  0.00  0.00     0.162 A 
ATOM      4  C3  UNL d   1      -2.409  -4.016  -5.600  0.00  0.00    -0.034 A 
ATOM      5  C4  UNL d   1      -2.384  -2.648  -5.324  0.00  0.00     0.162 A 
ATOM      6  C5  UNL d   1      -3.567  -1.963  -5.066  0.00  0.00     0.062 A 
ATOM      7  F   UNL d   1      -3.535  -0.649  -4.801  0.00  0.00    -0.097 F 
ATOM      8  F1  UNL d   1      -1.225  -1.973  -5.301  0.00  0.00    -0.096 F 
ATOM      9  I   UNL d   1      -0.641  -5.044  -5.987  0.00  0.00    -0.060 I 
ATOM     10  F2  UNL d   1      -3.693  -5.999  -5.879  0.00  0.00    -0.096 F 
ATOM     11  F3  UNL d   1      -5.985  -4.647  -5.375  0.00  0.00    -0.097 F 
ATOM     12  F4  UNL d   1      -5.919  -1.974  -4.835  0.00  0.00    -0.092 F 
ENDROOT
TORSDOF 0
ENDMDL
