MODEL 1
REMARK minimizedAffinity 13.7436647
REMARK minimizedRMSD -1
REMARK  0 active torsions:
REMARK  status: ('A' for Active; 'I' for Inactive)
ROOT
ATOM      1  C   UNL d   1      -4.688  -3.949  -1.095  0.00  0.00     0.124 A 
ATOM      2  C1  UNL d   1      -4.288  -4.813  -0.085  0.00  0.00     0.062 A 
ATOM      3  C2  UNL d   1      -4.462  -4.459   1.249  0.00  0.00     0.162 A 
ATOM      4  C3  UNL d   1      -5.040  -3.234   1.582  0.00  0.00    -0.034 A 
ATOM      5  C4  UNL d   1      -5.439  -2.369   0.561  0.00  0.00     0.162 A 
ATOM      6  C5  UNL d   1      -5.263  -2.729  -0.771  0.00  0.00     0.062 A 
ATOM      7  F   UNL d   1      -5.650  -1.893  -1.746  0.00  0.00    -0.097 F 
ATOM      8  F1  UNL d   1      -5.998  -1.184   0.846  0.00  0.00    -0.096 F 
ATOM      9  I   UNL d   1      -5.302  -2.699   3.577  0.00  0.00    -0.060 I 
ATOM     10  F2  UNL d   1      -4.066  -5.313   2.204  0.00  0.00    -0.096 F 
ATOM     11  F3  UNL d   1      -3.731  -5.993  -0.396  0.00  0.00    -0.097 F 
ATOM     12  F4  UNL d   1      -4.519  -4.293  -2.379  0.00  0.00    -0.092 F 
ENDROOT
TORSDOF 0
ENDMDL
