MODEL 1
REMARK minimizedAffinity 22.7560368
REMARK minimizedRMSD -1
REMARK  0 active torsions:
REMARK  status: ('A' for Active; 'I' for Inactive)
ROOT
ATOM      1  C   UNL d   1       1.628  -0.380  -3.327  0.00  0.00     0.124 A 
ATOM      2  C1  UNL d   1       1.507   0.754  -2.535  0.00  0.00     0.062 A 
ATOM      3  C2  UNL d   1       2.138   1.938  -2.906  0.00  0.00     0.162 A 
ATOM      4  C3  UNL d   1       2.895   1.995  -4.076  0.00  0.00    -0.034 A 
ATOM      5  C4  UNL d   1       3.013   0.850  -4.867  0.00  0.00     0.162 A 
ATOM      6  C5  UNL d   1       2.380  -0.331  -4.492  0.00  0.00     0.062 A 
ATOM      7  F   UNL d   1       2.499  -1.425  -5.258  0.00  0.00    -0.097 F 
ATOM      8  F1  UNL d   1       3.734   0.870  -5.998  0.00  0.00    -0.096 F 
ATOM      9  I   UNL d   1       3.841   3.763  -4.635  0.00  0.00    -0.060 I 
ATOM     10  F2  UNL d   1       2.004   3.017  -2.122  0.00  0.00    -0.096 F 
ATOM     11  F3  UNL d   1       0.781   0.709  -1.409  0.00  0.00    -0.097 F 
ATOM     12  F4  UNL d   1       1.020  -1.518  -2.967  0.00  0.00    -0.092 F 
ENDROOT
TORSDOF 0
ENDMDL
