MODEL 1
REMARK minimizedAffinity 13.6295261
REMARK minimizedRMSD -1
REMARK  0 active torsions:
REMARK  status: ('A' for Active; 'I' for Inactive)
ROOT
ATOM      1  C   UNL d   1      -4.556  -3.825  -1.410  0.00  0.00     0.124 A 
ATOM      2  C1  UNL d   1      -5.150  -2.714  -0.826  0.00  0.00     0.062 A 
ATOM      3  C2  UNL d   1      -5.422  -2.702   0.539  0.00  0.00     0.162 A 
ATOM      4  C3  UNL d   1      -5.099  -3.804   1.331  0.00  0.00    -0.034 A 
ATOM      5  C4  UNL d   1      -4.503  -4.918   0.737  0.00  0.00     0.162 A 
ATOM      6  C5  UNL d   1      -4.233  -4.925  -0.628  0.00  0.00     0.062 A 
ATOM      7  F   UNL d   1      -3.660  -5.999  -1.190  0.00  0.00    -0.097 F 
ATOM      8  F1  UNL d   1      -4.179  -5.994   1.468  0.00  0.00    -0.096 F 
ATOM      9  I   UNL d   1      -5.504  -3.790   3.372  0.00  0.00    -0.060 I 
ATOM     10  F2  UNL d   1      -5.996  -1.615   1.076  0.00  0.00    -0.096 F 
ATOM     11  F3  UNL d   1      -5.464  -1.650  -1.579  0.00  0.00    -0.097 F 
ATOM     12  F4  UNL d   1      -4.297  -3.834  -2.723  0.00  0.00    -0.092 F 
ENDROOT
TORSDOF 0
ENDMDL
