MODEL 1
REMARK minimizedAffinity 22.5872536
REMARK minimizedRMSD -1
REMARK  0 active torsions:
REMARK  status: ('A' for Active; 'I' for Inactive)
ROOT
ATOM      1  C   UNL d   1       2.269   4.668  -3.610  0.00  0.00     0.124 A 
ATOM      2  C1  UNL d   1       1.751   3.849  -2.616  0.00  0.00     0.062 A 
ATOM      3  C2  UNL d   1       1.793   2.465  -2.756  0.00  0.00     0.162 A 
ATOM      4  C3  UNL d   1       2.356   1.890  -3.895  0.00  0.00    -0.034 A 
ATOM      5  C4  UNL d   1       2.874   2.720  -4.891  0.00  0.00     0.162 A 
ATOM      6  C5  UNL d   1       2.830   4.103  -4.746  0.00  0.00     0.062 A 
ATOM      7  F   UNL d   1       3.330   4.892  -5.708  0.00  0.00    -0.097 F 
ATOM      8  F1  UNL d   1       3.423   2.201  -6.000  0.00  0.00    -0.096 F 
ATOM      9  I   UNL d   1       2.421  -0.179  -4.109  0.00  0.00    -0.060 I 
ATOM     10  F2  UNL d   1       1.285   1.699  -1.780  0.00  0.00    -0.096 F 
ATOM     11  F3  UNL d   1       1.208   4.393  -1.517  0.00  0.00    -0.097 F 
ATOM     12  F4  UNL d   1       2.226   6.000  -3.472  0.00  0.00    -0.092 F 
ENDROOT
TORSDOF 0
ENDMDL
