MODEL 1
REMARK minimizedAffinity 24.8931389
REMARK minimizedRMSD -1
REMARK  0 active torsions:
REMARK  status: ('A' for Active; 'I' for Inactive)
ROOT
ATOM      1  C   UNL d   1       2.542   4.672  -3.795  0.00  0.00     0.124 A 
ATOM      2  C1  UNL d   1       3.160   4.080  -4.888  0.00  0.00     0.062 A 
ATOM      3  C2  UNL d   1       3.341   2.701  -4.927  0.00  0.00     0.162 A 
ATOM      4  C3  UNL d   1       2.904   1.903  -3.869  0.00  0.00    -0.034 A 
ATOM      5  C4  UNL d   1       2.284   2.506  -2.773  0.00  0.00     0.162 A 
ATOM      6  C5  UNL d   1       2.105   3.885  -2.739  0.00  0.00     0.062 A 
ATOM      7  F   UNL d   1       1.507   4.455  -1.682  0.00  0.00    -0.097 F 
ATOM      8  F1  UNL d   1       1.851   1.769  -1.740  0.00  0.00    -0.096 F 
ATOM      9  I   UNL d   1       3.173  -0.160  -3.924  0.00  0.00    -0.060 I 
ATOM     10  F2  UNL d   1       3.941   2.156  -5.995  0.00  0.00    -0.096 F 
ATOM     11  F3  UNL d   1       3.584   4.839  -5.909  0.00  0.00    -0.097 F 
ATOM     12  F4  UNL d   1       2.369   6.000  -3.760  0.00  0.00    -0.092 F 
ENDROOT
TORSDOF 0
ENDMDL
