MODEL 1
REMARK minimizedAffinity 25.8394566
REMARK minimizedRMSD -1
REMARK  0 active torsions:
REMARK  status: ('A' for Active; 'I' for Inactive)
ROOT
ATOM      1  C   UNL d   1       2.466   4.488  -3.323  0.00  0.00     0.124 A 
ATOM      2  C1  UNL d   1       3.259   4.057  -4.378  0.00  0.00     0.062 A 
ATOM      3  C2  UNL d   1       3.361   2.699  -4.667  0.00  0.00     0.162 A 
ATOM      4  C3  UNL d   1       2.667   1.762  -3.901  0.00  0.00    -0.034 A 
ATOM      5  C4  UNL d   1       1.873   2.204  -2.841  0.00  0.00     0.162 A 
ATOM      6  C5  UNL d   1       1.774   3.562  -2.556  0.00  0.00     0.062 A 
ATOM      7  F   UNL d   1       1.008   3.977  -1.537  0.00  0.00    -0.097 F 
ATOM      8  F1  UNL d   1       1.193   1.330  -2.085  0.00  0.00    -0.096 F 
ATOM      9  I   UNL d   1       2.817  -0.268  -4.331  0.00  0.00    -0.060 I 
ATOM     10  F2  UNL d   1       4.134   2.311  -5.693  0.00  0.00    -0.096 F 
ATOM     11  F3  UNL d   1       3.929   4.950  -5.120  0.00  0.00    -0.097 F 
ATOM     12  F4  UNL d   1       2.371   5.795  -3.046  0.00  0.00    -0.092 F 
ENDROOT
TORSDOF 0
ENDMDL
