MODEL 1
REMARK minimizedAffinity 32.560833
REMARK minimizedRMSD -1
REMARK  0 active torsions:
REMARK  status: ('A' for Active; 'I' for Inactive)
ROOT
ATOM      1  C   UNL d   1      -4.763  -1.954  -2.609  0.00  0.00     0.124 A 
ATOM      2  C1  UNL d   1      -4.384  -3.259  -2.330  0.00  0.00     0.062 A 
ATOM      3  C2  UNL d   1      -4.545  -4.256  -3.288  0.00  0.00     0.162 A 
ATOM      4  C3  UNL d   1      -5.087  -3.950  -4.536  0.00  0.00    -0.034 A 
ATOM      5  C4  UNL d   1      -5.468  -2.635  -4.810  0.00  0.00     0.162 A 
ATOM      6  C5  UNL d   1      -5.305  -1.643  -3.848  0.00  0.00     0.062 A 
ATOM      7  F   UNL d   1      -5.672  -0.383  -4.120  0.00  0.00    -0.097 F 
ATOM      8  F1  UNL d   1      -5.993  -2.307  -6.000  0.00  0.00    -0.096 F 
ATOM      9  I   UNL d   1      -5.329  -5.437  -5.972  0.00  0.00    -0.060 I 
ATOM     10  F2  UNL d   1      -4.169  -5.509  -2.991  0.00  0.00    -0.096 F 
ATOM     11  F3  UNL d   1      -3.861  -3.562  -1.132  0.00  0.00    -0.097 F 
ATOM     12  F4  UNL d   1      -4.608  -0.998  -1.685  0.00  0.00    -0.092 F 
ENDROOT
TORSDOF 0
ENDMDL
