MODEL 1
REMARK minimizedAffinity 14.7279043
REMARK minimizedRMSD -1
REMARK  0 active torsions:
REMARK  status: ('A' for Active; 'I' for Inactive)
ROOT
ATOM      1  C   UNL d   1       1.168  -5.264   2.951  0.00  0.00     0.124 A 
ATOM      2  C1  UNL d   1       1.963  -5.206   1.814  0.00  0.00     0.062 A 
ATOM      3  C2  UNL d   1       3.335  -5.415   1.908  0.00  0.00     0.162 A 
ATOM      4  C3  UNL d   1       3.923  -5.686   3.144  0.00  0.00    -0.034 A 
ATOM      5  C4  UNL d   1       3.117  -5.742   4.283  0.00  0.00     0.162 A 
ATOM      6  C5  UNL d   1       1.746  -5.532   4.184  0.00  0.00     0.062 A 
ATOM      7  F   UNL d   1       0.980  -5.589   5.283  0.00  0.00    -0.097 F 
ATOM      8  F1  UNL d   1       3.649  -6.000   5.487  0.00  0.00    -0.096 F 
ATOM      9  I   UNL d   1       5.975  -5.999   3.289  0.00  0.00    -0.060 I 
ATOM     10  F2  UNL d   1       4.079  -5.353   0.794  0.00  0.00    -0.096 F 
ATOM     11  F3  UNL d   1       1.407  -4.946   0.622  0.00  0.00    -0.097 F 
ATOM     12  F4  UNL d   1      -0.152  -5.061   2.857  0.00  0.00    -0.092 F 
ENDROOT
TORSDOF 0
ENDMDL
