MODEL 1
REMARK minimizedAffinity 11.7408962
REMARK minimizedRMSD -1
REMARK  0 active torsions:
REMARK  status: ('A' for Active; 'I' for Inactive)
ROOT
ATOM      1  C   UNL d   1      -2.776   1.470   1.342  0.00  0.00     0.124 A 
ATOM      2  C1  UNL d   1      -1.701   0.592   1.387  0.00  0.00     0.062 A 
ATOM      3  C2  UNL d   1      -1.879  -0.748   1.056  0.00  0.00     0.162 A 
ATOM      4  C3  UNL d   1      -3.135  -1.219   0.676  0.00  0.00    -0.034 A 
ATOM      5  C4  UNL d   1      -4.211  -0.330   0.634  0.00  0.00     0.162 A 
ATOM      6  C5  UNL d   1      -4.029   1.008   0.966  0.00  0.00     0.062 A 
ATOM      7  F   UNL d   1      -5.068   1.855   0.922  0.00  0.00    -0.097 F 
ATOM      8  F1  UNL d   1      -5.433  -0.750   0.273  0.00  0.00    -0.096 F 
ATOM      9  I   UNL d   1      -3.404  -3.222   0.181  0.00  0.00    -0.060 I 
ATOM     10  F2  UNL d   1      -0.823  -1.574   1.109  0.00  0.00    -0.096 F 
ATOM     11  F3  UNL d   1      -0.490   1.036   1.751  0.00  0.00    -0.097 F 
ATOM     12  F4  UNL d   1      -2.602   2.759   1.662  0.00  0.00    -0.092 F 
ENDROOT
TORSDOF 0
ENDMDL
