MODEL 1
REMARK minimizedAffinity 22.6567211
REMARK minimizedRMSD -1
REMARK  0 active torsions:
REMARK  status: ('A' for Active; 'I' for Inactive)
ROOT
ATOM      1  C   UNL d   1      -0.709   2.559   2.830  0.00  0.00     0.124 A 
ATOM      2  C1  UNL d   1      -0.335   1.231   2.673  0.00  0.00     0.062 A 
ATOM      3  C2  UNL d   1      -1.209   0.322   2.085  0.00  0.00     0.162 A 
ATOM      4  C3  UNL d   1      -2.468   0.737   1.648  0.00  0.00    -0.034 A 
ATOM      5  C4  UNL d   1      -2.838   2.073   1.811  0.00  0.00     0.162 A 
ATOM      6  C5  UNL d   1      -1.960   2.978   2.399  0.00  0.00     0.062 A 
ATOM      7  F   UNL d   1      -2.324   4.260   2.550  0.00  0.00    -0.097 F 
ATOM      8  F1  UNL d   1      -4.040   2.506   1.402  0.00  0.00    -0.096 F 
ATOM      9  I   UNL d   1      -3.778  -0.620   0.769  0.00  0.00    -0.060 I 
ATOM     10  F2  UNL d   1      -0.821  -0.954   1.946  0.00  0.00    -0.096 F 
ATOM     11  F3  UNL d   1       0.873   0.823   3.089  0.00  0.00    -0.097 F 
ATOM     12  F4  UNL d   1       0.134   3.431   3.397  0.00  0.00    -0.092 F 
ENDROOT
TORSDOF 0
ENDMDL
