MODEL 1
REMARK minimizedAffinity 19.7872524
REMARK minimizedRMSD -1
REMARK  0 active torsions:
REMARK  status: ('A' for Active; 'I' for Inactive)
ROOT
ATOM      1  C   UNL d   1      -1.443   2.621   1.841  0.00  0.00     0.124 A 
ATOM      2  C1  UNL d   1      -0.917   1.349   1.668  0.00  0.00     0.062 A 
ATOM      3  C2  UNL d   1      -1.744   0.294   1.293  0.00  0.00     0.162 A 
ATOM      4  C3  UNL d   1      -3.107   0.508   1.087  0.00  0.00    -0.034 A 
ATOM      5  C4  UNL d   1      -3.630   1.790   1.264  0.00  0.00     0.162 A 
ATOM      6  C5  UNL d   1      -2.799   2.841   1.639  0.00  0.00     0.062 A 
ATOM      7  F   UNL d   1      -3.309   4.070   1.807  0.00  0.00    -0.097 F 
ATOM      8  F1  UNL d   1      -4.936   2.031   1.075  0.00  0.00    -0.096 F 
ATOM      9  I   UNL d   1      -4.348  -1.067   0.526  0.00  0.00    -0.060 I 
ATOM     10  F2  UNL d   1      -1.209  -0.925   1.132  0.00  0.00    -0.096 F 
ATOM     11  F3  UNL d   1       0.392   1.134   1.863  0.00  0.00    -0.097 F 
ATOM     12  F4  UNL d   1      -0.645   3.634   2.203  0.00  0.00    -0.092 F 
ENDROOT
TORSDOF 0
ENDMDL
