MODEL 1
REMARK minimizedAffinity 18.6223202
REMARK minimizedRMSD -1
REMARK  0 active torsions:
REMARK  status: ('A' for Active; 'I' for Inactive)
ROOT
ATOM      1  C   UNL d   1      -2.612  -0.022   1.567  0.00  0.00     0.124 A 
ATOM      2  C1  UNL d   1      -1.462  -0.608   2.078  0.00  0.00     0.062 A 
ATOM      3  C2  UNL d   1      -0.453   0.184   2.617  0.00  0.00     0.162 A 
ATOM      4  C3  UNL d   1      -0.589   1.572   2.649  0.00  0.00    -0.034 A 
ATOM      5  C4  UNL d   1      -1.747   2.154   2.132  0.00  0.00     0.162 A 
ATOM      6  C5  UNL d   1      -2.753   1.358   1.594  0.00  0.00     0.062 A 
ATOM      7  F   UNL d   1      -3.863   1.926   1.100  0.00  0.00    -0.097 F 
ATOM      8  F1  UNL d   1      -1.911   3.485   2.146  0.00  0.00    -0.096 F 
ATOM      9  I   UNL d   1       0.918   2.760   3.454  0.00  0.00    -0.060 I 
ATOM     10  F2  UNL d   1       0.647  -0.409   3.105  0.00  0.00    -0.096 F 
ATOM     11  F3  UNL d   1      -1.323  -1.942   2.052  0.00  0.00    -0.097 F 
ATOM     12  F4  UNL d   1      -3.581  -0.787   1.048  0.00  0.00    -0.092 F 
ENDROOT
TORSDOF 0
ENDMDL
