MODEL 1
REMARK minimizedAffinity 6.31498337
REMARK minimizedRMSD -1
REMARK  0 active torsions:
REMARK  status: ('A' for Active; 'I' for Inactive)
ROOT
ATOM      1  C   UNL d   1      -3.337  -3.197  -0.282  0.00  0.00     0.124 A 
ATOM      2  C1  UNL d   1      -4.568  -2.609  -0.027  0.00  0.00     0.062 A 
ATOM      3  C2  UNL d   1      -4.634  -1.310   0.468  0.00  0.00     0.162 A 
ATOM      4  C3  UNL d   1      -3.464  -0.589   0.709  0.00  0.00    -0.034 A 
ATOM      5  C4  UNL d   1      -2.230  -1.187   0.450  0.00  0.00     0.162 A 
ATOM      6  C5  UNL d   1      -2.169  -2.486  -0.044  0.00  0.00     0.062 A 
ATOM      7  F   UNL d   1      -0.979  -3.053  -0.290  0.00  0.00    -0.097 F 
ATOM      8  F1  UNL d   1      -1.086  -0.522   0.671  0.00  0.00    -0.096 F 
ATOM      9  I   UNL d   1      -3.559   1.355   1.448  0.00  0.00    -0.060 I 
ATOM     10  F2  UNL d   1      -5.837  -0.767   0.705  0.00  0.00    -0.096 F 
ATOM     11  F3  UNL d   1      -5.697  -3.295  -0.255  0.00  0.00    -0.097 F 
ATOM     12  F4  UNL d   1      -3.276  -4.448  -0.757  0.00  0.00    -0.092 F 
ENDROOT
TORSDOF 0
ENDMDL
