MODEL 1
REMARK minimizedAffinity 23.3220272
REMARK minimizedRMSD -1
REMARK  0 active torsions:
REMARK  status: ('A' for Active; 'I' for Inactive)
ROOT
ATOM      1  C   UNL d   1       2.875   4.677  -2.880  0.00  0.00     0.124 A 
ATOM      2  C1  UNL d   1       2.163   3.911  -1.967  0.00  0.00     0.062 A 
ATOM      3  C2  UNL d   1       2.041   2.537  -2.149  0.00  0.00     0.162 A 
ATOM      4  C3  UNL d   1       2.634   1.918  -3.251  0.00  0.00    -0.034 A 
ATOM      5  C4  UNL d   1       3.347   2.695  -4.166  0.00  0.00     0.162 A 
ATOM      6  C5  UNL d   1       3.466   4.068  -3.978  0.00  0.00     0.062 A 
ATOM      7  F   UNL d   1       4.153   4.806  -4.862  0.00  0.00    -0.097 F 
ATOM      8  F1  UNL d   1       3.929   2.132  -5.235  0.00  0.00    -0.096 F 
ATOM      9  I   UNL d   1       2.454  -0.137  -3.527  0.00  0.00    -0.060 I 
ATOM     10  F2  UNL d   1       1.348   1.822  -1.251  0.00  0.00    -0.096 F 
ATOM     11  F3  UNL d   1       1.591   4.497  -0.905  0.00  0.00    -0.097 F 
ATOM     12  F4  UNL d   1       2.989   5.999  -2.703  0.00  0.00    -0.092 F 
ENDROOT
TORSDOF 0
ENDMDL
