MODEL 1
REMARK minimizedAffinity 24.518446
REMARK minimizedRMSD -1
REMARK  0 active torsions:
REMARK  status: ('A' for Active; 'I' for Inactive)
ROOT
ATOM      1  C   UNL d   1       2.226   0.285  -3.412  0.00  0.00     0.124 A 
ATOM      2  C1  UNL d   1       1.922   1.428  -2.687  0.00  0.00     0.062 A 
ATOM      3  C2  UNL d   1       2.440   2.661  -3.072  0.00  0.00     0.162 A 
ATOM      4  C3  UNL d   1       3.268   2.758  -4.190  0.00  0.00    -0.034 A 
ATOM      5  C4  UNL d   1       3.571   1.603  -4.915  0.00  0.00     0.162 A 
ATOM      6  C5  UNL d   1       3.050   0.373  -4.525  0.00  0.00     0.062 A 
ATOM      7  F   UNL d   1       3.345  -0.730  -5.228  0.00  0.00    -0.097 F 
ATOM      8  F1  UNL d   1       4.364   1.660  -5.995  0.00  0.00    -0.096 F 
ATOM      9  I   UNL d   1       4.046   4.599  -4.770  0.00  0.00    -0.060 I 
ATOM     10  F2  UNL d   1       2.129   3.749  -2.352  0.00  0.00    -0.096 F 
ATOM     11  F3  UNL d   1       1.126   1.345  -1.610  0.00  0.00    -0.097 F 
ATOM     12  F4  UNL d   1       1.726  -0.900  -3.039  0.00  0.00    -0.092 F 
ENDROOT
TORSDOF 0
ENDMDL
