MODEL 1
REMARK minimizedAffinity 12.6589203
REMARK minimizedRMSD -1
REMARK  0 active torsions:
REMARK  status: ('A' for Active; 'I' for Inactive)
ROOT
ATOM      1  C   UNL d   1       4.579  -2.533   2.707  0.00  0.00     0.124 A 
ATOM      2  C1  UNL d   1       4.788  -3.803   2.187  0.00  0.00     0.062 A 
ATOM      3  C2  UNL d   1       3.805  -4.781   2.311  0.00  0.00     0.162 A 
ATOM      4  C3  UNL d   1       2.603  -4.492   2.958  0.00  0.00    -0.034 A 
ATOM      5  C4  UNL d   1       2.401  -3.213   3.479  0.00  0.00     0.162 A 
ATOM      6  C5  UNL d   1       3.386  -2.240   3.352  0.00  0.00     0.062 A 
ATOM      7  F   UNL d   1       3.182  -1.013   3.855  0.00  0.00    -0.097 F 
ATOM      8  F1  UNL d   1       1.257  -2.902   4.106  0.00  0.00    -0.096 F 
ATOM      9  I   UNL d   1       1.131  -5.952   3.145  0.00  0.00    -0.060 I 
ATOM     10  F2  UNL d   1       4.034  -6.000   1.800  0.00  0.00    -0.096 F 
ATOM     11  F3  UNL d   1       5.940  -4.090   1.565  0.00  0.00    -0.097 F 
ATOM     12  F4  UNL d   1       5.527  -1.595   2.587  0.00  0.00    -0.092 F 
ENDROOT
TORSDOF 0
ENDMDL
