MODEL 1
REMARK minimizedAffinity -4.37094831
REMARK minimizedRMSD -1
REMARK  0 active torsions:
REMARK  status: ('A' for Active; 'I' for Inactive)
ROOT
ATOM      1  C   UNL d   1      -1.685   2.226   2.228  0.00  0.00     0.020 A 
ATOM      2  C1  UNL d   1      -2.072   0.942   2.609  0.00  0.00     0.020 A 
ATOM      3  C2  UNL d   1      -1.612  -0.166   1.894  0.00  0.00     0.034 A 
ATOM      4  C3  UNL d   1      -0.764   0.008   0.795  0.00  0.00     0.017 A 
ATOM      5  C4  UNL d   1      -0.376   1.298   0.413  0.00  0.00     0.017 A 
ATOM      6  C5  UNL d   1      -0.839   2.404   1.133  0.00  0.00     0.034 A 
ATOM      7 Cl   UNL d   1       0.668   1.592  -0.932  0.00  0.00    -0.070 Cl
ATOM      8 Cl1  UNL d   1      -0.233  -1.407  -0.043  0.00  0.00    -0.070 Cl
ENDROOT
TORSDOF 0
ENDMDL
