MODEL 1
REMARK minimizedAffinity -1.8912307
REMARK minimizedRMSD -1
REMARK  0 active torsions:
REMARK  status: ('A' for Active; 'I' for Inactive)
ROOT
ATOM      1  C   UNL d   1       0.069   2.627   0.813  0.00  0.00     0.020 A 
ATOM      2  C1  UNL d   1      -0.730   2.867   1.929  0.00  0.00     0.020 A 
ATOM      3  C2  UNL d   1      -1.586   1.870   2.403  0.00  0.00     0.034 A 
ATOM      4  C3  UNL d   1      -1.644   0.628   1.759  0.00  0.00     0.017 A 
ATOM      5  C4  UNL d   1      -0.841   0.388   0.638  0.00  0.00     0.017 A 
ATOM      6  C5  UNL d   1       0.014   1.390   0.168  0.00  0.00     0.034 A 
ATOM      7 Cl   UNL d   1      -0.858  -1.118  -0.209  0.00  0.00    -0.070 Cl
ATOM      8 Cl1  UNL d   1      -2.725  -0.558   2.399  0.00  0.00    -0.070 Cl
ENDROOT
TORSDOF 0
ENDMDL
