MODEL 1
REMARK minimizedAffinity -3.57620573
REMARK minimizedRMSD -1
REMARK  0 active torsions:
REMARK  status: ('A' for Active; 'I' for Inactive)
ROOT
ATOM      1  C   UNL d   1      -0.920   0.178   0.537  0.00  0.00     0.020 A 
ATOM      2  C1  UNL d   1      -1.142   1.424  -0.048  0.00  0.00     0.020 A 
ATOM      3  C2  UNL d   1      -0.306   1.874  -1.071  0.00  0.00     0.034 A 
ATOM      4  C3  UNL d   1       0.756   1.078  -1.514  0.00  0.00     0.017 A 
ATOM      5  C4  UNL d   1       0.979  -0.173  -0.927  0.00  0.00     0.017 A 
ATOM      6  C5  UNL d   1       0.138  -0.619   0.098  0.00  0.00     0.034 A 
ATOM      7 Cl   UNL d   1       2.269  -1.212  -1.420  0.00  0.00    -0.070 Cl
ATOM      8 Cl1  UNL d   1       1.750   1.698  -2.784  0.00  0.00    -0.070 Cl
ENDROOT
TORSDOF 0
ENDMDL
