MODEL 1
REMARK minimizedAffinity -1.597054
REMARK minimizedRMSD -1
REMARK  0 active torsions:
REMARK  status: ('A' for Active; 'I' for Inactive)
ROOT
ATOM      1  C   UNL d   1       1.957  -1.650  -1.597  0.00  0.00     0.020 A 
ATOM      2  C1  UNL d   1       1.438  -2.396  -0.539  0.00  0.00     0.020 A 
ATOM      3  C2  UNL d   1       0.442  -1.853   0.275  0.00  0.00     0.034 A 
ATOM      4  C3  UNL d   1      -0.039  -0.561   0.033  0.00  0.00     0.017 A 
ATOM      5  C4  UNL d   1       0.482   0.186  -1.030  0.00  0.00     0.017 A 
ATOM      6  C5  UNL d   1       1.480  -0.362  -1.842  0.00  0.00     0.034 A 
ATOM      7 Cl   UNL d   1      -0.061   1.787  -1.391  0.00  0.00    -0.070 Cl
ATOM      8 Cl1  UNL d   1      -1.272   0.046   1.079  0.00  0.00    -0.070 Cl
ENDROOT
TORSDOF 0
ENDMDL
