MODEL 1
REMARK minimizedAffinity -3.97284484
REMARK minimizedRMSD -1
REMARK  0 active torsions:
REMARK  status: ('A' for Active; 'I' for Inactive)
ROOT
ATOM      1  C   UNL d   1      -1.160  -0.015   0.019  0.00  0.00     0.020 A 
ATOM      2  C1  UNL d   1      -0.520  -1.252  -0.046  0.00  0.00     0.020 A 
ATOM      3  C2  UNL d   1       0.763  -1.347  -0.590  0.00  0.00     0.034 A 
ATOM      4  C3  UNL d   1       1.409  -0.203  -1.072  0.00  0.00     0.017 A 
ATOM      5  C4  UNL d   1       0.766   1.039  -1.006  0.00  0.00     0.017 A 
ATOM      6  C5  UNL d   1      -0.518   1.128  -0.460  0.00  0.00     0.034 A 
ATOM      7 Cl   UNL d   1       1.500   2.495  -1.579  0.00  0.00    -0.070 Cl
ATOM      8 Cl1  UNL d   1       2.995  -0.393  -1.731  0.00  0.00    -0.070 Cl
ENDROOT
TORSDOF 0
ENDMDL
