MODEL 1
REMARK minimizedAffinity -4.79382086
REMARK minimizedRMSD -1
REMARK  0 active torsions:
REMARK  status: ('A' for Active; 'I' for Inactive)
ROOT
ATOM      1  C   UNL d   1      -0.682   1.542  -1.209  0.00  0.00     0.020 A 
ATOM      2  C1  UNL d   1      -1.782   2.060  -0.528  0.00  0.00     0.020 A 
ATOM      3  C2  UNL d   1      -2.012   1.702   0.802  0.00  0.00     0.034 A 
ATOM      4  C3  UNL d   1      -1.140   0.822   1.455  0.00  0.00     0.017 A 
ATOM      5  C4  UNL d   1      -0.036   0.302   0.770  0.00  0.00     0.017 A 
ATOM      6  C5  UNL d   1       0.189   0.664  -0.562  0.00  0.00     0.034 A 
ATOM      7 Cl   UNL d   1       1.083  -0.789   1.508  0.00  0.00    -0.070 Cl
ATOM      8 Cl1  UNL d   1      -1.485   0.423   3.100  0.00  0.00    -0.070 Cl
ENDROOT
TORSDOF 0
ENDMDL
