MODEL 1
REMARK minimizedAffinity -4.88338327
REMARK minimizedRMSD -1
REMARK  0 active torsions:
REMARK  status: ('A' for Active; 'I' for Inactive)
ROOT
ATOM      1  C   UNL d   1       1.085  -1.995  -0.634  0.00  0.00     0.020 A 
ATOM      2  C1  UNL d   1       1.706  -1.138  -1.542  0.00  0.00     0.020 A 
ATOM      3  C2  UNL d   1       1.325   0.204  -1.607  0.00  0.00     0.034 A 
ATOM      4  C3  UNL d   1       0.322   0.693  -0.762  0.00  0.00     0.017 A 
ATOM      5  C4  UNL d   1      -0.301  -0.169   0.149  0.00  0.00     0.017 A 
ATOM      6  C5  UNL d   1       0.084  -1.512   0.209  0.00  0.00     0.034 A 
ATOM      7 Cl   UNL d   1      -1.547   0.361   1.223  0.00  0.00    -0.070 Cl
ATOM      8 Cl1  UNL d   1      -0.098   2.364  -0.896  0.00  0.00    -0.070 Cl
ENDROOT
TORSDOF 0
ENDMDL
