MODEL 1
REMARK minimizedAffinity -3.65058374
REMARK minimizedRMSD -1
REMARK  0 active torsions:
REMARK  status: ('A' for Active; 'I' for Inactive)
ROOT
ATOM      1  C   UNL d   1       1.775  -1.958  -1.011  0.00  0.00     0.020 A 
ATOM      2  C1  UNL d   1       0.814  -1.868  -0.005  0.00  0.00     0.020 A 
ATOM      3  C2  UNL d   1      -0.062  -0.781   0.029  0.00  0.00     0.034 A 
ATOM      4  C3  UNL d   1       0.022   0.220  -0.945  0.00  0.00     0.017 A 
ATOM      5  C4  UNL d   1       0.986   0.129  -1.955  0.00  0.00     0.017 A 
ATOM      6  C5  UNL d   1       1.861  -0.962  -1.984  0.00  0.00     0.034 A 
ATOM      7 Cl   UNL d   1       1.150   1.326  -3.191  0.00  0.00    -0.070 Cl
ATOM      8 Cl1  UNL d   1      -1.093   1.536  -0.842  0.00  0.00    -0.070 Cl
ENDROOT
TORSDOF 0
ENDMDL
