MODEL 1
REMARK minimizedAffinity -1.66428947
REMARK minimizedRMSD -1
REMARK  0 active torsions:
REMARK  status: ('A' for Active; 'I' for Inactive)
ROOT
ATOM      1  C   UNL d   1       4.136   1.279   2.159  0.00  0.00     0.020 A 
ATOM      2  C1  UNL d   1       4.451   2.627   2.324  0.00  0.00     0.020 A 
ATOM      3  C2  UNL d   1       5.026   3.069   3.518  0.00  0.00     0.034 A 
ATOM      4  C3  UNL d   1       5.287   2.161   4.551  0.00  0.00     0.017 A 
ATOM      5  C4  UNL d   1       4.970   0.808   4.384  0.00  0.00     0.017 A 
ATOM      6  C5  UNL d   1       4.395   0.372   3.187  0.00  0.00     0.034 A 
ATOM      7 Cl   UNL d   1       5.263  -0.371   5.614  0.00  0.00    -0.070 Cl
ATOM      8 Cl1  UNL d   1       6.000   2.777   6.000  0.00  0.00    -0.070 Cl
ENDROOT
TORSDOF 0
ENDMDL
