MODEL 1
REMARK minimizedAffinity -4.45575094
REMARK minimizedRMSD -1
REMARK  0 active torsions:
REMARK  status: ('A' for Active; 'I' for Inactive)
ROOT
ATOM      1  C   UNL d   1      -2.016   0.900   2.624  0.00  0.00     0.020 A 
ATOM      2  C1  UNL d   1      -1.832   2.241   2.292  0.00  0.00     0.020 A 
ATOM      3  C2  UNL d   1      -1.194   2.583   1.098  0.00  0.00     0.034 A 
ATOM      4  C3  UNL d   1      -0.737   1.582   0.232  0.00  0.00     0.017 A 
ATOM      5  C4  UNL d   1      -0.923   0.236   0.567  0.00  0.00     0.017 A 
ATOM      6  C5  UNL d   1      -1.563  -0.101   1.764  0.00  0.00     0.034 A 
ATOM      7 Cl   UNL d   1      -0.387  -1.054  -0.451  0.00  0.00    -0.070 Cl
ATOM      8 Cl1  UNL d   1       0.043   2.078  -1.228  0.00  0.00    -0.070 Cl
ENDROOT
TORSDOF 0
ENDMDL
