MODEL 1
REMARK minimizedAffinity -4.26768255
REMARK minimizedRMSD -1
REMARK  0 active torsions:
REMARK  status: ('A' for Active; 'I' for Inactive)
ROOT
ATOM      1  C   UNL d   1      -0.573   1.432  -0.098  0.00  0.00     0.020 A 
ATOM      2  C1  UNL d   1      -1.457   0.811   0.783  0.00  0.00     0.020 A 
ATOM      3  C2  UNL d   1      -1.316  -0.549   1.070  0.00  0.00     0.034 A 
ATOM      4  C3  UNL d   1      -0.289  -1.291   0.475  0.00  0.00     0.017 A 
ATOM      5  C4  UNL d   1       0.598  -0.666  -0.409  0.00  0.00     0.017 A 
ATOM      6  C5  UNL d   1       0.452   0.696  -0.693  0.00  0.00     0.034 A 
ATOM      7 Cl   UNL d   1       1.889  -1.516  -1.182  0.00  0.00    -0.070 Cl
ATOM      8 Cl1  UNL d   1      -0.174  -2.968   0.876  0.00  0.00    -0.070 Cl
ENDROOT
TORSDOF 0
ENDMDL
