MODEL 1
REMARK minimizedAffinity -0.82586062
REMARK minimizedRMSD -1
REMARK  0 active torsions:
REMARK  status: ('A' for Active; 'I' for Inactive)
ROOT
ATOM      1  C   UNL d   1       0.051  -1.671  -0.534  0.00  0.00     0.020 A 
ATOM      2  C1  UNL d   1      -0.996  -0.755  -0.437  0.00  0.00     0.020 A 
ATOM      3  C2  UNL d   1      -0.723   0.596  -0.215  0.00  0.00     0.034 A 
ATOM      4  C3  UNL d   1       0.600   1.035  -0.089  0.00  0.00     0.017 A 
ATOM      5  C4  UNL d   1       1.650   0.115  -0.187  0.00  0.00     0.017 A 
ATOM      6  C5  UNL d   1       1.371  -1.237  -0.409  0.00  0.00     0.034 A 
ATOM      7 Cl   UNL d   1       3.308   0.582  -0.042  0.00  0.00    -0.070 Cl
ATOM      8 Cl1  UNL d   1       0.865   2.721   0.185  0.00  0.00    -0.070 Cl
ENDROOT
TORSDOF 0
ENDMDL
