MODEL 1
REMARK minimizedAffinity -3.95892143
REMARK minimizedRMSD -1
REMARK  0 active torsions:
REMARK  status: ('A' for Active; 'I' for Inactive)
ROOT
ATOM      1  C   UNL d   1      -0.245   1.763   0.027  0.00  0.00     0.020 A 
ATOM      2  C1  UNL d   1      -1.080   0.723  -0.381  0.00  0.00     0.020 A 
ATOM      3  C2  UNL d   1      -0.530  -0.488  -0.806  0.00  0.00     0.034 A 
ATOM      4  C3  UNL d   1       0.859  -0.662  -0.825  0.00  0.00     0.017 A 
ATOM      5  C4  UNL d   1       1.696   0.382  -0.415  0.00  0.00     0.017 A 
ATOM      6  C5  UNL d   1       1.140   1.592   0.010  0.00  0.00     0.034 A 
ATOM      7 Cl   UNL d   1       3.418   0.241  -0.410  0.00  0.00    -0.070 Cl
ATOM      8 Cl1  UNL d   1       1.470  -2.187  -1.362  0.00  0.00    -0.070 Cl
ENDROOT
TORSDOF 0
ENDMDL
