MODEL 1
REMARK minimizedAffinity -2.80984187
REMARK minimizedRMSD -1
REMARK  0 active torsions:
REMARK  status: ('A' for Active; 'I' for Inactive)
ROOT
ATOM      1  C   UNL d   1      -0.067   1.674  -1.577  0.00  0.00     0.020 A 
ATOM      2  C1  UNL d   1      -1.281   2.197  -1.135  0.00  0.00     0.020 A 
ATOM      3  C2  UNL d   1      -1.805   1.800   0.097  0.00  0.00     0.034 A 
ATOM      4  C3  UNL d   1      -1.115   0.877   0.891  0.00  0.00     0.017 A 
ATOM      5  C4  UNL d   1       0.104   0.353   0.446  0.00  0.00     0.017 A 
ATOM      6  C5  UNL d   1       0.624   0.754  -0.788  0.00  0.00     0.034 A 
ATOM      7 Cl   UNL d   1       1.014  -0.790   1.371  0.00  0.00    -0.070 Cl
ATOM      8 Cl1  UNL d   1      -1.821   0.431   2.403  0.00  0.00    -0.070 Cl
ENDROOT
TORSDOF 0
ENDMDL
