MODEL 1
REMARK minimizedAffinity -0.840111077
REMARK minimizedRMSD -1
REMARK  0 active torsions:
REMARK  status: ('A' for Active; 'I' for Inactive)
ROOT
ATOM      1  C   UNL d   1      -0.756   2.108   2.821  0.00  0.00     0.020 A 
ATOM      2  C1  UNL d   1      -1.207   0.819   3.106  0.00  0.00     0.020 A 
ATOM      3  C2  UNL d   1      -1.175  -0.166   2.116  0.00  0.00     0.034 A 
ATOM      4  C3  UNL d   1      -0.691   0.135   0.838  0.00  0.00     0.017 A 
ATOM      5  C4  UNL d   1      -0.239   1.429   0.553  0.00  0.00     0.017 A 
ATOM      6  C5  UNL d   1      -0.273   2.411   1.548  0.00  0.00     0.034 A 
ATOM      7 Cl   UNL d   1       0.372   1.876  -1.000  0.00  0.00    -0.070 Cl
ATOM      8 Cl1  UNL d   1      -0.681  -1.132  -0.336  0.00  0.00    -0.070 Cl
ENDROOT
TORSDOF 0
ENDMDL
