MODEL 1
REMARK minimizedAffinity -3.98361015
REMARK minimizedRMSD -1
REMARK  0 active torsions:
REMARK  status: ('A' for Active; 'I' for Inactive)
ROOT
ATOM      1  C   UNL d   1      -1.069   0.644   0.415  0.00  0.00     0.020 A 
ATOM      2  C1  UNL d   1      -0.095   1.553   0.005  0.00  0.00     0.020 A 
ATOM      3  C2  UNL d   1       1.171   1.097  -0.372  0.00  0.00     0.034 A 
ATOM      4  C3  UNL d   1       1.464  -0.271  -0.339  0.00  0.00     0.017 A 
ATOM      5  C4  UNL d   1       0.485  -1.183   0.072  0.00  0.00     0.017 A 
ATOM      6  C5  UNL d   1      -0.780  -0.721   0.448  0.00  0.00     0.034 A 
ATOM      7 Cl   UNL d   1       0.773  -2.885   0.139  0.00  0.00    -0.070 Cl
ATOM      8 Cl1  UNL d   1       3.049  -0.764  -0.819  0.00  0.00    -0.070 Cl
ENDROOT
TORSDOF 0
ENDMDL
