MODEL 1
REMARK minimizedAffinity -2.53826356
REMARK minimizedRMSD -1
REMARK  3 active torsions:
REMARK  status: ('A' for Active; 'I' for Inactive)
REMARK    1  A    between atoms: C3'_2  and  C2'_3 
REMARK    2  A    between atoms: C2'_3  and  C1'_4 
REMARK    3  A    between atoms: C1'_4  and  C1_5 
ROOT
ATOM      1  C1  N4B d   1      -0.208  -1.252  -0.749  0.00  0.00    -0.075 A 
ATOM      2  C2  N4B d   1      -0.381  -0.845  -2.090  0.00  0.00     0.002 A 
ATOM      3  C3  N4B d   1      -0.663  -1.777  -3.059  0.00  0.00     0.002 A 
ATOM      4  C4  N4B d   1      -0.757  -3.117  -2.716  0.00  0.00    -0.004 A 
ATOM      5  C5  N4B d   1      -0.614  -3.498  -1.414  0.00  0.00     0.002 A 
ATOM      6  C6  N4B d   1      -0.334  -2.573  -0.429  0.00  0.00     0.002 A 
ENDROOT
BRANCH   1   7
ATOM      7  C1' N4B d   1       0.186  -0.281   0.331  0.00  0.00     0.057 C 
BRANCH   7   8
ATOM      8  C2' N4B d   1      -1.027   0.563   0.712  0.00  0.00     0.009 C 
BRANCH   8   9
ATOM      9  C3' N4B d   1      -0.860   2.015   0.300  0.00  0.00     0.004 C 
ATOM     10  C4' N4B d   1      -0.281   2.866   1.391  0.00  0.00     0.003 C 
ENDBRANCH   8   9
ENDBRANCH   7   8
ENDBRANCH   1   7
TORSDOF 3
ENDMDL
