MODEL 1
REMARK minimizedAffinity -6.49450445
REMARK minimizedRMSD -1
REMARK  3 active torsions:
REMARK  status: ('A' for Active; 'I' for Inactive)
REMARK    1  A    between atoms: C3'_2  and  C2'_3 
REMARK    2  A    between atoms: C2'_3  and  C1'_4 
REMARK    3  A    between atoms: C1'_4  and  C1_5 
ROOT
ATOM      1  C1  N4B d   1       0.162   1.002   0.081  0.00  0.00    -0.075 A 
ATOM      2  C2  N4B d   1      -0.405   2.286  -0.068  0.00  0.00     0.002 A 
ATOM      3  C3  N4B d   1       0.397   3.400  -0.026  0.00  0.00     0.002 A 
ATOM      4  C4  N4B d   1       1.761   3.256   0.183  0.00  0.00    -0.004 A 
ATOM      5  C5  N4B d   1       2.304   2.010   0.300  0.00  0.00     0.002 A 
ATOM      6  C6  N4B d   1       1.511   0.882   0.255  0.00  0.00     0.002 A 
ENDROOT
BRANCH   1   7
ATOM      7  C1' N4B d   1      -0.685  -0.240   0.127  0.00  0.00     0.057 C 
BRANCH   7   8
ATOM      8  C2' N4B d   1       0.172  -1.446  -0.246  0.00  0.00     0.009 C 
BRANCH   8   9
ATOM      9  C3' N4B d   1      -0.641  -2.533  -0.927  0.00  0.00     0.004 C 
ATOM     10  C4' N4B d   1      -0.070  -2.942  -2.252  0.00  0.00     0.003 C 
ENDBRANCH   8   9
ENDBRANCH   7   8
ENDBRANCH   1   7
TORSDOF 3
ENDMDL
