MODEL 1
REMARK minimizedAffinity -2.34820318
REMARK minimizedRMSD -1
REMARK  3 active torsions:
REMARK  status: ('A' for Active; 'I' for Inactive)
REMARK    1  A    between atoms: C3'_2  and  C2'_3 
REMARK    2  A    between atoms: C2'_3  and  C1'_4 
REMARK    3  A    between atoms: C1'_4  and  C1_5 
ROOT
ATOM      1  C1  N4B d   1      -0.395  -0.259  -0.038  0.00  0.00    -0.075 A 
ATOM      2  C2  N4B d   1      -1.369   0.762   0.031  0.00  0.00     0.002 A 
ATOM      3  C3  N4B d   1      -1.071   1.955   0.643  0.00  0.00     0.002 A 
ATOM      4  C4  N4B d   1       0.182   2.142   1.207  0.00  0.00    -0.004 A 
ATOM      5  C5  N4B d   1       1.125   1.161   1.114  0.00  0.00     0.002 A 
ATOM      6  C6  N4B d   1       0.841  -0.042   0.498  0.00  0.00     0.002 A 
ENDROOT
BRANCH   1   7
ATOM      7  C1' N4B d   1      -0.702  -1.611  -0.621  0.00  0.00     0.057 C 
BRANCH   7   8
ATOM      8  C2' N4B d   1      -0.033  -1.731  -1.988  0.00  0.00     0.009 C 
BRANCH   8   9
ATOM      9  C3' N4B d   1      -0.559  -2.918  -2.776  0.00  0.00     0.004 C 
ATOM     10  C4' N4B d   1      -1.165  -3.974  -1.900  0.00  0.00     0.003 C 
ENDBRANCH   8   9
ENDBRANCH   7   8
ENDBRANCH   1   7
TORSDOF 3
ENDMDL
