MODEL 1
REMARK minimizedAffinity -5.69309044
REMARK minimizedRMSD -1
REMARK  3 active torsions:
REMARK  status: ('A' for Active; 'I' for Inactive)
REMARK    1  A    between atoms: C3'_2  and  C2'_3 
REMARK    2  A    between atoms: C2'_3  and  C1'_4 
REMARK    3  A    between atoms: C1'_4  and  C1_5 
ROOT
ATOM      1  C1  N4B d   1       0.110   0.161   0.345  0.00  0.00    -0.075 A 
ATOM      2  C2  N4B d   1       1.310   0.821  -0.000  0.00  0.00     0.002 A 
ATOM      3  C3  N4B d   1       1.306   2.174  -0.237  0.00  0.00     0.002 A 
ATOM      4  C4  N4B d   1       0.116   2.881  -0.153  0.00  0.00    -0.004 A 
ATOM      5  C5  N4B d   1      -1.034   2.241   0.206  0.00  0.00     0.002 A 
ATOM      6  C6  N4B d   1      -1.044   0.883   0.451  0.00  0.00     0.002 A 
ENDROOT
BRANCH   1   7
ATOM      7  C1' N4B d   1       0.048  -1.331   0.529  0.00  0.00     0.057 C 
BRANCH   7   8
ATOM      8  C2' N4B d   1      -0.250  -1.989  -0.815  0.00  0.00     0.009 C 
BRANCH   8   9
ATOM      9  C3' N4B d   1      -0.685  -3.435  -0.655  0.00  0.00     0.004 C 
ATOM     10  C4' N4B d   1      -0.597  -4.213  -1.934  0.00  0.00     0.003 C 
ENDBRANCH   8   9
ENDBRANCH   7   8
ENDBRANCH   1   7
TORSDOF 3
ENDMDL
