MODEL 1
REMARK minimizedAffinity -5.10352707
REMARK minimizedRMSD -1
REMARK  3 active torsions:
REMARK  status: ('A' for Active; 'I' for Inactive)
REMARK    1  A    between atoms: C3'_2  and  C2'_3 
REMARK    2  A    between atoms: C2'_3  and  C1'_4 
REMARK    3  A    between atoms: C1'_4  and  C1_5 
ROOT
ATOM      1  C1  N4B d   1       0.355  -0.762   0.214  0.00  0.00    -0.075 A 
ATOM      2  C2  N4B d   1      -0.972  -0.453   0.586  0.00  0.00     0.002 A 
ATOM      3  C3  N4B d   1      -1.389   0.855   0.617  0.00  0.00     0.002 A 
ATOM      4  C4  N4B d   1      -0.497   1.867   0.300  0.00  0.00    -0.004 A 
ATOM      5  C5  N4B d   1       0.776   1.559  -0.084  0.00  0.00     0.002 A 
ATOM      6  C6  N4B d   1       1.208   0.249  -0.123  0.00  0.00     0.002 A 
ENDROOT
BRANCH   1   7
ATOM      7  C1' N4B d   1       0.882  -2.171   0.248  0.00  0.00     0.057 C 
BRANCH   7   8
ATOM      8  C2' N4B d   1      -0.132  -3.101  -0.412  0.00  0.00     0.009 C 
BRANCH   8   9
ATOM      9  C3' N4B d   1       0.253  -3.437  -1.842  0.00  0.00     0.004 C 
ATOM     10  C4' N4B d   1      -0.926  -3.470  -2.768  0.00  0.00     0.003 C 
ENDBRANCH   8   9
ENDBRANCH   7   8
ENDBRANCH   1   7
TORSDOF 3
ENDMDL
