MODEL 1
REMARK minimizedAffinity -5.47595739
REMARK minimizedRMSD -1
REMARK  3 active torsions:
REMARK  status: ('A' for Active; 'I' for Inactive)
REMARK    1  A    between atoms: C3'_2  and  C2'_3 
REMARK    2  A    between atoms: C2'_3  and  C1'_4 
REMARK    3  A    between atoms: C1'_4  and  C1_5 
ROOT
ATOM      1  C1  N4B d   1      -0.076   0.266   0.206  0.00  0.00    -0.075 A 
ATOM      2  C2  N4B d   1       1.045   1.064  -0.110  0.00  0.00     0.002 A 
ATOM      3  C3  N4B d   1       0.960   2.432  -0.024  0.00  0.00     0.002 A 
ATOM      4  C4  N4B d   1      -0.236   3.022   0.357  0.00  0.00    -0.004 A 
ATOM      5  C5  N4B d   1      -1.306   2.243   0.685  0.00  0.00     0.002 A 
ATOM      6  C6  N4B d   1      -1.234   0.867   0.607  0.00  0.00     0.002 A 
ENDROOT
BRANCH   1   7
ATOM      7  C1' N4B d   1      -0.058  -1.230   0.044  0.00  0.00     0.057 C 
BRANCH   7   8
ATOM      8  C2' N4B d   1      -0.079  -1.572  -1.442  0.00  0.00     0.009 C 
BRANCH   8   9
ATOM      9  C3' N4B d   1      -0.852  -2.850  -1.720  0.00  0.00     0.004 C 
ATOM     10  C4' N4B d   1      -0.415  -3.531  -2.983  0.00  0.00     0.003 C 
ENDBRANCH   8   9
ENDBRANCH   7   8
ENDBRANCH   1   7
TORSDOF 3
ENDMDL
