MODEL 1
REMARK minimizedAffinity -3.42033195
REMARK minimizedRMSD -1
REMARK  3 active torsions:
REMARK  status: ('A' for Active; 'I' for Inactive)
REMARK    1  A    between atoms: C3'_2  and  C2'_3 
REMARK    2  A    between atoms: C2'_3  and  C1'_4 
REMARK    3  A    between atoms: C1'_4  and  C1_5 
ROOT
ATOM      1  C1  N4B d   1      -0.748  -1.830  -0.319  0.00  0.00    -0.075 A 
ATOM      2  C2  N4B d   1       0.489  -1.169  -0.148  0.00  0.00     0.002 A 
ATOM      3  C3  N4B d   1       0.516   0.136   0.277  0.00  0.00     0.002 A 
ATOM      4  C4  N4B d   1      -0.675   0.804   0.518  0.00  0.00    -0.004 A 
ATOM      5  C5  N4B d   1      -1.864   0.151   0.374  0.00  0.00     0.002 A 
ATOM      6  C6  N4B d   1      -1.907  -1.162  -0.048  0.00  0.00     0.002 A 
ENDROOT
BRANCH   1   7
ATOM      7  C1' N4B d   1      -0.831  -3.230  -0.864  0.00  0.00     0.057 C 
BRANCH   7   8
ATOM      8  C2' N4B d   1      -2.292  -3.577  -1.131  0.00  0.00     0.009 C 
BRANCH   8   9
ATOM      9  C3' N4B d   1      -2.630  -4.991  -0.691  0.00  0.00     0.004 C 
ATOM     10  C4' N4B d   1      -4.063  -5.143  -0.276  0.00  0.00     0.003 C 
ENDBRANCH   8   9
ENDBRANCH   7   8
ENDBRANCH   1   7
TORSDOF 3
ENDMDL
