MODEL 1
REMARK minimizedAffinity 2.73265529
REMARK minimizedRMSD -1
REMARK  3 active torsions:
REMARK  status: ('A' for Active; 'I' for Inactive)
REMARK    1  A    between atoms: C3'_2  and  C2'_3 
REMARK    2  A    between atoms: C2'_3  and  C1'_4 
REMARK    3  A    between atoms: C1'_4  and  C1_5 
ROOT
ATOM      1  C1  N4B d   1      -1.276   0.255   0.263  0.00  0.00    -0.075 A 
ATOM      2  C2  N4B d   1      -0.053   0.545  -0.380  0.00  0.00     0.002 A 
ATOM      3  C3  N4B d   1       0.537   1.773  -0.210  0.00  0.00     0.002 A 
ATOM      4  C4  N4B d   1      -0.084   2.729   0.579  0.00  0.00    -0.004 A 
ATOM      5  C5  N4B d   1      -1.252   2.432   1.217  0.00  0.00     0.002 A 
ATOM      6  C6  N4B d   1      -1.855   1.200   1.059  0.00  0.00     0.002 A 
ENDROOT
BRANCH   1   7
ATOM      7  C1' N4B d   1      -2.003  -1.043   0.038  0.00  0.00     0.057 C 
BRANCH   7   8
ATOM      8  C2' N4B d   1      -1.224  -1.885  -0.968  0.00  0.00     0.009 C 
BRANCH   8   9
ATOM      9  C3' N4B d   1      -1.623  -3.350  -0.912  0.00  0.00     0.004 C 
ATOM     10  C4' N4B d   1      -1.526  -4.030  -2.246  0.00  0.00     0.003 C 
ENDBRANCH   8   9
ENDBRANCH   7   8
ENDBRANCH   1   7
TORSDOF 3
ENDMDL
