MODEL 1
REMARK minimizedAffinity -5.3236413
REMARK minimizedRMSD -1
REMARK  3 active torsions:
REMARK  status: ('A' for Active; 'I' for Inactive)
REMARK    1  A    between atoms: C3'_2  and  C2'_3 
REMARK    2  A    between atoms: C2'_3  and  C1'_4 
REMARK    3  A    between atoms: C1'_4  and  C1_5 
ROOT
ATOM      1  C1  N4B d   1      -0.659  -1.984  -0.349  0.00  0.00    -0.075 A 
ATOM      2  C2  N4B d   1      -1.784  -2.833  -0.439  0.00  0.00     0.002 A 
ATOM      3  C3  N4B d   1      -1.930  -3.668  -1.519  0.00  0.00     0.002 A 
ATOM      4  C4  N4B d   1      -0.978  -3.657  -2.528  0.00  0.00    -0.004 A 
ATOM      5  C5  N4B d   1       0.119  -2.853  -2.421  0.00  0.00     0.002 A 
ATOM      6  C6  N4B d   1       0.281  -2.012  -1.338  0.00  0.00     0.002 A 
ENDROOT
BRANCH   1   7
ATOM      7  C1' N4B d   1      -0.499  -0.993   0.771  0.00  0.00     0.057 C 
BRANCH   7   8
ATOM      8  C2' N4B d   1      -1.116   0.339   0.352  0.00  0.00     0.009 C 
BRANCH   8   9
ATOM      9  C3' N4B d   1      -0.057   1.372   0.009  0.00  0.00     0.004 C 
ATOM     10  C4' N4B d   1      -0.453   2.764   0.403  0.00  0.00     0.003 C 
ENDBRANCH   8   9
ENDBRANCH   7   8
ENDBRANCH   1   7
TORSDOF 3
ENDMDL
