MODEL 1
REMARK minimizedAffinity -6.1270709
REMARK minimizedRMSD -1
REMARK  3 active torsions:
REMARK  status: ('A' for Active; 'I' for Inactive)
REMARK    1  A    between atoms: C3'_2  and  C2'_3 
REMARK    2  A    between atoms: C2'_3  and  C1'_4 
REMARK    3  A    between atoms: C1'_4  and  C1_5 
ROOT
ATOM      1  C1  N4B d   1       0.274   0.792   0.116  0.00  0.00    -0.075 A 
ATOM      2  C2  N4B d   1      -0.239   2.101   0.240  0.00  0.00     0.002 A 
ATOM      3  C3  N4B d   1       0.614   3.155   0.459  0.00  0.00     0.002 A 
ATOM      4  C4  N4B d   1       1.976   2.922   0.577  0.00  0.00    -0.004 A 
ATOM      5  C5  N4B d   1       2.466   1.657   0.431  0.00  0.00     0.002 A 
ATOM      6  C6  N4B d   1       1.621   0.589   0.206  0.00  0.00     0.002 A 
ENDROOT
BRANCH   1   7
ATOM      7  C1' N4B d   1      -0.627  -0.403  -0.038  0.00  0.00     0.057 C 
BRANCH   7   8
ATOM      8  C2' N4B d   1       0.220  -1.673  -0.036  0.00  0.00     0.009 C 
BRANCH   8   9
ATOM      9  C3' N4B d   1      -0.469  -2.816  -0.760  0.00  0.00     0.004 C 
ATOM     10  C4' N4B d   1       0.048  -3.018  -2.153  0.00  0.00     0.003 C 
ENDBRANCH   8   9
ENDBRANCH   7   8
ENDBRANCH   1   7
TORSDOF 3
ENDMDL
