MODEL 1
REMARK minimizedAffinity -5.10642958
REMARK minimizedRMSD -1
REMARK  3 active torsions:
REMARK  status: ('A' for Active; 'I' for Inactive)
REMARK    1  A    between atoms: C3'_2  and  C2'_3 
REMARK    2  A    between atoms: C2'_3  and  C1'_4 
REMARK    3  A    between atoms: C1'_4  and  C1_5 
ROOT
ATOM      1  C1  N4B d   1      -0.006  -0.340   0.039  0.00  0.00    -0.075 A 
ATOM      2  C2  N4B d   1      -1.095   0.264   0.705  0.00  0.00     0.002 A 
ATOM      3  C3  N4B d   1      -1.169   1.633   0.798  0.00  0.00     0.002 A 
ATOM      4  C4  N4B d   1      -0.162   2.413   0.252  0.00  0.00    -0.004 A 
ATOM      5  C5  N4B d   1       0.874   1.822  -0.412  0.00  0.00     0.002 A 
ATOM      6  C6  N4B d   1       0.959   0.449  -0.517  0.00  0.00     0.002 A 
ENDROOT
BRANCH   1   7
ATOM      7  C1' N4B d   1       0.162  -1.834  -0.014  0.00  0.00     0.057 C 
BRANCH   7   8
ATOM      8  C2' N4B d   1       0.338  -2.267  -1.466  0.00  0.00     0.009 C 
BRANCH   8   9
ATOM      9  C3' N4B d   1      -0.314  -3.612  -1.741  0.00  0.00     0.004 C 
ATOM     10  C4' N4B d   1      -1.577  -3.493  -2.540  0.00  0.00     0.003 C 
ENDBRANCH   8   9
ENDBRANCH   7   8
ENDBRANCH   1   7
TORSDOF 3
ENDMDL
