MODEL 1
REMARK minimizedAffinity -6.33544397
REMARK minimizedRMSD -1
REMARK  3 active torsions:
REMARK  status: ('A' for Active; 'I' for Inactive)
REMARK    1  A    between atoms: C3'_2  and  C2'_3 
REMARK    2  A    between atoms: C2'_3  and  C1'_4 
REMARK    3  A    between atoms: C1'_4  and  C1_5 
ROOT
ATOM      1  C1  N4B d   1       0.209  -0.184   0.278  0.00  0.00    -0.075 A 
ATOM      2  C2  N4B d   1      -1.151   0.164   0.129  0.00  0.00     0.002 A 
ATOM      3  C3  N4B d   1      -1.523   1.486   0.110  0.00  0.00     0.002 A 
ATOM      4  C4  N4B d   1      -0.559   2.472   0.256  0.00  0.00    -0.004 A 
ATOM      5  C5  N4B d   1       0.756   2.128   0.374  0.00  0.00     0.002 A 
ATOM      6  C6  N4B d   1       1.144   0.803   0.390  0.00  0.00     0.002 A 
ENDROOT
BRANCH   1   7
ATOM      7  C1' N4B d   1       0.654  -1.617   0.390  0.00  0.00     0.057 C 
BRANCH   7   8
ATOM      8  C2' N4B d   1      -0.349  -2.511  -0.331  0.00  0.00     0.009 C 
BRANCH   8   9
ATOM      9  C3' N4B d   1       0.130  -2.899  -1.720  0.00  0.00     0.004 C 
ATOM     10  C4' N4B d   1      -0.939  -3.554  -2.542  0.00  0.00     0.003 C 
ENDBRANCH   8   9
ENDBRANCH   7   8
ENDBRANCH   1   7
TORSDOF 3
ENDMDL
