MODEL 1
REMARK minimizedAffinity -3.81837463
REMARK minimizedRMSD -1
REMARK  3 active torsions:
REMARK  status: ('A' for Active; 'I' for Inactive)
REMARK    1  A    between atoms: C3'_2  and  C2'_3 
REMARK    2  A    between atoms: C2'_3  and  C1'_4 
REMARK    3  A    between atoms: C1'_4  and  C1_5 
ROOT
ATOM      1  C1  N4B d   1      -0.184   0.155   0.110  0.00  0.00    -0.075 A 
ATOM      2  C2  N4B d   1      -1.172   1.130   0.370  0.00  0.00     0.002 A 
ATOM      3  C3  N4B d   1      -0.871   2.464   0.247  0.00  0.00     0.002 A 
ATOM      4  C4  N4B d   1       0.412   2.846  -0.115  0.00  0.00    -0.004 A 
ATOM      5  C5  N4B d   1       1.354   1.899  -0.389  0.00  0.00     0.002 A 
ATOM      6  C6  N4B d   1       1.064   0.554  -0.273  0.00  0.00     0.002 A 
ENDROOT
BRANCH   1   7
ATOM      7  C1' N4B d   1      -0.442  -1.312   0.315  0.00  0.00     0.057 C 
BRANCH   7   8
ATOM      8  C2' N4B d   1      -0.208  -2.050  -1.000  0.00  0.00     0.009 C 
BRANCH   8   9
ATOM      9  C3' N4B d   1      -1.279  -3.095  -1.264  0.00  0.00     0.004 C 
ATOM     10  C4' N4B d   1      -0.918  -4.026  -2.383  0.00  0.00     0.003 C 
ENDBRANCH   8   9
ENDBRANCH   7   8
ENDBRANCH   1   7
TORSDOF 3
ENDMDL
