MODEL 1
REMARK minimizedAffinity -3.51822877
REMARK minimizedRMSD -1
REMARK  3 active torsions:
REMARK  status: ('A' for Active; 'I' for Inactive)
REMARK    1  A    between atoms: C3'_2  and  C2'_3 
REMARK    2  A    between atoms: C2'_3  and  C1'_4 
REMARK    3  A    between atoms: C1'_4  and  C1_5 
ROOT
ATOM      1  C1  N4B d   1      -0.067  -1.069  -0.339  0.00  0.00    -0.075 A 
ATOM      2  C2  N4B d   1       1.131  -0.438  -0.742  0.00  0.00     0.002 A 
ATOM      3  C3  N4B d   1       1.304   0.907  -0.527  0.00  0.00     0.002 A 
ATOM      4  C4  N4B d   1       0.291   1.642   0.070  0.00  0.00    -0.004 A 
ATOM      5  C5  N4B d   1      -0.852   1.021   0.479  0.00  0.00     0.002 A 
ATOM      6  C6  N4B d   1      -1.039  -0.331   0.273  0.00  0.00     0.002 A 
ENDROOT
BRANCH   1   7
ATOM      7  C1' N4B d   1      -0.337  -2.520  -0.630  0.00  0.00     0.057 C 
BRANCH   7   8
ATOM      8  C2' N4B d   1       0.022  -2.814  -2.083  0.00  0.00     0.009 C 
BRANCH   8   9
ATOM      9  C3' N4B d   1      -1.013  -3.698  -2.757  0.00  0.00     0.004 C 
ATOM     10  C4' N4B d   1      -1.901  -4.404  -1.776  0.00  0.00     0.003 C 
ENDBRANCH   8   9
ENDBRANCH   7   8
ENDBRANCH   1   7
TORSDOF 3
ENDMDL
