MODEL 1
REMARK minimizedAffinity -5.13535833
REMARK minimizedRMSD -1
REMARK  0 active torsions:
REMARK  status: ('A' for Active; 'I' for Inactive)
ROOT
ATOM      1  C   UNL d   1      -2.048  -0.340   3.005  0.00  0.00    -0.002 A 
ATOM      2  C1  UNL d   1      -2.910  -0.260   1.920  0.00  0.00     0.010 A 
ATOM      3  C2  UNL d   1      -2.416  -0.010   0.638  0.00  0.00     0.041 A 
ATOM      4  C3  UNL d   1      -1.028   0.158   0.462  0.00  0.00    -0.075 A 
ATOM      5  S   UNL d   1      -0.198   0.472  -1.016  0.00  0.00     0.015 SA
ATOM      6  C4  UNL d   1       1.320   0.505  -0.242  0.00  0.00     0.022 A 
ATOM      7  C5  UNL d   1       1.215   0.285   1.111  0.00  0.00     0.026 A 
ATOM      8  C6  UNL d   1      -0.140   0.080   1.539  0.00  0.00    -0.082 A 
ATOM      9  C7  UNL d   1      -0.672  -0.173   2.827  0.00  0.00     0.045 A 
ENDROOT
TORSDOF 0
ENDMDL
