MODEL 1
REMARK minimizedAffinity -5.57083702
REMARK minimizedRMSD -1
REMARK  0 active torsions:
REMARK  status: ('A' for Active; 'I' for Inactive)
ROOT
ATOM      1  C   UNL d   1      -0.555  -0.269   2.990  0.00  0.00    -0.002 A 
ATOM      2  C1  UNL d   1       0.728   0.013   2.542  0.00  0.00     0.010 A 
ATOM      3  C2  UNL d   1       0.950   0.395   1.217  0.00  0.00     0.041 A 
ATOM      4  C3  UNL d   1      -0.150   0.490   0.342  0.00  0.00    -0.075 A 
ATOM      5  S   UNL d   1      -0.119   0.939  -1.322  0.00  0.00     0.015 SA
ATOM      6  C4  UNL d   1      -1.807   0.768  -1.478  0.00  0.00     0.022 A 
ATOM      7  C5  UNL d   1      -2.397   0.378  -0.298  0.00  0.00     0.026 A 
ATOM      8  C6  UNL d   1      -1.452   0.212   0.770  0.00  0.00    -0.082 A 
ATOM      9  C7  UNL d   1      -1.643  -0.173   2.119  0.00  0.00     0.045 A 
ENDROOT
TORSDOF 0
ENDMDL
