MODEL 1
REMARK minimizedAffinity -3.79043031
REMARK minimizedRMSD -1
REMARK  0 active torsions:
REMARK  status: ('A' for Active; 'I' for Inactive)
ROOT
ATOM      1  C   UNL d   1       0.093  -0.261   2.405  0.00  0.00    -0.002 A 
ATOM      2  C1  UNL d   1      -1.291  -0.362   2.379  0.00  0.00     0.010 A 
ATOM      3  C2  UNL d   1      -2.009   0.014   1.243  0.00  0.00     0.041 A 
ATOM      4  C3  UNL d   1      -1.307   0.496   0.121  0.00  0.00    -0.075 A 
ATOM      5  S   UNL d   1      -1.977   1.014  -1.381  0.00  0.00     0.015 SA
ATOM      6  C4  UNL d   1      -0.442   1.381  -2.025  0.00  0.00     0.022 A 
ATOM      7  C5  UNL d   1       0.568   1.120  -1.129  0.00  0.00     0.026 A 
ATOM      8  C6  UNL d   1       0.086   0.606   0.122  0.00  0.00    -0.082 A 
ATOM      9  C7  UNL d   1       0.786   0.217   1.290  0.00  0.00     0.045 A 
ENDROOT
TORSDOF 0
ENDMDL
