MODEL 1
REMARK minimizedAffinity -3.41592002
REMARK minimizedRMSD -1
REMARK  0 active torsions:
REMARK  status: ('A' for Active; 'I' for Inactive)
ROOT
ATOM      1  C   UNL d   1      -2.030  -0.019   3.377  0.00  0.00    -0.002 A 
ATOM      2  C1  UNL d   1      -2.799   0.774   2.537  0.00  0.00     0.010 A 
ATOM      3  C2  UNL d   1      -2.295   1.203   1.307  0.00  0.00     0.041 A 
ATOM      4  C3  UNL d   1      -0.994   0.815   0.931  0.00  0.00    -0.075 A 
ATOM      5  S   UNL d   1      -0.170   1.220  -0.528  0.00  0.00     0.015 SA
ATOM      6  C4  UNL d   1       1.222   0.349  -0.071  0.00  0.00     0.022 A 
ATOM      7  C5  UNL d   1       1.079  -0.243   1.162  0.00  0.00     0.026 A 
ATOM      8  C6  UNL d   1      -0.201   0.016   1.760  0.00  0.00    -0.082 A 
ATOM      9  C7  UNL d   1      -0.740  -0.402   3.001  0.00  0.00     0.045 A 
ENDROOT
TORSDOF 0
ENDMDL
