MODEL 1
REMARK minimizedAffinity -5.50603533
REMARK minimizedRMSD -1
REMARK  0 active torsions:
REMARK  status: ('A' for Active; 'I' for Inactive)
ROOT
ATOM      1  C   UNL d   1      -0.869  -0.842   3.258  0.00  0.00    -0.002 A 
ATOM      2  C1  UNL d   1       0.458  -0.578   2.949  0.00  0.00     0.010 A 
ATOM      3  C2  UNL d   1       0.805  -0.041   1.708  0.00  0.00     0.041 A 
ATOM      4  C3  UNL d   1      -0.214   0.232   0.774  0.00  0.00    -0.075 A 
ATOM      5  S   UNL d   1      -0.025   0.892  -0.808  0.00  0.00     0.015 SA
ATOM      6  C4  UNL d   1      -1.702   0.840  -1.110  0.00  0.00     0.022 A 
ATOM      7  C5  UNL d   1      -2.404   0.335  -0.041  0.00  0.00     0.026 A 
ATOM      8  C6  UNL d   1      -1.558  -0.024   1.062  0.00  0.00    -0.082 A 
ATOM      9  C7  UNL d   1      -1.877  -0.570   2.329  0.00  0.00     0.045 A 
ENDROOT
TORSDOF 0
ENDMDL
