MODEL 1
REMARK minimizedAffinity -0.144688189
REMARK minimizedRMSD -1
REMARK  0 active torsions:
REMARK  status: ('A' for Active; 'I' for Inactive)
ROOT
ATOM      1  C   UNL d   1      -1.325  -1.166   3.050  0.00  0.00    -0.002 A 
ATOM      2  C1  UNL d   1      -0.201  -0.420   3.373  0.00  0.00     0.010 A 
ATOM      3  C2  UNL d   1       0.495   0.280   2.385  0.00  0.00     0.041 A 
ATOM      4  C3  UNL d   1       0.035   0.220   1.055  0.00  0.00    -0.075 A 
ATOM      5  S   UNL d   1       0.726   0.997  -0.320  0.00  0.00     0.015 SA
ATOM      6  C4  UNL d   1      -0.456   0.358  -1.368  0.00  0.00     0.022 A 
ATOM      7  C5  UNL d   1      -1.364  -0.431  -0.702  0.00  0.00     0.026 A 
ATOM      8  C6  UNL d   1      -1.096  -0.524   0.705  0.00  0.00    -0.082 A 
ATOM      9  C7  UNL d   1      -1.778  -1.224   1.729  0.00  0.00     0.045 A 
ENDROOT
TORSDOF 0
ENDMDL
