MODEL 1
REMARK minimizedAffinity -3.85909271
REMARK minimizedRMSD -1
REMARK  0 active torsions:
REMARK  status: ('A' for Active; 'I' for Inactive)
ROOT
ATOM      1  C   UNL d   1       0.018  -0.025   3.187  0.00  0.00    -0.002 A 
ATOM      2  C1  UNL d   1       1.226   0.112   2.518  0.00  0.00     0.010 A 
ATOM      3  C2  UNL d   1       1.253   0.370   1.146  0.00  0.00     0.041 A 
ATOM      4  C3  UNL d   1       0.034   0.491   0.451  0.00  0.00    -0.075 A 
ATOM      5  S   UNL d   1      -0.177   0.807  -1.230  0.00  0.00     0.015 SA
ATOM      6  C4  UNL d   1      -1.876   0.768  -1.101  0.00  0.00     0.022 A 
ATOM      7  C5  UNL d   1      -2.289   0.521   0.187  0.00  0.00     0.026 A 
ATOM      8  C6  UNL d   1      -1.195   0.358   1.103  0.00  0.00    -0.082 A 
ATOM      9  C7  UNL d   1      -1.190   0.095   2.494  0.00  0.00     0.045 A 
ENDROOT
TORSDOF 0
ENDMDL
