MODEL 1
REMARK minimizedAffinity 8.86735439
REMARK minimizedRMSD -1
REMARK  2 active torsions:
REMARK  status: ('A' for Active; 'I' for Inactive)
REMARK    1  A    between atoms: C2'_3  and  C1'_4 
REMARK    2  A    between atoms: C1'_4  and  C1_5 
ROOT
ATOM      1  C1  I4B d   1       2.083  -0.661   4.710  0.00  0.00    -0.075 A 
ATOM      2  C2  I4B d   1       1.875  -1.127   3.435  0.00  0.00     0.003 A 
ATOM      3  C3  I4B d   1       1.058  -0.400   2.535  0.00  0.00     0.002 A 
ATOM      4  C4  I4B d   1       0.434   0.753   2.964  0.00  0.00    -0.004 A 
ATOM      5  C5  I4B d   1       0.665   1.236   4.249  0.00  0.00     0.002 A 
ATOM      6  C6  I4B d   1       1.504   0.532   5.124  0.00  0.00     0.003 A 
ENDROOT
BRANCH   1   7
ATOM      7  C1' I4B d   1       2.924  -1.471   5.644  0.00  0.00     0.060 C 
BRANCH   7   8
ATOM      8  C2' I4B d   1       4.148  -0.652   5.999  0.00  0.00    -0.013 C 
ATOM      9  C4' I4B d   1       5.391  -1.502   6.000  0.00  0.00     0.013 C 
ATOM     10  C3' I4B d   1       4.259   0.468   5.009  0.00  0.00     0.013 C 
ENDBRANCH   7   8
ENDBRANCH   1   7
TORSDOF 2
ENDMDL
