MODEL 1
REMARK minimizedAffinity 13.181675
REMARK minimizedRMSD -1
REMARK  2 active torsions:
REMARK  status: ('A' for Active; 'I' for Inactive)
REMARK    1  A    between atoms: C2'_3  and  C1'_4 
REMARK    2  A    between atoms: C1'_4  and  C1_5 
ROOT
ATOM      1  C1  I4B d   1      -0.178  -2.489  -5.088  0.00  0.00    -0.075 A 
ATOM      2  C2  I4B d   1      -0.956  -2.477  -3.957  0.00  0.00     0.003 A 
ATOM      3  C3  I4B d   1      -1.367  -1.248  -3.387  0.00  0.00     0.002 A 
ATOM      4  C4  I4B d   1      -0.938  -0.062  -3.947  0.00  0.00    -0.004 A 
ATOM      5  C5  I4B d   1      -0.169  -0.075  -5.107  0.00  0.00     0.002 A 
ATOM      6  C6  I4B d   1       0.203  -1.296  -5.689  0.00  0.00     0.003 A 
ENDROOT
BRANCH   1   7
ATOM      7  C1' I4B d   1       0.265  -3.804  -5.645  0.00  0.00     0.060 C 
BRANCH   7   8
ATOM      8  C2' I4B d   1      -0.973  -4.602  -6.000  0.00  0.00    -0.013 C 
ATOM      9  C4' I4B d   1      -1.178  -5.746  -5.042  0.00  0.00     0.013 C 
ATOM     10  C3' I4B d   1      -2.146  -3.668  -5.985  0.00  0.00     0.013 C 
ENDBRANCH   7   8
ENDBRANCH   1   7
TORSDOF 2
ENDMDL
