MODEL 1
REMARK minimizedAffinity 6.81263161
REMARK minimizedRMSD -1
REMARK  2 active torsions:
REMARK  status: ('A' for Active; 'I' for Inactive)
REMARK    1  A    between atoms: C2'_3  and  C1'_4 
REMARK    2  A    between atoms: C1'_4  and  C1_5 
ROOT
ATOM      1  C1  I4B d   1      -1.367  -2.824  -4.418  0.00  0.00    -0.075 A 
ATOM      2  C2  I4B d   1      -0.746  -1.765  -5.032  0.00  0.00     0.003 A 
ATOM      3  C3  I4B d   1       0.126  -0.926  -4.297  0.00  0.00     0.002 A 
ATOM      4  C4  I4B d   1       0.307  -1.150  -2.948  0.00  0.00    -0.004 A 
ATOM      5  C5  I4B d   1      -0.305  -2.238  -2.332  0.00  0.00     0.002 A 
ATOM      6  C6  I4B d   1      -1.138  -3.088  -3.074  0.00  0.00     0.003 A 
ENDROOT
BRANCH   1   7
ATOM      7  C1' I4B d   1      -2.306  -3.671  -5.217  0.00  0.00     0.060 C 
BRANCH   7   8
ATOM      8  C2' I4B d   1      -1.515  -4.823  -5.802  0.00  0.00    -0.013 C 
ATOM      9  C4' I4B d   1      -0.070  -4.446  -6.000  0.00  0.00     0.013 C 
ATOM     10  C3' I4B d   1      -1.648  -5.994  -4.875  0.00  0.00     0.013 C 
ENDBRANCH   7   8
ENDBRANCH   1   7
TORSDOF 2
ENDMDL
