MODEL 1
REMARK minimizedAffinity 7.98877716
REMARK minimizedRMSD -1
REMARK  2 active torsions:
REMARK  status: ('A' for Active; 'I' for Inactive)
REMARK    1  A    between atoms: C2'_3  and  C1'_4 
REMARK    2  A    between atoms: C1'_4  and  C1_5 
ROOT
ATOM      1  C1  I4B d   1       0.373  -0.812  -3.852  0.00  0.00    -0.075 A 
ATOM      2  C2  I4B d   1       0.822   0.482  -3.939  0.00  0.00     0.003 A 
ATOM      3  C3  I4B d   1       2.075   0.763  -4.535  0.00  0.00     0.002 A 
ATOM      4  C4  I4B d   1       2.864  -0.277  -4.982  0.00  0.00    -0.004 A 
ATOM      5  C5  I4B d   1       2.397  -1.587  -4.914  0.00  0.00     0.002 A 
ATOM      6  C6  I4B d   1       1.138  -1.855  -4.357  0.00  0.00     0.003 A 
ENDROOT
BRANCH   1   7
ATOM      7  C1' I4B d   1      -0.940  -1.076  -3.187  0.00  0.00     0.060 C 
BRANCH   7   8
ATOM      8  C2' I4B d   1      -0.719  -2.126  -2.117  0.00  0.00    -0.013 C 
ATOM      9  C4' I4B d   1      -0.694  -1.508  -0.744  0.00  0.00     0.013 C 
ATOM     10  C3' I4B d   1      -1.815  -3.143  -2.234  0.00  0.00     0.013 C 
ENDBRANCH   7   8
ENDBRANCH   1   7
TORSDOF 2
ENDMDL
