MODEL 1
REMARK minimizedAffinity 18.0234528
REMARK minimizedRMSD -1
REMARK  2 active torsions:
REMARK  status: ('A' for Active; 'I' for Inactive)
REMARK    1  A    between atoms: C2'_3  and  C1'_4 
REMARK    2  A    between atoms: C1'_4  and  C1_5 
ROOT
ATOM      1  C1  I4B d   1       0.720  -0.735  -3.792  0.00  0.00    -0.075 A 
ATOM      2  C2  I4B d   1      -0.436  -1.166  -4.393  0.00  0.00     0.003 A 
ATOM      3  C3  I4B d   1      -1.442  -1.805  -3.628  0.00  0.00     0.002 A 
ATOM      4  C4  I4B d   1      -1.230  -2.036  -2.284  0.00  0.00    -0.004 A 
ATOM      5  C5  I4B d   1      -0.067  -1.577  -1.672  0.00  0.00     0.002 A 
ATOM      6  C6  I4B d   1       0.909  -0.912  -2.427  0.00  0.00     0.003 A 
ENDROOT
BRANCH   1   7
ATOM      7  C1' I4B d   1       1.775  -0.093  -4.636  0.00  0.00     0.060 C 
BRANCH   7   8
ATOM      8  C2' I4B d   1       3.060  -0.064  -3.834  0.00  0.00    -0.013 C 
ATOM      9  C4' I4B d   1       3.513  -1.456  -3.478  0.00  0.00     0.013 C 
ATOM     10  C3' I4B d   1       4.097   0.651  -4.648  0.00  0.00     0.013 C 
ENDBRANCH   7   8
ENDBRANCH   1   7
TORSDOF 2
ENDMDL
