MODEL 1
REMARK minimizedAffinity 13.4532776
REMARK minimizedRMSD -1
REMARK  2 active torsions:
REMARK  status: ('A' for Active; 'I' for Inactive)
REMARK    1  A    between atoms: C2'_3  and  C1'_4 
REMARK    2  A    between atoms: C1'_4  and  C1_5 
ROOT
ATOM      1  C1  I4B d   1      -1.181  -2.500  -4.198  0.00  0.00    -0.075 A 
ATOM      2  C2  I4B d   1      -1.064  -1.971  -2.936  0.00  0.00     0.003 A 
ATOM      3  C3  I4B d   1      -0.103  -0.965  -2.672  0.00  0.00     0.002 A 
ATOM      4  C4  I4B d   1       0.748  -0.557  -3.679  0.00  0.00    -0.004 A 
ATOM      5  C5  I4B d   1       0.612  -1.077  -4.962  0.00  0.00     0.002 A 
ATOM      6  C6  I4B d   1      -0.367  -2.047  -5.227  0.00  0.00     0.003 A 
ENDROOT
BRANCH   1   7
ATOM      7  C1' I4B d   1      -2.184  -3.585  -4.434  0.00  0.00     0.060 C 
BRANCH   7   8
ATOM      8  C2' I4B d   1      -1.746  -4.804  -3.649  0.00  0.00    -0.013 C 
ATOM      9  C4' I4B d   1      -2.578  -4.979  -2.405  0.00  0.00     0.013 C 
ATOM     10  C3' I4B d   1      -1.859  -5.999  -4.548  0.00  0.00     0.013 C 
ENDBRANCH   7   8
ENDBRANCH   1   7
TORSDOF 2
ENDMDL
