MODEL 1
REMARK minimizedAffinity 12.6401777
REMARK minimizedRMSD -1
REMARK  2 active torsions:
REMARK  status: ('A' for Active; 'I' for Inactive)
REMARK    1  A    between atoms: C2'_3  and  C1'_4 
REMARK    2  A    between atoms: C1'_4  and  C1_5 
ROOT
ATOM      1  C1  I4B d   1       1.153  -0.891  -3.349  0.00  0.00    -0.075 A 
ATOM      2  C2  I4B d   1       1.647   0.387  -3.426  0.00  0.00     0.003 A 
ATOM      3  C3  I4B d   1       3.024   0.606  -3.673  0.00  0.00     0.002 A 
ATOM      4  C4  I4B d   1       3.874  -0.475  -3.784  0.00  0.00    -0.004 A 
ATOM      5  C5  I4B d   1       3.368  -1.771  -3.728  0.00  0.00     0.002 A 
ATOM      6  C6  I4B d   1       1.997  -1.980  -3.521  0.00  0.00     0.003 A 
ENDROOT
BRANCH   1   7
ATOM      7  C1' I4B d   1      -0.301  -1.085  -3.055  0.00  0.00     0.060 C 
BRANCH   7   8
ATOM      8  C2' I4B d   1      -0.423  -2.168  -2.002  0.00  0.00    -0.013 C 
ATOM      9  C4' I4B d   1       0.158  -1.720  -0.687  0.00  0.00     0.013 C 
ATOM     10  C3' I4B d   1      -1.875  -2.516  -1.862  0.00  0.00     0.013 C 
ENDBRANCH   7   8
ENDBRANCH   1   7
TORSDOF 2
ENDMDL
