MODEL 1
REMARK minimizedAffinity 6.85564089
REMARK minimizedRMSD -1
REMARK  2 active torsions:
REMARK  status: ('A' for Active; 'I' for Inactive)
REMARK    1  A    between atoms: C2'_3  and  C1'_4 
REMARK    2  A    between atoms: C1'_4  and  C1_5 
ROOT
ATOM      1  C1  I4B d   1       3.907  -2.788   5.054  0.00  0.00    -0.075 A 
ATOM      2  C2  I4B d   1       2.834  -3.167   4.285  0.00  0.00     0.003 A 
ATOM      3  C3  I4B d   1       2.226  -2.241   3.403  0.00  0.00     0.002 A 
ATOM      4  C4  I4B d   1       2.687  -0.941   3.359  0.00  0.00    -0.004 A 
ATOM      5  C5  I4B d   1       3.789  -0.565   4.122  0.00  0.00     0.002 A 
ATOM      6  C6  I4B d   1       4.410  -1.497   4.966  0.00  0.00     0.003 A 
ENDROOT
BRANCH   1   7
ATOM      7  C1' I4B d   1       4.504  -3.782   5.998  0.00  0.00     0.060 C 
BRANCH   7   8
ATOM      8  C2' I4B d   1       5.857  -4.191   5.452  0.00  0.00    -0.013 C 
ATOM      9  C4' I4B d   1       6.000  -5.690   5.416  0.00  0.00     0.013 C 
ATOM     10  C3' I4B d   1       6.000  -3.601   4.081  0.00  0.00     0.013 C 
ENDBRANCH   7   8
ENDBRANCH   1   7
TORSDOF 2
ENDMDL
