MODEL 1
REMARK minimizedAffinity 11.5920706
REMARK minimizedRMSD -1
REMARK  2 active torsions:
REMARK  status: ('A' for Active; 'I' for Inactive)
REMARK    1  A    between atoms: C2'_3  and  C1'_4 
REMARK    2  A    between atoms: C1'_4  and  C1_5 
ROOT
ATOM      1  C1  I4B d   1      -1.995  -3.618  -3.559  0.00  0.00    -0.075 A 
ATOM      2  C2  I4B d   1      -2.053  -3.405  -4.913  0.00  0.00     0.003 A 
ATOM      3  C3  I4B d   1      -2.164  -4.501  -5.803  0.00  0.00     0.002 A 
ATOM      4  C4  I4B d   1      -2.162  -5.787  -5.302  0.00  0.00    -0.004 A 
ATOM      5  C5  I4B d   1      -2.127  -6.000  -3.927  0.00  0.00     0.002 A 
ATOM      6  C6  I4B d   1      -2.055  -4.909  -3.049  0.00  0.00     0.003 A 
ENDROOT
BRANCH   1   7
ATOM      7  C1' I4B d   1      -1.846  -2.440  -2.649  0.00  0.00     0.060 C 
BRANCH   7   8
ATOM      8  C2' I4B d   1      -3.193  -2.167  -2.013  0.00  0.00    -0.013 C 
ATOM      9  C4' I4B d   1      -3.106  -2.211  -0.510  0.00  0.00     0.013 C 
ATOM     10  C3' I4B d   1      -3.667  -0.826  -2.489  0.00  0.00     0.013 C 
ENDBRANCH   7   8
ENDBRANCH   1   7
TORSDOF 2
ENDMDL
