MODEL 1
REMARK minimizedAffinity 0.873765111
REMARK minimizedRMSD -1
REMARK  0 active torsions:
REMARK  status: ('A' for Active; 'I' for Inactive)
ROOT
ATOM      1  C   UNL d   1       2.464  -1.425  -1.326  0.00  0.00    -0.002 A 
ATOM      2  C1  UNL d   1       2.898  -0.133  -1.068  0.00  0.00     0.010 A 
ATOM      3  C2  UNL d   1       2.048   0.794  -0.461  0.00  0.00     0.041 A 
ATOM      4  C3  UNL d   1       0.742   0.396  -0.114  0.00  0.00    -0.075 A 
ATOM      5  S   UNL d   1      -0.473   1.360   0.638  0.00  0.00     0.015 SA
ATOM      6  C4  UNL d   1      -1.597   0.079   0.635  0.00  0.00     0.022 A 
ATOM      7  C5  UNL d   1      -1.075  -1.064   0.077  0.00  0.00     0.026 A 
ATOM      8  C6  UNL d   1       0.282  -0.900  -0.363  0.00  0.00    -0.082 A 
ATOM      9  C7  UNL d   1       1.168  -1.817  -0.980  0.00  0.00     0.045 A 
ENDROOT
TORSDOF 0
ENDMDL
