MODEL 1
REMARK minimizedAffinity -1.67275357
REMARK minimizedRMSD -1
REMARK  0 active torsions:
REMARK  status: ('A' for Active; 'I' for Inactive)
ROOT
ATOM      1  C   UNL d   1       2.272  -1.640  -0.650  0.00  0.00    -0.002 A 
ATOM      2  C1  UNL d   1       2.667  -0.424  -1.191  0.00  0.00     0.010 A 
ATOM      3  C2  UNL d   1       1.839   0.697  -1.098  0.00  0.00     0.041 A 
ATOM      4  C3  UNL d   1       0.598   0.575  -0.443  0.00  0.00    -0.075 A 
ATOM      5  S   UNL d   1      -0.579   1.813  -0.208  0.00  0.00     0.015 SA
ATOM      6  C4  UNL d   1      -1.633   0.758   0.617  0.00  0.00     0.022 A 
ATOM      7  C5  UNL d   1      -1.115  -0.512   0.720  0.00  0.00     0.026 A 
ATOM      8  C6  UNL d   1       0.179  -0.638   0.111  0.00  0.00    -0.082 A 
ATOM      9  C7  UNL d   1       1.040  -1.757  -0.001  0.00  0.00     0.045 A 
ENDROOT
TORSDOF 0
ENDMDL
