MODEL 1
REMARK minimizedAffinity -2.00195789
REMARK minimizedRMSD -1
REMARK  0 active torsions:
REMARK  status: ('A' for Active; 'I' for Inactive)
ROOT
ATOM      1  C   UNL d   1       2.489  -1.206  -1.161  0.00  0.00    -0.002 A 
ATOM      2  C1  UNL d   1       2.314  -0.069  -1.937  0.00  0.00     0.010 A 
ATOM      3  C2  UNL d   1       1.234   0.787  -1.709  0.00  0.00     0.041 A 
ATOM      4  C3  UNL d   1       0.326   0.478  -0.677  0.00  0.00    -0.075 A 
ATOM      5  S   UNL d   1      -1.069   1.380  -0.215  0.00  0.00     0.015 SA
ATOM      6  C4  UNL d   1      -1.464   0.277   1.024  0.00  0.00     0.022 A 
ATOM      7  C5  UNL d   1      -0.564  -0.760   1.097  0.00  0.00     0.026 A 
ATOM      8  C6  UNL d   1       0.482  -0.661   0.118  0.00  0.00    -0.082 A 
ATOM      9  C7  UNL d   1       1.587  -1.509  -0.138  0.00  0.00     0.045 A 
ENDROOT
TORSDOF 0
ENDMDL
