MODEL 1
REMARK minimizedAffinity -1.67501724
REMARK minimizedRMSD -1
REMARK  0 active torsions:
REMARK  status: ('A' for Active; 'I' for Inactive)
ROOT
ATOM      1  C   UNL d   1       1.993  -1.752   0.272  0.00  0.00    -0.002 A 
ATOM      2  C1  UNL d   1       2.780  -0.875  -0.462  0.00  0.00     0.010 A 
ATOM      3  C2  UNL d   1       2.255   0.334  -0.923  0.00  0.00     0.041 A 
ATOM      4  C3  UNL d   1       0.914   0.651  -0.629  0.00  0.00    -0.075 A 
ATOM      5  S   UNL d   1       0.057   2.074  -1.090  0.00  0.00     0.015 SA
ATOM      6  C4  UNL d   1      -1.372   1.553  -0.321  0.00  0.00     0.022 A 
ATOM      7  C5  UNL d   1      -1.218   0.325   0.276  0.00  0.00     0.026 A 
ATOM      8  C6  UNL d   1       0.102  -0.216   0.109  0.00  0.00    -0.082 A 
ATOM      9  C7  UNL d   1       0.664  -1.434   0.562  0.00  0.00     0.045 A 
ENDROOT
TORSDOF 0
ENDMDL
