MODEL 1
REMARK minimizedAffinity -1.92091525
REMARK minimizedRMSD -1
REMARK  0 active torsions:
REMARK  status: ('A' for Active; 'I' for Inactive)
ROOT
ATOM      1  C   UNL d   1       3.114  -1.099  -1.309  0.00  0.00    -0.002 A 
ATOM      2  C1  UNL d   1       3.253   0.231  -0.941  0.00  0.00     0.010 A 
ATOM      3  C2  UNL d   1       2.177   0.933  -0.394  0.00  0.00     0.041 A 
ATOM      4  C3  UNL d   1       0.948   0.267  -0.218  0.00  0.00    -0.075 A 
ATOM      5  S   UNL d   1      -0.507   0.924   0.434  0.00  0.00     0.015 SA
ATOM      6  C4  UNL d   1      -1.346  -0.547   0.241  0.00  0.00     0.022 A 
ATOM      7  C5  UNL d   1      -0.551  -1.526  -0.307  0.00  0.00     0.026 A 
ATOM      8  C6  UNL d   1       0.784  -1.073  -0.580  0.00  0.00    -0.082 A 
ATOM      9  C7  UNL d   1       1.893  -1.757  -1.133  0.00  0.00     0.045 A 
ENDROOT
TORSDOF 0
ENDMDL
