MODEL 1
REMARK minimizedAffinity -2.90607238
REMARK minimizedRMSD -1
REMARK  0 active torsions:
REMARK  status: ('A' for Active; 'I' for Inactive)
ROOT
ATOM      1  C   UNL d   1       2.011  -2.008  -0.113  0.00  0.00    -0.002 A 
ATOM      2  C1  UNL d   1       2.710  -1.062  -0.849  0.00  0.00     0.010 A 
ATOM      3  C2  UNL d   1       2.086   0.115  -1.269  0.00  0.00     0.041 A 
ATOM      4  C3  UNL d   1       0.735   0.327  -0.932  0.00  0.00    -0.075 A 
ATOM      5  S   UNL d   1      -0.235   1.694  -1.336  0.00  0.00     0.015 SA
ATOM      6  C4  UNL d   1      -1.600   1.055  -0.541  0.00  0.00     0.022 A 
ATOM      7  C5  UNL d   1      -1.340  -0.171   0.025  0.00  0.00     0.026 A 
ATOM      8  C6  UNL d   1       0.010  -0.610  -0.190  0.00  0.00    -0.082 A 
ATOM      9  C7  UNL d   1       0.671  -1.793   0.220  0.00  0.00     0.045 A 
ENDROOT
TORSDOF 0
ENDMDL
