MODEL 1
REMARK minimizedAffinity -1.60246992
REMARK minimizedRMSD -1
REMARK  0 active torsions:
REMARK  status: ('A' for Active; 'I' for Inactive)
ROOT
ATOM      1  C   UNL d   1       1.777  -1.826  -0.328  0.00  0.00    -0.002 A 
ATOM      2  C1  UNL d   1       2.438  -0.850  -1.061  0.00  0.00     0.010 A 
ATOM      3  C2  UNL d   1       1.808   0.359  -1.364  0.00  0.00     0.041 A 
ATOM      4  C3  UNL d   1       0.492   0.574  -0.911  0.00  0.00    -0.075 A 
ATOM      5  S   UNL d   1      -0.477   1.978  -1.162  0.00  0.00     0.015 SA
ATOM      6  C4  UNL d   1      -1.791   1.316  -0.301  0.00  0.00     0.022 A 
ATOM      7  C5  UNL d   1      -1.515   0.055   0.173  0.00  0.00     0.026 A 
ATOM      8  C6  UNL d   1      -0.194  -0.393  -0.171  0.00  0.00    -0.082 A 
ATOM      9  C7  UNL d   1       0.471  -1.609   0.119  0.00  0.00     0.045 A 
ENDROOT
TORSDOF 0
ENDMDL
