MODEL 1
REMARK minimizedAffinity -2.21521473
REMARK minimizedRMSD -1
REMARK  0 active torsions:
REMARK  status: ('A' for Active; 'I' for Inactive)
ROOT
ATOM      1  C   UNL d   1       2.946  -0.723  -1.670  0.00  0.00    -0.002 A 
ATOM      2  C1  UNL d   1       2.921   0.658  -1.530  0.00  0.00     0.010 A 
ATOM      3  C2  UNL d   1       1.868   1.285  -0.862  0.00  0.00     0.041 A 
ATOM      4  C3  UNL d   1       0.831   0.494  -0.329  0.00  0.00    -0.075 A 
ATOM      5  S   UNL d   1      -0.559   1.043   0.530  0.00  0.00     0.015 SA
ATOM      6  C4  UNL d   1      -1.152  -0.541   0.732  0.00  0.00     0.022 A 
ATOM      7  C5  UNL d   1      -0.322  -1.479   0.165  0.00  0.00     0.026 A 
ATOM      8  C6  UNL d   1       0.835  -0.898  -0.456  0.00  0.00    -0.082 A 
ATOM      9  C7  UNL d   1       1.916  -1.504  -1.140  0.00  0.00     0.045 A 
ENDROOT
TORSDOF 0
ENDMDL
