MODEL 1
REMARK minimizedAffinity -3.14797807
REMARK minimizedRMSD -1
REMARK  0 active torsions:
REMARK  status: ('A' for Active; 'I' for Inactive)
ROOT
ATOM      1  C   UNL d   1       0.190   0.399  -0.362  0.00  0.00    -0.002 A 
ATOM      2  C1  UNL d   1      -0.649  -0.705  -0.408  0.00  0.00     0.010 A 
ATOM      3  C2  UNL d   1      -1.763  -0.786   0.430  0.00  0.00     0.041 A 
ATOM      4  C3  UNL d   1      -2.022   0.272   1.323  0.00  0.00    -0.075 A 
ATOM      5  S   UNL d   1      -3.327   0.391   2.443  0.00  0.00     0.015 SA
ATOM      6  C4  UNL d   1      -2.801   1.910   3.009  0.00  0.00     0.022 A 
ATOM      7  C5  UNL d   1      -1.659   2.331   2.370  0.00  0.00     0.026 A 
ATOM      8  C6  UNL d   1      -1.191   1.394   1.388  0.00  0.00    -0.082 A 
ATOM      9  C7  UNL d   1      -0.070   1.446   0.525  0.00  0.00     0.045 A 
ENDROOT
TORSDOF 0
ENDMDL
