MODEL 1
REMARK minimizedAffinity -2.0460453
REMARK minimizedRMSD -1
REMARK  0 active torsions:
REMARK  status: ('A' for Active; 'I' for Inactive)
ROOT
ATOM      1  O1  BZF d   1      -0.671  -0.492   1.006  0.00  0.00    -0.204 OA
ATOM      2  C2  BZF d   1       0.021  -1.439   1.735  0.00  0.00     0.174 A 
ATOM      3  C3  BZF d   1       1.341  -1.163   1.747  0.00  0.00    -0.012 A 
ATOM      4  C3A BZF d   1       1.471   0.082   1.054  0.00  0.00    -0.107 A 
ATOM      5  C4  BZF d   1       2.536   0.882   0.751  0.00  0.00     0.055 A 
ATOM      6  C5  BZF d   1       2.333   1.995  -0.001  0.00  0.00    -0.016 A 
ATOM      7  C6  BZF d   1       1.082   2.336  -0.471  0.00  0.00     0.022 A 
ATOM      8  C7  BZF d   1      -0.006   1.576  -0.193  0.00  0.00     0.029 A 
ATOM      9  C7A BZF d   1       0.190   0.468   0.595  0.00  0.00     0.058 A 
ENDROOT
TORSDOF 0
ENDMDL
