MODEL 1
REMARK minimizedAffinity 6.95092678
REMARK minimizedRMSD -1
REMARK  0 active torsions:
REMARK  status: ('A' for Active; 'I' for Inactive)
ROOT
ATOM      1  O1  BZF d   1       0.987  -0.743   0.329  0.00  0.00    -0.204 OA
ATOM      2  C2  BZF d   1       0.456  -1.918  -0.166  0.00  0.00     0.174 A 
ATOM      3  C3  BZF d   1       0.462  -2.881   0.779  0.00  0.00    -0.012 A 
ATOM      4  C3A BZF d   1       0.947  -2.242   1.964  0.00  0.00    -0.107 A 
ATOM      5  C4  BZF d   1       1.164  -2.673   3.241  0.00  0.00     0.055 A 
ATOM      6  C5  BZF d   1       1.714  -1.817   4.142  0.00  0.00    -0.016 A 
ATOM      7  C6  BZF d   1       2.063  -0.527   3.800  0.00  0.00     0.022 A 
ATOM      8  C7  BZF d   1       1.862  -0.053   2.546  0.00  0.00     0.029 A 
ATOM      9  C7A BZF d   1       1.276  -0.904   1.642  0.00  0.00     0.058 A 
ENDROOT
TORSDOF 0
ENDMDL
