MODEL 1
REMARK minimizedAffinity 8.451231
REMARK minimizedRMSD -1
REMARK  0 active torsions:
REMARK  status: ('A' for Active; 'I' for Inactive)
ROOT
ATOM      1  O1  BZF d   1       3.223  -2.731  -2.695  0.00  0.00    -0.204 OA
ATOM      2  C2  BZF d   1       3.969  -1.627  -2.331  0.00  0.00     0.174 A 
ATOM      3  C3  BZF d   1       3.317  -0.894  -1.405  0.00  0.00    -0.012 A 
ATOM      4  C3A BZF d   1       2.128  -1.632  -1.108  0.00  0.00    -0.107 A 
ATOM      5  C4  BZF d   1       1.084  -1.426  -0.253  0.00  0.00     0.055 A 
ATOM      6  C5  BZF d   1       0.044  -2.301  -0.258  0.00  0.00    -0.016 A 
ATOM      7  C6  BZF d   1       0.014  -3.389  -1.106  0.00  0.00     0.022 A 
ATOM      8  C7  BZF d   1       1.030  -3.638  -1.968  0.00  0.00     0.029 A 
ATOM      9  C7A BZF d   1       2.097  -2.773  -1.943  0.00  0.00     0.058 A 
ENDROOT
TORSDOF 0
ENDMDL
