MODEL 1
REMARK minimizedAffinity 6.3815918
REMARK minimizedRMSD -1
REMARK  0 active torsions:
REMARK  status: ('A' for Active; 'I' for Inactive)
ROOT
ATOM      1  O1  BZF d   1       1.596  -4.283   0.231  0.00  0.00    -0.204 OA
ATOM      2  C2  BZF d   1       1.504  -3.790  -1.056  0.00  0.00     0.174 A 
ATOM      3  C3  BZF d   1       1.399  -2.446  -1.047  0.00  0.00    -0.012 A 
ATOM      4  C3A BZF d   1       1.520  -2.068   0.328  0.00  0.00    -0.107 A 
ATOM      5  C4  BZF d   1       1.511  -0.866   0.975  0.00  0.00     0.055 A 
ATOM      6  C5  BZF d   1       1.578  -0.846   2.333  0.00  0.00    -0.016 A 
ATOM      7  C6  BZF d   1       1.649  -2.008   3.073  0.00  0.00     0.022 A 
ATOM      8  C7  BZF d   1       1.666  -3.224   2.475  0.00  0.00     0.029 A 
ATOM      9  C7A BZF d   1       1.632  -3.246   1.102  0.00  0.00     0.058 A 
ENDROOT
TORSDOF 0
ENDMDL
