MODEL 1
REMARK minimizedAffinity 7.05856371
REMARK minimizedRMSD -1
REMARK  0 active torsions:
REMARK  status: ('A' for Active; 'I' for Inactive)
ROOT
ATOM      1  O1  BZF d   1      -5.915   3.276   2.248  0.00  0.00    -0.204 OA
ATOM      2  C2  BZF d   1      -6.000   4.547   1.713  0.00  0.00     0.174 A 
ATOM      3  C3  BZF d   1      -5.993   4.500   0.366  0.00  0.00    -0.012 A 
ATOM      4  C3A BZF d   1      -5.991   3.108   0.038  0.00  0.00    -0.107 A 
ATOM      5  C4  BZF d   1      -6.000   2.421  -1.143  0.00  0.00     0.055 A 
ATOM      6  C5  BZF d   1      -5.920   1.065  -1.119  0.00  0.00    -0.016 A 
ATOM      7  C6  BZF d   1      -5.826   0.364   0.065  0.00  0.00     0.022 A 
ATOM      8  C7  BZF d   1      -5.818   1.001   1.262  0.00  0.00     0.029 A 
ATOM      9  C7A BZF d   1      -5.932   2.370   1.242  0.00  0.00     0.058 A 
ENDROOT
TORSDOF 0
ENDMDL
