MODEL 1
REMARK minimizedAffinity -0.701318443
REMARK minimizedRMSD -1
REMARK  0 active torsions:
REMARK  status: ('A' for Active; 'I' for Inactive)
ROOT
ATOM      1  O1  BZF d   1      -5.559   2.918  -2.307  0.00  0.00    -0.204 OA
ATOM      2  C2  BZF d   1      -4.448   2.509  -3.020  0.00  0.00     0.174 A 
ATOM      3  C3  BZF d   1      -3.390   2.338  -2.201  0.00  0.00    -0.012 A 
ATOM      4  C3A BZF d   1      -3.894   2.571  -0.882  0.00  0.00    -0.107 A 
ATOM      5  C4  BZF d   1      -3.327   2.536   0.360  0.00  0.00     0.055 A 
ATOM      6  C5  BZF d   1      -4.075   2.886   1.438  0.00  0.00    -0.016 A 
ATOM      7  C6  BZF d   1      -5.391   3.281   1.312  0.00  0.00     0.022 A 
ATOM      8  C7  BZF d   1      -5.999   3.327   0.101  0.00  0.00     0.029 A 
ATOM      9  C7A BZF d   1      -5.255   2.942  -0.987  0.00  0.00     0.058 A 
ENDROOT
TORSDOF 0
ENDMDL
