MODEL 1
REMARK minimizedAffinity 2.80025196
REMARK minimizedRMSD -1
REMARK  0 active torsions:
REMARK  status: ('A' for Active; 'I' for Inactive)
ROOT
ATOM      1  O1  BZF d   1      -3.776   1.878  -2.232  0.00  0.00    -0.204 OA
ATOM      2  C2  BZF d   1      -4.928   1.857  -2.993  0.00  0.00     0.174 A 
ATOM      3  C3  BZF d   1      -5.987   2.277  -2.271  0.00  0.00    -0.012 A 
ATOM      4  C3A BZF d   1      -5.447   2.668  -1.005  0.00  0.00    -0.107 A 
ATOM      5  C4  BZF d   1      -6.000   3.185   0.132  0.00  0.00     0.055 A 
ATOM      6  C5  BZF d   1      -5.209   3.387   1.218  0.00  0.00    -0.016 A 
ATOM      7  C6  BZF d   1      -3.864   3.080   1.204  0.00  0.00     0.022 A 
ATOM      8  C7  BZF d   1      -3.270   2.570   0.098  0.00  0.00     0.029 A 
ATOM      9  C7A BZF d   1      -4.060   2.395  -1.012  0.00  0.00     0.058 A 
ENDROOT
TORSDOF 0
ENDMDL
