MODEL 1
REMARK minimizedAffinity -1.76596797
REMARK minimizedRMSD -1
REMARK  0 active torsions:
REMARK  status: ('A' for Active; 'I' for Inactive)
ROOT
ATOM      1  C   UNL d   1      -4.876   1.531  -2.802  0.00  0.00     0.078 C 
ATOM      2  C1  UNL d   1      -4.961   1.552  -1.305  0.00  0.00    -0.077 A 
ATOM      3  C2  UNL d   1      -5.923   0.794  -0.627  0.00  0.00    -0.001 A 
ATOM      4  C3  UNL d   1      -5.997   0.832   0.766  0.00  0.00     0.003 A 
ATOM      5  C4  UNL d   1      -5.112   1.626   1.493  0.00  0.00    -0.005 A 
ATOM      6  C5  UNL d   1      -4.153   2.385   0.827  0.00  0.00     0.003 A 
ATOM      7  C6  UNL d   1      -4.077   2.349  -0.567  0.00  0.00    -0.001 A 
ENDROOT
TORSDOF 0
ENDMDL
