MODEL 1
REMARK minimizedAffinity -0.512236953
REMARK minimizedRMSD -1
REMARK  0 active torsions:
REMARK  status: ('A' for Active; 'I' for Inactive)
ROOT
ATOM      1  C   UNL d   1       0.755  -3.382  -0.639  0.00  0.00     0.078 C 
ATOM      2  C1  UNL d   1       1.020  -2.913   0.760  0.00  0.00    -0.077 A 
ATOM      3  C2  UNL d   1       0.784  -1.583   1.132  0.00  0.00    -0.001 A 
ATOM      4  C3  UNL d   1       1.044  -1.158   2.436  0.00  0.00     0.003 A 
ATOM      5  C4  UNL d   1       1.544  -2.055   3.378  0.00  0.00    -0.005 A 
ATOM      6  C5  UNL d   1       1.784  -3.379   3.017  0.00  0.00     0.003 A 
ATOM      7  C6  UNL d   1       1.524  -3.806   1.713  0.00  0.00    -0.001 A 
ENDROOT
TORSDOF 0
ENDMDL
