MODEL 1
REMARK minimizedAffinity -0.960772216
REMARK minimizedRMSD -1
REMARK  0 active torsions:
REMARK  status: ('A' for Active; 'I' for Inactive)
ROOT
ATOM      1  C   UNL d   1      -6.000   1.130  -1.251  0.00  0.00     0.078 C 
ATOM      2  C1  UNL d   1      -5.373   2.085  -0.279  0.00  0.00    -0.077 A 
ATOM      3  C2  UNL d   1      -5.921   3.355  -0.061  0.00  0.00    -0.001 A 
ATOM      4  C3  UNL d   1      -5.321   4.237   0.839  0.00  0.00     0.003 A 
ATOM      5  C4  UNL d   1      -4.170   3.860   1.527  0.00  0.00    -0.005 A 
ATOM      6  C5  UNL d   1      -3.616   2.599   1.314  0.00  0.00     0.003 A 
ATOM      7  C6  UNL d   1      -4.214   1.716   0.415  0.00  0.00    -0.001 A 
ENDROOT
TORSDOF 0
ENDMDL
