MODEL 1
REMARK minimizedAffinity -0.540909469
REMARK minimizedRMSD -1
REMARK  0 active torsions:
REMARK  status: ('A' for Active; 'I' for Inactive)
ROOT
ATOM      1  C   UNL d   1      -5.990   5.191  -0.570  0.00  0.00     0.078 C 
ATOM      2  C1  UNL d   1      -5.965   3.736  -0.207  0.00  0.00    -0.077 A 
ATOM      3  C2  UNL d   1      -6.000   2.745  -1.195  0.00  0.00    -0.001 A 
ATOM      4  C3  UNL d   1      -5.986   1.395  -0.842  0.00  0.00     0.003 A 
ATOM      5  C4  UNL d   1      -5.939   1.023   0.500  0.00  0.00    -0.005 A 
ATOM      6  C5  UNL d   1      -5.906   2.002   1.491  0.00  0.00     0.003 A 
ATOM      7  C6  UNL d   1      -5.920   3.353   1.140  0.00  0.00    -0.001 A 
ENDROOT
TORSDOF 0
ENDMDL
