MODEL 1
REMARK minimizedAffinity 0.259387285
REMARK minimizedRMSD -1
REMARK  0 active torsions:
REMARK  status: ('A' for Active; 'I' for Inactive)
ROOT
ATOM      1  C   UNL d   1      -5.994   0.198  -1.218  0.00  0.00     0.078 C 
ATOM      2  C1  UNL d   1      -5.702   1.395  -0.363  0.00  0.00    -0.077 A 
ATOM      3  C2  UNL d   1      -5.991   2.690  -0.812  0.00  0.00    -0.001 A 
ATOM      4  C3  UNL d   1      -5.705   3.795  -0.009  0.00  0.00     0.003 A 
ATOM      5  C4  UNL d   1      -5.128   3.617   1.247  0.00  0.00    -0.005 A 
ATOM      6  C5  UNL d   1      -4.836   2.333   1.701  0.00  0.00     0.003 A 
ATOM      7  C6  UNL d   1      -5.121   1.226   0.900  0.00  0.00    -0.001 A 
ENDROOT
TORSDOF 0
ENDMDL
