MODEL 1
REMARK minimizedAffinity -0.719374418
REMARK minimizedRMSD -1
REMARK  0 active torsions:
REMARK  status: ('A' for Active; 'I' for Inactive)
ROOT
ATOM      1  C   UNL d   1      -5.885   1.775  -2.192  0.00  0.00     0.078 C 
ATOM      2  C1  UNL d   1      -5.444   2.423  -0.913  0.00  0.00    -0.077 A 
ATOM      3  C2  UNL d   1      -4.494   1.812  -0.085  0.00  0.00    -0.001 A 
ATOM      4  C3  UNL d   1      -4.100   2.421   1.107  0.00  0.00     0.003 A 
ATOM      5  C4  UNL d   1      -4.653   3.644   1.484  0.00  0.00    -0.005 A 
ATOM      6  C5  UNL d   1      -5.601   4.258   0.668  0.00  0.00     0.003 A 
ATOM      7  C6  UNL d   1      -5.996   3.650  -0.525  0.00  0.00    -0.001 A 
ENDROOT
TORSDOF 0
ENDMDL
