MODEL 1
REMARK minimizedAffinity -1.10856926
REMARK minimizedRMSD -1
REMARK  0 active torsions:
REMARK  status: ('A' for Active; 'I' for Inactive)
ROOT
ATOM      1  C   UNL d   1       1.739  -1.839   3.264  0.00  0.00     0.078 C 
ATOM      2  C1  UNL d   1       2.074  -0.417   2.926  0.00  0.00    -0.077 A 
ATOM      3  C2  UNL d   1       1.844   0.616   3.844  0.00  0.00    -0.001 A 
ATOM      4  C3  UNL d   1       2.153   1.936   3.512  0.00  0.00     0.003 A 
ATOM      5  C4  UNL d   1       2.691   2.236   2.262  0.00  0.00    -0.005 A 
ATOM      6  C5  UNL d   1       2.921   1.216   1.342  0.00  0.00     0.003 A 
ATOM      7  C6  UNL d   1       2.613  -0.105   1.672  0.00  0.00    -0.001 A 
ENDROOT
TORSDOF 0
ENDMDL
