MODEL 1
REMARK minimizedAffinity -1.57128179
REMARK minimizedRMSD -1
REMARK  0 active torsions:
REMARK  status: ('A' for Active; 'I' for Inactive)
ROOT
ATOM      1  C   UNL d   1       1.861   5.932  -1.792  0.00  0.00     0.078 C 
ATOM      2  C1  UNL d   1       3.284   5.948  -2.264  0.00  0.00    -0.077 A 
ATOM      3  C2  UNL d   1       4.346   5.968  -1.351  0.00  0.00    -0.001 A 
ATOM      4  C3  UNL d   1       5.666   5.992  -1.805  0.00  0.00     0.003 A 
ATOM      5  C4  UNL d   1       5.937   5.999  -3.172  0.00  0.00    -0.005 A 
ATOM      6  C5  UNL d   1       4.886   5.981  -4.087  0.00  0.00     0.003 A 
ATOM      7  C6  UNL d   1       3.566   5.957  -3.636  0.00  0.00    -0.001 A 
ENDROOT
TORSDOF 0
ENDMDL
