MODEL 1
REMARK minimizedAffinity -2.28622389
REMARK minimizedRMSD -1
REMARK  0 active torsions:
REMARK  status: ('A' for Active; 'I' for Inactive)
ROOT
ATOM      1  N1  IND d   1       0.152   1.178   0.801  0.00  0.00    -0.196 N 
ATOM      2  C2  IND d   1       0.390   0.191  -0.115  0.00  0.00     0.054 A 
ATOM      3  C3  IND d   1      -0.777  -0.317  -0.572  0.00  0.00    -0.031 A 
ATOM      4  C4  IND d   1      -3.192   0.389  -0.029  0.00  0.00     0.051 A 
ATOM      5  C5  IND d   1      -3.916   1.220   0.779  0.00  0.00    -0.031 A 
ATOM      6  C6  IND d   1      -3.308   2.099   1.652  0.00  0.00     0.015 A 
ATOM      7  C7  IND d   1      -1.948   2.189   1.741  0.00  0.00    -0.016 A 
ATOM      8  C8  IND d   1      -1.210   1.341   0.927  0.00  0.00    -0.047 A 
ATOM      9  C9  IND d   1      -1.821   0.417   0.070  0.00  0.00    -0.096 A 
ATOM     10  HN1 IND d   1       0.753   1.622   1.227  0.00  0.00     0.298 HD
ENDROOT
TORSDOF 0
ENDMDL
