MODEL 1
REMARK minimizedAffinity -4.51671696
REMARK minimizedRMSD -1
REMARK  0 active torsions:
REMARK  status: ('A' for Active; 'I' for Inactive)
ROOT
ATOM      1  N1  IND d   1      -1.710   1.136   1.739  0.00  0.00    -0.196 N 
ATOM      2  C2  IND d   1      -2.800   1.516   1.008  0.00  0.00     0.054 A 
ATOM      3  C3  IND d   1      -2.725   1.014  -0.245  0.00  0.00    -0.031 A 
ATOM      4  C4  IND d   1      -0.953  -0.541  -1.280  0.00  0.00     0.051 A 
ATOM      5  C5  IND d   1       0.251  -1.131  -1.013  0.00  0.00    -0.031 A 
ATOM      6  C6  IND d   1       0.874  -0.994   0.211  0.00  0.00     0.015 A 
ATOM      7  C7  IND d   1       0.308  -0.269   1.221  0.00  0.00    -0.016 A 
ATOM      8  C8  IND d   1      -0.911   0.337   0.951  0.00  0.00    -0.047 A 
ATOM      9  C9  IND d   1      -1.527   0.237  -0.303  0.00  0.00    -0.096 A 
ATOM     10  HN1 IND d   1      -1.549   1.359   2.554  0.00  0.00     0.298 HD
ENDROOT
TORSDOF 0
ENDMDL
