MODEL 1
REMARK minimizedAffinity -1.78248
REMARK minimizedRMSD -1
REMARK  0 active torsions:
REMARK  status: ('A' for Active; 'I' for Inactive)
ROOT
ATOM      1  N1  IND d   1      -0.053   1.924  -0.191  0.00  0.00    -0.196 N 
ATOM      2  C2  IND d   1      -0.972   0.976  -0.545  0.00  0.00     0.054 A 
ATOM      3  C3  IND d   1      -0.515  -0.259  -0.238  0.00  0.00    -0.031 A 
ATOM      4  C4  IND d   1       1.668  -0.950   0.940  0.00  0.00     0.051 A 
ATOM      5  C5  IND d   1       2.841  -0.439   1.420  0.00  0.00    -0.031 A 
ATOM      6  C6  IND d   1       3.113   0.914   1.390  0.00  0.00     0.015 A 
ATOM      7  C7  IND d   1       2.214   1.811   0.886  0.00  0.00    -0.016 A 
ATOM      8  C8  IND d   1       1.025   1.295   0.391  0.00  0.00    -0.047 A 
ATOM      9  C9  IND d   1       0.761  -0.081   0.380  0.00  0.00    -0.096 A 
ATOM     10  HN1 IND d   1      -0.135   2.772  -0.312  0.00  0.00     0.298 HD
ENDROOT
TORSDOF 0
ENDMDL
