MODEL 1
REMARK minimizedAffinity -5.35768366
REMARK minimizedRMSD -1
REMARK  0 active torsions:
REMARK  status: ('A' for Active; 'I' for Inactive)
ROOT
ATOM      1  N1  IND d   1       0.029   0.480  -0.832  0.00  0.00    -0.196 N 
ATOM      2  C2  IND d   1      -0.448  -0.741  -1.221  0.00  0.00     0.054 A 
ATOM      3  C3  IND d   1       0.447  -1.711  -0.927  0.00  0.00    -0.031 A 
ATOM      4  C4  IND d   1       2.711  -1.534   0.286  0.00  0.00     0.051 A 
ATOM      5  C5  IND d   1       3.589  -0.622   0.801  0.00  0.00    -0.031 A 
ATOM      6  C6  IND d   1       3.318   0.731   0.800  0.00  0.00     0.015 A 
ATOM      7  C7  IND d   1       2.150   1.224   0.293  0.00  0.00    -0.016 A 
ATOM      8  C8  IND d   1       1.259   0.301  -0.237  0.00  0.00    -0.047 A 
ATOM      9  C9  IND d   1       1.546  -1.069  -0.278  0.00  0.00    -0.096 A 
ATOM     10  HN1 IND d   1      -0.372   1.233  -0.940  0.00  0.00     0.298 HD
ENDROOT
TORSDOF 0
ENDMDL
