MODEL 1
REMARK minimizedAffinity -3.18581796
REMARK minimizedRMSD -1
REMARK  0 active torsions:
REMARK  status: ('A' for Active; 'I' for Inactive)
ROOT
ATOM      1  N1  IND d   1       0.499   0.821  -0.483  0.00  0.00    -0.196 N 
ATOM      2  C2  IND d   1       0.795   1.841   0.378  0.00  0.00     0.054 A 
ATOM      3  C3  IND d   1       1.626   1.408   1.352  0.00  0.00    -0.031 A 
ATOM      4  C4  IND d   1       2.708  -0.906   1.670  0.00  0.00     0.051 A 
ATOM      5  C5  IND d   1       2.711  -2.173   1.158  0.00  0.00    -0.031 A 
ATOM      6  C6  IND d   1       1.964  -2.513   0.049  0.00  0.00     0.015 A 
ATOM      7  C7  IND d   1       1.191  -1.592  -0.599  0.00  0.00    -0.016 A 
ATOM      8  C8  IND d   1       1.180  -0.306  -0.078  0.00  0.00    -0.047 A 
ATOM      9  C9  IND d   1       1.903   0.035   1.073  0.00  0.00    -0.096 A 
ATOM     10  HN1 IND d   1      -0.024   0.874  -1.163  0.00  0.00     0.298 HD
ENDROOT
TORSDOF 0
ENDMDL
