MODEL 1
REMARK minimizedAffinity -4.1633234
REMARK minimizedRMSD -1
REMARK  0 active torsions:
REMARK  status: ('A' for Active; 'I' for Inactive)
ROOT
ATOM      1  N1  IND d   1      -0.233  -1.507  -1.447  0.00  0.00    -0.196 N 
ATOM      2  C2  IND d   1      -1.088  -0.497  -1.105  0.00  0.00     0.054 A 
ATOM      3  C3  IND d   1      -0.642   0.144  -0.002  0.00  0.00    -0.031 A 
ATOM      4  C4  IND d   1       1.521  -0.229   1.344  0.00  0.00     0.051 A 
ATOM      5  C5  IND d   1       2.602  -1.060   1.437  0.00  0.00    -0.031 A 
ATOM      6  C6  IND d   1       2.799  -2.102   0.554  0.00  0.00     0.015 A 
ATOM      7  C7  IND d   1       1.924  -2.346  -0.467  0.00  0.00    -0.016 A 
ATOM      8  C8  IND d   1       0.821  -1.508  -0.560  0.00  0.00    -0.047 A 
ATOM      9  C9  IND d   1       0.594  -0.475   0.359  0.00  0.00    -0.096 A 
ATOM     10  HN1 IND d   1      -0.336  -2.050  -2.106  0.00  0.00     0.298 HD
ENDROOT
TORSDOF 0
ENDMDL
