MODEL 1
REMARK minimizedAffinity -3.18241429
REMARK minimizedRMSD -1
REMARK  0 active torsions:
REMARK  status: ('A' for Active; 'I' for Inactive)
ROOT
ATOM      1  N1  IND d   1      -0.253   0.999   0.647  0.00  0.00    -0.196 N 
ATOM      2  C2  IND d   1      -1.460   0.753   0.054  0.00  0.00     0.054 A 
ATOM      3  C3  IND d   1      -1.425  -0.422  -0.615  0.00  0.00    -0.031 A 
ATOM      4  C4  IND d   1       0.475  -2.150  -0.786  0.00  0.00     0.051 A 
ATOM      5  C5  IND d   1       1.782  -2.352  -0.442  0.00  0.00    -0.031 A 
ATOM      6  C6  IND d   1       2.491  -1.429   0.300  0.00  0.00     0.015 A 
ATOM      7  C7  IND d   1       1.913  -0.271   0.737  0.00  0.00    -0.016 A 
ATOM      8  C8  IND d   1       0.588  -0.060   0.384  0.00  0.00    -0.047 A 
ATOM      9  C9  IND d   1      -0.124  -0.973  -0.405  0.00  0.00    -0.096 A 
ATOM     10  HN1 IND d   1      -0.054   1.697   1.107  0.00  0.00     0.298 HD
ENDROOT
TORSDOF 0
ENDMDL
