MODEL 1
REMARK minimizedAffinity -4.03906727
REMARK minimizedRMSD -1
REMARK  0 active torsions:
REMARK  status: ('A' for Active; 'I' for Inactive)
ROOT
ATOM      1  N1  IND d   1      -0.401  -0.609  -1.184  0.00  0.00    -0.196 N 
ATOM      2  C2  IND d   1      -0.965   0.572  -0.788  0.00  0.00     0.054 A 
ATOM      3  C3  IND d   1      -0.299   1.078   0.273  0.00  0.00    -0.031 A 
ATOM      4  C4  IND d   1       1.806   0.189   1.459  0.00  0.00     0.051 A 
ATOM      5  C5  IND d   1       2.663  -0.876   1.479  0.00  0.00    -0.031 A 
ATOM      6  C6  IND d   1       2.540  -1.926   0.593  0.00  0.00     0.015 A 
ATOM      7  C7  IND d   1       1.560  -1.946  -0.358  0.00  0.00    -0.016 A 
ATOM      8  C8  IND d   1       0.684  -0.869  -0.377  0.00  0.00    -0.047 A 
ATOM      9  C9  IND d   1       0.777   0.179   0.547  0.00  0.00    -0.096 A 
ATOM     10  HN1 IND d   1      -0.679  -1.106  -1.829  0.00  0.00     0.298 HD
ENDROOT
TORSDOF 0
ENDMDL
