MODEL 1
REMARK minimizedAffinity -3.27177525
REMARK minimizedRMSD -1
REMARK  0 active torsions:
REMARK  status: ('A' for Active; 'I' for Inactive)
ROOT
ATOM      1  N1  IND d   1       1.992   1.877   0.116  0.00  0.00    -0.196 N 
ATOM      2  C2  IND d   1       2.913   0.943   0.497  0.00  0.00     0.054 A 
ATOM      3  C3  IND d   1       2.363  -0.292   0.488  0.00  0.00    -0.031 A 
ATOM      4  C4  IND d   1      -0.003  -1.022  -0.217  0.00  0.00     0.051 A 
ATOM      5  C5  IND d   1      -1.214  -0.522  -0.606  0.00  0.00    -0.031 A 
ATOM      6  C6  IND d   1      -1.421   0.831  -0.781  0.00  0.00     0.015 A 
ATOM      7  C7  IND d   1      -0.418   1.737  -0.582  0.00  0.00    -0.016 A 
ATOM      8  C8  IND d   1       0.811   1.233  -0.180  0.00  0.00    -0.047 A 
ATOM      9  C9  IND d   1       1.016  -0.135   0.039  0.00  0.00    -0.096 A 
ATOM     10  HN1 IND d   1       2.127   2.725   0.070  0.00  0.00     0.298 HD
ENDROOT
TORSDOF 0
ENDMDL
