MODEL 1
REMARK minimizedAffinity -2.70112896
REMARK minimizedRMSD -1
REMARK  0 active torsions:
REMARK  status: ('A' for Active; 'I' for Inactive)
ROOT
ATOM      1  N1  IND d   1       2.553  -0.559   0.691  0.00  0.00    -0.196 N 
ATOM      2  C2  IND d   1       2.961  -1.771   0.209  0.00  0.00     0.054 A 
ATOM      3  C3  IND d   1       1.950  -2.381  -0.448  0.00  0.00    -0.031 A 
ATOM      4  C4  IND d   1      -0.429  -1.530  -0.941  0.00  0.00     0.051 A 
ATOM      5  C5  IND d   1      -1.280  -0.494  -0.674  0.00  0.00    -0.031 A 
ATOM      6  C6  IND d   1      -0.887   0.597   0.075  0.00  0.00     0.015 A 
ATOM      7  C7  IND d   1       0.380   0.698   0.577  0.00  0.00    -0.016 A 
ATOM      8  C8  IND d   1       1.243  -0.356   0.313  0.00  0.00    -0.047 A 
ATOM      9  C9  IND d   1       0.838  -1.485  -0.410  0.00  0.00    -0.096 A 
ATOM     10  HN1 IND d   1       3.033  -0.015   1.152  0.00  0.00     0.298 HD
ENDROOT
TORSDOF 0
ENDMDL
