MODEL 1
REMARK minimizedAffinity -0.128970414
REMARK minimizedRMSD -1
REMARK  0 active torsions:
REMARK  status: ('A' for Active; 'I' for Inactive)
ROOT
ATOM      1  N1  IND d   1       2.102   1.691  -0.537  0.00  0.00    -0.196 N 
ATOM      2  C2  IND d   1       0.969   2.289  -0.061  0.00  0.00     0.054 A 
ATOM      3  C3  IND d   1      -0.043   1.395   0.004  0.00  0.00    -0.031 A 
ATOM      4  C4  IND d   1      -0.035  -1.125  -0.522  0.00  0.00     0.051 A 
ATOM      5  C5  IND d   1       0.758  -2.118  -1.023  0.00  0.00    -0.031 A 
ATOM      6  C6  IND d   1       2.068  -1.889  -1.393  0.00  0.00     0.015 A 
ATOM      7  C7  IND d   1       2.638  -0.654  -1.264  0.00  0.00    -0.016 A 
ATOM      8  C8  IND d   1       1.833   0.359  -0.762  0.00  0.00    -0.047 A 
ATOM      9  C9  IND d   1       0.491   0.141  -0.425  0.00  0.00    -0.096 A 
ATOM     10  HN1 IND d   1       2.856   2.081  -0.673  0.00  0.00     0.298 HD
ENDROOT
TORSDOF 0
ENDMDL
