MODEL 1
REMARK minimizedAffinity -4.93781233
REMARK minimizedRMSD -1
REMARK  0 active torsions:
REMARK  status: ('A' for Active; 'I' for Inactive)
ROOT
ATOM      1  N1  IND d   1      -0.515   1.163  -0.303  0.00  0.00    -0.196 N 
ATOM      2  C2  IND d   1      -1.294   0.399  -1.128  0.00  0.00     0.054 A 
ATOM      3  C3  IND d   1      -0.786  -0.850  -1.230  0.00  0.00    -0.031 A 
ATOM      4  C4  IND d   1       1.254  -1.888  -0.053  0.00  0.00     0.051 A 
ATOM      5  C5  IND d   1       2.301  -1.571   0.767  0.00  0.00    -0.031 A 
ATOM      6  C6  IND d   1       2.464  -0.303   1.285  0.00  0.00     0.015 A 
ATOM      7  C7  IND d   1       1.576   0.699   1.009  0.00  0.00    -0.016 A 
ATOM      8  C8  IND d   1       0.516   0.383   0.172  0.00  0.00    -0.047 A 
ATOM      9  C9  IND d   1       0.369  -0.892  -0.391  0.00  0.00    -0.096 A 
ATOM     10  HN1 IND d   1      -0.648   1.991  -0.114  0.00  0.00     0.298 HD
ENDROOT
TORSDOF 0
ENDMDL
