MODEL 1
REMARK minimizedAffinity 0.082967788
REMARK minimizedRMSD -1
REMARK  0 active torsions:
REMARK  status: ('A' for Active; 'I' for Inactive)
ROOT
ATOM      1  C1  DEN d   1      -1.794   0.009   0.650  0.00  0.00     0.130 A 
ATOM      2  C2  DEN d   1      -0.858  -1.111   0.694  0.00  0.00    -0.031 A 
ATOM      3  C3  DEN d   1      -0.743  -1.663  -0.671  0.00  0.00     0.027 A 
ATOM      4  C4  DEN d   1      -1.913  -0.894  -2.837  0.00  0.00     0.027 A 
ATOM      5  C5  DEN d   1      -2.806   0.009  -3.370  0.00  0.00    -0.003 A 
ATOM      6  C6  DEN d   1      -3.446   0.945  -2.601  0.00  0.00     0.001 A 
ATOM      7  C7  DEN d   1      -3.166   1.029  -1.263  0.00  0.00     0.017 A 
ATOM      8  C8  DEN d   1      -2.272   0.118  -0.716  0.00  0.00    -0.094 A 
ATOM      9  C9  DEN d   1      -1.627  -0.813  -1.513  0.00  0.00    -0.072 A 
ENDROOT
TORSDOF 0
ENDMDL
