MODEL 1
REMARK minimizedAffinity -0.798548162
REMARK minimizedRMSD -1
REMARK  0 active torsions:
REMARK  status: ('A' for Active; 'I' for Inactive)
ROOT
ATOM      1  C1  DEN d   1       1.175   0.309  -0.894  0.00  0.00     0.130 A 
ATOM      2  C2  DEN d   1       1.262   1.272   0.200  0.00  0.00    -0.031 A 
ATOM      3  C3  DEN d   1      -0.099   1.777   0.473  0.00  0.00     0.027 A 
ATOM      4  C4  DEN d   1      -2.320   1.159  -0.683  0.00  0.00     0.027 A 
ATOM      5  C5  DEN d   1      -2.895   0.396  -1.675  0.00  0.00    -0.003 A 
ATOM      6  C6  DEN d   1      -2.155  -0.418  -2.491  0.00  0.00     0.001 A 
ATOM      7  C7  DEN d   1      -0.803  -0.521  -2.301  0.00  0.00     0.017 A 
ATOM      8  C8  DEN d   1      -0.215   0.251  -1.308  0.00  0.00    -0.094 A 
ATOM      9  C9  DEN d   1      -0.982   1.058  -0.485  0.00  0.00    -0.072 A 
ENDROOT
TORSDOF 0
ENDMDL
