MODEL 1
REMARK minimizedAffinity -6.82788181
REMARK minimizedRMSD -1
REMARK  0 active torsions:
REMARK  status: ('A' for Active; 'I' for Inactive)
ROOT
ATOM      1  C1  DEN d   1      -0.012   1.186   0.201  0.00  0.00     0.130 A 
ATOM      2  C2  DEN d   1      -1.268   0.456   0.052  0.00  0.00    -0.031 A 
ATOM      3  C3  DEN d   1      -1.032  -0.945   0.452  0.00  0.00     0.027 A 
ATOM      4  C4  DEN d   1       1.145  -2.050   1.285  0.00  0.00     0.027 A 
ATOM      5  C5  DEN d   1       2.476  -1.836   1.566  0.00  0.00    -0.003 A 
ATOM      6  C6  DEN d   1       3.075  -0.619   1.380  0.00  0.00     0.001 A 
ATOM      7  C7  DEN d   1       2.330   0.445   0.943  0.00  0.00     0.017 A 
ATOM      8  C8  DEN d   1       0.988   0.235   0.651  0.00  0.00    -0.094 A 
ATOM      9  C9  DEN d   1       0.399  -1.001   0.857  0.00  0.00    -0.072 A 
ENDROOT
TORSDOF 0
ENDMDL
