MODEL 1
REMARK minimizedAffinity -5.60626125
REMARK minimizedRMSD -1
REMARK  0 active torsions:
REMARK  status: ('A' for Active; 'I' for Inactive)
ROOT
ATOM      1  C1  DEN d   1       0.223   0.578  -0.375  0.00  0.00     0.130 A 
ATOM      2  C2  DEN d   1      -1.104   0.046  -0.079  0.00  0.00    -0.031 A 
ATOM      3  C3  DEN d   1      -0.940  -1.120   0.812  0.00  0.00     0.027 A 
ATOM      4  C4  DEN d   1       1.228  -2.144   1.763  0.00  0.00     0.027 A 
ATOM      5  C5  DEN d   1       2.601  -2.044   1.784  0.00  0.00    -0.003 A 
ATOM      6  C6  DEN d   1       3.275  -1.092   1.066  0.00  0.00     0.001 A 
ATOM      7  C7  DEN d   1       2.573  -0.173   0.331  0.00  0.00     0.017 A 
ATOM      8  C8  DEN d   1       1.188  -0.272   0.299  0.00  0.00    -0.094 A 
ATOM      9  C9  DEN d   1       0.525  -1.234   1.042  0.00  0.00    -0.072 A 
ENDROOT
TORSDOF 0
ENDMDL
