MODEL 1
REMARK minimizedAffinity -1.04511905
REMARK minimizedRMSD -1
REMARK  0 active torsions:
REMARK  status: ('A' for Active; 'I' for Inactive)
ROOT
ATOM      1  C1  DEN d   1       2.170   0.849   1.234  0.00  0.00     0.130 A 
ATOM      2  C2  DEN d   1       2.530   1.880   0.265  0.00  0.00    -0.031 A 
ATOM      3  C3  DEN d   1       1.460   1.945  -0.751  0.00  0.00     0.027 A 
ATOM      4  C4  DEN d   1      -0.709   0.560  -0.914  0.00  0.00     0.027 A 
ATOM      5  C5  DEN d   1      -1.447  -0.445  -0.327  0.00  0.00    -0.003 A 
ATOM      6  C6  DEN d   1      -1.017  -1.106   0.793  0.00  0.00     0.001 A 
ATOM      7  C7  DEN d   1       0.161  -0.740   1.388  0.00  0.00     0.017 A 
ATOM      8  C8  DEN d   1       0.914   0.267   0.798  0.00  0.00    -0.094 A 
ATOM      9  C9  DEN d   1       0.457   0.932  -0.327  0.00  0.00    -0.072 A 
ENDROOT
TORSDOF 0
ENDMDL
