MODEL 1
REMARK minimizedAffinity -3.30729699
REMARK minimizedRMSD -1
REMARK  0 active torsions:
REMARK  status: ('A' for Active; 'I' for Inactive)
ROOT
ATOM      1  C1  DEN d   1       0.595   1.778   0.065  0.00  0.00     0.130 A 
ATOM      2  C2  DEN d   1       1.993   1.631   0.463  0.00  0.00    -0.031 A 
ATOM      3  C3  DEN d   1       2.179   0.260   0.978  0.00  0.00     0.027 A 
ATOM      4  C4  DEN d   1       0.449  -1.641   1.192  0.00  0.00     0.027 A 
ATOM      5  C5  DEN d   1      -0.869  -1.987   0.994  0.00  0.00    -0.003 A 
ATOM      6  C6  DEN d   1      -1.792  -1.099   0.508  0.00  0.00     0.001 A 
ATOM      7  C7  DEN d   1      -1.399   0.166   0.161  0.00  0.00     0.017 A 
ATOM      8  C8  DEN d   1      -0.072   0.525   0.365  0.00  0.00    -0.094 A 
ATOM      9  C9  DEN d   1       0.848  -0.391   0.846  0.00  0.00    -0.072 A 
ENDROOT
TORSDOF 0
ENDMDL
