MODEL 1
REMARK minimizedAffinity -5.11545229
REMARK minimizedRMSD -1
REMARK  0 active torsions:
REMARK  status: ('A' for Active; 'I' for Inactive)
ROOT
ATOM      1  C1  DEN d   1      -0.712  -0.630   0.084  0.00  0.00     0.130 A 
ATOM      2  C2  DEN d   1      -0.701   0.736  -0.433  0.00  0.00    -0.031 A 
ATOM      3  C3  DEN d   1       0.563   1.373  -0.014  0.00  0.00     0.027 A 
ATOM      4  C4  DEN d   1       2.496   0.383   1.377  0.00  0.00     0.027 A 
ATOM      5  C5  DEN d   1       2.937  -0.735   2.050  0.00  0.00    -0.003 A 
ATOM      6  C6  DEN d   1       2.184  -1.875   2.143  0.00  0.00     0.001 A 
ATOM      7  C7  DEN d   1       0.968  -1.939   1.515  0.00  0.00     0.017 A 
ATOM      8  C8  DEN d   1       0.514  -0.813   0.841  0.00  0.00    -0.094 A 
ATOM      9  C9  DEN d   1       1.295   0.326   0.747  0.00  0.00    -0.072 A 
ENDROOT
TORSDOF 0
ENDMDL
