MODEL 1
REMARK minimizedAffinity -4.12473536
REMARK minimizedRMSD -1
REMARK  0 active torsions:
REMARK  status: ('A' for Active; 'I' for Inactive)
ROOT
ATOM      1  C1  DEN d   1      -0.254  -0.818  -0.096  0.00  0.00     0.130 A 
ATOM      2  C2  DEN d   1      -0.283   0.572  -0.543  0.00  0.00    -0.031 A 
ATOM      3  C3  DEN d   1       1.023   1.181  -0.224  0.00  0.00     0.027 A 
ATOM      4  C4  DEN d   1       3.079   0.113   0.909  0.00  0.00     0.027 A 
ATOM      5  C5  DEN d   1       3.575  -1.040   1.477  0.00  0.00    -0.003 A 
ATOM      6  C6  DEN d   1       2.824  -2.180   1.590  0.00  0.00     0.001 A 
ATOM      7  C7  DEN d   1       1.550  -2.206   1.088  0.00  0.00     0.017 A 
ATOM      8  C8  DEN d   1       1.040  -1.045   0.521  0.00  0.00    -0.094 A 
ATOM      9  C9  DEN d   1       1.820   0.093   0.404  0.00  0.00    -0.072 A 
ENDROOT
TORSDOF 0
ENDMDL
