MODEL 1
REMARK minimizedAffinity -5.58802986
REMARK minimizedRMSD -1
REMARK  0 active torsions:
REMARK  status: ('A' for Active; 'I' for Inactive)
ROOT
ATOM      1  C1  DEN d   1       3.179  -0.747   1.010  0.00  0.00     0.130 A 
ATOM      2  C2  DEN d   1       2.627  -1.963   1.601  0.00  0.00    -0.031 A 
ATOM      3  C3  DEN d   1       1.154  -1.869   1.549  0.00  0.00     0.027 A 
ATOM      4  C4  DEN d   1      -0.318   0.029   0.609  0.00  0.00     0.027 A 
ATOM      5  C5  DEN d   1      -0.304   1.271   0.014  0.00  0.00    -0.003 A 
ATOM      6  C6  DEN d   1       0.862   1.937  -0.257  0.00  0.00     0.001 A 
ATOM      7  C7  DEN d   1       2.064   1.344   0.026  0.00  0.00     0.017 A 
ATOM      8  C8  DEN d   1       2.058   0.095   0.632  0.00  0.00    -0.094 A 
ATOM      9  C9  DEN d   1       0.869  -0.567   0.887  0.00  0.00    -0.072 A 
ENDROOT
TORSDOF 0
ENDMDL
