MODEL 1
REMARK minimizedAffinity -3.92362499
REMARK minimizedRMSD -1
REMARK  0 active torsions:
REMARK  status: ('A' for Active; 'I' for Inactive)
ROOT
ATOM      1  C   UNL d   1       0.137  -0.104   0.073  0.00  0.00     0.172 C 
ATOM      2  N   UNL d   1      -0.719  -0.130   1.236  0.00  0.00    -0.070 N 
ATOM      3  C1  UNL d   1      -2.042   0.221   1.261  0.00  0.00    -0.004 A 
ATOM      4  C2  UNL d   1      -2.498   0.058   2.551  0.00  0.00    -0.047 A 
ATOM      5  C3  UNL d   1      -1.411  -0.407   3.328  0.00  0.00    -0.047 A 
ATOM      6  C4  UNL d   1      -0.323  -0.515   2.489  0.00  0.00    -0.004 A 
ENDROOT
TORSDOF 0
ENDMDL
