MODEL 1
REMARK minimizedAffinity -2.65879178
REMARK minimizedRMSD -1
REMARK  0 active torsions:
REMARK  status: ('A' for Active; 'I' for Inactive)
ROOT
ATOM      1  C   UNL d   1       0.327  -0.080  -1.345  0.00  0.00     0.172 C 
ATOM      2  N   UNL d   1       0.063  -0.058   0.075  0.00  0.00    -0.070 N 
ATOM      3  C1  UNL d   1      -1.082  -0.504   0.681  0.00  0.00    -0.004 A 
ATOM      4  C2  UNL d   1      -0.943  -0.311   2.038  0.00  0.00    -0.047 A 
ATOM      5  C3  UNL d   1       0.328   0.271   2.256  0.00  0.00    -0.047 A 
ATOM      6  C4  UNL d   1       0.929   0.417   1.023  0.00  0.00    -0.004 A 
ENDROOT
TORSDOF 0
ENDMDL
