MODEL 1
REMARK minimizedAffinity -1.98018885
REMARK minimizedRMSD -1
REMARK  0 active torsions:
REMARK  status: ('A' for Active; 'I' for Inactive)
ROOT
ATOM      1  C   UNL d   1       0.488   0.262  -1.299  0.00  0.00     0.172 C 
ATOM      2  N   UNL d   1       0.249   0.164   0.121  0.00  0.00    -0.070 N 
ATOM      3  C1  UNL d   1      -0.907   0.522   0.763  0.00  0.00    -0.004 A 
ATOM      4  C2  UNL d   1      -0.736   0.276   2.108  0.00  0.00    -0.047 A 
ATOM      5  C3  UNL d   1       0.567  -0.247   2.281  0.00  0.00    -0.047 A 
ATOM      6  C4  UNL d   1       1.155  -0.306   1.035  0.00  0.00    -0.004 A 
ENDROOT
TORSDOF 0
ENDMDL
