MODEL 1
REMARK minimizedAffinity -2.38693118
REMARK minimizedRMSD -1
REMARK  0 active torsions:
REMARK  status: ('A' for Active; 'I' for Inactive)
ROOT
ATOM      1  C   UNL d   1       0.164   0.325  -1.202  0.00  0.00     0.172 C 
ATOM      2  N   UNL d   1      -0.039   0.252   0.225  0.00  0.00    -0.070 N 
ATOM      3  C1  UNL d   1      -1.238   0.398   0.870  0.00  0.00    -0.004 A 
ATOM      4  C2  UNL d   1      -1.010   0.260   2.222  0.00  0.00    -0.047 A 
ATOM      5  C3  UNL d   1       0.374   0.023   2.396  0.00  0.00    -0.047 A 
ATOM      6  C4  UNL d   1       0.951   0.023   1.144  0.00  0.00    -0.004 A 
ENDROOT
TORSDOF 0
ENDMDL
