MODEL 1
REMARK minimizedAffinity -3.0984056
REMARK minimizedRMSD -1
REMARK  0 active torsions:
REMARK  status: ('A' for Active; 'I' for Inactive)
ROOT
ATOM      1  C   UNL d   1       1.005   0.389   0.822  0.00  0.00     0.172 C 
ATOM      2  N   UNL d   1      -0.216  -0.024   1.474  0.00  0.00    -0.070 N 
ATOM      3  C1  UNL d   1      -0.352  -0.308   2.807  0.00  0.00    -0.004 A 
ATOM      4  C2  UNL d   1      -1.665  -0.662   3.030  0.00  0.00    -0.047 A 
ATOM      5  C3  UNL d   1      -2.341  -0.589   1.789  0.00  0.00    -0.047 A 
ATOM      6  C4  UNL d   1      -1.420  -0.192   0.843  0.00  0.00    -0.004 A 
ENDROOT
TORSDOF 0
ENDMDL
