MODEL 1
REMARK minimizedAffinity -4.06974697
REMARK minimizedRMSD -1
REMARK  0 active torsions:
REMARK  status: ('A' for Active; 'I' for Inactive)
ROOT
ATOM      1  C   UNL d   1       0.278   0.452  -0.268  0.00  0.00     0.172 C 
ATOM      2  N   UNL d   1      -0.189  -0.010   1.018  0.00  0.00    -0.070 N 
ATOM      3  C1  UNL d   1       0.583  -0.603   1.981  0.00  0.00    -0.004 A 
ATOM      4  C2  UNL d   1      -0.231  -0.895   3.054  0.00  0.00    -0.047 A 
ATOM      5  C3  UNL d   1      -1.538  -0.463   2.723  0.00  0.00    -0.047 A 
ATOM      6  C4  UNL d   1      -1.483   0.081   1.458  0.00  0.00    -0.004 A 
ENDROOT
TORSDOF 0
ENDMDL
