MODEL 1
REMARK minimizedAffinity -3.06328392
REMARK minimizedRMSD -1
REMARK  0 active torsions:
REMARK  status: ('A' for Active; 'I' for Inactive)
ROOT
ATOM      1  C   UNL d   1      -0.502  -0.817   2.522  0.00  0.00     0.172 C 
ATOM      2  N   UNL d   1      -0.296  -0.309   1.187  0.00  0.00    -0.070 N 
ATOM      3  C1  UNL d   1       0.919  -0.058   0.607  0.00  0.00    -0.004 A 
ATOM      4  C2  UNL d   1       0.689   0.415  -0.667  0.00  0.00    -0.047 A 
ATOM      5  C3  UNL d   1      -0.712   0.451  -0.859  0.00  0.00    -0.047 A 
ATOM      6  C4  UNL d   1      -1.298  -0.002   0.304  0.00  0.00    -0.004 A 
ENDROOT
TORSDOF 0
ENDMDL
