MODEL 1
REMARK minimizedAffinity -3.87125731
REMARK minimizedRMSD -1
REMARK  0 active torsions:
REMARK  status: ('A' for Active; 'I' for Inactive)
ROOT
ATOM      1  C   UNL d   1       0.029   0.102  -1.037  0.00  0.00     0.172 C 
ATOM      2  N   UNL d   1      -0.069  -0.127   0.386  0.00  0.00    -0.070 N 
ATOM      3  C1  UNL d   1      -1.146  -0.671   1.034  0.00  0.00    -0.004 A 
ATOM      4  C2  UNL d   1      -0.847  -0.720   2.379  0.00  0.00    -0.047 A 
ATOM      5  C3  UNL d   1       0.453  -0.186   2.544  0.00  0.00    -0.047 A 
ATOM      6  C4  UNL d   1       0.911   0.173   1.294  0.00  0.00    -0.004 A 
ENDROOT
TORSDOF 0
ENDMDL
