MODEL 1
REMARK minimizedAffinity -1.91615772
REMARK minimizedRMSD -1
REMARK  0 active torsions:
REMARK  status: ('A' for Active; 'I' for Inactive)
ROOT
ATOM      1  C   UNL d   1       0.333   0.325  -2.118  0.00  0.00     0.172 C 
ATOM      2  N   UNL d   1       0.169   0.108  -0.700  0.00  0.00    -0.070 N 
ATOM      3  C1  UNL d   1       1.061   0.473   0.273  0.00  0.00    -0.004 A 
ATOM      4  C2  UNL d   1       0.538   0.092   1.490  0.00  0.00    -0.047 A 
ATOM      5  C3  UNL d   1      -0.711  -0.525   1.240  0.00  0.00    -0.047 A 
ATOM      6  C4  UNL d   1      -0.915  -0.502  -0.124  0.00  0.00    -0.004 A 
ENDROOT
TORSDOF 0
ENDMDL
