MODEL 1
REMARK minimizedAffinity -3.83263326
REMARK minimizedRMSD -1
REMARK  0 active torsions:
REMARK  status: ('A' for Active; 'I' for Inactive)
ROOT
ATOM      1  C   UNL d   1      -3.344   0.613   1.137  0.00  0.00     0.172 C 
ATOM      2  N   UNL d   1      -2.023   0.298   1.628  0.00  0.00    -0.070 N 
ATOM      3  C1  UNL d   1      -1.687   0.091   2.939  0.00  0.00    -0.004 A 
ATOM      4  C2  UNL d   1      -0.337  -0.183   2.990  0.00  0.00    -0.047 A 
ATOM      5  C3  UNL d   1       0.155  -0.139   1.664  0.00  0.00    -0.047 A 
ATOM      6  C4  UNL d   1      -0.910   0.160   0.841  0.00  0.00    -0.004 A 
ENDROOT
TORSDOF 0
ENDMDL
