MODEL 1
REMARK minimizedAffinity -3.55566168
REMARK minimizedRMSD -1
REMARK  0 active torsions:
REMARK  status: ('A' for Active; 'I' for Inactive)
ROOT
ATOM      1  C   UNL d   1      -0.773   0.320  -0.749  0.00  0.00     0.172 C 
ATOM      2  N   UNL d   1      -0.373   0.077   0.617  0.00  0.00    -0.070 N 
ATOM      3  C1  UNL d   1       0.854   0.367   1.153  0.00  0.00    -0.004 A 
ATOM      4  C2  UNL d   1       0.837  -0.013   2.477  0.00  0.00    -0.047 A 
ATOM      5  C3  UNL d   1      -0.444  -0.551   2.747  0.00  0.00    -0.047 A 
ATOM      6  C4  UNL d   1      -1.173  -0.483   1.578  0.00  0.00    -0.004 A 
ENDROOT
TORSDOF 0
ENDMDL
