MODEL 1
REMARK minimizedAffinity -0.735263646
REMARK minimizedRMSD -1
REMARK  0 active torsions:
REMARK  status: ('A' for Active; 'I' for Inactive)
ROOT
ATOM      1  C   UNL d   1      -0.494   0.071  -1.082  0.00  0.00     0.172 C 
ATOM      2  N   UNL d   1       0.284  -0.402  -2.202  0.00  0.00    -0.070 N 
ATOM      3  C1  UNL d   1      -0.107  -1.360  -3.099  0.00  0.00    -0.004 A 
ATOM      4  C2  UNL d   1       0.912  -1.525  -4.012  0.00  0.00    -0.047 A 
ATOM      5  C3  UNL d   1       1.953  -0.637  -3.651  0.00  0.00    -0.047 A 
ATOM      6  C4  UNL d   1       1.538   0.046  -2.527  0.00  0.00    -0.004 A 
ENDROOT
TORSDOF 0
ENDMDL
