MODEL 1
REMARK minimizedAffinity -3.7739799
REMARK minimizedRMSD -1
REMARK  0 active torsions:
REMARK  status: ('A' for Active; 'I' for Inactive)
ROOT
ATOM      1  C   UNL d   1      -1.446  -0.372   2.933  0.00  0.00     0.172 C 
ATOM      2  N   UNL d   1      -0.326  -0.358   2.022  0.00  0.00    -0.070 N 
ATOM      3  C1  UNL d   1      -0.405  -0.452   0.659  0.00  0.00    -0.004 A 
ATOM      4  C2  UNL d   1       0.878  -0.401   0.157  0.00  0.00    -0.047 A 
ATOM      5  C3  UNL d   1       1.758  -0.273   1.258  0.00  0.00    -0.047 A 
ATOM      6  C4  UNL d   1       0.986  -0.249   2.400  0.00  0.00    -0.004 A 
ENDROOT
TORSDOF 0
ENDMDL
