MODEL 1
REMARK minimizedAffinity -3.31152463
REMARK minimizedRMSD -1
REMARK  0 active torsions:
REMARK  status: ('A' for Active; 'I' for Inactive)
ROOT
ATOM      1  C   UNL d   1       0.041   0.578  -1.625  0.00  0.00     0.172 C 
ATOM      2  N   UNL d   1       0.019   0.207  -0.229  0.00  0.00    -0.070 N 
ATOM      3  C1  UNL d   1      -0.755  -0.779   0.322  0.00  0.00    -0.004 A 
ATOM      4  C2  UNL d   1      -0.487  -0.821   1.673  0.00  0.00    -0.047 A 
ATOM      5  C3  UNL d   1       0.481   0.175   1.943  0.00  0.00    -0.047 A 
ATOM      6  C4  UNL d   1       0.776   0.796   0.748  0.00  0.00    -0.004 A 
ENDROOT
TORSDOF 0
ENDMDL
