MODEL 1
REMARK minimizedAffinity -4.49635029
REMARK minimizedRMSD -1
REMARK  1 active torsions:
REMARK  status: ('A' for Active; 'I' for Inactive)
REMARK    1  A    between atoms: C1_2  and  C2_3 
ROOT
ATOM      1  C2  UNL d   1       0.073  -0.157   1.081  0.00  0.00    -0.081 A 
ATOM      2  C3  UNL d   1       0.958  -1.044   0.456  0.00  0.00     0.006 A 
ATOM      3  C4  UNL d   1       1.166  -0.983  -0.924  0.00  0.00     0.002 A 
ATOM      4  C5  UNL d   1       0.499  -0.029  -1.700  0.00  0.00    -0.080 A 
ATOM      5  C6  UNL d   1       0.736   0.067  -3.178  0.00  0.00     0.076 C 
ATOM      6  C7  UNL d   1      -0.398   0.846  -1.079  0.00  0.00     0.002 A 
ATOM      7  C8  UNL d   1      -0.607   0.785   0.301  0.00  0.00     0.006 A 
ENDROOT
BRANCH   1   8
ATOM      8  C1  UNL d   1      -0.104  -0.178   2.578  0.00  0.00     0.054 C 
ATOM      9  C   UNL d   1      -1.526   0.196   2.972  0.00  0.00     0.018 C 
ENDBRANCH   1   8
TORSDOF 1
ENDMDL
