MODEL 1
REMARK minimizedAffinity -3.21587348
REMARK minimizedRMSD -1
REMARK  1 active torsions:
REMARK  status: ('A' for Active; 'I' for Inactive)
REMARK    1  A    between atoms: C1_2  and  C2_3 
ROOT
ATOM      1  C2  UNL d   1      -0.976   0.235   2.034  0.00  0.00    -0.081 A 
ATOM      2  C3  UNL d   1      -0.387   0.232   0.764  0.00  0.00     0.006 A 
ATOM      3  C4  UNL d   1       0.945  -0.155   0.601  0.00  0.00     0.002 A 
ATOM      4  C5  UNL d   1       1.708  -0.554   1.704  0.00  0.00    -0.080 A 
ATOM      5  C6  UNL d   1       3.130  -1.001   1.539  0.00  0.00     0.076 C 
ATOM      6  C7  UNL d   1       1.125  -0.534   2.976  0.00  0.00     0.002 A 
ATOM      7  C8  UNL d   1      -0.206  -0.146   3.139  0.00  0.00     0.006 A 
ENDROOT
BRANCH   1   8
ATOM      8  C1  UNL d   1      -2.431   0.591   2.205  0.00  0.00     0.054 C 
ATOM      9  C   UNL d   1      -3.127   0.730   0.858  0.00  0.00     0.018 C 
ENDBRANCH   1   8
TORSDOF 1
ENDMDL
