MODEL 1
REMARK minimizedAffinity -3.68909764
REMARK minimizedRMSD -1
REMARK  1 active torsions:
REMARK  status: ('A' for Active; 'I' for Inactive)
REMARK    1  A    between atoms: C1_2  and  C2_3 
ROOT
ATOM      1  C2  UNL d   1       0.162  -0.768  -0.593  0.00  0.00    -0.081 A 
ATOM      2  C3  UNL d   1       1.335  -1.175   0.056  0.00  0.00     0.006 A 
ATOM      3  C4  UNL d   1       1.469  -1.023   1.438  0.00  0.00     0.002 A 
ATOM      4  C5  UNL d   1       0.431  -0.469   2.195  0.00  0.00    -0.080 A 
ATOM      5  C6  UNL d   1       0.551  -0.328   3.683  0.00  0.00     0.076 C 
ATOM      6  C7  UNL d   1      -0.733  -0.047   1.545  0.00  0.00     0.002 A 
ATOM      7  C8  UNL d   1      -0.868  -0.198   0.163  0.00  0.00     0.006 A 
ENDROOT
BRANCH   1   8
ATOM      8  C1  UNL d   1      -0.011  -0.990  -2.074  0.00  0.00     0.054 C 
ATOM      9  C   UNL d   1       0.790   0.020  -2.882  0.00  0.00     0.018 C 
ENDBRANCH   1   8
TORSDOF 1
ENDMDL
