MODEL 1
REMARK minimizedAffinity -0.842124045
REMARK minimizedRMSD -1
REMARK  0 active torsions:
REMARK  status: ('A' for Active; 'I' for Inactive)
ROOT
ATOM      1  C4' PXY d   1      -2.047   0.425   1.117  0.00  0.00     0.077 C 
ATOM      2  C1' PXY d   1       2.924  -1.007  -1.463  0.00  0.00     0.077 C 
ATOM      3  C1  PXY d   1       1.626  -0.620  -0.782  0.00  0.00    -0.082 A 
ATOM      4  C2  PXY d   1       0.772  -1.563  -0.419  0.00  0.00     0.003 A 
ATOM      5  C3  PXY d   1      -0.421  -1.229   0.169  0.00  0.00     0.003 A 
ATOM      6  C4  PXY d   1      -0.720   0.081   0.435  0.00  0.00    -0.082 A 
ATOM      7  C5  PXY d   1       0.151   1.048   0.077  0.00  0.00     0.003 A 
ATOM      8  C6  PXY d   1       1.338   0.691  -0.556  0.00  0.00     0.003 A 
ENDROOT
TORSDOF 0
ENDMDL
