MODEL 1
REMARK minimizedAffinity -3.14053822
REMARK minimizedRMSD -1
REMARK  0 active torsions:
REMARK  status: ('A' for Active; 'I' for Inactive)
ROOT
ATOM      1  C4' PXY d   1      -2.103   0.284   2.415  0.00  0.00     0.077 C 
ATOM      2  C1' PXY d   1       1.930  -1.237  -1.437  0.00  0.00     0.077 C 
ATOM      3  C1  PXY d   1       0.877  -0.826  -0.427  0.00  0.00    -0.082 A 
ATOM      4  C2  PXY d   1       0.376  -1.729   0.400  0.00  0.00     0.003 A 
ATOM      5  C3  PXY d   1      -0.601  -1.381   1.298  0.00  0.00     0.003 A 
ATOM      6  C4  PXY d   1      -1.031  -0.084   1.385  0.00  0.00    -0.082 A 
ATOM      7  C5  PXY d   1      -0.517   0.845   0.552  0.00  0.00     0.003 A 
ATOM      8  C6  PXY d   1       0.443   0.463  -0.380  0.00  0.00     0.003 A 
ENDROOT
TORSDOF 0
ENDMDL
