MODEL 1
REMARK minimizedAffinity -3.20945597
REMARK minimizedRMSD -1
REMARK  0 active torsions:
REMARK  status: ('A' for Active; 'I' for Inactive)
ROOT
ATOM      1  C4' PXY d   1       3.396  -0.517  -1.291  0.00  0.00     0.077 C 
ATOM      2  C1' PXY d   1      -1.896   0.411   0.841  0.00  0.00     0.077 C 
ATOM      3  C1  PXY d   1      -0.507   0.157   0.289  0.00  0.00    -0.082 A 
ATOM      4  C2  PXY d   1       0.205   1.168  -0.182  0.00  0.00     0.003 A 
ATOM      5  C3  PXY d   1       1.450   0.951  -0.714  0.00  0.00     0.003 A 
ATOM      6  C4  PXY d   1       1.993  -0.306  -0.716  0.00  0.00    -0.082 A 
ATOM      7  C5  PXY d   1       1.278  -1.341  -0.227  0.00  0.00     0.003 A 
ATOM      8  C6  PXY d   1      -0.001  -1.106   0.271  0.00  0.00     0.003 A 
ENDROOT
TORSDOF 0
ENDMDL
