MODEL 1
REMARK minimizedAffinity -3.71301889
REMARK minimizedRMSD -1
REMARK  0 active torsions:
REMARK  status: ('A' for Active; 'I' for Inactive)
ROOT
ATOM      1  C4' PXY d   1      -1.826   0.156   0.169  0.00  0.00     0.077 C 
ATOM      2  C1' PXY d   1       3.801  -0.215  -1.103  0.00  0.00     0.077 C 
ATOM      3  C1  PXY d   1       2.327  -0.105  -0.765  0.00  0.00    -0.082 A 
ATOM      4  C2  PXY d   1       1.634  -1.200  -0.497  0.00  0.00     0.003 A 
ATOM      5  C3  PXY d   1       0.294  -1.123  -0.221  0.00  0.00     0.003 A 
ATOM      6  C4  PXY d   1      -0.333   0.094  -0.167  0.00  0.00    -0.082 A 
ATOM      7  C5  PXY d   1       0.369   1.216  -0.429  0.00  0.00     0.003 A 
ATOM      8  C6  PXY d   1       1.720   1.112  -0.748  0.00  0.00     0.003 A 
ENDROOT
TORSDOF 0
ENDMDL
