MODEL 1
REMARK minimizedAffinity -2.39208651
REMARK minimizedRMSD -1
REMARK  0 active torsions:
REMARK  status: ('A' for Active; 'I' for Inactive)
ROOT
ATOM      1  C4' PXY d   1       3.467  -0.842  -0.683  0.00  0.00     0.077 C 
ATOM      2  C1' PXY d   1      -2.112   0.439   0.119  0.00  0.00     0.077 C 
ATOM      3  C1  PXY d   1      -0.651   0.092  -0.085  0.00  0.00    -0.082 A 
ATOM      4  C2  PXY d   1       0.239   1.061  -0.219  0.00  0.00     0.003 A 
ATOM      5  C3  PXY d   1       1.560   0.765  -0.436  0.00  0.00     0.003 A 
ATOM      6  C4  PXY d   1       1.982  -0.538  -0.465  0.00  0.00    -0.082 A 
ATOM      7  C5  PXY d   1       1.081  -1.532  -0.319  0.00  0.00     0.003 A 
ATOM      8  C6  PXY d   1      -0.261  -1.211  -0.140  0.00  0.00     0.003 A 
ENDROOT
TORSDOF 0
ENDMDL
