MODEL 1
REMARK minimizedAffinity -6.100173
REMARK minimizedRMSD -1
REMARK  0 active torsions:
REMARK  status: ('A' for Active; 'I' for Inactive)
ROOT
ATOM      1  C4' PXY d   1       3.115  -0.738  -1.158  0.00  0.00     0.077 C 
ATOM      2  C1' PXY d   1      -2.077   0.873   0.805  0.00  0.00     0.077 C 
ATOM      3  C1  PXY d   1      -0.717   0.440   0.297  0.00  0.00    -0.082 A 
ATOM      4  C2  PXY d   1       0.143   1.350  -0.130  0.00  0.00     0.003 A 
ATOM      5  C3  PXY d   1       1.366   0.973  -0.623  0.00  0.00     0.003 A 
ATOM      6  C4  PXY d   1       1.733  -0.346  -0.628  0.00  0.00    -0.082 A 
ATOM      7  C5  PXY d   1       0.866  -1.280  -0.184  0.00  0.00     0.003 A 
ATOM      8  C6  PXY d   1      -0.386  -0.880   0.273  0.00  0.00     0.003 A 
ENDROOT
TORSDOF 0
ENDMDL
