MODEL 1
REMARK minimizedAffinity -3.7359972
REMARK minimizedRMSD -1
REMARK  0 active torsions:
REMARK  status: ('A' for Active; 'I' for Inactive)
ROOT
ATOM      1  C4' PXY d   1      -1.903   0.351   1.609  0.00  0.00     0.077 C 
ATOM      2  C1' PXY d   1       2.547  -0.486  -1.984  0.00  0.00     0.077 C 
ATOM      3  C1  PXY d   1       1.379  -0.280  -1.041  0.00  0.00    -0.082 A 
ATOM      4  C2  PXY d   1       0.688   0.847  -1.092  0.00  0.00     0.003 A 
ATOM      5  C3  PXY d   1      -0.352   1.064  -0.225  0.00  0.00     0.003 A 
ATOM      6  C4  PXY d   1      -0.721   0.095   0.669  0.00  0.00    -0.082 A 
ATOM      7  C5  PXY d   1      -0.028  -1.062   0.721  0.00  0.00     0.003 A 
ATOM      8  C6  PXY d   1       1.050  -1.246  -0.141  0.00  0.00     0.003 A 
ENDROOT
TORSDOF 0
ENDMDL
