MODEL 1
REMARK minimizedAffinity -1.67843974
REMARK minimizedRMSD -1
REMARK  0 active torsions:
REMARK  status: ('A' for Active; 'I' for Inactive)
ROOT
ATOM      1  C4' PXY d   1       6.000   2.738   4.955  0.00  0.00     0.077 C 
ATOM      2  C1' PXY d   1       5.311  -2.986   4.537  0.00  0.00     0.077 C 
ATOM      3  C1  PXY d   1       5.487  -1.486   4.659  0.00  0.00    -0.082 A 
ATOM      4  C2  PXY d   1       5.501  -0.738   3.567  0.00  0.00     0.003 A 
ATOM      5  C3  PXY d   1       5.691   0.617   3.657  0.00  0.00     0.003 A 
ATOM      6  C4  PXY d   1       5.815   1.220   4.880  0.00  0.00    -0.082 A 
ATOM      7  C5  PXY d   1       5.791   0.465   5.999  0.00  0.00     0.003 A 
ATOM      8  C6  PXY d   1       5.638  -0.914   5.884  0.00  0.00     0.003 A 
ENDROOT
TORSDOF 0
ENDMDL
