MODEL 1
REMARK minimizedAffinity -3.80551958
REMARK minimizedRMSD -1
REMARK  0 active torsions:
REMARK  status: ('A' for Active; 'I' for Inactive)
ROOT
ATOM      1  C4' PXY d   1      -1.953   0.830   0.875  0.00  0.00     0.077 C 
ATOM      2  C1' PXY d   1       3.246  -1.025  -0.840  0.00  0.00     0.077 C 
ATOM      3  C1  PXY d   1       1.888  -0.526  -0.389  0.00  0.00    -0.082 A 
ATOM      4  C2  PXY d   1       1.006  -1.383   0.101  0.00  0.00     0.003 A 
ATOM      5  C3  PXY d   1      -0.238  -0.954   0.485  0.00  0.00     0.003 A 
ATOM      6  C4  PXY d   1      -0.566   0.373   0.415  0.00  0.00    -0.082 A 
ATOM      7  C5  PXY d   1       0.332   1.255  -0.073  0.00  0.00     0.003 A 
ATOM      8  C6  PXY d   1       1.575   0.794  -0.496  0.00  0.00     0.003 A 
ENDROOT
TORSDOF 0
ENDMDL
