MODEL 1
REMARK minimizedAffinity -2.82707953
REMARK minimizedRMSD -1
REMARK  0 active torsions:
REMARK  status: ('A' for Active; 'I' for Inactive)
ROOT
ATOM      1  C4' PXY d   1      -1.905   0.071   0.733  0.00  0.00     0.077 C 
ATOM      2  C1' PXY d   1       3.466  -0.603  -1.294  0.00  0.00     0.077 C 
ATOM      3  C1  PXY d   1       2.061  -0.414  -0.758  0.00  0.00    -0.082 A 
ATOM      4  C2  PXY d   1       1.308  -1.473  -0.510  0.00  0.00     0.003 A 
ATOM      5  C3  PXY d   1       0.024  -1.320  -0.055  0.00  0.00     0.003 A 
ATOM      6  C4  PXY d   1      -0.477  -0.072   0.200  0.00  0.00    -0.082 A 
ATOM      7  C5  PXY d   1       0.289   1.014  -0.040  0.00  0.00     0.003 A 
ATOM      8  C6  PXY d   1       1.576   0.838  -0.541  0.00  0.00     0.003 A 
ENDROOT
TORSDOF 0
ENDMDL
