MODEL 1
REMARK minimizedAffinity -5.14455843
REMARK minimizedRMSD -1
REMARK  0 active torsions:
REMARK  status: ('A' for Active; 'I' for Inactive)
ROOT
ATOM      1  C4' PXY d   1       0.321  -2.994   0.688  0.00  0.00     0.077 C 
ATOM      2  C1' PXY d   1       0.939   2.240  -1.685  0.00  0.00     0.077 C 
ATOM      3  C1  PXY d   1       0.785   0.863  -1.072  0.00  0.00    -0.082 A 
ATOM      4  C2  PXY d   1      -0.322   0.559  -0.414  0.00  0.00     0.003 A 
ATOM      5  C3  PXY d   1      -0.464  -0.671   0.175  0.00  0.00     0.003 A 
ATOM      6  C4  PXY d   1       0.515  -1.619   0.044  0.00  0.00    -0.082 A 
ATOM      7  C5  PXY d   1       1.644  -1.321  -0.635  0.00  0.00     0.003 A 
ATOM      8  C6  PXY d   1       1.786  -0.052  -1.190  0.00  0.00     0.003 A 
ENDROOT
TORSDOF 0
ENDMDL
