MODEL 1
REMARK minimizedAffinity -0.611434042
REMARK minimizedRMSD -1
REMARK  0 active torsions:
REMARK  status: ('A' for Active; 'I' for Inactive)
ROOT
ATOM      1  C4' PXY d   1      -1.897   0.376   1.774  0.00  0.00     0.077 C 
ATOM      2  C1' PXY d   1       2.291  -1.635  -1.666  0.00  0.00     0.077 C 
ATOM      3  C1  PXY d   1       1.198  -1.096  -0.764  0.00  0.00    -0.082 A 
ATOM      4  C2  PXY d   1       0.562  -1.917   0.055  0.00  0.00     0.003 A 
ATOM      5  C3  PXY d   1      -0.451  -1.452   0.854  0.00  0.00     0.003 A 
ATOM      6  C4  PXY d   1      -0.780  -0.123   0.853  0.00  0.00    -0.082 A 
ATOM      7  C5  PXY d   1      -0.128   0.723   0.027  0.00  0.00     0.003 A 
ATOM      8  C6  PXY d   1       0.869   0.224  -0.806  0.00  0.00     0.003 A 
ENDROOT
TORSDOF 0
ENDMDL
