MODEL 1
REMARK minimizedAffinity -5.26494789
REMARK minimizedRMSD -1
REMARK  0 active torsions:
REMARK  status: ('A' for Active; 'I' for Inactive)
ROOT
ATOM      1  C4' PXY d   1      -2.134   0.200   0.889  0.00  0.00     0.077 C 
ATOM      2  C1' PXY d   1       3.148  -0.490  -1.356  0.00  0.00     0.077 C 
ATOM      3  C1  PXY d   1       1.760  -0.322  -0.770  0.00  0.00    -0.082 A 
ATOM      4  C2  PXY d   1       1.222   0.885  -0.701  0.00  0.00     0.003 A 
ATOM      5  C3  PXY d   1      -0.020   1.059  -0.145  0.00  0.00     0.003 A 
ATOM      6  C4  PXY d   1      -0.739  -0.019   0.297  0.00  0.00    -0.082 A 
ATOM      7  C5  PXY d   1      -0.200  -1.255   0.220  0.00  0.00     0.003 A 
ATOM      8  C6  PXY d   1       1.078  -1.405  -0.310  0.00  0.00     0.003 A 
ENDROOT
TORSDOF 0
ENDMDL
