MODEL 1
REMARK minimizedAffinity -4.46335745
REMARK minimizedRMSD -1
REMARK  0 active torsions:
REMARK  status: ('A' for Active; 'I' for Inactive)
ROOT
ATOM      1  C4' PXY d   1      -1.841   0.253   0.527  0.00  0.00     0.077 C 
ATOM      2  C1' PXY d   1       3.530  -0.726  -1.371  0.00  0.00     0.077 C 
ATOM      3  C1  PXY d   1       2.119  -0.482  -0.874  0.00  0.00    -0.082 A 
ATOM      4  C2  PXY d   1       1.582   0.722  -0.994  0.00  0.00     0.003 A 
ATOM      5  C3  PXY d   1       0.319   0.968  -0.521  0.00  0.00     0.003 A 
ATOM      6  C4  PXY d   1      -0.423  -0.042   0.031  0.00  0.00    -0.082 A 
ATOM      7  C5  PXY d   1       0.114  -1.275   0.147  0.00  0.00     0.003 A 
ATOM      8  C6  PXY d   1       1.413  -1.494  -0.301  0.00  0.00     0.003 A 
ENDROOT
TORSDOF 0
ENDMDL
