MODEL 1
REMARK minimizedAffinity -4.32344151
REMARK minimizedRMSD -1
REMARK  0 active torsions:
REMARK  status: ('A' for Active; 'I' for Inactive)
ROOT
ATOM      1  C4' PXY d   1      -1.326   0.030   0.823  0.00  0.00     0.077 C 
ATOM      2  C1' PXY d   1       3.729  -0.391  -1.950  0.00  0.00     0.077 C 
ATOM      3  C1  PXY d   1       2.398  -0.288  -1.231  0.00  0.00    -0.082 A 
ATOM      4  C2  PXY d   1       2.150   0.757  -0.459  0.00  0.00     0.003 A 
ATOM      5  C3  PXY d   1       0.964   0.850   0.224  0.00  0.00     0.003 A 
ATOM      6  C4  PXY d   1       0.000  -0.110   0.071  0.00  0.00    -0.082 A 
ATOM      7  C5  PXY d   1       0.241  -1.174  -0.724  0.00  0.00     0.003 A 
ATOM      8  C6  PXY d   1       1.467  -1.271  -1.375  0.00  0.00     0.003 A 
ENDROOT
TORSDOF 0
ENDMDL
