MODEL 1
REMARK minimizedAffinity -3.91516113
REMARK minimizedRMSD -1
REMARK  0 active torsions:
REMARK  status: ('A' for Active; 'I' for Inactive)
ROOT
ATOM      1  C4' PXY d   1      -1.756   0.220   0.528  0.00  0.00     0.077 C 
ATOM      2  C1' PXY d   1       3.638  -0.473  -1.431  0.00  0.00     0.077 C 
ATOM      3  C1  PXY d   1       2.221  -0.303  -0.923  0.00  0.00    -0.082 A 
ATOM      4  C2  PXY d   1       1.751   0.912  -0.687  0.00  0.00     0.003 A 
ATOM      5  C3  PXY d   1       0.482   1.082  -0.197  0.00  0.00     0.003 A 
ATOM      6  C4  PXY d   1      -0.333   0.001   0.005  0.00  0.00    -0.082 A 
ATOM      7  C5  PXY d   1       0.134  -1.241  -0.243  0.00  0.00     0.003 A 
ATOM      8  C6  PXY d   1       1.440  -1.395  -0.702  0.00  0.00     0.003 A 
ENDROOT
TORSDOF 0
ENDMDL
