MODEL 1
REMARK minimizedAffinity -3.16270733
REMARK minimizedRMSD -1
REMARK  0 active torsions:
REMARK  status: ('A' for Active; 'I' for Inactive)
ROOT
ATOM      1  C4' PXY d   1       3.069  -0.695  -1.400  0.00  0.00     0.077 C 
ATOM      2  C1' PXY d   1      -2.153  -0.257   1.040  0.00  0.00     0.077 C 
ATOM      3  C1  PXY d   1      -0.780  -0.380   0.409  0.00  0.00    -0.082 A 
ATOM      4  C2  PXY d   1      -0.314   0.605  -0.341  0.00  0.00     0.003 A 
ATOM      5  C3  PXY d   1       0.913   0.496  -0.945  0.00  0.00     0.003 A 
ATOM      6  C4  PXY d   1       1.693  -0.609  -0.736  0.00  0.00    -0.082 A 
ATOM      7  C5  PXY d   1       1.229  -1.614   0.037  0.00  0.00     0.003 A 
ATOM      8  C6  PXY d   1      -0.036  -1.502   0.608  0.00  0.00     0.003 A 
ENDROOT
TORSDOF 0
ENDMDL
