MODEL 1
REMARK minimizedAffinity -4.32775545
REMARK minimizedRMSD -1
REMARK  0 active torsions:
REMARK  status: ('A' for Active; 'I' for Inactive)
ROOT
ATOM      1  C4' PXY d   1      -1.718   0.435   1.106  0.00  0.00     0.077 C 
ATOM      2  C1' PXY d   1       3.268  -1.031  -1.425  0.00  0.00     0.077 C 
ATOM      3  C1  PXY d   1       1.964  -0.634  -0.761  0.00  0.00    -0.082 A 
ATOM      4  C2  PXY d   1       1.321  -1.510  -0.007  0.00  0.00     0.003 A 
ATOM      5  C3  PXY d   1       0.124  -1.178   0.574  0.00  0.00     0.003 A 
ATOM      6  C4  PXY d   1      -0.393   0.081   0.425  0.00  0.00    -0.082 A 
ATOM      7  C5  PXY d   1       0.263   0.984  -0.335  0.00  0.00     0.003 A 
ATOM      8  C6  PXY d   1       1.456   0.614  -0.949  0.00  0.00     0.003 A 
ENDROOT
TORSDOF 0
ENDMDL
