MODEL 1
REMARK minimizedAffinity -3.59614182
REMARK minimizedRMSD -1
REMARK  0 active torsions:
REMARK  status: ('A' for Active; 'I' for Inactive)
ROOT
ATOM      1  C4' PXY d   1      -1.542   0.229   1.073  0.00  0.00     0.077 C 
ATOM      2  C1' PXY d   1       3.401  -0.438  -1.848  0.00  0.00     0.077 C 
ATOM      3  C1  PXY d   1       2.102  -0.275  -1.085  0.00  0.00    -0.082 A 
ATOM      4  C2  PXY d   1       1.599   0.935  -0.899  0.00  0.00     0.003 A 
ATOM      5  C3  PXY d   1       0.441   1.103  -0.184  0.00  0.00     0.003 A 
ATOM      6  C4  PXY d   1      -0.237   0.016   0.301  0.00  0.00    -0.082 A 
ATOM      7  C5  PXY d   1       0.263  -1.222   0.106  0.00  0.00     0.003 A 
ATOM      8  C6  PXY d   1       1.461  -1.368  -0.587  0.00  0.00     0.003 A 
ENDROOT
TORSDOF 0
ENDMDL
