MODEL 1
REMARK minimizedAffinity -4.00765038
REMARK minimizedRMSD -1
REMARK  0 active torsions:
REMARK  status: ('A' for Active; 'I' for Inactive)
ROOT
ATOM      1  C4' PXY d   1       0.941   1.024  -0.705  0.00  0.00     0.077 C 
ATOM      2  C1' PXY d   1      -4.010  -0.069   2.071  0.00  0.00     0.077 C 
ATOM      3  C1  PXY d   1      -2.714   0.231   1.344  0.00  0.00    -0.082 A 
ATOM      4  C2  PXY d   1      -2.193  -0.677   0.535  0.00  0.00     0.003 A 
ATOM      5  C3  PXY d   1      -1.005  -0.436  -0.106  0.00  0.00     0.003 A 
ATOM      6  C4  PXY d   1      -0.371   0.769   0.042  0.00  0.00    -0.082 A 
ATOM      7  C5  PXY d   1      -0.901   1.704   0.858  0.00  0.00     0.003 A 
ATOM      8  C6  PXY d   1      -2.087   1.424   1.531  0.00  0.00     0.003 A 
ENDROOT
TORSDOF 0
ENDMDL
