MODEL 1
REMARK minimizedAffinity 2.53661609
REMARK minimizedRMSD -1
REMARK  0 active torsions:
REMARK  status: ('A' for Active; 'I' for Inactive)
ROOT
ATOM      1  C   UNL d   1      -4.535   1.414  -4.841  0.00  0.00     0.077 C 
ATOM      2  C1  UNL d   1      -3.992   0.857  -3.559  0.00  0.00    -0.074 A 
ATOM      3  C2  UNL d   1      -2.622   0.894  -3.282  0.00  0.00    -0.005 A 
ATOM      4  C3  UNL d   1      -2.133   0.381  -2.081  0.00  0.00     0.006 A 
ATOM      5  C4  UNL d   1      -3.008  -0.174  -1.146  0.00  0.00    -0.005 A 
ATOM      6  C5  UNL d   1      -4.381  -0.219  -1.405  0.00  0.00    -0.074 A 
ATOM      7  C6  UNL d   1      -5.336  -0.804  -0.407  0.00  0.00     0.077 C 
ATOM      8  C7  UNL d   1      -4.866   0.305  -2.611  0.00  0.00    -0.001 A 
ENDROOT
TORSDOF 0
ENDMDL
