MODEL 1
REMARK minimizedAffinity 5.13843966
REMARK minimizedRMSD -1
REMARK  0 active torsions:
REMARK  status: ('A' for Active; 'I' for Inactive)
ROOT
ATOM      1  C   UNL d   1      -0.875   1.000  -0.725  0.00  0.00     0.077 C 
ATOM      2  C1  UNL d   1      -2.191   1.719  -0.710  0.00  0.00    -0.074 A 
ATOM      3  C2  UNL d   1      -2.281   3.045  -0.273  0.00  0.00    -0.005 A 
ATOM      4  C3  UNL d   1      -3.510   3.704  -0.274  0.00  0.00     0.006 A 
ATOM      5  C4  UNL d   1      -4.660   3.046  -0.712  0.00  0.00    -0.005 A 
ATOM      6  C5  UNL d   1      -4.590   1.721  -1.153  0.00  0.00    -0.074 A 
ATOM      7  C6  UNL d   1      -5.814   1.002  -1.636  0.00  0.00     0.077 C 
ATOM      8  C7  UNL d   1      -3.350   1.068  -1.156  0.00  0.00    -0.001 A 
ENDROOT
TORSDOF 0
ENDMDL
