MODEL 1
REMARK minimizedAffinity 8.50504112
REMARK minimizedRMSD -1
REMARK  0 active torsions:
REMARK  status: ('A' for Active; 'I' for Inactive)
ROOT
ATOM      1  C   UNL d   1      -5.546   3.408  -1.336  0.00  0.00     0.077 C 
ATOM      2  C1  UNL d   1      -4.747   2.172  -1.625  0.00  0.00    -0.074 A 
ATOM      3  C2  UNL d   1      -5.020   0.969  -0.967  0.00  0.00    -0.005 A 
ATOM      4  C3  UNL d   1      -4.274  -0.175  -1.253  0.00  0.00     0.006 A 
ATOM      5  C4  UNL d   1      -3.249  -0.127  -2.199  0.00  0.00    -0.005 A 
ATOM      6  C5  UNL d   1      -2.962   1.068  -2.867  0.00  0.00    -0.074 A 
ATOM      7  C6  UNL d   1      -1.870   1.134  -3.893  0.00  0.00     0.077 C 
ATOM      8  C7  UNL d   1      -3.720   2.211  -2.579  0.00  0.00    -0.001 A 
ENDROOT
TORSDOF 0
ENDMDL
