MODEL 1
REMARK minimizedAffinity 1.44542825
REMARK minimizedRMSD -1
REMARK  0 active torsions:
REMARK  status: ('A' for Active; 'I' for Inactive)
ROOT
ATOM      1  C   UNL d   1       2.708   0.554   0.053  0.00  0.00     0.077 C 
ATOM      2  C1  UNL d   1       1.378   0.703   0.731  0.00  0.00    -0.074 A 
ATOM      3  C2  UNL d   1       1.079  -0.017   1.892  0.00  0.00    -0.005 A 
ATOM      4  C3  UNL d   1      -0.159   0.139   2.516  0.00  0.00     0.006 A 
ATOM      5  C4  UNL d   1      -1.107   1.015   1.987  0.00  0.00    -0.005 A 
ATOM      6  C5  UNL d   1      -0.825   1.744   0.828  0.00  0.00    -0.074 A 
ATOM      7  C6  UNL d   1      -1.830   2.697   0.251  0.00  0.00     0.077 C 
ATOM      8  C7  UNL d   1       0.423   1.587   0.210  0.00  0.00    -0.001 A 
ENDROOT
TORSDOF 0
ENDMDL
