MODEL 1
REMARK minimizedAffinity 0.233796999
REMARK minimizedRMSD -1
REMARK  0 active torsions:
REMARK  status: ('A' for Active; 'I' for Inactive)
ROOT
ATOM      1  C   UNL d   1       2.761   0.516   0.397  0.00  0.00     0.077 C 
ATOM      2  C1  UNL d   1       1.364   0.638   0.928  0.00  0.00    -0.074 A 
ATOM      3  C2  UNL d   1       1.071   0.321   2.259  0.00  0.00    -0.005 A 
ATOM      4  C3  UNL d   1      -0.232   0.449   2.741  0.00  0.00     0.006 A 
ATOM      5  C4  UNL d   1      -1.252   0.894   1.900  0.00  0.00    -0.005 A 
ATOM      6  C5  UNL d   1      -0.977   1.217   0.567  0.00  0.00    -0.074 A 
ATOM      7  C6  UNL d   1      -2.061   1.706  -0.348  0.00  0.00     0.077 C 
ATOM      8  C7  UNL d   1       0.335   1.092   0.092  0.00  0.00    -0.001 A 
ENDROOT
TORSDOF 0
ENDMDL
