MODEL 1
REMARK minimizedAffinity 4.09802341
REMARK minimizedRMSD -1
REMARK  0 active torsions:
REMARK  status: ('A' for Active; 'I' for Inactive)
ROOT
ATOM      1  C   UNL d   1       2.786  -3.116  -0.108  0.00  0.00     0.077 C 
ATOM      2  C1  UNL d   1       2.839  -1.618  -0.160  0.00  0.00    -0.074 A 
ATOM      3  C2  UNL d   1       4.021  -0.952  -0.498  0.00  0.00    -0.005 A 
ATOM      4  C3  UNL d   1       4.053   0.441  -0.552  0.00  0.00     0.006 A 
ATOM      5  C4  UNL d   1       2.904   1.181  -0.268  0.00  0.00    -0.005 A 
ATOM      6  C5  UNL d   1       1.713   0.533   0.072  0.00  0.00    -0.074 A 
ATOM      7  C6  UNL d   1       0.467   1.313   0.371  0.00  0.00     0.077 C 
ATOM      8  C7  UNL d   1       1.687  -0.868   0.117  0.00  0.00    -0.001 A 
ENDROOT
TORSDOF 0
ENDMDL
