MODEL 1
REMARK minimizedAffinity 7.43002748
REMARK minimizedRMSD -1
REMARK  0 active torsions:
REMARK  status: ('A' for Active; 'I' for Inactive)
ROOT
ATOM      1  C   UNL d   1       1.275  -0.724   1.689  0.00  0.00     0.077 C 
ATOM      2  C1  UNL d   1       2.324  -0.822   0.622  0.00  0.00    -0.074 A 
ATOM      3  C2  UNL d   1       3.258   0.203   0.435  0.00  0.00    -0.005 A 
ATOM      4  C3  UNL d   1       4.233   0.094  -0.556  0.00  0.00     0.006 A 
ATOM      5  C4  UNL d   1       4.285  -1.040  -1.369  0.00  0.00    -0.005 A 
ATOM      6  C5  UNL d   1       3.360  -2.075  -1.196  0.00  0.00    -0.074 A 
ATOM      7  C6  UNL d   1       3.408  -3.304  -2.055  0.00  0.00     0.077 C 
ATOM      8  C7  UNL d   1       2.388  -1.960  -0.194  0.00  0.00    -0.001 A 
ENDROOT
TORSDOF 0
ENDMDL
