MODEL 1
REMARK minimizedAffinity -5.73894024
REMARK minimizedRMSD -1
REMARK  3 active torsions:
REMARK  status: ('A' for Active; 'I' for Inactive)
REMARK    1  A    between atoms: C3'_2  and  C2'_3 
REMARK    2  A    between atoms: C2'_3  and  C1'_4 
REMARK    3  A    between atoms: C1'_4  and  C1_5 
ROOT
ATOM      1  C1  N4B d   1       0.012   0.158  -0.814  0.00  0.00    -0.075 A 
ATOM      2  C2  N4B d   1      -1.352   0.509  -0.909  0.00  0.00     0.002 A 
ATOM      3  C3  N4B d   1      -2.220   0.173   0.101  0.00  0.00     0.002 A 
ATOM      4  C4  N4B d   1      -1.752  -0.528   1.202  0.00  0.00    -0.004 A 
ATOM      5  C5  N4B d   1      -0.427  -0.842   1.298  0.00  0.00     0.002 A 
ATOM      6  C6  N4B d   1       0.457  -0.506   0.292  0.00  0.00     0.002 A 
ENDROOT
BRANCH   1   7
ATOM      7  C1' N4B d   1       0.982   0.429  -1.932  0.00  0.00     0.057 C 
BRANCH   7   8
ATOM      8  C2' N4B d   1       0.941  -0.732  -2.922  0.00  0.00     0.009 C 
BRANCH   8   9
ATOM      9  C3' N4B d   1       2.152  -0.738  -3.840  0.00  0.00     0.004 C 
ATOM     10  C4' N4B d   1       2.931   0.542  -3.782  0.00  0.00     0.003 C 
ENDBRANCH   8   9
ENDBRANCH   7   8
ENDBRANCH   1   7
TORSDOF 3
ENDMDL
