MODEL 1
REMARK minimizedAffinity -4.05702734
REMARK minimizedRMSD -1
REMARK  3 active torsions:
REMARK  status: ('A' for Active; 'I' for Inactive)
REMARK    1  A    between atoms: C3'_2  and  C2'_3 
REMARK    2  A    between atoms: C2'_3  and  C1'_4 
REMARK    3  A    between atoms: C1'_4  and  C1_5 
ROOT
ATOM      1  C1  N4B d   1      -0.182   0.327  -0.036  0.00  0.00    -0.075 A 
ATOM      2  C2  N4B d   1       1.026   0.128   0.668  0.00  0.00     0.002 A 
ATOM      3  C3  N4B d   1       1.017   0.056   2.040  0.00  0.00     0.002 A 
ATOM      4  C4  N4B d   1      -0.179   0.199   2.727  0.00  0.00    -0.004 A 
ATOM      5  C5  N4B d   1      -1.345   0.365   2.038  0.00  0.00     0.002 A 
ATOM      6  C6  N4B d   1      -1.352   0.435   0.659  0.00  0.00     0.002 A 
ENDROOT
BRANCH   1   7
ATOM      7  C1' N4B d   1      -0.212   0.498  -1.530  0.00  0.00     0.057 C 
BRANCH   7   8
ATOM      8  C2' N4B d   1       0.024  -0.856  -2.194  0.00  0.00     0.009 C 
BRANCH   8   9
ATOM      9  C3' N4B d   1       1.310  -0.875  -3.003  0.00  0.00     0.004 C 
ATOM     10  C4' N4B d   1       1.980   0.465  -3.061  0.00  0.00     0.003 C 
ENDBRANCH   8   9
ENDBRANCH   7   8
ENDBRANCH   1   7
TORSDOF 3
ENDMDL
