MODEL 1
REMARK minimizedAffinity -4.9666934
REMARK minimizedRMSD -1
REMARK  3 active torsions:
REMARK  status: ('A' for Active; 'I' for Inactive)
REMARK    1  A    between atoms: C3'_2  and  C2'_3 
REMARK    2  A    between atoms: C2'_3  and  C1'_4 
REMARK    3  A    between atoms: C1'_4  and  C1_5 
ROOT
ATOM      1  C1  N4B d   1      -0.194   0.192   0.293  0.00  0.00    -0.075 A 
ATOM      2  C2  N4B d   1      -1.566   0.160   0.629  0.00  0.00     0.002 A 
ATOM      3  C3  N4B d   1      -1.949  -0.097   1.923  0.00  0.00     0.002 A 
ATOM      4  C4  N4B d   1      -0.985  -0.342   2.889  0.00  0.00    -0.004 A 
ATOM      5  C5  N4B d   1       0.338  -0.284   2.561  0.00  0.00     0.002 A 
ATOM      6  C6  N4B d   1       0.739  -0.023   1.266  0.00  0.00     0.002 A 
ENDROOT
BRANCH   1   7
ATOM      7  C1' N4B d   1       0.272   0.384  -1.124  0.00  0.00     0.057 C 
BRANCH   7   8
ATOM      8  C2' N4B d   1       1.071  -0.841  -1.559  0.00  0.00     0.009 C 
BRANCH   8   9
ATOM      9  C3' N4B d   1       1.101  -0.994  -3.070  0.00  0.00     0.004 C 
ATOM     10  C4' N4B d   1       1.620  -2.331  -3.508  0.00  0.00     0.003 C 
ENDBRANCH   8   9
ENDBRANCH   7   8
ENDBRANCH   1   7
TORSDOF 3
ENDMDL
