MODEL 1
REMARK minimizedAffinity -2.73843813
REMARK minimizedRMSD -1
REMARK  3 active torsions:
REMARK  status: ('A' for Active; 'I' for Inactive)
REMARK    1  A    between atoms: C3'_2  and  C2'_3 
REMARK    2  A    between atoms: C2'_3  and  C1'_4 
REMARK    3  A    between atoms: C1'_4  and  C1_5 
ROOT
ATOM      1  C1  N4B d   1       0.144   0.403  -0.189  0.00  0.00    -0.075 A 
ATOM      2  C2  N4B d   1      -0.895  -0.033   0.663  0.00  0.00     0.002 A 
ATOM      3  C3  N4B d   1      -0.668  -0.162   2.011  0.00  0.00     0.002 A 
ATOM      4  C4  N4B d   1       0.589   0.120   2.526  0.00  0.00    -0.004 A 
ATOM      5  C5  N4B d   1       1.579   0.564   1.700  0.00  0.00     0.002 A 
ATOM      6  C6  N4B d   1       1.365   0.702   0.343  0.00  0.00     0.002 A 
ENDROOT
BRANCH   1   7
ATOM      7  C1' N4B d   1      -0.031   0.476  -1.681  0.00  0.00     0.057 C 
BRANCH   7   8
ATOM      8  C2' N4B d   1       1.340   0.428  -2.349  0.00  0.00     0.009 C 
BRANCH   8   9
ATOM      9  C3' N4B d   1       1.374  -0.558  -3.505  0.00  0.00     0.004 C 
ATOM     10  C4' N4B d   1       0.130  -1.390  -3.595  0.00  0.00     0.003 C 
ENDBRANCH   8   9
ENDBRANCH   7   8
ENDBRANCH   1   7
TORSDOF 3
ENDMDL
