MODEL 1
REMARK minimizedAffinity -6.51747847
REMARK minimizedRMSD -1
REMARK  3 active torsions:
REMARK  status: ('A' for Active; 'I' for Inactive)
REMARK    1  A    between atoms: C3'_2  and  C2'_3 
REMARK    2  A    between atoms: C2'_3  and  C1'_4 
REMARK    3  A    between atoms: C1'_4  and  C1_5 
ROOT
ATOM      1  C1  N4B d   1      -0.234   0.115   0.365  0.00  0.00    -0.075 A 
ATOM      2  C2  N4B d   1       0.977   0.130   1.092  0.00  0.00     0.002 A 
ATOM      3  C3  N4B d   1       0.982  -0.210   2.423  0.00  0.00     0.002 A 
ATOM      4  C4  N4B d   1      -0.208  -0.549   3.049  0.00  0.00    -0.004 A 
ATOM      5  C5  N4B d   1      -1.368  -0.586   2.333  0.00  0.00     0.002 A 
ATOM      6  C6  N4B d   1      -1.388  -0.250   0.994  0.00  0.00     0.002 A 
ENDROOT
BRANCH   1   7
ATOM      7  C1' N4B d   1      -0.303   0.563  -1.070  0.00  0.00     0.057 C 
BRANCH   7   8
ATOM      8  C2' N4B d   1       0.859  -0.053  -1.843  0.00  0.00     0.009 C 
BRANCH   8   9
ATOM      9  C3' N4B d   1       0.386  -1.079  -2.858  0.00  0.00     0.004 C 
ATOM     10  C4' N4B d   1       1.517  -1.831  -3.494  0.00  0.00     0.003 C 
ENDBRANCH   8   9
ENDBRANCH   7   8
ENDBRANCH   1   7
TORSDOF 3
ENDMDL
