MODEL 1
REMARK minimizedAffinity -6.57736158
REMARK minimizedRMSD -1
REMARK  3 active torsions:
REMARK  status: ('A' for Active; 'I' for Inactive)
REMARK    1  A    between atoms: C3'_2  and  C2'_3 
REMARK    2  A    between atoms: C2'_3  and  C1'_4 
REMARK    3  A    between atoms: C1'_4  and  C1_5 
ROOT
ATOM      1  C1  N4B d   1      -0.857   0.410   0.030  0.00  0.00    -0.075 A 
ATOM      2  C2  N4B d   1      -1.954   0.465   0.917  0.00  0.00     0.002 A 
ATOM      3  C3  N4B d   1      -1.740   0.507   2.273  0.00  0.00     0.002 A 
ATOM      4  C4  N4B d   1      -0.443   0.475   2.763  0.00  0.00    -0.004 A 
ATOM      5  C5  N4B d   1       0.612   0.447   1.899  0.00  0.00     0.002 A 
ATOM      6  C6  N4B d   1       0.412   0.410   0.534  0.00  0.00     0.002 A 
ENDROOT
BRANCH   1   7
ATOM      7  C1' N4B d   1      -1.043   0.277  -1.457  0.00  0.00     0.057 C 
BRANCH   7   8
ATOM      8  C2' N4B d   1       0.262  -0.204  -2.084  0.00  0.00     0.009 C 
BRANCH   8   9
ATOM      9  C3' N4B d   1       0.018  -1.146  -3.251  0.00  0.00     0.004 C 
ATOM     10  C4' N4B d   1       1.116  -1.103  -4.271  0.00  0.00     0.003 C 
ENDBRANCH   8   9
ENDBRANCH   7   8
ENDBRANCH   1   7
TORSDOF 3
ENDMDL
