MODEL 1
REMARK minimizedAffinity -5.75457335
REMARK minimizedRMSD -1
REMARK  3 active torsions:
REMARK  status: ('A' for Active; 'I' for Inactive)
REMARK    1  A    between atoms: C3'_2  and  C2'_3 
REMARK    2  A    between atoms: C2'_3  and  C1'_4 
REMARK    3  A    between atoms: C1'_4  and  C1_5 
ROOT
ATOM      1  C1  N4B d   1      -0.045  -0.231   0.264  0.00  0.00    -0.075 A 
ATOM      2  C2  N4B d   1      -1.423  -0.405   0.521  0.00  0.00     0.002 A 
ATOM      3  C3  N4B d   1      -1.868  -0.542   1.812  0.00  0.00     0.002 A 
ATOM      4  C4  N4B d   1      -0.956  -0.528   2.857  0.00  0.00    -0.004 A 
ATOM      5  C5  N4B d   1       0.370  -0.334   2.602  0.00  0.00     0.002 A 
ATOM      6  C6  N4B d   1       0.831  -0.190   1.309  0.00  0.00     0.002 A 
ENDROOT
BRANCH   1   7
ATOM      7  C1' N4B d   1       0.499  -0.162  -1.137  0.00  0.00     0.057 C 
BRANCH   7   8
ATOM      8  C2' N4B d   1      -0.508  -0.790  -2.097  0.00  0.00     0.009 C 
BRANCH   8   9
ATOM      9  C3' N4B d   1       0.143  -1.811  -3.015  0.00  0.00     0.004 C 
ATOM     10  C4' N4B d   1       1.262  -1.232  -3.827  0.00  0.00     0.003 C 
ENDBRANCH   8   9
ENDBRANCH   7   8
ENDBRANCH   1   7
TORSDOF 3
ENDMDL
