MODEL 1
REMARK minimizedAffinity -1.19474912
REMARK minimizedRMSD -1
REMARK  3 active torsions:
REMARK  status: ('A' for Active; 'I' for Inactive)
REMARK    1  A    between atoms: C3'_2  and  C2'_3 
REMARK    2  A    between atoms: C2'_3  and  C1'_4 
REMARK    3  A    between atoms: C1'_4  and  C1_5 
ROOT
ATOM      1  C1  N4B d   1       0.110   0.469  -1.602  0.00  0.00    -0.075 A 
ATOM      2  C2  N4B d   1      -1.245   0.721  -1.293  0.00  0.00     0.002 A 
ATOM      3  C3  N4B d   1      -1.653   0.770   0.017  0.00  0.00     0.002 A 
ATOM      4  C4  N4B d   1      -0.732   0.553   1.031  0.00  0.00    -0.004 A 
ATOM      5  C5  N4B d   1       0.579   0.336   0.725  0.00  0.00     0.002 A 
ATOM      6  C6  N4B d   1       1.004   0.288  -0.587  0.00  0.00     0.002 A 
ENDROOT
BRANCH   1   7
ATOM      7  C1' N4B d   1       0.587   0.321  -3.021  0.00  0.00     0.057 C 
BRANCH   7   8
ATOM      8  C2' N4B d   1       1.841  -0.548  -3.039  0.00  0.00     0.009 C 
BRANCH   8   9
ATOM      9  C3' N4B d   1       1.528  -1.990  -3.399  0.00  0.00     0.004 C 
ATOM     10  C4' N4B d   1       0.199  -2.144  -4.078  0.00  0.00     0.003 C 
ENDBRANCH   8   9
ENDBRANCH   7   8
ENDBRANCH   1   7
TORSDOF 3
ENDMDL
