MODEL 1
REMARK minimizedAffinity -1.05217493
REMARK minimizedRMSD -1
REMARK  1 active torsions:
REMARK  status: ('A' for Active; 'I' for Inactive)
REMARK    1  A    between atoms: C3_4  and  O_7 
ROOT
ATOM      1  C   UNL d   1       0.757  -1.403   0.299  0.00  0.00    -0.033 A 
ATOM      2  C1  UNL d   1      -0.432  -0.694   0.116  0.00  0.00     0.039 A 
ATOM      3  C2  UNL d   1      -0.400   0.688  -0.076  0.00  0.00    -0.080 A 
ATOM      4  C3  UNL d   1       0.826   1.349  -0.084  0.00  0.00     0.150 A 
ATOM      5  C4  UNL d   1       2.014   0.648   0.093  0.00  0.00    -0.007 A 
ATOM      6  C5  UNL d   1       1.980  -0.733   0.286  0.00  0.00     0.039 A 
ENDROOT
BRANCH   4   7
ATOM      7  O   UNL d   1       0.907   2.698  -0.263  0.00  0.00    -0.526 OA
ATOM      8  H5  UNL d   1       0.006   3.052  -0.344  0.00  0.00     0.418 HD
ENDBRANCH   4   7
TORSDOF 1
ENDMDL
