MODEL 1
REMARK minimizedAffinity -0.119961902
REMARK minimizedRMSD -1
REMARK  1 active torsions:
REMARK  status: ('A' for Active; 'I' for Inactive)
REMARK    1  A    between atoms: C3_4  and  O_7 
ROOT
ATOM      1  C   UNL d   1      -0.735  -4.095  -2.643  0.00  0.00    -0.033 A 
ATOM      2  C1  UNL d   1      -1.446  -3.812  -1.475  0.00  0.00     0.039 A 
ATOM      3  C2  UNL d   1      -0.913  -2.939  -0.525  0.00  0.00    -0.080 A 
ATOM      4  C3  UNL d   1       0.330  -2.356  -0.755  0.00  0.00     0.150 A 
ATOM      5  C4  UNL d   1       1.042  -2.630  -1.918  0.00  0.00    -0.007 A 
ATOM      6  C5  UNL d   1       0.509  -3.503  -2.865  0.00  0.00     0.039 A 
ENDROOT
BRANCH   4   7
ATOM      7  O   UNL d   1       0.894  -1.502   0.146  0.00  0.00    -0.526 OA
ATOM      8  H5  UNL d   1       0.302  -1.429   0.913  0.00  0.00     0.418 HD
ENDBRANCH   4   7
TORSDOF 1
ENDMDL
