MODEL 1
REMARK minimizedAffinity -2.32257009
REMARK minimizedRMSD -1
REMARK  1 active torsions:
REMARK  status: ('A' for Active; 'I' for Inactive)
REMARK    1  A    between atoms: C3_4  and  O_7 
ROOT
ATOM      1  C   UNL d   1      -1.117  -3.769  -1.909  0.00  0.00    -0.033 A 
ATOM      2  C1  UNL d   1       0.051  -3.314  -2.524  0.00  0.00     0.039 A 
ATOM      3  C2  UNL d   1       0.864  -2.381  -1.878  0.00  0.00    -0.080 A 
ATOM      4  C3  UNL d   1       0.500  -1.914  -0.618  0.00  0.00     0.150 A 
ATOM      5  C4  UNL d   1      -0.660  -2.366   0.002  0.00  0.00    -0.007 A 
ATOM      6  C5  UNL d   1      -1.472  -3.296  -0.645  0.00  0.00     0.039 A 
ENDROOT
BRANCH   4   7
ATOM      7  O   UNL d   1       1.260  -1.000   0.050  0.00  0.00    -0.526 OA
ATOM      8  H5  UNL d   1       2.015  -0.757  -0.512  0.00  0.00     0.418 HD
ENDBRANCH   4   7
TORSDOF 1
ENDMDL
