MODEL 1
REMARK minimizedAffinity -5.32966328
REMARK minimizedRMSD -1
REMARK  1 active torsions:
REMARK  status: ('A' for Active; 'I' for Inactive)
REMARK    1  A    between atoms: C3_4  and  O_7 
ROOT
ATOM      1  C   UNL d   1       0.412  -0.166   0.085  0.00  0.00    -0.033 A 
ATOM      2  C1  UNL d   1      -0.931   0.202  -0.018  0.00  0.00     0.039 A 
ATOM      3  C2  UNL d   1      -1.286   1.552  -0.054  0.00  0.00    -0.080 A 
ATOM      4  C3  UNL d   1      -0.289   2.522   0.013  0.00  0.00     0.150 A 
ATOM      5  C4  UNL d   1       1.051   2.162   0.112  0.00  0.00    -0.007 A 
ATOM      6  C5  UNL d   1       1.403   0.814   0.149  0.00  0.00     0.039 A 
ENDROOT
BRANCH   4   7
ATOM      7  O   UNL d   1      -0.587   3.853  -0.013  0.00  0.00    -0.526 OA
ATOM      8  H5  UNL d   1      -1.553   3.951  -0.055  0.00  0.00     0.418 HD
ENDBRANCH   4   7
TORSDOF 1
ENDMDL
