MODEL 1
REMARK minimizedAffinity -0.343053997
REMARK minimizedRMSD -1
REMARK  1 active torsions:
REMARK  status: ('A' for Active; 'I' for Inactive)
REMARK    1  A    between atoms: C3_4  and  O_7 
ROOT
ATOM      1  C   UNL d   1       1.932   3.521   1.659  0.00  0.00    -0.033 A 
ATOM      2  C1  UNL d   1       0.542   3.531   1.522  0.00  0.00     0.039 A 
ATOM      3  C2  UNL d   1      -0.127   2.384   1.089  0.00  0.00    -0.080 A 
ATOM      4  C3  UNL d   1       0.604   1.236   0.797  0.00  0.00     0.150 A 
ATOM      5  C4  UNL d   1       1.988   1.218   0.935  0.00  0.00    -0.007 A 
ATOM      6  C5  UNL d   1       2.655   2.364   1.366  0.00  0.00     0.039 A 
ENDROOT
BRANCH   4   7
ATOM      7  O   UNL d   1      -0.004   0.095   0.366  0.00  0.00    -0.526 OA
ATOM      8  H5  UNL d   1      -0.958   0.264   0.291  0.00  0.00     0.418 HD
ENDBRANCH   4   7
TORSDOF 1
ENDMDL
