MODEL 1
REMARK minimizedAffinity -0.401396871
REMARK minimizedRMSD -1
REMARK  1 active torsions:
REMARK  status: ('A' for Active; 'I' for Inactive)
REMARK    1  A    between atoms: C3_4  and  O_7 
ROOT
ATOM      1  C   UNL d   1      -0.112  -3.204  -2.753  0.00  0.00    -0.033 A 
ATOM      2  C1  UNL d   1       0.378  -3.233  -1.446  0.00  0.00     0.039 A 
ATOM      3  C2  UNL d   1      -0.480  -3.520  -0.383  0.00  0.00    -0.080 A 
ATOM      4  C3  UNL d   1      -1.824  -3.778  -0.640  0.00  0.00     0.150 A 
ATOM      5  C4  UNL d   1      -2.318  -3.754  -1.939  0.00  0.00    -0.007 A 
ATOM      6  C5  UNL d   1      -1.460  -3.466  -3.000  0.00  0.00     0.039 A 
ENDROOT
BRANCH   4   7
ATOM      7  O   UNL d   1      -2.700  -4.059   0.366  0.00  0.00    -0.526 OA
ATOM      8  H5  UNL d   1      -2.224  -4.012   1.212  0.00  0.00     0.418 HD
ENDBRANCH   4   7
TORSDOF 1
ENDMDL
