MODEL 1
REMARK minimizedAffinity -4.11178064
REMARK minimizedRMSD -1
REMARK  1 active torsions:
REMARK  status: ('A' for Active; 'I' for Inactive)
REMARK    1  A    between atoms: C3_4  and  O_7 
ROOT
ATOM      1  C   UNL d   1      -0.193   3.022  -0.020  0.00  0.00    -0.033 A 
ATOM      2  C1  UNL d   1      -1.159   2.313   0.697  0.00  0.00     0.039 A 
ATOM      3  C2  UNL d   1      -1.096   0.921   0.769  0.00  0.00    -0.080 A 
ATOM      4  C3  UNL d   1      -0.063   0.249   0.121  0.00  0.00     0.150 A 
ATOM      5  C4  UNL d   1       0.906   0.948  -0.592  0.00  0.00    -0.007 A 
ATOM      6  C5  UNL d   1       0.840   2.339  -0.663  0.00  0.00     0.039 A 
ENDROOT
BRANCH   4   7
ATOM      7  O   UNL d   1       0.038  -1.110   0.159  0.00  0.00    -0.526 OA
ATOM      8  H5  UNL d   1      -0.715  -1.460   0.663  0.00  0.00     0.418 HD
ENDBRANCH   4   7
TORSDOF 1
ENDMDL
