MODEL 1
REMARK minimizedAffinity -2.66065145
REMARK minimizedRMSD -1
REMARK  1 active torsions:
REMARK  status: ('A' for Active; 'I' for Inactive)
REMARK    1  A    between atoms: C3_4  and  O_7 
ROOT
ATOM      1  C   UNL d   1       0.019   0.543  -0.224  0.00  0.00    -0.033 A 
ATOM      2  C1  UNL d   1      -1.181   0.236   0.420  0.00  0.00     0.039 A 
ATOM      3  C2  UNL d   1      -1.764   1.158   1.292  0.00  0.00    -0.080 A 
ATOM      4  C3  UNL d   1      -1.137   2.382   1.510  0.00  0.00     0.150 A 
ATOM      5  C4  UNL d   1       0.056   2.696   0.868  0.00  0.00    -0.007 A 
ATOM      6  C5  UNL d   1       0.637   1.774  -0.001  0.00  0.00     0.039 A 
ENDROOT
BRANCH   4   7
ATOM      7  O   UNL d   1      -1.665   3.312   2.356  0.00  0.00    -0.526 OA
ATOM      8  H5  UNL d   1      -2.475   2.946   2.749  0.00  0.00     0.418 HD
ENDBRANCH   4   7
TORSDOF 1
ENDMDL
