MODEL 1
REMARK minimizedAffinity -4.98155212
REMARK minimizedRMSD -1
REMARK  1 active torsions:
REMARK  status: ('A' for Active; 'I' for Inactive)
REMARK    1  A    between atoms: C3_4  and  O_7 
ROOT
ATOM      1  C   UNL d   1       0.050   3.317   0.236  0.00  0.00    -0.033 A 
ATOM      2  C1  UNL d   1      -1.074   2.837   0.911  0.00  0.00     0.039 A 
ATOM      3  C2  UNL d   1      -1.370   1.472   0.895  0.00  0.00    -0.080 A 
ATOM      4  C3  UNL d   1      -0.536   0.600   0.201  0.00  0.00     0.150 A 
ATOM      5  C4  UNL d   1       0.588   1.071  -0.470  0.00  0.00    -0.007 A 
ATOM      6  C5  UNL d   1       0.881   2.434  -0.454  0.00  0.00     0.039 A 
ENDROOT
BRANCH   4   7
ATOM      7  O   UNL d   1      -0.787  -0.739   0.152  0.00  0.00    -0.526 OA
ATOM      8  H5  UNL d   1      -1.611  -0.915   0.637  0.00  0.00     0.418 HD
ENDBRANCH   4   7
TORSDOF 1
ENDMDL
