MODEL 1
REMARK minimizedAffinity -2.04438329
REMARK minimizedRMSD -1
REMARK  1 active torsions:
REMARK  status: ('A' for Active; 'I' for Inactive)
REMARK    1  A    between atoms: C3_4  and  O_7 
ROOT
ATOM      1  C   UNL d   1       0.401  -2.423  -1.418  0.00  0.00    -0.033 A 
ATOM      2  C1  UNL d   1      -0.246  -2.721  -2.619  0.00  0.00     0.039 A 
ATOM      3  C2  UNL d   1      -1.554  -3.211  -2.606  0.00  0.00    -0.080 A 
ATOM      4  C3  UNL d   1      -2.203  -3.395  -1.388  0.00  0.00     0.150 A 
ATOM      5  C4  UNL d   1      -1.565  -3.095  -0.189  0.00  0.00    -0.007 A 
ATOM      6  C5  UNL d   1      -0.259  -2.608  -0.203  0.00  0.00     0.039 A 
ENDROOT
BRANCH   4   7
ATOM      7  O   UNL d   1      -3.477  -3.874  -1.325  0.00  0.00    -0.526 OA
ATOM      8  H5  UNL d   1      -3.780  -4.064  -2.229  0.00  0.00     0.418 HD
ENDBRANCH   4   7
TORSDOF 1
ENDMDL
