MODEL 1
REMARK minimizedAffinity -4.4074955
REMARK minimizedRMSD -1
REMARK  1 active torsions:
REMARK  status: ('A' for Active; 'I' for Inactive)
REMARK    1  A    between atoms: C3_4  and  O_7 
ROOT
ATOM      1  C   UNL d   1       1.937   0.629   0.897  0.00  0.00    -0.033 A 
ATOM      2  C1  UNL d   1       1.896   1.963   1.306  0.00  0.00     0.039 A 
ATOM      3  C2  UNL d   1       0.678   2.645   1.348  0.00  0.00    -0.080 A 
ATOM      4  C3  UNL d   1      -0.490   1.981   0.980  0.00  0.00     0.150 A 
ATOM      5  C4  UNL d   1      -0.456   0.651   0.576  0.00  0.00    -0.007 A 
ATOM      6  C5  UNL d   1       0.761  -0.028   0.534  0.00  0.00     0.039 A 
ENDROOT
BRANCH   4   7
ATOM      7  O   UNL d   1      -1.701   2.606   1.000  0.00  0.00    -0.526 OA
ATOM      8  H5  UNL d   1      -1.567   3.530   1.272  0.00  0.00     0.418 HD
ENDBRANCH   4   7
TORSDOF 1
ENDMDL
