MODEL 1
REMARK minimizedAffinity -3.34626222
REMARK minimizedRMSD -1
REMARK  1 active torsions:
REMARK  status: ('A' for Active; 'I' for Inactive)
REMARK    1  A    between atoms: C3_4  and  O_7 
ROOT
ATOM      1  C   UNL d   1      -1.243  -4.520  -1.781  0.00  0.00    -0.033 A 
ATOM      2  C1  UNL d   1       0.056  -4.029  -1.924  0.00  0.00     0.039 A 
ATOM      3  C2  UNL d   1       0.437  -2.853  -1.275  0.00  0.00    -0.080 A 
ATOM      4  C3  UNL d   1      -0.490  -2.179  -0.485  0.00  0.00     0.150 A 
ATOM      5  C4  UNL d   1      -1.785  -2.663  -0.334  0.00  0.00    -0.007 A 
ATOM      6  C5  UNL d   1      -2.164  -3.837  -0.985  0.00  0.00     0.039 A 
ENDROOT
BRANCH   4   7
ATOM      7  O   UNL d   1      -0.167  -1.025   0.165  0.00  0.00    -0.526 OA
ATOM      8  H5  UNL d   1       0.751  -0.795  -0.055  0.00  0.00     0.418 HD
ENDBRANCH   4   7
TORSDOF 1
ENDMDL
