MODEL 1
REMARK minimizedAffinity -5.39089155
REMARK minimizedRMSD -1
REMARK  1 active torsions:
REMARK  status: ('A' for Active; 'I' for Inactive)
REMARK    1  A    between atoms: C3_4  and  O_7 
ROOT
ATOM      1  C   UNL d   1       0.744   2.340   0.282  0.00  0.00    -0.033 A 
ATOM      2  C1  UNL d   1      -0.589   2.235  -0.120  0.00  0.00     0.039 A 
ATOM      3  C2  UNL d   1      -1.094   1.007  -0.553  0.00  0.00    -0.080 A 
ATOM      4  C3  UNL d   1      -0.258  -0.105  -0.578  0.00  0.00     0.150 A 
ATOM      5  C4  UNL d   1       1.070  -0.008  -0.175  0.00  0.00    -0.007 A 
ATOM      6  C5  UNL d   1       1.573   1.218   0.256  0.00  0.00     0.039 A 
ENDROOT
BRANCH   4   7
ATOM      7  O   UNL d   1      -0.705  -1.323  -0.997  0.00  0.00    -0.526 OA
ATOM      8  H5  UNL d   1      -1.633  -1.233  -1.271  0.00  0.00     0.418 HD
ENDBRANCH   4   7
TORSDOF 1
ENDMDL
