MODEL 1
REMARK minimizedAffinity 20.0934525
REMARK minimizedRMSD -1
REMARK  0 active torsions:
REMARK  status: ('A' for Active; 'I' for Inactive)
ROOT
ATOM      1  C   UNL d   1       4.146   0.626   0.321  0.00  0.00    -0.002 A 
ATOM      2  C1  UNL d   1       4.084  -0.663   0.830  0.00  0.00     0.010 A 
ATOM      3  C2  UNL d   1       3.326  -0.941   1.969  0.00  0.00     0.041 A 
ATOM      4  C3  UNL d   1       2.622   0.108   2.593  0.00  0.00    -0.075 A 
ATOM      5  S   UNL d   1       1.629   0.003   3.998  0.00  0.00     0.015 SA
ATOM      6  C4  UNL d   1       1.262   1.667   3.954  0.00  0.00     0.022 A 
ATOM      7  C5  UNL d   1       1.874   2.302   2.900  0.00  0.00     0.026 A 
ATOM      8  C6  UNL d   1       2.668   1.415   2.097  0.00  0.00    -0.082 A 
ATOM      9  C7  UNL d   1       3.446   1.665   0.942  0.00  0.00     0.045 A 
ENDROOT
TORSDOF 0
ENDMDL
