MODEL 1
REMARK minimizedAffinity 5.98233557
REMARK minimizedRMSD -1
REMARK  0 active torsions:
REMARK  status: ('A' for Active; 'I' for Inactive)
ROOT
ATOM      1  C   UNL d   1       3.315  -4.775   4.592  0.00  0.00    -0.002 A 
ATOM      2  C1  UNL d   1       4.035  -3.752   5.193  0.00  0.00     0.010 A 
ATOM      3  C2  UNL d   1       3.853  -2.427   4.794  0.00  0.00     0.041 A 
ATOM      4  C3  UNL d   1       2.925  -2.143   3.773  0.00  0.00    -0.075 A 
ATOM      5  S   UNL d   1       2.535  -0.595   3.123  0.00  0.00     0.015 SA
ATOM      6  C4  UNL d   1       1.402  -1.255   2.033  0.00  0.00     0.022 A 
ATOM      7  C5  UNL d   1       1.311  -2.622   2.149  0.00  0.00     0.026 A 
ATOM      8  C6  UNL d   1       2.187  -3.156   3.154  0.00  0.00    -0.082 A 
ATOM      9  C7  UNL d   1       2.395  -4.490   3.580  0.00  0.00     0.045 A 
ENDROOT
TORSDOF 0
ENDMDL
