MODEL 1
REMARK minimizedAffinity 5.42872238
REMARK minimizedRMSD -1
REMARK  0 active torsions:
REMARK  status: ('A' for Active; 'I' for Inactive)
ROOT
ATOM      1  C   UNL d   1       4.375  -5.996  -1.159  0.00  0.00    -0.002 A 
ATOM      2  C1  UNL d   1       3.051  -5.999  -1.574  0.00  0.00     0.010 A 
ATOM      3  C2  UNL d   1       2.732  -5.998  -2.933  0.00  0.00     0.041 A 
ATOM      4  C3  UNL d   1       3.777  -5.997  -3.878  0.00  0.00    -0.075 A 
ATOM      5  S   UNL d   1       3.625  -5.997  -5.596  0.00  0.00     0.015 SA
ATOM      6  C4  UNL d   1       5.314  -5.995  -5.820  0.00  0.00     0.022 A 
ATOM      7  C5  UNL d   1       5.993  -5.994  -4.624  0.00  0.00     0.026 A 
ATOM      8  C6  UNL d   1       5.118  -5.996  -3.485  0.00  0.00    -0.082 A 
ATOM      9  C7  UNL d   1       5.409  -5.995  -2.100  0.00  0.00     0.045 A 
ENDROOT
TORSDOF 0
ENDMDL
