MODEL 1
REMARK minimizedAffinity 8.85976505
REMARK minimizedRMSD -1
REMARK  0 active torsions:
REMARK  status: ('A' for Active; 'I' for Inactive)
ROOT
ATOM      1  C   UNL d   1       2.229  -4.053   4.253  0.00  0.00    -0.002 A 
ATOM      2  C1  UNL d   1       1.600  -3.204   5.153  0.00  0.00     0.010 A 
ATOM      3  C2  UNL d   1       1.409  -1.856   4.843  0.00  0.00     0.041 A 
ATOM      4  C3  UNL d   1       1.864  -1.371   3.601  0.00  0.00    -0.075 A 
ATOM      5  S   UNL d   1       1.738   0.242   3.006  0.00  0.00     0.015 SA
ATOM      6  C4  UNL d   1       2.516  -0.157   1.543  0.00  0.00     0.022 A 
ATOM      7  C5  UNL d   1       2.870  -1.485   1.493  0.00  0.00     0.026 A 
ATOM      8  C6  UNL d   1       2.500  -2.206   2.678  0.00  0.00    -0.082 A 
ATOM      9  C7  UNL d   1       2.679  -3.568   3.022  0.00  0.00     0.045 A 
ENDROOT
TORSDOF 0
ENDMDL
