MODEL 1
REMARK minimizedAffinity 3.7223289
REMARK minimizedRMSD -1
REMARK  0 active torsions:
REMARK  status: ('A' for Active; 'I' for Inactive)
ROOT
ATOM      1  C   UNL d   1       1.931  -4.141   4.467  0.00  0.00    -0.002 A 
ATOM      2  C1  UNL d   1       1.401  -3.160   5.294  0.00  0.00     0.010 A 
ATOM      3  C2  UNL d   1       1.227  -1.856   4.828  0.00  0.00     0.041 A 
ATOM      4  C3  UNL d   1       1.595  -1.551   3.503  0.00  0.00    -0.075 A 
ATOM      5  S   UNL d   1       1.470  -0.022   2.715  0.00  0.00     0.015 SA
ATOM      6  C4  UNL d   1       2.117  -0.635   1.262  0.00  0.00     0.022 A 
ATOM      7  C5  UNL d   1       2.425  -1.971   1.358  0.00  0.00     0.026 A 
ATOM      8  C6  UNL d   1       2.129  -2.521   2.651  0.00  0.00    -0.082 A 
ATOM      9  C7  UNL d   1       2.295  -3.834   3.153  0.00  0.00     0.045 A 
ENDROOT
TORSDOF 0
ENDMDL
