MODEL 1
REMARK minimizedAffinity 1.93524146
REMARK minimizedRMSD -1
REMARK  0 active torsions:
REMARK  status: ('A' for Active; 'I' for Inactive)
ROOT
ATOM      1  C   UNL d   1       0.438  -5.240  -2.940  0.00  0.00     0.078 C 
ATOM      2  C1  UNL d   1      -0.601  -5.120  -4.014  0.00  0.00    -0.077 A 
ATOM      3  C2  UNL d   1      -0.509  -4.128  -4.998  0.00  0.00    -0.001 A 
ATOM      4  C3  UNL d   1      -1.489  -4.021  -5.986  0.00  0.00     0.003 A 
ATOM      5  C4  UNL d   1      -2.568  -4.903  -6.000  0.00  0.00    -0.005 A 
ATOM      6  C5  UNL d   1      -2.669  -5.892  -5.023  0.00  0.00     0.003 A 
ATOM      7  C6  UNL d   1      -1.690  -6.000  -4.034  0.00  0.00    -0.001 A 
ENDROOT
TORSDOF 0
ENDMDL
