MODEL 1
REMARK minimizedAffinity 15.9194727
REMARK minimizedRMSD -1
REMARK  0 active torsions:
REMARK  status: ('A' for Active; 'I' for Inactive)
ROOT
ATOM      1  C   UNL d   1       0.749  -4.466  -1.151  0.00  0.00     0.078 C 
ATOM      2  C1  UNL d   1       1.834  -3.526  -0.718  0.00  0.00    -0.077 A 
ATOM      3  C2  UNL d   1       1.622  -2.143  -0.692  0.00  0.00    -0.001 A 
ATOM      4  C3  UNL d   1       2.644  -1.279  -0.296  0.00  0.00     0.003 A 
ATOM      5  C4  UNL d   1       3.886  -1.789   0.076  0.00  0.00    -0.005 A 
ATOM      6  C5  UNL d   1       4.108  -3.164   0.051  0.00  0.00     0.003 A 
ATOM      7  C6  UNL d   1       3.086  -4.030  -0.345  0.00  0.00    -0.001 A 
ENDROOT
TORSDOF 0
ENDMDL
