MODEL 1
REMARK minimizedAffinity -0.152249858
REMARK minimizedRMSD -1
REMARK  0 active torsions:
REMARK  status: ('A' for Active; 'I' for Inactive)
ROOT
ATOM      1  C   UNL d   1      -4.415  -1.398   2.425  0.00  0.00     0.078 C 
ATOM      2  C1  UNL d   1      -4.585  -2.224   3.665  0.00  0.00    -0.077 A 
ATOM      3  C2  UNL d   1      -5.857  -2.602   4.112  0.00  0.00    -0.001 A 
ATOM      4  C3  UNL d   1      -6.000  -3.363   5.274  0.00  0.00     0.003 A 
ATOM      5  C4  UNL d   1      -4.875  -3.752   5.998  0.00  0.00    -0.005 A 
ATOM      6  C5  UNL d   1      -3.605  -3.379   5.563  0.00  0.00     0.003 A 
ATOM      7  C6  UNL d   1      -3.460  -2.618   4.401  0.00  0.00    -0.001 A 
ENDROOT
TORSDOF 0
ENDMDL
