MODEL 1
REMARK minimizedAffinity 1.50706124
REMARK minimizedRMSD -1
REMARK  0 active torsions:
REMARK  status: ('A' for Active; 'I' for Inactive)
ROOT
ATOM      1  C   UNL d   1      -3.910  -5.914  -5.995  0.00  0.00     0.078 C 
ATOM      2  C1  UNL d   1      -2.669  -5.073  -5.989  0.00  0.00    -0.077 A 
ATOM      3  C2  UNL d   1      -2.744  -3.675  -5.991  0.00  0.00    -0.001 A 
ATOM      4  C3  UNL d   1      -1.580  -2.905  -5.995  0.00  0.00     0.003 A 
ATOM      5  C4  UNL d   1      -0.332  -3.524  -5.999  0.00  0.00    -0.005 A 
ATOM      6  C5  UNL d   1      -0.247  -4.915  -5.999  0.00  0.00     0.003 A 
ATOM      7  C6  UNL d   1      -1.410  -5.686  -5.995  0.00  0.00    -0.001 A 
ENDROOT
TORSDOF 0
ENDMDL
