MODEL 1
REMARK minimizedAffinity 0.40709883
REMARK minimizedRMSD -1
REMARK  0 active torsions:
REMARK  status: ('A' for Active; 'I' for Inactive)
ROOT
ATOM      1  C   UNL d   1      -3.718  -5.902  -5.998  0.00  0.00     0.078 C 
ATOM      2  C1  UNL d   1      -2.798  -4.718  -5.988  0.00  0.00    -0.077 A 
ATOM      3  C2  UNL d   1      -3.303  -3.412  -5.998  0.00  0.00    -0.001 A 
ATOM      4  C3  UNL d   1      -2.434  -2.320  -5.998  0.00  0.00     0.003 A 
ATOM      5  C4  UNL d   1      -1.055  -2.522  -5.991  0.00  0.00    -0.005 A 
ATOM      6  C5  UNL d   1      -0.544  -3.818  -5.983  0.00  0.00     0.003 A 
ATOM      7  C6  UNL d   1      -1.410  -4.912  -5.982  0.00  0.00    -0.001 A 
ENDROOT
TORSDOF 0
ENDMDL
