MODEL 1
REMARK minimizedAffinity 4.97296143
REMARK minimizedRMSD -1
REMARK  0 active torsions:
REMARK  status: ('A' for Active; 'I' for Inactive)
ROOT
ATOM      1  C   UNL d   1      -0.784  -3.230  -4.531  0.00  0.00     0.078 C 
ATOM      2  C1  UNL d   1      -1.916  -4.189  -4.753  0.00  0.00    -0.077 A 
ATOM      3  C2  UNL d   1      -1.878  -5.119  -5.799  0.00  0.00    -0.001 A 
ATOM      4  C3  UNL d   1      -2.942  -5.999  -6.000  0.00  0.00     0.003 A 
ATOM      5  C4  UNL d   1      -4.053  -5.958  -5.159  0.00  0.00    -0.005 A 
ATOM      6  C5  UNL d   1      -4.100  -5.034  -4.117  0.00  0.00     0.003 A 
ATOM      7  C6  UNL d   1      -3.037  -4.153  -3.914  0.00  0.00    -0.001 A 
ENDROOT
TORSDOF 0
ENDMDL
