MODEL 1
REMARK minimizedAffinity 3.61861587
REMARK minimizedRMSD -1
REMARK  0 active torsions:
REMARK  status: ('A' for Active; 'I' for Inactive)
ROOT
ATOM      1  C   UNL d   1      -1.719  -1.320  -5.380  0.00  0.00     0.078 C 
ATOM      2  C1  UNL d   1      -1.132  -2.343  -4.454  0.00  0.00    -0.077 A 
ATOM      3  C2  UNL d   1      -1.632  -2.513  -3.158  0.00  0.00    -0.001 A 
ATOM      4  C3  UNL d   1      -1.070  -3.463  -2.303  0.00  0.00     0.003 A 
ATOM      5  C4  UNL d   1      -0.003  -4.249  -2.735  0.00  0.00    -0.005 A 
ATOM      6  C5  UNL d   1       0.503  -4.085  -4.023  0.00  0.00     0.003 A 
ATOM      7  C6  UNL d   1      -0.058  -3.136  -4.879  0.00  0.00    -0.001 A 
ENDROOT
TORSDOF 0
ENDMDL
