MODEL 1
REMARK minimizedAffinity 4.15137005
REMARK minimizedRMSD -1
REMARK  1 active torsions:
REMARK  status: ('A' for Active; 'I' for Inactive)
REMARK    1  A    between atoms: C1_2  and  C2_3 
ROOT
ATOM      1  C2  UNL d   1       0.642  -2.150   1.088  0.00  0.00    -0.081 A 
ATOM      2  C3  UNL d   1       0.866  -2.769  -0.148  0.00  0.00     0.006 A 
ATOM      3  C4  UNL d   1      -0.073  -2.658  -1.175  0.00  0.00     0.002 A 
ATOM      4  C5  UNL d   1      -1.247  -1.921  -0.988  0.00  0.00    -0.080 A 
ATOM      5  C6  UNL d   1      -2.250  -1.769  -2.093  0.00  0.00     0.076 C 
ATOM      6  C7  UNL d   1      -1.479  -1.317   0.253  0.00  0.00     0.002 A 
ATOM      7  C8  UNL d   1      -0.541  -1.428   1.281  0.00  0.00     0.006 A 
ENDROOT
BRANCH   1   8
ATOM      8  C1  UNL d   1       1.683  -2.213   2.177  0.00  0.00     0.054 C 
ATOM      9  C   UNL d   1       2.263  -0.836   2.469  0.00  0.00     0.018 C 
ENDBRANCH   1   8
TORSDOF 1
ENDMDL
