MODEL 1
REMARK minimizedAffinity 5.06503487
REMARK minimizedRMSD -1
REMARK  1 active torsions:
REMARK  status: ('A' for Active; 'I' for Inactive)
REMARK    1  A    between atoms: C1_2  and  C2_3 
ROOT
ATOM      1  C2  UNL d   1       2.610  -0.277   2.199  0.00  0.00    -0.081 A 
ATOM      2  C3  UNL d   1       1.498  -0.877   1.596  0.00  0.00     0.006 A 
ATOM      3  C4  UNL d   1       1.030  -2.114   2.044  0.00  0.00     0.002 A 
ATOM      4  C5  UNL d   1       1.661  -2.768   3.108  0.00  0.00    -0.080 A 
ATOM      5  C6  UNL d   1       1.150  -4.082   3.620  0.00  0.00     0.076 C 
ATOM      6  C7  UNL d   1       2.782  -2.177   3.700  0.00  0.00     0.002 A 
ATOM      7  C8  UNL d   1       3.251  -0.940   3.251  0.00  0.00     0.006 A 
ENDROOT
BRANCH   1   8
ATOM      8  C1  UNL d   1       3.077   1.087   1.760  0.00  0.00     0.054 C 
ATOM      9  C   UNL d   1       3.424   1.103   0.278  0.00  0.00     0.018 C 
ENDBRANCH   1   8
TORSDOF 1
ENDMDL
