MODEL 1
REMARK minimizedAffinity -1.6204071
REMARK minimizedRMSD -1
REMARK  1 active torsions:
REMARK  status: ('A' for Active; 'I' for Inactive)
REMARK    1  A    between atoms: C1_2  and  C2_3 
ROOT
ATOM      1  C2  UNL d   1       1.294   0.849   0.723  0.00  0.00    -0.081 A 
ATOM      2  C3  UNL d   1       0.557  -0.324   0.928  0.00  0.00     0.006 A 
ATOM      3  C4  UNL d   1       0.853  -1.168   2.001  0.00  0.00     0.002 A 
ATOM      4  C5  UNL d   1       1.884  -0.849   2.891  0.00  0.00    -0.080 A 
ATOM      5  C6  UNL d   1       2.192  -1.731   4.065  0.00  0.00     0.076 C 
ATOM      6  C7  UNL d   1       2.631   0.314   2.677  0.00  0.00     0.002 A 
ATOM      7  C8  UNL d   1       2.336   1.158   1.604  0.00  0.00     0.006 A 
ENDROOT
BRANCH   1   8
ATOM      8  C1  UNL d   1       0.935   1.794  -0.395  0.00  0.00     0.054 C 
ATOM      9  C   UNL d   1       0.062   2.937   0.104  0.00  0.00     0.018 C 
ENDBRANCH   1   8
TORSDOF 1
ENDMDL
