MODEL 1
REMARK minimizedAffinity 3.08580256
REMARK minimizedRMSD -1
REMARK  1 active torsions:
REMARK  status: ('A' for Active; 'I' for Inactive)
REMARK    1  A    between atoms: C1_2  and  C2_3 
ROOT
ATOM      1  C2  UNL d   1      -0.012  -1.418   0.462  0.00  0.00    -0.081 A 
ATOM      2  C3  UNL d   1       1.012  -2.274   0.038  0.00  0.00     0.006 A 
ATOM      3  C4  UNL d   1       0.712  -3.447  -0.658  0.00  0.00     0.002 A 
ATOM      4  C5  UNL d   1      -0.616  -3.780  -0.949  0.00  0.00    -0.080 A 
ATOM      5  C6  UNL d   1      -0.950  -5.021  -1.722  0.00  0.00     0.076 C 
ATOM      6  C7  UNL d   1      -1.640  -2.934  -0.510  0.00  0.00     0.002 A 
ATOM      7  C8  UNL d   1      -1.340  -1.761   0.187  0.00  0.00     0.006 A 
ENDROOT
BRANCH   1   8
ATOM      8  C1  UNL d   1       0.313  -0.120   1.157  0.00  0.00     0.054 C 
ATOM      9  C   UNL d   1      -0.240   1.071   0.388  0.00  0.00     0.018 C 
ENDBRANCH   1   8
TORSDOF 1
ENDMDL
