MODEL 1
REMARK minimizedAffinity 1.11980319
REMARK minimizedRMSD -1
REMARK  1 active torsions:
REMARK  status: ('A' for Active; 'I' for Inactive)
REMARK    1  A    between atoms: C1_2  and  C2_3 
ROOT
ATOM      1  C2  UNL d   1       2.080  -0.007   3.373  0.00  0.00    -0.081 A 
ATOM      2  C3  UNL d   1       2.420  -0.438   4.661  0.00  0.00     0.006 A 
ATOM      3  C4  UNL d   1       2.095  -1.729   5.085  0.00  0.00     0.002 A 
ATOM      4  C5  UNL d   1       1.434  -2.613   4.225  0.00  0.00    -0.080 A 
ATOM      5  C6  UNL d   1       1.107  -4.012   4.657  0.00  0.00     0.076 C 
ATOM      6  C7  UNL d   1       1.079  -2.177   2.944  0.00  0.00     0.002 A 
ATOM      7  C8  UNL d   1       1.403  -0.886   2.520  0.00  0.00     0.006 A 
ENDROOT
BRANCH   1   8
ATOM      8  C1  UNL d   1       2.486   1.362   2.891  0.00  0.00     0.054 C 
ATOM      9  C   UNL d   1       2.311   1.493   1.385  0.00  0.00     0.018 C 
ENDBRANCH   1   8
TORSDOF 1
ENDMDL
