MODEL 1
REMARK minimizedAffinity -3.19101715
REMARK minimizedRMSD -1
REMARK  0 active torsions:
REMARK  status: ('A' for Active; 'I' for Inactive)
ROOT
ATOM      1  C   UNL d   1       1.511  -5.175   1.149  0.00  0.00     0.172 C 
ATOM      2  N   UNL d   1       1.389  -3.915   1.844  0.00  0.00    -0.070 N 
ATOM      3  C1  UNL d   1       0.862  -2.764   1.323  0.00  0.00    -0.004 A 
ATOM      4  C2  UNL d   1       0.924  -1.792   2.298  0.00  0.00    -0.047 A 
ATOM      5  C3  UNL d   1       1.509  -2.379   3.445  0.00  0.00    -0.047 A 
ATOM      6  C4  UNL d   1       1.787  -3.694   3.136  0.00  0.00    -0.004 A 
ENDROOT
TORSDOF 0
ENDMDL
