MODEL 1
REMARK minimizedAffinity -2.1707983
REMARK minimizedRMSD -1
REMARK  0 active torsions:
REMARK  status: ('A' for Active; 'I' for Inactive)
ROOT
ATOM      1  C   UNL d   1       4.489  -5.994  -2.332  0.00  0.00     0.172 C 
ATOM      2  N   UNL d   1       4.126  -5.993  -3.730  0.00  0.00    -0.070 N 
ATOM      3  C1  UNL d   1       5.003  -5.986  -4.782  0.00  0.00    -0.004 A 
ATOM      4  C2  UNL d   1       4.265  -5.989  -5.946  0.00  0.00    -0.047 A 
ATOM      5  C3  UNL d   1       2.898  -5.997  -5.580  0.00  0.00    -0.047 A 
ATOM      6  C4  UNL d   1       2.841  -6.000  -4.202  0.00  0.00    -0.004 A 
ENDROOT
TORSDOF 0
ENDMDL
