MODEL 1
REMARK minimizedAffinity 1.90762067
REMARK minimizedRMSD -1
REMARK  0 active torsions:
REMARK  status: ('A' for Active; 'I' for Inactive)
ROOT
ATOM      1  C   UNL d   1       0.055  -1.890   1.095  0.00  0.00     0.172 C 
ATOM      2  N   UNL d   1       0.983  -2.455   2.047  0.00  0.00    -0.070 N 
ATOM      3  C1  UNL d   1       1.585  -1.777   3.073  0.00  0.00    -0.004 A 
ATOM      4  C2  UNL d   1       2.394  -2.665   3.748  0.00  0.00    -0.047 A 
ATOM      5  C3  UNL d   1       2.275  -3.920   3.105  0.00  0.00    -0.047 A 
ATOM      6  C4  UNL d   1       1.395  -3.761   2.055  0.00  0.00    -0.004 A 
ENDROOT
TORSDOF 0
ENDMDL
