MODEL 1
REMARK minimizedAffinity 5.70138264
REMARK minimizedRMSD -1
REMARK  0 active torsions:
REMARK  status: ('A' for Active; 'I' for Inactive)
ROOT
ATOM      1  C   UNL d   1      -3.886  -2.047  -3.826  0.00  0.00     0.172 C 
ATOM      2  N   UNL d   1      -3.581  -0.729  -3.321  0.00  0.00    -0.070 N 
ATOM      3  C1  UNL d   1      -4.354   0.388  -3.489  0.00  0.00    -0.004 A 
ATOM      4  C2  UNL d   1      -3.720   1.438  -2.860  0.00  0.00    -0.047 A 
ATOM      5  C3  UNL d   1      -2.525   0.934  -2.294  0.00  0.00    -0.047 A 
ATOM      6  C4  UNL d   1      -2.464  -0.411  -2.595  0.00  0.00    -0.004 A 
ENDROOT
TORSDOF 0
ENDMDL
