MODEL 1
REMARK minimizedAffinity -1.14186656
REMARK minimizedRMSD -1
REMARK  0 active torsions:
REMARK  status: ('A' for Active; 'I' for Inactive)
ROOT
ATOM      1  C   UNL d   1       5.924  -5.983  -4.698  0.00  0.00     0.172 C 
ATOM      2  N   UNL d   1       4.796  -5.988  -3.797  0.00  0.00    -0.070 N 
ATOM      3  C1  UNL d   1       4.867  -5.986  -2.429  0.00  0.00    -0.004 A 
ATOM      4  C2  UNL d   1       3.579  -5.991  -1.940  0.00  0.00    -0.047 A 
ATOM      5  C3  UNL d   1       2.703  -5.998  -3.052  0.00  0.00    -0.047 A 
ATOM      6  C4  UNL d   1       3.484  -5.995  -4.189  0.00  0.00    -0.004 A 
ENDROOT
TORSDOF 0
ENDMDL
