MODEL 1
REMARK minimizedAffinity 4.80310392
REMARK minimizedRMSD -1
REMARK  1 active torsions:
REMARK  status: ('A' for Active; 'I' for Inactive)
REMARK    1  A    between atoms: C1_2  and  C2_3 
ROOT
ATOM      1  C2  UNL d   1      -2.889   3.192   0.095  0.00  0.00    -0.076 A 
ATOM      2  C3  UNL d   1      -3.695   3.712  -0.933  0.00  0.00     0.004 A 
ATOM      3  C4  UNL d   1      -4.177   5.018  -0.876  0.00  0.00    -0.003 A 
ATOM      4  C5  UNL d   1      -3.861   5.827   0.210  0.00  0.00     0.000 A 
ATOM      5  C6  UNL d   1      -3.048   5.334   1.230  0.00  0.00     0.000 A 
ATOM      6  C7  UNL d   1      -2.540   4.024   1.180  0.00  0.00    -0.073 A 
ATOM      7  C8  UNL d   1      -1.673   3.542   2.311  0.00  0.00     0.078 C 
ENDROOT
BRANCH   1   8
ATOM      8  C1  UNL d   1      -2.417   1.759  -0.009  0.00  0.00     0.053 C 
ATOM      9  C   UNL d   1      -3.508   0.760   0.345  0.00  0.00     0.018 C 
ENDBRANCH   1   8
TORSDOF 1
ENDMDL
