MODEL 1
REMARK minimizedAffinity 16.0117435
REMARK minimizedRMSD -1
REMARK  1 active torsions:
REMARK  status: ('A' for Active; 'I' for Inactive)
REMARK    1  A    between atoms: C1_2  and  C2_3 
ROOT
ATOM      1  C2  UNL d   1       4.519  -3.958  -3.256  0.00  0.00    -0.076 A 
ATOM      2  C3  UNL d   1       5.127  -4.839  -4.168  0.00  0.00     0.004 A 
ATOM      3  C4  UNL d   1       4.819  -4.791  -5.526  0.00  0.00    -0.003 A 
ATOM      4  C5  UNL d   1       3.897  -3.862  -5.995  0.00  0.00     0.000 A 
ATOM      5  C6  UNL d   1       3.297  -2.969  -5.108  0.00  0.00     0.000 A 
ATOM      6  C7  UNL d   1       3.609  -2.993  -3.738  0.00  0.00    -0.073 A 
ATOM      7  C8  UNL d   1       2.927  -2.011  -2.825  0.00  0.00     0.078 C 
ENDROOT
BRANCH   1   8
ATOM      8  C1  UNL d   1       4.872  -4.075  -1.791  0.00  0.00     0.053 C 
ATOM      9  C   UNL d   1       6.000  -3.137  -1.387  0.00  0.00     0.018 C 
ENDBRANCH   1   8
TORSDOF 1
ENDMDL
