MODEL 1
REMARK minimizedAffinity 16.3580055
REMARK minimizedRMSD -1
REMARK  1 active torsions:
REMARK  status: ('A' for Active; 'I' for Inactive)
REMARK    1  A    between atoms: C1_2  and  C2_3 
ROOT
ATOM      1  C2  UNL d   1       4.549  -0.955  -4.741  0.00  0.00    -0.076 A 
ATOM      2  C3  UNL d   1       4.638  -0.220  -5.936  0.00  0.00     0.004 A 
ATOM      3  C4  UNL d   1       5.357   0.973  -5.993  0.00  0.00    -0.003 A 
ATOM      4  C5  UNL d   1       5.999   1.450  -4.857  0.00  0.00     0.000 A 
ATOM      5  C6  UNL d   1       5.937   0.725  -3.667  0.00  0.00     0.000 A 
ATOM      6  C7  UNL d   1       5.230  -0.487  -3.596  0.00  0.00    -0.073 A 
ATOM      7  C8  UNL d   1       5.191  -1.224  -2.285  0.00  0.00     0.078 C 
ENDROOT
BRANCH   1   8
ATOM      8  C1  UNL d   1       3.733  -2.227  -4.731  0.00  0.00     0.053 C 
ATOM      9  C   UNL d   1       2.680  -2.236  -3.634  0.00  0.00     0.018 C 
ENDBRANCH   1   8
TORSDOF 1
ENDMDL
