MODEL 1
REMARK minimizedAffinity 11.8556395
REMARK minimizedRMSD -1
REMARK  1 active torsions:
REMARK  status: ('A' for Active; 'I' for Inactive)
REMARK    1  A    between atoms: C1_2  and  C2_3 
ROOT
ATOM      1  C2  UNL d   1      -2.134   4.212   0.795  0.00  0.00    -0.076 A 
ATOM      2  C3  UNL d   1      -2.629   5.492   1.099  0.00  0.00     0.004 A 
ATOM      3  C4  UNL d   1      -3.752   6.000   0.447  0.00  0.00    -0.003 A 
ATOM      4  C5  UNL d   1      -4.398   5.236  -0.518  0.00  0.00     0.000 A 
ATOM      5  C6  UNL d   1      -3.931   3.957  -0.820  0.00  0.00     0.000 A 
ATOM      6  C7  UNL d   1      -2.810   3.423  -0.160  0.00  0.00    -0.073 A 
ATOM      7  C8  UNL d   1      -2.346   2.041  -0.529  0.00  0.00     0.078 C 
ENDROOT
BRANCH   1   8
ATOM      8  C1  UNL d   1      -0.897   3.724   1.515  0.00  0.00     0.053 C 
ATOM      9  C   UNL d   1       0.370   4.409   1.026  0.00  0.00     0.018 C 
ENDBRANCH   1   8
TORSDOF 1
ENDMDL
