MODEL 1
REMARK minimizedAffinity 15.2091818
REMARK minimizedRMSD -1
REMARK  1 active torsions:
REMARK  status: ('A' for Active; 'I' for Inactive)
REMARK    1  A    between atoms: C1_2  and  C2_3 
ROOT
ATOM      1  C2  UNL d   1       3.869  -2.958   4.873  0.00  0.00    -0.076 A 
ATOM      2  C3  UNL d   1       3.175  -4.179   4.829  0.00  0.00     0.004 A 
ATOM      3  C4  UNL d   1       3.736  -5.342   5.354  0.00  0.00    -0.003 A 
ATOM      4  C5  UNL d   1       5.000  -5.303   5.931  0.00  0.00     0.000 A 
ATOM      5  C6  UNL d   1       5.696  -4.096   5.999  0.00  0.00     0.000 A 
ATOM      6  C7  UNL d   1       5.138  -2.911   5.489  0.00  0.00    -0.073 A 
ATOM      7  C8  UNL d   1       5.935  -1.639   5.584  0.00  0.00     0.078 C 
ENDROOT
BRANCH   1   8
ATOM      8  C1  UNL d   1       3.222  -1.735   4.264  0.00  0.00     0.053 C 
ATOM      9  C   UNL d   1       3.411  -1.665   2.756  0.00  0.00     0.018 C 
ENDBRANCH   1   8
TORSDOF 1
ENDMDL
