MODEL 1
REMARK minimizedAffinity 17.824173
REMARK minimizedRMSD -1
REMARK  1 active torsions:
REMARK  status: ('A' for Active; 'I' for Inactive)
REMARK    1  A    between atoms: C1_2  and  C2_3 
ROOT
ATOM      1  C2  UNL d   1       0.779   3.376   0.439  0.00  0.00    -0.076 A 
ATOM      2  C3  UNL d   1       1.877   4.103  -0.053  0.00  0.00     0.004 A 
ATOM      3  C4  UNL d   1       2.132   5.401   0.387  0.00  0.00    -0.003 A 
ATOM      4  C5  UNL d   1       1.294   5.993   1.325  0.00  0.00     0.000 A 
ATOM      5  C6  UNL d   1       0.210   5.280   1.837  0.00  0.00     0.000 A 
ATOM      6  C7  UNL d   1      -0.052   3.965   1.417  0.00  0.00    -0.073 A 
ATOM      7  C8  UNL d   1      -1.238   3.244   1.997  0.00  0.00     0.078 C 
ENDROOT
BRANCH   1   8
ATOM      8  C1  UNL d   1       0.536   1.982  -0.094  0.00  0.00     0.053 C 
ATOM      9  C   UNL d   1      -0.504   1.956  -1.204  0.00  0.00     0.018 C 
ENDBRANCH   1   8
TORSDOF 1
ENDMDL
