MODEL 1
REMARK minimizedAffinity 18.7648449
REMARK minimizedRMSD -1
REMARK  1 active torsions:
REMARK  status: ('A' for Active; 'I' for Inactive)
REMARK    1  A    between atoms: C1_2  and  C2_3 
ROOT
ATOM      1  C2  UNL d   1      -1.834  -2.089  -0.927  0.00  0.00    -0.076 A 
ATOM      2  C3  UNL d   1      -1.992  -2.467   0.418  0.00  0.00     0.004 A 
ATOM      3  C4  UNL d   1      -0.889  -2.774   1.212  0.00  0.00    -0.003 A 
ATOM      4  C5  UNL d   1       0.392  -2.707   0.674  0.00  0.00     0.000 A 
ATOM      5  C6  UNL d   1       0.569  -2.317  -0.653  0.00  0.00     0.000 A 
ATOM      6  C7  UNL d   1      -0.532  -1.989  -1.462  0.00  0.00    -0.073 A 
ATOM      7  C8  UNL d   1      -0.283  -1.580  -2.888  0.00  0.00     0.078 C 
ENDROOT
BRANCH   1   8
ATOM      8  C1  UNL d   1      -3.069  -1.794  -1.747  0.00  0.00     0.053 C 
ATOM      9  C   UNL d   1      -3.246  -2.766  -2.904  0.00  0.00     0.018 C 
ENDBRANCH   1   8
TORSDOF 1
ENDMDL
