MODEL 1
REMARK minimizedAffinity 20.6060867
REMARK minimizedRMSD -1
REMARK  1 active torsions:
REMARK  status: ('A' for Active; 'I' for Inactive)
REMARK    1  A    between atoms: C1_2  and  C2_3 
ROOT
ATOM      1  C2  UNL d   1      -3.597  -3.986  -4.636  0.00  0.00    -0.076 A 
ATOM      2  C3  UNL d   1      -4.877  -3.406  -4.682  0.00  0.00     0.004 A 
ATOM      3  C4  UNL d   1      -5.963  -4.108  -5.202  0.00  0.00    -0.003 A 
ATOM      4  C5  UNL d   1      -5.787  -5.400  -5.683  0.00  0.00     0.000 A 
ATOM      5  C6  UNL d   1      -4.528  -5.997  -5.629  0.00  0.00     0.000 A 
ATOM      6  C7  UNL d   1      -3.426  -5.310  -5.093  0.00  0.00    -0.073 A 
ATOM      7  C8  UNL d   1      -2.089  -5.999  -5.065  0.00  0.00     0.078 C 
ENDROOT
BRANCH   1   8
ATOM      8  C1  UNL d   1      -2.451  -3.167  -4.086  0.00  0.00     0.053 C 
ATOM      9  C   UNL d   1      -2.790  -2.507  -2.758  0.00  0.00     0.018 C 
ENDBRANCH   1   8
TORSDOF 1
ENDMDL
