MODEL 1
REMARK minimizedAffinity 14.0963984
REMARK minimizedRMSD -1
REMARK  1 active torsions:
REMARK  status: ('A' for Active; 'I' for Inactive)
REMARK    1  A    between atoms: C1_2  and  C2_3 
ROOT
ATOM      1  C2  UNL d   1      -3.435  -4.039  -4.783  0.00  0.00    -0.076 A 
ATOM      2  C3  UNL d   1      -4.647  -3.536  -4.279  0.00  0.00     0.004 A 
ATOM      3  C4  UNL d   1      -5.840  -4.238  -4.446  0.00  0.00    -0.003 A 
ATOM      4  C5  UNL d   1      -5.840  -5.454  -5.119  0.00  0.00     0.000 A 
ATOM      5  C6  UNL d   1      -4.644  -5.977  -5.610  0.00  0.00     0.000 A 
ATOM      6  C7  UNL d   1      -3.430  -5.290  -5.436  0.00  0.00    -0.073 A 
ATOM      7  C8  UNL d   1      -2.171  -5.898  -5.991  0.00  0.00     0.078 C 
ENDROOT
BRANCH   1   8
ATOM      8  C1  UNL d   1      -2.177  -3.221  -4.595  0.00  0.00     0.053 C 
ATOM      9  C   UNL d   1      -2.191  -2.420  -3.302  0.00  0.00     0.018 C 
ENDBRANCH   1   8
TORSDOF 1
ENDMDL
