MODEL 1
REMARK minimizedAffinity 27.163826
REMARK minimizedRMSD -1
REMARK  1 active torsions:
REMARK  status: ('A' for Active; 'I' for Inactive)
REMARK    1  A    between atoms: C1_2  and  C2_3 
ROOT
ATOM      1  C2  UNL d   1       3.360   3.800  -3.546  0.00  0.00    -0.076 A 
ATOM      2  C3  UNL d   1       2.974   2.685  -4.309  0.00  0.00     0.004 A 
ATOM      3  C4  UNL d   1       3.884   1.673  -4.612  0.00  0.00    -0.003 A 
ATOM      4  C5  UNL d   1       5.194   1.761  -4.157  0.00  0.00     0.000 A 
ATOM      5  C6  UNL d   1       5.590   2.852  -3.383  0.00  0.00     0.000 A 
ATOM      6  C7  UNL d   1       4.681   3.872  -3.055  0.00  0.00    -0.073 A 
ATOM      7  C8  UNL d   1       5.163   5.029  -2.223  0.00  0.00     0.078 C 
ENDROOT
BRANCH   1   8
ATOM      8  C1  UNL d   1       2.336   4.879  -3.272  0.00  0.00     0.053 C 
ATOM      9  C   UNL d   1       2.382   6.000  -4.299  0.00  0.00     0.018 C 
ENDBRANCH   1   8
TORSDOF 1
ENDMDL
