MODEL 1
REMARK minimizedAffinity 16.7355652
REMARK minimizedRMSD -1
REMARK  1 active torsions:
REMARK  status: ('A' for Active; 'I' for Inactive)
REMARK    1  A    between atoms: C1_2  and  C2_3 
ROOT
ATOM      1  C2  UNL d   1       2.597  -3.908   4.497  0.00  0.00    -0.076 A 
ATOM      2  C3  UNL d   1       2.902  -5.279   4.549  0.00  0.00     0.004 A 
ATOM      3  C4  UNL d   1       3.984  -5.746   5.293  0.00  0.00    -0.003 A 
ATOM      4  C5  UNL d   1       4.778  -4.849   5.999  0.00  0.00     0.000 A 
ATOM      5  C6  UNL d   1       4.480  -3.487   5.974  0.00  0.00     0.000 A 
ATOM      6  C7  UNL d   1       3.383  -3.002   5.241  0.00  0.00    -0.073 A 
ATOM      7  C8  UNL d   1       3.111  -1.522   5.244  0.00  0.00     0.078 C 
ENDROOT
BRANCH   1   8
ATOM      8  C1  UNL d   1       1.428  -3.457   3.651  0.00  0.00     0.053 C 
ATOM      9  C   UNL d   1       1.432  -4.090   2.268  0.00  0.00     0.018 C 
ENDBRANCH   1   8
TORSDOF 1
ENDMDL
