MODEL 1
REMARK minimizedAffinity 11.3112545
REMARK minimizedRMSD -1
REMARK  1 active torsions:
REMARK  status: ('A' for Active; 'I' for Inactive)
REMARK    1  A    between atoms: C1_2  and  C2_3 
ROOT
ATOM      1  C2  UNL d   1       2.736  -2.232  -3.037  0.00  0.00    -0.076 A 
ATOM      2  C3  UNL d   1       1.364  -2.526  -3.128  0.00  0.00     0.004 A 
ATOM      3  C4  UNL d   1       0.490  -2.194  -2.094  0.00  0.00    -0.003 A 
ATOM      4  C5  UNL d   1       0.972  -1.561  -0.954  0.00  0.00     0.000 A 
ATOM      5  C6  UNL d   1       2.327  -1.245  -0.855  0.00  0.00     0.000 A 
ATOM      6  C7  UNL d   1       3.220  -1.559  -1.895  0.00  0.00    -0.073 A 
ATOM      7  C8  UNL d   1       4.671  -1.201  -1.732  0.00  0.00     0.078 C 
ENDROOT
BRANCH   1   8
ATOM      8  C1  UNL d   1       3.641  -2.640  -4.177  0.00  0.00     0.053 C 
ATOM      9  C   UNL d   1       4.500  -3.848  -3.836  0.00  0.00     0.018 C 
ENDBRANCH   1   8
TORSDOF 1
ENDMDL
