MODEL 1
REMARK minimizedAffinity 6.45924807
REMARK minimizedRMSD -1
REMARK  1 active torsions:
REMARK  status: ('A' for Active; 'I' for Inactive)
REMARK    1  A    between atoms: C1_2  and  C2_3 
ROOT
ATOM      1  C2  UNL d   1       5.602  -3.183  -4.058  0.00  0.00    -0.076 A 
ATOM      2  C3  UNL d   1       5.567  -2.986  -5.449  0.00  0.00     0.004 A 
ATOM      3  C4  UNL d   1       5.649  -1.706  -5.994  0.00  0.00    -0.003 A 
ATOM      4  C5  UNL d   1       5.769  -0.602  -5.157  0.00  0.00     0.000 A 
ATOM      5  C6  UNL d   1       5.823  -0.781  -3.775  0.00  0.00     0.000 A 
ATOM      6  C7  UNL d   1       5.757  -2.066  -3.210  0.00  0.00    -0.073 A 
ATOM      7  C8  UNL d   1       5.814  -2.200  -1.713  0.00  0.00     0.078 C 
ENDROOT
BRANCH   1   8
ATOM      8  C1  UNL d   1       5.481  -4.593  -3.523  0.00  0.00     0.053 C 
ATOM      9  C   UNL d   1       5.997  -5.634  -4.504  0.00  0.00     0.018 C 
ENDBRANCH   1   8
TORSDOF 1
ENDMDL
