MODEL 1
REMARK minimizedAffinity 4.19044828
REMARK minimizedRMSD -1
REMARK  3 active torsions:
REMARK  status: ('A' for Active; 'I' for Inactive)
REMARK    1  A    between atoms: C3'_2  and  C2'_3 
REMARK    2  A    between atoms: C2'_3  and  C1'_4 
REMARK    3  A    between atoms: C1'_4  and  C1_5 
ROOT
ATOM      1  C1  N4B d   1      -0.962  -0.178   1.448  0.00  0.00    -0.075 A 
ATOM      2  C2  N4B d   1      -1.669  -0.380   2.654  0.00  0.00     0.002 A 
ATOM      3  C3  N4B d   1      -2.863   0.266   2.865  0.00  0.00     0.002 A 
ATOM      4  C4  N4B d   1      -3.357   1.128   1.898  0.00  0.00    -0.004 A 
ATOM      5  C5  N4B d   1      -2.680   1.297   0.725  0.00  0.00     0.002 A 
ATOM      6  C6  N4B d   1      -1.481   0.652   0.498  0.00  0.00     0.002 A 
ENDROOT
BRANCH   1   7
ATOM      7  C1' N4B d   1       0.389  -0.795   1.208  0.00  0.00     0.057 C 
BRANCH   7   8
ATOM      8  C2' N4B d   1       1.438  -0.032   2.012  0.00  0.00     0.009 C 
BRANCH   8   9
ATOM      9  C3' N4B d   1       1.744   1.326   1.403  0.00  0.00     0.004 C 
ATOM     10  C4' N4B d   1       2.845   1.271   0.387  0.00  0.00     0.003 C 
ENDBRANCH   8   9
ENDBRANCH   7   8
ENDBRANCH   1   7
TORSDOF 3
ENDMDL
