MODEL 1
REMARK minimizedAffinity 14.6023579
REMARK minimizedRMSD -1
REMARK  3 active torsions:
REMARK  status: ('A' for Active; 'I' for Inactive)
REMARK    1  A    between atoms: C3'_2  and  C2'_3 
REMARK    2  A    between atoms: C2'_3  and  C1'_4 
REMARK    3  A    between atoms: C1'_4  and  C1_5 
ROOT
ATOM      1  C1  N4B d   1       3.012   1.135  -4.147  0.00  0.00    -0.075 A 
ATOM      2  C2  N4B d   1       1.912   2.020  -4.141  0.00  0.00     0.002 A 
ATOM      3  C3  N4B d   1       1.843   3.036  -5.063  0.00  0.00     0.002 A 
ATOM      4  C4  N4B d   1       2.868   3.196  -5.984  0.00  0.00    -0.004 A 
ATOM      5  C5  N4B d   1       3.914   2.322  -5.999  0.00  0.00     0.002 A 
ATOM      6  C6  N4B d   1       3.994   1.294  -5.081  0.00  0.00     0.002 A 
ENDROOT
BRANCH   1   7
ATOM      7  C1' N4B d   1       3.173   0.062  -3.104  0.00  0.00     0.057 C 
BRANCH   7   8
ATOM      8  C2' N4B d   1       3.123  -1.305  -3.781  0.00  0.00     0.009 C 
BRANCH   8   9
ATOM      9  C3' N4B d   1       2.197  -2.265  -3.053  0.00  0.00     0.004 C 
ATOM     10  C4' N4B d   1       2.685  -2.613  -1.679  0.00  0.00     0.003 C 
ENDBRANCH   8   9
ENDBRANCH   7   8
ENDBRANCH   1   7
TORSDOF 3
ENDMDL
