MODEL 1
REMARK minimizedAffinity 0.75546813
REMARK minimizedRMSD -1
REMARK  3 active torsions:
REMARK  status: ('A' for Active; 'I' for Inactive)
REMARK    1  A    between atoms: C3'_2  and  C2'_3 
REMARK    2  A    between atoms: C2'_3  and  C1'_4 
REMARK    3  A    between atoms: C1'_4  and  C1_5 
ROOT
ATOM      1  C1  N4B d   1      -3.754  -2.012   5.116  0.00  0.00    -0.075 A 
ATOM      2  C2  N4B d   1      -4.150  -3.259   5.648  0.00  0.00     0.002 A 
ATOM      3  C3  N4B d   1      -4.607  -4.248   4.812  0.00  0.00     0.002 A 
ATOM      4  C4  N4B d   1      -4.695  -4.008   3.449  0.00  0.00    -0.004 A 
ATOM      5  C5  N4B d   1      -4.287  -2.809   2.941  0.00  0.00     0.002 A 
ATOM      6  C6  N4B d   1      -3.822  -1.808   3.769  0.00  0.00     0.002 A 
ENDROOT
BRANCH   1   7
ATOM      7  C1' N4B d   1      -3.329  -0.871   6.000  0.00  0.00     0.057 C 
BRANCH   7   8
ATOM      8  C2' N4B d   1      -4.418   0.197   5.997  0.00  0.00     0.009 C 
BRANCH   8   9
ATOM      9  C3' N4B d   1      -3.837   1.601   5.999  0.00  0.00     0.004 C 
ATOM     10  C4' N4B d   1      -4.893   2.666   5.998  0.00  0.00     0.003 C 
ENDBRANCH   8   9
ENDBRANCH   7   8
ENDBRANCH   1   7
TORSDOF 3
ENDMDL
