MODEL 1
REMARK minimizedAffinity 7.02996826
REMARK minimizedRMSD -1
REMARK  3 active torsions:
REMARK  status: ('A' for Active; 'I' for Inactive)
REMARK    1  A    between atoms: C3'_2  and  C2'_3 
REMARK    2  A    between atoms: C2'_3  and  C1'_4 
REMARK    3  A    between atoms: C1'_4  and  C1_5 
ROOT
ATOM      1  C1  N4B d   1       3.426   0.079  -4.153  0.00  0.00    -0.075 A 
ATOM      2  C2  N4B d   1       2.460  -0.665  -4.866  0.00  0.00     0.002 A 
ATOM      3  C3  N4B d   1       2.251  -1.987  -4.562  0.00  0.00     0.002 A 
ATOM      4  C4  N4B d   1       3.005  -2.590  -3.566  0.00  0.00    -0.004 A 
ATOM      5  C5  N4B d   1       3.918  -1.857  -2.865  0.00  0.00     0.002 A 
ATOM      6  C6  N4B d   1       4.136  -0.526  -3.158  0.00  0.00     0.002 A 
ENDROOT
BRANCH   1   7
ATOM      7  C1' N4B d   1       3.751   1.505  -4.508  0.00  0.00     0.057 C 
BRANCH   7   8
ATOM      8  C2' N4B d   1       2.904   1.929  -5.705  0.00  0.00     0.009 C 
BRANCH   8   9
ATOM      9  C3' N4B d   1       2.974   3.426  -5.949  0.00  0.00     0.004 C 
ATOM     10  C4' N4B d   1       4.382   3.941  -6.000  0.00  0.00     0.003 C 
ENDBRANCH   8   9
ENDBRANCH   7   8
ENDBRANCH   1   7
TORSDOF 3
ENDMDL
