MODEL 1
REMARK minimizedAffinity 7.16261148
REMARK minimizedRMSD -1
REMARK  3 active torsions:
REMARK  status: ('A' for Active; 'I' for Inactive)
REMARK    1  A    between atoms: C3'_2  and  C2'_3 
REMARK    2  A    between atoms: C2'_3  and  C1'_4 
REMARK    3  A    between atoms: C1'_4  and  C1_5 
ROOT
ATOM      1  C1  N4B d   1       3.227  -1.046  -2.483  0.00  0.00    -0.075 A 
ATOM      2  C2  N4B d   1       2.438  -0.975  -3.652  0.00  0.00     0.002 A 
ATOM      3  C3  N4B d   1       3.040  -0.956  -4.886  0.00  0.00     0.002 A 
ATOM      4  C4  N4B d   1       4.423  -0.988  -4.975  0.00  0.00    -0.004 A 
ATOM      5  C5  N4B d   1       5.177  -1.083  -3.843  0.00  0.00     0.002 A 
ATOM      6  C6  N4B d   1       4.586  -1.107  -2.595  0.00  0.00     0.002 A 
ENDROOT
BRANCH   1   7
ATOM      7  C1' N4B d   1       2.618  -0.983  -1.109  0.00  0.00     0.057 C 
BRANCH   7   8
ATOM      8  C2' N4B d   1       2.823   0.416  -0.534  0.00  0.00     0.009 C 
BRANCH   8   9
ATOM      9  C3' N4B d   1       1.907   0.684   0.647  0.00  0.00     0.004 C 
ATOM     10  C4' N4B d   1       1.797  -0.489   1.575  0.00  0.00     0.003 C 
ENDBRANCH   8   9
ENDBRANCH   7   8
ENDBRANCH   1   7
TORSDOF 3
ENDMDL
