MODEL 1
REMARK minimizedAffinity 10.4740982
REMARK minimizedRMSD -1
REMARK  3 active torsions:
REMARK  status: ('A' for Active; 'I' for Inactive)
REMARK    1  A    between atoms: C3'_2  and  C2'_3 
REMARK    2  A    between atoms: C2'_3  and  C1'_4 
REMARK    3  A    between atoms: C1'_4  and  C1_5 
ROOT
ATOM      1  C1  N4B d   1      -1.506   4.860   5.117  0.00  0.00    -0.075 A 
ATOM      2  C2  N4B d   1      -0.391   4.129   5.582  0.00  0.00     0.002 A 
ATOM      3  C3  N4B d   1       0.633   3.816   4.721  0.00  0.00     0.002 A 
ATOM      4  C4  N4B d   1       0.555   4.207   3.392  0.00  0.00    -0.004 A 
ATOM      5  C5  N4B d   1      -0.513   4.935   2.957  0.00  0.00     0.002 A 
ATOM      6  C6  N4B d   1      -1.547   5.260   3.812  0.00  0.00     0.002 A 
ENDROOT
BRANCH   1   7
ATOM      7  C1' N4B d   1      -2.688   5.152   5.999  0.00  0.00     0.057 C 
BRANCH   7   8
ATOM      8  C2' N4B d   1      -3.623   3.945   5.999  0.00  0.00     0.009 C 
BRANCH   8   9
ATOM      9  C3' N4B d   1      -4.865   4.189   5.159  0.00  0.00     0.004 C 
ATOM     10  C4' N4B d   1      -5.921   4.960   5.893  0.00  0.00     0.003 C 
ENDBRANCH   8   9
ENDBRANCH   7   8
ENDBRANCH   1   7
TORSDOF 3
ENDMDL
