MODEL 1
REMARK minimizedAffinity 3.92424488
REMARK minimizedRMSD -1
REMARK  3 active torsions:
REMARK  status: ('A' for Active; 'I' for Inactive)
REMARK    1  A    between atoms: C3'_2  and  C2'_3 
REMARK    2  A    between atoms: C2'_3  and  C1'_4 
REMARK    3  A    between atoms: C1'_4  and  C1_5 
ROOT
ATOM      1  C1  N4B d   1      -1.051   0.775   1.689  0.00  0.00    -0.075 A 
ATOM      2  C2  N4B d   1       0.103   1.114   2.429  0.00  0.00     0.002 A 
ATOM      3  C3  N4B d   1      -0.005   1.903   3.547  0.00  0.00     0.002 A 
ATOM      4  C4  N4B d   1      -1.249   2.379   3.933  0.00  0.00    -0.004 A 
ATOM      5  C5  N4B d   1      -2.363   2.027   3.227  0.00  0.00     0.002 A 
ATOM      6  C6  N4B d   1      -2.269   1.231   2.103  0.00  0.00     0.002 A 
ENDROOT
BRANCH   1   7
ATOM      7  C1' N4B d   1      -0.972  -0.014   0.410  0.00  0.00     0.057 C 
BRANCH   7   8
ATOM      8  C2' N4B d   1      -2.384  -0.262  -0.113  0.00  0.00     0.009 C 
BRANCH   8   9
ATOM      9  C3' N4B d   1      -2.587  -1.706  -0.535  0.00  0.00     0.004 C 
ATOM     10  C4' N4B d   1      -1.626  -2.647   0.129  0.00  0.00     0.003 C 
ENDBRANCH   8   9
ENDBRANCH   7   8
ENDBRANCH   1   7
TORSDOF 3
ENDMDL
