MODEL 1
REMARK minimizedAffinity 6.89544058
REMARK minimizedRMSD -1
REMARK  3 active torsions:
REMARK  status: ('A' for Active; 'I' for Inactive)
REMARK    1  A    between atoms: C3'_2  and  C2'_3 
REMARK    2  A    between atoms: C2'_3  and  C1'_4 
REMARK    3  A    between atoms: C1'_4  and  C1_5 
ROOT
ATOM      1  C1  N4B d   1      -2.853   1.221   2.865  0.00  0.00    -0.075 A 
ATOM      2  C2  N4B d   1      -1.487   0.887   2.990  0.00  0.00     0.002 A 
ATOM      3  C3  N4B d   1      -0.783   0.454   1.894  0.00  0.00     0.002 A 
ATOM      4  C4  N4B d   1      -1.426   0.329   0.671  0.00  0.00    -0.004 A 
ATOM      5  C5  N4B d   1      -2.740   0.677   0.553  0.00  0.00     0.002 A 
ATOM      6  C6  N4B d   1      -3.459   1.118   1.646  0.00  0.00     0.002 A 
ENDROOT
BRANCH   1   7
ATOM      7  C1' N4B d   1      -3.686   1.617   4.054  0.00  0.00     0.057 C 
BRANCH   7   8
ATOM      8  C2' N4B d   1      -3.911   0.394   4.938  0.00  0.00     0.009 C 
BRANCH   8   9
ATOM      9  C3' N4B d   1      -4.968   0.647   6.000  0.00  0.00     0.004 C 
ATOM     10  C4' N4B d   1      -5.473   2.059   5.991  0.00  0.00     0.003 C 
ENDBRANCH   8   9
ENDBRANCH   7   8
ENDBRANCH   1   7
TORSDOF 3
ENDMDL
