MODEL 1
REMARK minimizedAffinity 1.20211279
REMARK minimizedRMSD -1
REMARK  3 active torsions:
REMARK  status: ('A' for Active; 'I' for Inactive)
REMARK    1  A    between atoms: C3'_2  and  C2'_3 
REMARK    2  A    between atoms: C2'_3  and  C1'_4 
REMARK    3  A    between atoms: C1'_4  and  C1_5 
ROOT
ATOM      1  C1  N4B d   1      -0.354   0.247   1.363  0.00  0.00    -0.075 A 
ATOM      2  C2  N4B d   1      -0.319   1.058   2.518  0.00  0.00     0.002 A 
ATOM      3  C3  N4B d   1      -1.463   1.679   2.956  0.00  0.00     0.002 A 
ATOM      4  C4  N4B d   1      -2.644   1.519   2.248  0.00  0.00    -0.004 A 
ATOM      5  C5  N4B d   1      -2.675   0.713   1.148  0.00  0.00     0.002 A 
ATOM      6  C6  N4B d   1      -1.534   0.080   0.698  0.00  0.00     0.002 A 
ENDROOT
BRANCH   1   7
ATOM      7  C1' N4B d   1       0.889  -0.383   0.797  0.00  0.00     0.057 C 
BRANCH   7   8
ATOM      8  C2' N4B d   1       1.627   0.645  -0.056  0.00  0.00     0.009 C 
BRANCH   8   9
ATOM      9  C3' N4B d   1       3.022   0.175  -0.431  0.00  0.00     0.004 C 
ATOM     10  C4' N4B d   1       3.756  -0.445   0.720  0.00  0.00     0.003 C 
ENDBRANCH   8   9
ENDBRANCH   7   8
ENDBRANCH   1   7
TORSDOF 3
ENDMDL
