MODEL 1
REMARK minimizedAffinity 5.04918909
REMARK minimizedRMSD -1
REMARK  3 active torsions:
REMARK  status: ('A' for Active; 'I' for Inactive)
REMARK    1  A    between atoms: C3'_2  and  C2'_3 
REMARK    2  A    between atoms: C2'_3  and  C1'_4 
REMARK    3  A    between atoms: C1'_4  and  C1_5 
ROOT
ATOM      1  C1  N4B d   1      -0.553   0.726   1.826  0.00  0.00    -0.075 A 
ATOM      2  C2  N4B d   1       0.119   1.619   2.690  0.00  0.00     0.002 A 
ATOM      3  C3  N4B d   1      -0.587   2.584   3.364  0.00  0.00     0.002 A 
ATOM      4  C4  N4B d   1      -1.958   2.688   3.177  0.00  0.00    -0.004 A 
ATOM      5  C5  N4B d   1      -2.603   1.805   2.360  0.00  0.00     0.002 A 
ATOM      6  C6  N4B d   1      -1.906   0.827   1.680  0.00  0.00     0.002 A 
ENDROOT
BRANCH   1   7
ATOM      7  C1' N4B d   1       0.189  -0.291   1.002  0.00  0.00     0.057 C 
BRANCH   7   8
ATOM      8  C2' N4B d   1       1.041   0.432  -0.037  0.00  0.00     0.009 C 
BRANCH   8   9
ATOM      9  C3' N4B d   1       2.462  -0.103  -0.078  0.00  0.00     0.004 C 
ATOM     10  C4' N4B d   1       2.919  -0.431  -1.468  0.00  0.00     0.003 C 
ENDBRANCH   8   9
ENDBRANCH   7   8
ENDBRANCH   1   7
TORSDOF 3
ENDMDL
