MODEL 1
REMARK minimizedAffinity 15.6235962
REMARK minimizedRMSD -1
REMARK  0 active torsions:
REMARK  status: ('A' for Active; 'I' for Inactive)
ROOT
ATOM      1  O1  BZF d   1      -2.467   4.254   4.085  0.00  0.00    -0.204 OA
ATOM      2  C2  BZF d   1      -2.795   5.024   5.184  0.00  0.00     0.174 A 
ATOM      3  C3  BZF d   1      -3.648   4.363   5.993  0.00  0.00    -0.012 A 
ATOM      4  C3A BZF d   1      -3.793   3.065   5.407  0.00  0.00    -0.107 A 
ATOM      5  C4  BZF d   1      -4.500   1.951   5.758  0.00  0.00     0.055 A 
ATOM      6  C5  BZF d   1      -4.486   0.872   4.931  0.00  0.00    -0.016 A 
ATOM      7  C6  BZF d   1      -3.781   0.876   3.745  0.00  0.00     0.022 A 
ATOM      8  C7  BZF d   1      -3.061   1.957   3.357  0.00  0.00     0.029 A 
ATOM      9  C7A BZF d   1      -3.047   3.036   4.207  0.00  0.00     0.058 A 
ENDROOT
TORSDOF 0
ENDMDL
