MODEL 1
REMARK minimizedAffinity 14.526454
REMARK minimizedRMSD -1
REMARK  0 active torsions:
REMARK  status: ('A' for Active; 'I' for Inactive)
ROOT
ATOM      1  O1  BZF d   1      -2.446   3.285  -4.464  0.00  0.00    -0.204 OA
ATOM      2  C2  BZF d   1      -3.768   3.669  -4.585  0.00  0.00     0.174 A 
ATOM      3  C3  BZF d   1      -4.568   2.865  -3.857  0.00  0.00    -0.012 A 
ATOM      4  C3A BZF d   1      -3.683   1.976  -3.169  0.00  0.00    -0.107 A 
ATOM      5  C4  BZF d   1      -3.879   0.957  -2.281  0.00  0.00     0.055 A 
ATOM      6  C5  BZF d   1      -2.808   0.239  -1.853  0.00  0.00    -0.016 A 
ATOM      7  C6  BZF d   1      -1.529   0.509  -2.295  0.00  0.00     0.022 A 
ATOM      8  C7  BZF d   1      -1.285   1.513  -3.172  0.00  0.00     0.029 A 
ATOM      9  C7A BZF d   1      -2.361   2.261  -3.581  0.00  0.00     0.058 A 
ENDROOT
TORSDOF 0
ENDMDL
