MODEL 1
REMARK minimizedAffinity 14.4887352
REMARK minimizedRMSD -1
REMARK  0 active torsions:
REMARK  status: ('A' for Active; 'I' for Inactive)
ROOT
ATOM      1  O1  BZF d   1       1.234  -3.499   0.939  0.00  0.00    -0.204 OA
ATOM      2  C2  BZF d   1       2.567  -3.192   0.747  0.00  0.00     0.174 A 
ATOM      3  C3  BZF d   1       2.837  -1.942   1.176  0.00  0.00    -0.012 A 
ATOM      4  C3A BZF d   1       1.615  -1.470   1.751  0.00  0.00    -0.107 A 
ATOM      5  C4  BZF d   1       1.254  -0.302   2.360  0.00  0.00     0.055 A 
ATOM      6  C5  BZF d   1      -0.038  -0.129   2.745  0.00  0.00    -0.016 A 
ATOM      7  C6  BZF d   1      -0.995  -1.100   2.532  0.00  0.00     0.022 A 
ATOM      8  C7  BZF d   1      -0.683  -2.277   1.936  0.00  0.00     0.029 A 
ATOM      9  C7A BZF d   1       0.629  -2.468   1.576  0.00  0.00     0.058 A 
ENDROOT
TORSDOF 0
ENDMDL
