MODEL 1
REMARK minimizedAffinity 21.5226803
REMARK minimizedRMSD -1
REMARK  0 active torsions:
REMARK  status: ('A' for Active; 'I' for Inactive)
ROOT
ATOM      1  O1  BZF d   1      -2.516   3.067  -3.164  0.00  0.00    -0.204 OA
ATOM      2  C2  BZF d   1      -2.523   1.750  -2.749  0.00  0.00     0.174 A 
ATOM      3  C3  BZF d   1      -3.538   1.073  -3.325  0.00  0.00    -0.012 A 
ATOM      4  C3A BZF d   1      -4.151   2.004  -4.221  0.00  0.00    -0.107 A 
ATOM      5  C4  BZF d   1      -5.202   1.919  -5.089  0.00  0.00     0.055 A 
ATOM      6  C5  BZF d   1      -5.592   3.032  -5.765  0.00  0.00    -0.016 A 
ATOM      7  C6  BZF d   1      -4.959   4.245  -5.592  0.00  0.00     0.022 A 
ATOM      8  C7  BZF d   1      -3.909   4.378  -4.746  0.00  0.00     0.029 A 
ATOM      9  C7A BZF d   1      -3.491   3.247  -4.087  0.00  0.00     0.058 A 
ENDROOT
TORSDOF 0
ENDMDL
