MODEL 1
REMARK minimizedAffinity 8.4382143
REMARK minimizedRMSD -1
REMARK  0 active torsions:
REMARK  status: ('A' for Active; 'I' for Inactive)
ROOT
ATOM      1  O1  BZF d   1       4.118  -5.466   4.813  0.00  0.00    -0.204 OA
ATOM      2  C2  BZF d   1       5.128  -5.999   5.591  0.00  0.00     0.174 A 
ATOM      3  C3  BZF d   1       5.992  -5.039   5.977  0.00  0.00    -0.012 A 
ATOM      4  C3A BZF d   1       5.441  -3.815   5.481  0.00  0.00    -0.107 A 
ATOM      5  C4  BZF d   1       5.835  -2.510   5.556  0.00  0.00     0.055 A 
ATOM      6  C5  BZF d   1       5.112  -1.563   4.902  0.00  0.00    -0.016 A 
ATOM      7  C6  BZF d   1       3.995  -1.886   4.161  0.00  0.00     0.022 A 
ATOM      8  C7  BZF d   1       3.562  -3.167   4.061  0.00  0.00     0.029 A 
ATOM      9  C7A BZF d   1       4.272  -4.122   4.748  0.00  0.00     0.058 A 
ENDROOT
TORSDOF 0
ENDMDL
