MODEL 1
REMARK minimizedAffinity 10.1469755
REMARK minimizedRMSD -1
REMARK  0 active torsions:
REMARK  status: ('A' for Active; 'I' for Inactive)
ROOT
ATOM      1  O1  BZF d   1      -0.994   4.872   3.002  0.00  0.00    -0.204 OA
ATOM      2  C2  BZF d   1      -0.800   6.000   3.775  0.00  0.00     0.174 A 
ATOM      3  C3  BZF d   1      -1.310   5.826   5.012  0.00  0.00    -0.012 A 
ATOM      4  C3A BZF d   1      -1.775   4.473   5.040  0.00  0.00    -0.107 A 
ATOM      5  C4  BZF d   1      -2.368   3.704   6.000  0.00  0.00     0.055 A 
ATOM      6  C5  BZF d   1      -2.766   2.444   5.684  0.00  0.00    -0.016 A 
ATOM      7  C6  BZF d   1      -2.591   1.923   4.419  0.00  0.00     0.022 A 
ATOM      8  C7  BZF d   1      -2.003   2.646   3.435  0.00  0.00     0.029 A 
ATOM      9  C7A BZF d   1      -1.570   3.908   3.760  0.00  0.00     0.058 A 
ENDROOT
TORSDOF 0
ENDMDL
