MODEL 1
REMARK minimizedAffinity 0.839290798
REMARK minimizedRMSD -1
REMARK  0 active torsions:
REMARK  status: ('A' for Active; 'I' for Inactive)
ROOT
ATOM      1  O1  BZF d   1       1.942  -1.406   1.840  0.00  0.00    -0.204 OA
ATOM      2  C2  BZF d   1       0.567  -1.279   1.820  0.00  0.00     0.174 A 
ATOM      3  C3  BZF d   1       0.015  -2.179   0.981  0.00  0.00    -0.012 A 
ATOM      4  C3A BZF d   1       1.108  -2.976   0.513  0.00  0.00    -0.107 A 
ATOM      5  C4  BZF d   1       1.196  -4.044  -0.334  0.00  0.00     0.055 A 
ATOM      6  C5  BZF d   1       2.421  -4.545  -0.639  0.00  0.00    -0.016 A 
ATOM      7  C6  BZF d   1       3.578  -4.001  -0.121  0.00  0.00     0.022 A 
ATOM      8  C7  BZF d   1       3.541  -2.945   0.727  0.00  0.00     0.029 A 
ATOM      9  C7A BZF d   1       2.302  -2.457   1.064  0.00  0.00     0.058 A 
ENDROOT
TORSDOF 0
ENDMDL
