MODEL 1
REMARK minimizedAffinity 3.68010569
REMARK minimizedRMSD -1
REMARK  0 active torsions:
REMARK  status: ('A' for Active; 'I' for Inactive)
ROOT
ATOM      1  O1  BZF d   1       1.582  -3.964   1.377  0.00  0.00    -0.204 OA
ATOM      2  C2  BZF d   1       2.861  -3.552   1.054  0.00  0.00     0.174 A 
ATOM      3  C3  BZF d   1       3.039  -2.254   1.371  0.00  0.00    -0.012 A 
ATOM      4  C3A BZF d   1       1.825  -1.852   2.011  0.00  0.00    -0.107 A 
ATOM      5  C4  BZF d   1       1.399  -0.678   2.564  0.00  0.00     0.055 A 
ATOM      6  C5  BZF d   1       0.129  -0.595   3.041  0.00  0.00    -0.016 A 
ATOM      7  C6  BZF d   1      -0.742  -1.663   2.977  0.00  0.00     0.022 A 
ATOM      8  C7  BZF d   1      -0.363  -2.849   2.441  0.00  0.00     0.029 A 
ATOM      9  C7A BZF d   1       0.930  -2.946   1.988  0.00  0.00     0.058 A 
ENDROOT
TORSDOF 0
ENDMDL
