MODEL 1
REMARK minimizedAffinity -0.396985263
REMARK minimizedRMSD -1
REMARK  0 active torsions:
REMARK  status: ('A' for Active; 'I' for Inactive)
ROOT
ATOM      1  C   UNL d   1      -1.739  -1.349  -0.235  0.00  0.00     0.124 A 
ATOM      2  C1  UNL d   1      -1.480  -0.218  -0.998  0.00  0.00     0.062 A 
ATOM      3  C2  UNL d   1      -0.320   0.521  -0.782  0.00  0.00     0.162 A 
ATOM      4  C3  UNL d   1       0.590   0.131   0.200  0.00  0.00    -0.034 A 
ATOM      5  C4  UNL d   1       0.322  -1.007   0.964  0.00  0.00     0.162 A 
ATOM      6  C5  UNL d   1      -0.838  -1.742   0.744  0.00  0.00     0.062 A 
ATOM      7  F   UNL d   1      -1.086  -2.834   1.482  0.00  0.00    -0.097 F 
ATOM      8  F1  UNL d   1       1.176  -1.410   1.916  0.00  0.00    -0.096 F 
ATOM      9  I   UNL d   1       2.325   1.234   0.526  0.00  0.00    -0.060 I 
ATOM     10  F2  UNL d   1      -0.096   1.609  -1.533  0.00  0.00    -0.096 F 
ATOM     11  F3  UNL d   1      -2.349   0.164  -1.944  0.00  0.00    -0.097 F 
ATOM     12  F4  UNL d   1      -2.856  -2.058  -0.444  0.00  0.00    -0.092 F 
ENDROOT
TORSDOF 0
ENDMDL
