MODEL 1
REMARK minimizedAffinity -1.03344846
REMARK minimizedRMSD -1
REMARK  0 active torsions:
REMARK  status: ('A' for Active; 'I' for Inactive)
ROOT
ATOM      1  C   UNL d   1      -1.873  -1.089  -0.311  0.00  0.00     0.124 A 
ATOM      2  C1  UNL d   1      -0.816  -1.406   0.531  0.00  0.00     0.062 A 
ATOM      3  C2  UNL d   1       0.389  -0.716   0.432  0.00  0.00     0.162 A 
ATOM      4  C3  UNL d   1       0.543   0.300  -0.512  0.00  0.00    -0.034 A 
ATOM      5  C4  UNL d   1      -0.525   0.612  -1.356  0.00  0.00     0.162 A 
ATOM      6  C5  UNL d   1      -1.727  -0.081  -1.253  0.00  0.00     0.062 A 
ATOM      7  F   UNL d   1      -2.747   0.227  -2.067  0.00  0.00    -0.097 F 
ATOM      8  F1  UNL d   1      -0.411   1.583  -2.275  0.00  0.00    -0.096 F 
ATOM      9  I   UNL d   1       2.342   1.334  -0.663  0.00  0.00    -0.060 I 
ATOM     10  F2  UNL d   1       1.393  -1.043   1.258  0.00  0.00    -0.096 F 
ATOM     11  F3  UNL d   1      -0.955  -2.380   1.441  0.00  0.00    -0.097 F 
ATOM     12  F4  UNL d   1      -3.031  -1.755  -0.214  0.00  0.00    -0.092 F 
ENDROOT
TORSDOF 0
ENDMDL
