MODEL 1
REMARK minimizedAffinity 0.41982311
REMARK minimizedRMSD -1
REMARK  0 active torsions:
REMARK  status: ('A' for Active; 'I' for Inactive)
ROOT
ATOM      1  C   UNL d   1       2.671   2.551   0.960  0.00  0.00     0.124 A 
ATOM      2  C1  UNL d   1       2.695   1.730  -0.160  0.00  0.00     0.062 A 
ATOM      3  C2  UNL d   1       1.708   0.767  -0.344  0.00  0.00     0.162 A 
ATOM      4  C3  UNL d   1       0.686   0.620   0.594  0.00  0.00    -0.034 A 
ATOM      5  C4  UNL d   1       0.668   1.448   1.718  0.00  0.00     0.162 A 
ATOM      6  C5  UNL d   1       1.658   2.408   1.897  0.00  0.00     0.062 A 
ATOM      7  F   UNL d   1       1.633   3.200   2.979  0.00  0.00    -0.097 F 
ATOM      8  F1  UNL d   1      -0.300   1.332   2.639  0.00  0.00    -0.096 F 
ATOM      9  I   UNL d   1      -0.794  -0.819   0.323  0.00  0.00    -0.060 I 
ATOM     10  F2  UNL d   1       1.756  -0.011  -1.435  0.00  0.00    -0.096 F 
ATOM     11  F3  UNL d   1       3.674   1.865  -1.067  0.00  0.00    -0.097 F 
ATOM     12  F4  UNL d   1       3.624   3.476   1.134  0.00  0.00    -0.092 F 
ENDROOT
TORSDOF 0
ENDMDL
