MODEL 1
REMARK minimizedAffinity 0.522703886
REMARK minimizedRMSD -1
REMARK  0 active torsions:
REMARK  status: ('A' for Active; 'I' for Inactive)
ROOT
ATOM      1  C   UNL d   1      -1.690  -1.060  -0.341  0.00  0.00     0.124 A 
ATOM      2  C1  UNL d   1      -0.792  -1.096   0.717  0.00  0.00     0.062 A 
ATOM      3  C2  UNL d   1       0.337  -0.283   0.706  0.00  0.00     0.162 A 
ATOM      4  C3  UNL d   1       0.575   0.576  -0.368  0.00  0.00    -0.034 A 
ATOM      5  C4  UNL d   1      -0.332   0.606  -1.429  0.00  0.00     0.162 A 
ATOM      6  C5  UNL d   1      -1.459  -0.209  -1.413  0.00  0.00     0.062 A 
ATOM      7  F   UNL d   1      -2.325  -0.172  -2.436  0.00  0.00    -0.097 F 
ATOM      8  F1  UNL d   1      -0.133   1.420  -2.476  0.00  0.00    -0.096 F 
ATOM      9  I   UNL d   1       2.262   1.794  -0.389  0.00  0.00    -0.060 I 
ATOM     10  F2  UNL d   1       1.187  -0.339   1.742  0.00  0.00    -0.096 F 
ATOM     11  F3  UNL d   1      -1.013  -1.918   1.753  0.00  0.00    -0.097 F 
ATOM     12  F4  UNL d   1      -2.775  -1.844  -0.328  0.00  0.00    -0.092 F 
ENDROOT
TORSDOF 0
ENDMDL
