MODEL 1
REMARK minimizedAffinity 1.17564142
REMARK minimizedRMSD -1
REMARK  0 active torsions:
REMARK  status: ('A' for Active; 'I' for Inactive)
ROOT
ATOM      1  C   UNL d   1      -1.605  -1.672  -0.318  0.00  0.00     0.124 A 
ATOM      2  C1  UNL d   1      -0.633  -1.890   0.648  0.00  0.00     0.062 A 
ATOM      3  C2  UNL d   1       0.386  -0.961   0.837  0.00  0.00     0.162 A 
ATOM      4  C3  UNL d   1       0.438   0.195   0.059  0.00  0.00    -0.034 A 
ATOM      5  C4  UNL d   1      -0.543   0.407  -0.911  0.00  0.00     0.162 A 
ATOM      6  C5  UNL d   1      -1.560  -0.524  -1.097  0.00  0.00     0.062 A 
ATOM      7  F   UNL d   1      -2.499  -0.312  -2.030  0.00  0.00    -0.097 F 
ATOM      8  F1  UNL d   1      -0.524   1.508  -1.677  0.00  0.00    -0.096 F 
ATOM      9  I   UNL d   1       1.960   1.587   0.339  0.00  0.00    -0.060 I 
ATOM     10  F2  UNL d   1       1.313  -1.197   1.778  0.00  0.00    -0.096 F 
ATOM     11  F3  UNL d   1      -0.674  -2.999   1.401  0.00  0.00    -0.097 F 
ATOM     12  F4  UNL d   1      -2.584  -2.568  -0.499  0.00  0.00    -0.092 F 
ENDROOT
TORSDOF 0
ENDMDL
