MODEL 1
REMARK minimizedAffinity 0.0923502594
REMARK minimizedRMSD -1
REMARK  0 active torsions:
REMARK  status: ('A' for Active; 'I' for Inactive)
ROOT
ATOM      1  C   UNL d   1       2.783   1.279   2.686  0.00  0.00     0.124 A 
ATOM      2  C1  UNL d   1       2.407   2.295   1.818  0.00  0.00     0.062 A 
ATOM      3  C2  UNL d   1       1.587   2.017   0.729  0.00  0.00     0.162 A 
ATOM      4  C3  UNL d   1       1.134   0.718   0.501  0.00  0.00    -0.034 A 
ATOM      5  C4  UNL d   1       1.517  -0.299   1.378  0.00  0.00     0.162 A 
ATOM      6  C5  UNL d   1       2.337  -0.017   2.465  0.00  0.00     0.062 A 
ATOM      7  F   UNL d   1       2.699  -1.000   3.303  0.00  0.00    -0.097 F 
ATOM      8  F1  UNL d   1       1.100  -1.560   1.189  0.00  0.00    -0.096 F 
ATOM      9  I   UNL d   1      -0.093   0.298  -1.126  0.00  0.00    -0.060 I 
ATOM     10  F2  UNL d   1       1.240   3.019  -0.094  0.00  0.00    -0.096 F 
ATOM     11  F3  UNL d   1       2.837   3.547   2.029  0.00  0.00    -0.097 F 
ATOM     12  F4  UNL d   1       3.573   1.549   3.733  0.00  0.00    -0.092 F 
ENDROOT
TORSDOF 0
ENDMDL
