MODEL 1
REMARK minimizedAffinity 1.10312855
REMARK minimizedRMSD -1
REMARK  0 active torsions:
REMARK  status: ('A' for Active; 'I' for Inactive)
ROOT
ATOM      1  C   UNL d   1       0.066  -1.609   1.025  0.00  0.00     0.124 A 
ATOM      2  C1  UNL d   1      -0.482  -0.632   0.205  0.00  0.00     0.062 A 
ATOM      3  C2  UNL d   1       0.213   0.549  -0.037  0.00  0.00     0.162 A 
ATOM      4  C3  UNL d   1       1.465   0.760   0.541  0.00  0.00    -0.034 A 
ATOM      5  C4  UNL d   1       2.009  -0.226   1.365  0.00  0.00     0.162 A 
ATOM      6  C5  UNL d   1       1.311  -1.405   1.604  0.00  0.00     0.062 A 
ATOM      7  F   UNL d   1       1.842  -2.348   2.397  0.00  0.00    -0.097 F 
ATOM      8  F1  UNL d   1       3.211  -0.056   1.937  0.00  0.00    -0.096 F 
ATOM      9  I   UNL d   1       2.508   2.525   0.181  0.00  0.00    -0.060 I 
ATOM     10  F2  UNL d   1      -0.340   1.475  -0.834  0.00  0.00    -0.096 F 
ATOM     11  F3  UNL d   1      -1.684  -0.826  -0.355  0.00  0.00    -0.097 F 
ATOM     12  F4  UNL d   1      -0.605  -2.744   1.257  0.00  0.00    -0.092 F 
ENDROOT
TORSDOF 0
ENDMDL
