MODEL 1
REMARK minimizedAffinity 1.05741644
REMARK minimizedRMSD -1
REMARK  0 active torsions:
REMARK  status: ('A' for Active; 'I' for Inactive)
ROOT
ATOM      1  C   UNL d   1       2.801   2.380   1.270  0.00  0.00     0.124 A 
ATOM      2  C1  UNL d   1       3.007   1.472   0.241  0.00  0.00     0.062 A 
ATOM      3  C2  UNL d   1       2.010   0.563  -0.100  0.00  0.00     0.162 A 
ATOM      4  C3  UNL d   1       0.797   0.557   0.588  0.00  0.00    -0.034 A 
ATOM      5  C4  UNL d   1       0.598   1.472   1.623  0.00  0.00     0.162 A 
ATOM      6  C5  UNL d   1       1.597   2.379   1.960  0.00  0.00     0.062 A 
ATOM      7  F   UNL d   1       1.397   3.255   2.956  0.00  0.00    -0.097 F 
ATOM      8  F1  UNL d   1      -0.557   1.495   2.306  0.00  0.00    -0.096 F 
ATOM      9  I   UNL d   1      -0.697  -0.801   0.081  0.00  0.00    -0.060 I 
ATOM     10  F2  UNL d   1       2.236  -0.303  -1.100  0.00  0.00    -0.096 F 
ATOM     11  F3  UNL d   1       4.170   1.469  -0.427  0.00  0.00    -0.097 F 
ATOM     12  F4  UNL d   1       3.763   3.253   1.597  0.00  0.00    -0.092 F 
ENDROOT
TORSDOF 0
ENDMDL
