MODEL 1
REMARK minimizedAffinity 8.43677521
REMARK minimizedRMSD -1
REMARK  0 active torsions:
REMARK  status: ('A' for Active; 'I' for Inactive)
ROOT
ATOM      1  C   UNL d   1      -2.950  -1.316  -0.037  0.00  0.00     0.124 A 
ATOM      2  C1  UNL d   1      -2.353  -0.551  -1.029  0.00  0.00     0.062 A 
ATOM      3  C2  UNL d   1      -0.971  -0.385  -1.049  0.00  0.00     0.162 A 
ATOM      4  C3  UNL d   1      -0.176  -0.987  -0.074  0.00  0.00    -0.034 A 
ATOM      5  C4  UNL d   1      -0.784  -1.755   0.921  0.00  0.00     0.162 A 
ATOM      6  C5  UNL d   1      -2.165  -1.917   0.937  0.00  0.00     0.062 A 
ATOM      7  F   UNL d   1      -2.740  -2.657   1.896  0.00  0.00    -0.097 F 
ATOM      8  F1  UNL d   1      -0.049  -2.347   1.874  0.00  0.00    -0.096 F 
ATOM      9  I   UNL d   1       1.890  -0.742  -0.100  0.00  0.00    -0.060 I 
ATOM     10  F2  UNL d   1      -0.421   0.359  -2.020  0.00  0.00    -0.096 F 
ATOM     11  F3  UNL d   1      -3.109   0.031  -1.971  0.00  0.00    -0.097 F 
ATOM     12  F4  UNL d   1      -4.280  -1.473  -0.020  0.00  0.00    -0.092 F 
ENDROOT
TORSDOF 0
ENDMDL
