MODEL 1
REMARK minimizedAffinity 20.2087193
REMARK minimizedRMSD -1
REMARK  0 active torsions:
REMARK  status: ('A' for Active; 'I' for Inactive)
ROOT
ATOM      1  C   UNL d   1      -0.618  -0.607  -1.148  0.00  0.00     0.124 A 
ATOM      2  C1  UNL d   1       0.456  -0.758  -0.282  0.00  0.00     0.062 A 
ATOM      3  C2  UNL d   1       0.307  -1.480   0.898  0.00  0.00     0.162 A 
ATOM      4  C3  UNL d   1      -0.920  -2.058   1.220  0.00  0.00    -0.034 A 
ATOM      5  C4  UNL d   1      -1.997  -1.902   0.344  0.00  0.00     0.162 A 
ATOM      6  C5  UNL d   1      -1.843  -1.179  -0.834  0.00  0.00     0.062 A 
ATOM      7  F   UNL d   1      -2.882  -1.035  -1.670  0.00  0.00    -0.097 F 
ATOM      8  F1  UNL d   1      -3.191  -2.445   0.623  0.00  0.00    -0.096 F 
ATOM      9  I   UNL d   1      -1.146  -3.139   2.984  0.00  0.00    -0.060 I 
ATOM     10  F2  UNL d   1       1.363  -1.609   1.716  0.00  0.00    -0.096 F 
ATOM     11  F3  UNL d   1       1.640  -0.205  -0.583  0.00  0.00    -0.097 F 
ATOM     12  F4  UNL d   1      -0.473   0.089  -2.283  0.00  0.00    -0.092 F 
ENDROOT
TORSDOF 0
ENDMDL
