MODEL 1
REMARK minimizedAffinity -0.773073733
REMARK minimizedRMSD -1
REMARK  0 active torsions:
REMARK  status: ('A' for Active; 'I' for Inactive)
ROOT
ATOM      1  C   UNL d   1      -1.566  -1.820   0.180  0.00  0.00     0.124 A 
ATOM      2  C1  UNL d   1      -0.442  -1.969   0.980  0.00  0.00     0.062 A 
ATOM      3  C2  UNL d   1       0.648  -1.118   0.822  0.00  0.00     0.162 A 
ATOM      4  C3  UNL d   1       0.619  -0.108  -0.140  0.00  0.00    -0.034 A 
ATOM      5  C4  UNL d   1      -0.515   0.035  -0.942  0.00  0.00     0.162 A 
ATOM      6  C5  UNL d   1      -1.601  -0.818  -0.780  0.00  0.00     0.062 A 
ATOM      7  F   UNL d   1      -2.687  -0.673  -1.554  0.00  0.00    -0.097 F 
ATOM      8  F1  UNL d   1      -0.576   0.995  -1.877  0.00  0.00    -0.096 F 
ATOM      9  I   UNL d   1       2.246   1.167  -0.379  0.00  0.00    -0.060 I 
ATOM     10  F2  UNL d   1       1.721  -1.285   1.609  0.00  0.00    -0.096 F 
ATOM     11  F3  UNL d   1      -0.404  -2.937   1.907  0.00  0.00    -0.097 F 
ATOM     12  F4  UNL d   1      -2.613  -2.641   0.333  0.00  0.00    -0.092 F 
ENDROOT
TORSDOF 0
ENDMDL
