MODEL 1
REMARK minimizedAffinity -2.73701859
REMARK minimizedRMSD -1
REMARK  0 active torsions:
REMARK  status: ('A' for Active; 'I' for Inactive)
ROOT
ATOM      1  C   UNL d   1      -2.011  -1.305  -0.273  0.00  0.00     0.124 A 
ATOM      2  C1  UNL d   1      -0.944  -1.600   0.564  0.00  0.00     0.062 A 
ATOM      3  C2  UNL d   1       0.197  -0.803   0.553  0.00  0.00     0.162 A 
ATOM      4  C3  UNL d   1       0.276   0.299  -0.298  0.00  0.00    -0.034 A 
ATOM      5  C4  UNL d   1      -0.801   0.590  -1.138  0.00  0.00     0.162 A 
ATOM      6  C5  UNL d   1      -1.938  -0.210  -1.123  0.00  0.00     0.062 A 
ATOM      7  F   UNL d   1      -2.968   0.077  -1.932  0.00  0.00    -0.097 F 
ATOM      8  F1  UNL d   1      -0.758   1.642  -1.969  0.00  0.00    -0.096 F 
ATOM      9  I   UNL d   1       1.980   1.495  -0.319  0.00  0.00    -0.060 I 
ATOM     10  F2  UNL d   1       1.213  -1.112   1.372  0.00  0.00    -0.096 F 
ATOM     11  F3  UNL d   1      -1.011  -2.658   1.386  0.00  0.00    -0.097 F 
ATOM     12  F4  UNL d   1      -3.107  -2.074  -0.260  0.00  0.00    -0.092 F 
ENDROOT
TORSDOF 0
ENDMDL
