MODEL 1
REMARK minimizedAffinity -0.660927594
REMARK minimizedRMSD -1
REMARK  0 active torsions:
REMARK  status: ('A' for Active; 'I' for Inactive)
ROOT
ATOM      1  C   UNL d   1       1.399  -1.717   1.275  0.00  0.00     0.124 A 
ATOM      2  C1  UNL d   1       0.077  -2.115   1.133  0.00  0.00     0.062 A 
ATOM      3  C2  UNL d   1      -0.779  -1.412   0.291  0.00  0.00     0.162 A 
ATOM      4  C3  UNL d   1      -0.316  -0.304  -0.419  0.00  0.00    -0.034 A 
ATOM      5  C4  UNL d   1       1.015   0.091  -0.271  0.00  0.00     0.162 A 
ATOM      6  C5  UNL d   1       1.867  -0.614   0.573  0.00  0.00     0.062 A 
ATOM      7  F   UNL d   1       3.144  -0.228   0.708  0.00  0.00    -0.097 F 
ATOM      8  F1  UNL d   1       1.493   1.152  -0.938  0.00  0.00    -0.096 F 
ATOM      9  I   UNL d   1      -1.594   0.749  -1.680  0.00  0.00    -0.060 I 
ATOM     10  F2  UNL d   1      -2.052  -1.820   0.173  0.00  0.00    -0.096 F 
ATOM     11  F3  UNL d   1      -0.377  -3.179   1.811  0.00  0.00    -0.097 F 
ATOM     12  F4  UNL d   1       2.221  -2.394   2.087  0.00  0.00    -0.092 F 
ENDROOT
TORSDOF 0
ENDMDL
