MODEL 1
REMARK minimizedAffinity -0.673659563
REMARK minimizedRMSD -1
REMARK  0 active torsions:
REMARK  status: ('A' for Active; 'I' for Inactive)
ROOT
ATOM      1  C   UNL d   1       2.012   1.910   1.301  0.00  0.00     0.124 A 
ATOM      2  C1  UNL d   1       1.336   2.736   0.413  0.00  0.00     0.062 A 
ATOM      3  C2  UNL d   1       0.276   2.237  -0.338  0.00  0.00     0.162 A 
ATOM      4  C3  UNL d   1      -0.116   0.905  -0.205  0.00  0.00    -0.034 A 
ATOM      5  C4  UNL d   1       0.569   0.080   0.689  0.00  0.00     0.162 A 
ATOM      6  C5  UNL d   1       1.628   0.583   1.438  0.00  0.00     0.062 A 
ATOM      7  F   UNL d   1       2.279  -0.216   2.295  0.00  0.00    -0.097 F 
ATOM      8  F1  UNL d   1       0.218  -1.205   0.842  0.00  0.00    -0.096 F 
ATOM      9  I   UNL d   1      -1.701   0.156  -1.327  0.00  0.00    -0.060 I 
ATOM     10  F2  UNL d   1      -0.359   3.058  -1.188  0.00  0.00    -0.096 F 
ATOM     11  F3  UNL d   1       1.706   4.017   0.278  0.00  0.00    -0.097 F 
ATOM     12  F4  UNL d   1       3.032   2.392   2.022  0.00  0.00    -0.092 F 
ENDROOT
TORSDOF 0
ENDMDL
