MODEL 1
REMARK minimizedAffinity 0.886344254
REMARK minimizedRMSD -1
REMARK  0 active torsions:
REMARK  status: ('A' for Active; 'I' for Inactive)
ROOT
ATOM      1  C   UNL d   1       1.989   2.336   0.960  0.00  0.00     0.124 A 
ATOM      2  C1  UNL d   1       0.670   2.769   0.941  0.00  0.00     0.062 A 
ATOM      3  C2  UNL d   1      -0.321   1.969   0.380  0.00  0.00     0.162 A 
ATOM      4  C3  UNL d   1       0.002   0.726  -0.165  0.00  0.00    -0.034 A 
ATOM      5  C4  UNL d   1       1.330   0.298  -0.143  0.00  0.00     0.162 A 
ATOM      6  C5  UNL d   1       2.318   1.102   0.418  0.00  0.00     0.062 A 
ATOM      7  F   UNL d   1       3.591   0.682   0.436  0.00  0.00    -0.097 F 
ATOM      8  F1  UNL d   1       1.676  -0.891  -0.658  0.00  0.00    -0.096 F 
ATOM      9  I   UNL d   1      -1.478  -0.473  -1.004  0.00  0.00    -0.060 I 
ATOM     10  F2  UNL d   1      -1.587   2.413   0.375  0.00  0.00    -0.096 F 
ATOM     11  F3  UNL d   1       0.350   3.962   1.462  0.00  0.00    -0.097 F 
ATOM     12  F4  UNL d   1       2.941   3.109   1.499  0.00  0.00    -0.092 F 
ENDROOT
TORSDOF 0
ENDMDL
