MODEL 1
REMARK minimizedAffinity 3.72613025
REMARK minimizedRMSD -1
REMARK  0 active torsions:
REMARK  status: ('A' for Active; 'I' for Inactive)
ROOT
ATOM      1  C   UNL d   1      -1.625  -1.424  -0.133  0.00  0.00     0.124 A 
ATOM      2  C1  UNL d   1      -0.595  -1.659   0.766  0.00  0.00     0.062 A 
ATOM      3  C2  UNL d   1       0.481  -0.779   0.843  0.00  0.00     0.162 A 
ATOM      4  C3  UNL d   1       0.532   0.344   0.018  0.00  0.00    -0.034 A 
ATOM      5  C4  UNL d   1      -0.507   0.573  -0.886  0.00  0.00     0.162 A 
ATOM      6  C5  UNL d   1      -1.581  -0.309  -0.958  0.00  0.00     0.062 A 
ATOM      7  F   UNL d   1      -2.575  -0.081  -1.828  0.00  0.00    -0.097 F 
ATOM      8  F1  UNL d   1      -0.490   1.643  -1.694  0.00  0.00    -0.096 F 
ATOM      9  I   UNL d   1       2.140   1.661   0.129  0.00  0.00    -0.060 I 
ATOM     10  F2  UNL d   1       1.463  -1.031   1.722  0.00  0.00    -0.096 F 
ATOM     11  F3  UNL d   1      -0.635  -2.736   1.564  0.00  0.00    -0.097 F 
ATOM     12  F4  UNL d   1      -2.659  -2.272  -0.205  0.00  0.00    -0.092 F 
ENDROOT
TORSDOF 0
ENDMDL
