MODEL 1
REMARK minimizedAffinity -4.0434823
REMARK minimizedRMSD -1
REMARK  1 active torsions:
REMARK  status: ('A' for Active; 'I' for Inactive)
REMARK    1  A    between atoms: N_2  and  C1_3 
ROOT
ATOM      1  C1  UNL d   1      -5.674  -4.260   0.647  0.00  0.00     0.143 A 
ATOM      2  C2  UNL d   1      -5.627  -2.877   0.441  0.00  0.00    -0.057 A 
ATOM      3  C3  UNL d   1      -5.624  -2.335  -0.850  0.00  0.00     0.033 A 
ATOM      4  C4  UNL d   1      -5.639  -3.170  -1.962  0.00  0.00    -0.042 A 
ATOM      5  C5  UNL d   1      -5.661  -4.549  -1.781  0.00  0.00     0.033 A 
ATOM      6  C6  UNL d   1      -5.670  -5.084  -0.489  0.00  0.00    -0.057 A 
ENDROOT
BRANCH   1   7
ATOM      7  N   UNL d   1      -5.580  -4.863   1.904  0.00  0.00    -0.732 N 
ATOM      8  C   UNL d   1      -4.698  -5.991   2.116  0.00  0.00     0.284 C 
ATOM      9  H3  UNL d   1      -5.575  -4.183   2.661  0.00  0.00     0.395 HD
ENDBRANCH   1   7
TORSDOF 1
ENDMDL
