MODEL 1
REMARK minimizedAffinity 6.42231131
REMARK minimizedRMSD -1
REMARK  1 active torsions:
REMARK  status: ('A' for Active; 'I' for Inactive)
REMARK    1  A    between atoms: N_2  and  C1_3 
ROOT
ATOM      1  C1  UNL d   1      -5.436  -3.410  -0.991  0.00  0.00     0.143 A 
ATOM      2  C2  UNL d   1      -5.706  -4.545  -1.762  0.00  0.00    -0.057 A 
ATOM      3  C3  UNL d   1      -5.400  -5.830  -1.297  0.00  0.00     0.033 A 
ATOM      4  C4  UNL d   1      -4.789  -6.000  -0.059  0.00  0.00    -0.042 A 
ATOM      5  C5  UNL d   1      -4.488  -4.884   0.714  0.00  0.00     0.033 A 
ATOM      6  C6  UNL d   1      -4.802  -3.605   0.247  0.00  0.00    -0.057 A 
ENDROOT
BRANCH   1   7
ATOM      7  N   UNL d   1      -5.626  -2.101  -1.439  0.00  0.00    -0.732 N 
ATOM      8  C   UNL d   1      -5.778  -1.820  -2.851  0.00  0.00     0.284 C 
ATOM      9  H3  UNL d   1      -6.257  -1.573  -0.841  0.00  0.00     0.395 HD
ENDBRANCH   1   7
TORSDOF 1
ENDMDL
