MODEL 1
REMARK minimizedAffinity 3.35157156
REMARK minimizedRMSD -1
REMARK  1 active torsions:
REMARK  status: ('A' for Active; 'I' for Inactive)
REMARK    1  A    between atoms: N_2  and  C1_3 
ROOT
ATOM      1  C1  UNL d   1       1.564  -0.332   3.274  0.00  0.00     0.143 A 
ATOM      2  C2  UNL d   1       0.885   0.622   2.508  0.00  0.00    -0.057 A 
ATOM      3  C3  UNL d   1      -0.510   0.598   2.389  0.00  0.00     0.033 A 
ATOM      4  C4  UNL d   1      -1.250  -0.401   3.013  0.00  0.00    -0.042 A 
ATOM      5  C5  UNL d   1      -0.594  -1.374   3.759  0.00  0.00     0.033 A 
ATOM      6  C6  UNL d   1       0.799  -1.340   3.880  0.00  0.00    -0.057 A 
ENDROOT
BRANCH   1   7
ATOM      7  N   UNL d   1       2.956  -0.419   3.351  0.00  0.00    -0.732 N 
ATOM      8  C   UNL d   1       3.770  -0.282   2.163  0.00  0.00     0.284 C 
ATOM      9  H3  UNL d   1       3.331   0.056   4.169  0.00  0.00     0.395 HD
ENDBRANCH   1   7
TORSDOF 1
ENDMDL
