MODEL 1
REMARK minimizedAffinity -0.2748335
REMARK minimizedRMSD -1
REMARK  1 active torsions:
REMARK  status: ('A' for Active; 'I' for Inactive)
REMARK    1  A    between atoms: N_2  and  C1_3 
ROOT
ATOM      1  C1  UNL d   1      -5.991  -3.622  -2.348  0.00  0.00     0.143 A 
ATOM      2  C2  UNL d   1      -5.955  -4.996  -2.609  0.00  0.00    -0.057 A 
ATOM      3  C3  UNL d   1      -5.967  -5.933  -1.568  0.00  0.00     0.033 A 
ATOM      4  C4  UNL d   1      -5.987  -5.509  -0.244  0.00  0.00    -0.042 A 
ATOM      5  C5  UNL d   1      -5.998  -4.148   0.039  0.00  0.00     0.033 A 
ATOM      6  C6  UNL d   1      -5.993  -3.218  -1.004  0.00  0.00    -0.057 A 
ENDROOT
BRANCH   1   7
ATOM      7  N   UNL d   1      -5.882  -2.640  -3.336  0.00  0.00    -0.732 N 
ATOM      8  C   UNL d   1      -5.236  -1.376  -3.051  0.00  0.00     0.284 C 
ATOM      9  H3  UNL d   1      -5.650  -3.029  -4.247  0.00  0.00     0.395 HD
ENDBRANCH   1   7
TORSDOF 1
ENDMDL
