MODEL 1
REMARK minimizedAffinity 8.87455082
REMARK minimizedRMSD -1
REMARK  1 active torsions:
REMARK  status: ('A' for Active; 'I' for Inactive)
REMARK    1  A    between atoms: N_2  and  C1_3 
ROOT
ATOM      1  C1  UNL d   1       4.573   4.197  -5.048  0.00  0.00     0.143 A 
ATOM      2  C2  UNL d   1       3.558   4.050  -6.000  0.00  0.00    -0.057 A 
ATOM      3  C3  UNL d   1       2.307   4.654  -5.827  0.00  0.00     0.033 A 
ATOM      4  C4  UNL d   1       2.038   5.395  -4.681  0.00  0.00    -0.042 A 
ATOM      5  C5  UNL d   1       3.023   5.534  -3.710  0.00  0.00     0.033 A 
ATOM      6  C6  UNL d   1       4.273   4.934  -3.891  0.00  0.00    -0.057 A 
ENDROOT
BRANCH   1   7
ATOM      7  N   UNL d   1       5.804   3.540  -5.116  0.00  0.00    -0.732 N 
ATOM      8  C   UNL d   1       5.987   2.406  -5.995  0.00  0.00     0.284 C 
ATOM      9  H3  UNL d   1       6.590   4.186  -5.102  0.00  0.00     0.395 HD
ENDBRANCH   1   7
TORSDOF 1
ENDMDL
