MODEL 1
REMARK minimizedAffinity -0.0374508686
REMARK minimizedRMSD -1
REMARK  1 active torsions:
REMARK  status: ('A' for Active; 'I' for Inactive)
REMARK    1  A    between atoms: N_2  and  C1_3 
ROOT
ATOM      1  C1  UNL d   1      -5.494  -5.251  -0.135  0.00  0.00     0.143 A 
ATOM      2  C2  UNL d   1      -5.743  -3.874  -0.126  0.00  0.00    -0.057 A 
ATOM      3  C3  UNL d   1      -5.921  -3.161  -1.317  0.00  0.00     0.033 A 
ATOM      4  C4  UNL d   1      -5.824  -3.808  -2.545  0.00  0.00    -0.042 A 
ATOM      5  C5  UNL d   1      -5.551  -5.171  -2.579  0.00  0.00     0.033 A 
ATOM      6  C6  UNL d   1      -5.381  -5.880  -1.385  0.00  0.00    -0.057 A 
ENDROOT
BRANCH   1   7
ATOM      7  N   UNL d   1      -5.210  -5.997   1.011  0.00  0.00    -0.732 N 
ATOM      8  C   UNL d   1      -6.000  -5.832   2.212  0.00  0.00     0.284 C 
ATOM      9  H3  UNL d   1      -4.977  -6.964   0.797  0.00  0.00     0.395 HD
ENDBRANCH   1   7
TORSDOF 1
ENDMDL
