MODEL 1
REMARK minimizedAffinity 0.406055689
REMARK minimizedRMSD -1
REMARK  1 active torsions:
REMARK  status: ('A' for Active; 'I' for Inactive)
REMARK    1  A    between atoms: N_2  and  C1_3 
ROOT
ATOM      1  C1  UNL d   1       3.024   0.481   2.025  0.00  0.00     0.143 A 
ATOM      2  C2  UNL d   1       2.258   1.568   1.591  0.00  0.00    -0.057 A 
ATOM      3  C3  UNL d   1       0.968   1.791   2.086  0.00  0.00     0.033 A 
ATOM      4  C4  UNL d   1       0.407   0.912   3.007  0.00  0.00    -0.042 A 
ATOM      5  C5  UNL d   1       1.141  -0.190   3.434  0.00  0.00     0.033 A 
ATOM      6  C6  UNL d   1       2.431  -0.404   2.941  0.00  0.00    -0.057 A 
ENDROOT
BRANCH   1   7
ATOM      7  N   UNL d   1       4.274   0.149   1.497  0.00  0.00    -0.732 N 
ATOM      8  C   UNL d   1       5.449   0.130   2.341  0.00  0.00     0.284 C 
ATOM      9  H3  UNL d   1       4.224  -0.623   0.836  0.00  0.00     0.395 HD
ENDBRANCH   1   7
TORSDOF 1
ENDMDL
