MODEL 1
REMARK minimizedAffinity 7.72021675
REMARK minimizedRMSD -1
REMARK  1 active torsions:
REMARK  status: ('A' for Active; 'I' for Inactive)
REMARK    1  A    between atoms: N_2  and  C1_3 
ROOT
ATOM      1  C1  UNL d   1       2.611   5.028  -5.007  0.00  0.00     0.143 A 
ATOM      2  C2  UNL d   1       3.982   5.178  -4.773  0.00  0.00    -0.057 A 
ATOM      3  C3  UNL d   1       4.897   4.193  -5.164  0.00  0.00     0.033 A 
ATOM      4  C4  UNL d   1       4.452   3.023  -5.772  0.00  0.00    -0.042 A 
ATOM      5  C5  UNL d   1       3.091   2.842  -5.992  0.00  0.00     0.033 A 
ATOM      6  C6  UNL d   1       2.183   3.833  -5.606  0.00  0.00    -0.057 A 
ENDROOT
BRANCH   1   7
ATOM      7  N   UNL d   1       1.642   5.927  -4.554  0.00  0.00    -0.732 N 
ATOM      8  C   UNL d   1       0.305   5.910  -5.106  0.00  0.00     0.284 C 
ATOM      9  H3  UNL d   1       1.674   6.056  -3.545  0.00  0.00     0.395 HD
ENDBRANCH   1   7
TORSDOF 1
ENDMDL
