MODEL 1
REMARK minimizedAffinity -0.303481072
REMARK minimizedRMSD -1
REMARK  1 active torsions:
REMARK  status: ('A' for Active; 'I' for Inactive)
REMARK    1  A    between atoms: N_2  and  C1_3 
ROOT
ATOM      1  C1  UNL d   1      -5.884  -4.265  -1.957  0.00  0.00     0.143 A 
ATOM      2  C2  UNL d   1      -5.923  -3.197  -1.054  0.00  0.00    -0.057 A 
ATOM      3  C3  UNL d   1      -5.995  -1.871  -1.500  0.00  0.00     0.033 A 
ATOM      4  C4  UNL d   1      -6.000  -1.589  -2.862  0.00  0.00    -0.042 A 
ATOM      5  C5  UNL d   1      -5.937  -2.633  -3.777  0.00  0.00     0.033 A 
ATOM      6  C6  UNL d   1      -5.872  -3.955  -3.326  0.00  0.00    -0.057 A 
ENDROOT
BRANCH   1   7
ATOM      7  N   UNL d   1      -5.713  -5.598  -1.578  0.00  0.00    -0.732 N 
ATOM      8  C   UNL d   1      -4.570  -5.999  -0.786  0.00  0.00     0.284 C 
ATOM      9  H3  UNL d   1      -6.587  -6.037  -1.297  0.00  0.00     0.395 HD
ENDBRANCH   1   7
TORSDOF 1
ENDMDL
