MODEL 1
REMARK minimizedAffinity 7.26381493
REMARK minimizedRMSD -1
REMARK  1 active torsions:
REMARK  status: ('A' for Active; 'I' for Inactive)
REMARK    1  A    between atoms: N_2  and  C1_3 
ROOT
ATOM      1  C1  UNL d   1       2.268   3.470  -2.252  0.00  0.00     0.143 A 
ATOM      2  C2  UNL d   1       3.192   2.745  -3.013  0.00  0.00    -0.057 A 
ATOM      3  C3  UNL d   1       3.914   3.351  -4.048  0.00  0.00     0.033 A 
ATOM      4  C4  UNL d   1       3.702   4.690  -4.362  0.00  0.00    -0.042 A 
ATOM      5  C5  UNL d   1       2.770   5.423  -3.635  0.00  0.00     0.033 A 
ATOM      6  C6  UNL d   1       2.058   4.814  -2.598  0.00  0.00    -0.057 A 
ENDROOT
BRANCH   1   7
ATOM      7  N   UNL d   1       1.449   2.900  -1.274  0.00  0.00    -0.732 N 
ATOM      8  C   UNL d   1       1.905   2.785   0.094  0.00  0.00     0.284 C 
ATOM      9  H3  UNL d   1       0.477   3.189  -1.366  0.00  0.00     0.395 HD
ENDBRANCH   1   7
TORSDOF 1
ENDMDL
