MODEL 1
REMARK minimizedAffinity 2.73983669
REMARK minimizedRMSD -1
REMARK  1 active torsions:
REMARK  status: ('A' for Active; 'I' for Inactive)
REMARK    1  A    between atoms: N_2  and  C1_3 
ROOT
ATOM      1  C1  UNL d   1       0.931   1.894   3.440  0.00  0.00     0.143 A 
ATOM      2  C2  UNL d   1       1.488   0.611   3.396  0.00  0.00    -0.057 A 
ATOM      3  C3  UNL d   1       0.704  -0.510   3.098  0.00  0.00     0.033 A 
ATOM      4  C4  UNL d   1      -0.661  -0.371   2.867  0.00  0.00    -0.042 A 
ATOM      5  C5  UNL d   1      -1.240   0.891   2.931  0.00  0.00     0.033 A 
ATOM      6  C6  UNL d   1      -0.451   2.008   3.222  0.00  0.00    -0.057 A 
ENDROOT
BRANCH   1   7
ATOM      7  N   UNL d   1       1.638   3.035   3.827  0.00  0.00    -0.732 N 
ATOM      8  C   UNL d   1       2.015   3.236   5.210  0.00  0.00     0.284 C 
ATOM      9  H3  UNL d   1       2.361   3.290   3.158  0.00  0.00     0.395 HD
ENDBRANCH   1   7
TORSDOF 1
ENDMDL
