MODEL 1
REMARK minimizedAffinity 9.21449089
REMARK minimizedRMSD -1
REMARK  1 active torsions:
REMARK  status: ('A' for Active; 'I' for Inactive)
REMARK    1  A    between atoms: N_2  and  C1_3 
ROOT
ATOM      1  C1  UNL d   1       2.458   4.175  -3.145  0.00  0.00     0.143 A 
ATOM      2  C2  UNL d   1       3.711   3.968  -3.732  0.00  0.00    -0.057 A 
ATOM      3  C3  UNL d   1       3.921   4.206  -5.096  0.00  0.00     0.033 A 
ATOM      4  C4  UNL d   1       2.871   4.628  -5.905  0.00  0.00    -0.042 A 
ATOM      5  C5  UNL d   1       1.611   4.816  -5.347  0.00  0.00     0.033 A 
ATOM      6  C6  UNL d   1       1.409   4.584  -3.983  0.00  0.00    -0.057 A 
ENDROOT
BRANCH   1   7
ATOM      7  N   UNL d   1       2.161   3.862  -1.816  0.00  0.00    -0.732 N 
ATOM      8  C   UNL d   1       1.860   2.501  -1.428  0.00  0.00     0.284 C 
ATOM      9  H3  UNL d   1       2.757   4.359  -1.157  0.00  0.00     0.395 HD
ENDBRANCH   1   7
TORSDOF 1
ENDMDL
