MODEL 1
REMARK minimizedAffinity 11.4688311
REMARK minimizedRMSD -1
REMARK  1 active torsions:
REMARK  status: ('A' for Active; 'I' for Inactive)
REMARK    1  A    between atoms: N_2  and  C1_3 
ROOT
ATOM      1  C1  UNL d   1       2.690   3.730  -2.045  0.00  0.00     0.143 A 
ATOM      2  C2  UNL d   1       2.431   4.699  -3.020  0.00  0.00    -0.057 A 
ATOM      3  C3  UNL d   1       3.331   4.936  -4.066  0.00  0.00     0.033 A 
ATOM      4  C4  UNL d   1       4.524   4.226  -4.139  0.00  0.00    -0.042 A 
ATOM      5  C5  UNL d   1       4.815   3.275  -3.167  0.00  0.00     0.033 A 
ATOM      6  C6  UNL d   1       3.909   3.039  -2.128  0.00  0.00    -0.057 A 
ENDROOT
BRANCH   1   7
ATOM      7  N   UNL d   1       1.882   3.517  -0.925  0.00  0.00    -0.732 N 
ATOM      8  C   UNL d   1       2.469   3.185   0.355  0.00  0.00     0.284 C 
ATOM      9  H3  UNL d   1       1.112   4.179  -0.871  0.00  0.00     0.395 HD
ENDBRANCH   1   7
TORSDOF 1
ENDMDL
