MODEL 1
REMARK minimizedAffinity 1.07301354
REMARK minimizedRMSD -1
REMARK  1 active torsions:
REMARK  status: ('A' for Active; 'I' for Inactive)
REMARK    1  A    between atoms: N_2  and  C1_3 
ROOT
ATOM      1  C1  UNL d   1       1.509   0.189  -2.480  0.00  0.00     0.143 A 
ATOM      2  C2  UNL d   1       0.475   0.339  -1.549  0.00  0.00    -0.057 A 
ATOM      3  C3  UNL d   1       0.378   1.486  -0.751  0.00  0.00     0.033 A 
ATOM      4  C4  UNL d   1       1.332   2.492  -0.850  0.00  0.00    -0.042 A 
ATOM      5  C5  UNL d   1       2.382   2.354  -1.751  0.00  0.00     0.033 A 
ATOM      6  C6  UNL d   1       2.470   1.209  -2.550  0.00  0.00    -0.057 A 
ENDROOT
BRANCH   1   7
ATOM      7  N   UNL d   1       1.716  -0.970  -3.232  0.00  0.00    -0.732 N 
ATOM      8  C   UNL d   1       0.797  -2.083  -3.139  0.00  0.00     0.284 C 
ATOM      9  H3  UNL d   1       2.029  -0.767  -4.179  0.00  0.00     0.395 HD
ENDBRANCH   1   7
TORSDOF 1
ENDMDL
