MODEL 1
REMARK minimizedAffinity 4.06158161
REMARK minimizedRMSD -1
REMARK  1 active torsions:
REMARK  status: ('A' for Active; 'I' for Inactive)
REMARK    1  A    between atoms: N_2  and  C1_3 
ROOT
ATOM      1  C1  UNL d   1       2.240   1.415   2.390  0.00  0.00     0.143 A 
ATOM      2  C2  UNL d   1       1.698   2.703   2.324  0.00  0.00    -0.057 A 
ATOM      3  C3  UNL d   1       0.538   3.040   3.033  0.00  0.00     0.033 A 
ATOM      4  C4  UNL d   1      -0.119   2.083   3.799  0.00  0.00    -0.042 A 
ATOM      5  C5  UNL d   1       0.388   0.789   3.860  0.00  0.00     0.033 A 
ATOM      6  C6  UNL d   1       1.550   0.461   3.155  0.00  0.00    -0.057 A 
ENDROOT
BRANCH   1   7
ATOM      7  N   UNL d   1       3.333   0.991   1.631  0.00  0.00    -0.732 N 
ATOM      8  C   UNL d   1       4.379   0.188   2.229  0.00  0.00     0.284 C 
ATOM      9  H3  UNL d   1       3.066   0.695   0.695  0.00  0.00     0.395 HD
ENDBRANCH   1   7
TORSDOF 1
ENDMDL
