MODEL 1
REMARK minimizedAffinity 5.28138208
REMARK minimizedRMSD -1
REMARK  1 active torsions:
REMARK  status: ('A' for Active; 'I' for Inactive)
REMARK    1  A    between atoms: N_2  and  C1_3 
ROOT
ATOM      1  C1  UNL d   1      -2.841   2.270   2.063  0.00  0.00     0.143 A 
ATOM      2  C2  UNL d   1      -1.482   2.283   2.394  0.00  0.00    -0.057 A 
ATOM      3  C3  UNL d   1      -0.721   1.108   2.385  0.00  0.00     0.033 A 
ATOM      4  C4  UNL d   1      -1.315  -0.110   2.073  0.00  0.00    -0.042 A 
ATOM      5  C5  UNL d   1      -2.671  -0.151   1.765  0.00  0.00     0.033 A 
ATOM      6  C6  UNL d   1      -3.423   1.028   1.769  0.00  0.00    -0.057 A 
ENDROOT
BRANCH   1   7
ATOM      7  N   UNL d   1      -3.673   3.389   2.149  0.00  0.00    -0.732 N 
ATOM      8  C   UNL d   1      -3.468   4.383   3.181  0.00  0.00     0.284 C 
ATOM      9  H3  UNL d   1      -3.896   3.778   1.236  0.00  0.00     0.395 HD
ENDBRANCH   1   7
TORSDOF 1
ENDMDL
