MODEL 1
REMARK minimizedAffinity 10.1359549
REMARK minimizedRMSD -1
REMARK  1 active torsions:
REMARK  status: ('A' for Active; 'I' for Inactive)
REMARK    1  A    between atoms: N_2  and  C1_3 
ROOT
ATOM      1  C1  UNL d   1       3.235   2.883  -5.680  0.00  0.00     0.143 A 
ATOM      2  C2  UNL d   1       2.063   3.577  -5.998  0.00  0.00    -0.057 A 
ATOM      3  C3  UNL d   1       1.858   4.893  -5.564  0.00  0.00     0.033 A 
ATOM      4  C4  UNL d   1       2.812   5.529  -4.777  0.00  0.00    -0.042 A 
ATOM      5  C5  UNL d   1       3.974   4.849  -4.428  0.00  0.00     0.033 A 
ATOM      6  C6  UNL d   1       4.176   3.538  -4.870  0.00  0.00    -0.057 A 
ENDROOT
BRANCH   1   7
ATOM      7  N   UNL d   1       3.455   1.541  -5.999  0.00  0.00    -0.732 N 
ATOM      8  C   UNL d   1       4.794   0.993  -6.000  0.00  0.00     0.284 C 
ATOM      9  H3  UNL d   1       2.754   0.925  -5.592  0.00  0.00     0.395 HD
ENDBRANCH   1   7
TORSDOF 1
ENDMDL
