MODEL 1
REMARK minimizedAffinity -2.48830628
REMARK minimizedRMSD -1
REMARK  0 active torsions:
REMARK  status: ('A' for Active; 'I' for Inactive)
ROOT
ATOM      1  C1  BNZ d   1      -1.993  -2.911  -0.815  0.00  0.00     0.000 A 
ATOM      2  C2  BNZ d   1      -0.719  -2.698  -0.361  0.00  0.00     0.000 A 
ATOM      3  C3  BNZ d   1       0.356  -2.864  -1.190  0.00  0.00     0.000 A 
ATOM      4  C4  BNZ d   1       0.157  -3.281  -2.457  0.00  0.00     0.000 A 
ATOM      5  C5  BNZ d   1      -1.121  -3.509  -2.926  0.00  0.00     0.000 A 
ATOM      6  C6  BNZ d   1      -2.202  -3.304  -2.101  0.00  0.00     0.000 A 
ENDROOT
TORSDOF 0
ENDMDL
