MODEL 1
REMARK minimizedAffinity -4.17352295
REMARK minimizedRMSD -1
REMARK  0 active torsions:
REMARK  status: ('A' for Active; 'I' for Inactive)
ROOT
ATOM      1  C1  BNZ d   1       0.192   3.009   0.173  0.00  0.00     0.000 A 
ATOM      2  C2  BNZ d   1      -1.084   2.536   0.021  0.00  0.00     0.000 A 
ATOM      3  C3  BNZ d   1      -1.339   1.193   0.026  0.00  0.00     0.000 A 
ATOM      4  C4  BNZ d   1      -0.314   0.325   0.144  0.00  0.00     0.000 A 
ATOM      5  C5  BNZ d   1       0.980   0.785   0.289  0.00  0.00     0.000 A 
ATOM      6  C6  BNZ d   1       1.228   2.139   0.322  0.00  0.00     0.000 A 
ENDROOT
TORSDOF 0
ENDMDL
