MODEL 1
REMARK minimizedAffinity -3.76534271
REMARK minimizedRMSD -1
REMARK  0 active torsions:
REMARK  status: ('A' for Active; 'I' for Inactive)
ROOT
ATOM      1  C1  BNZ d   1       0.499   0.573   0.140  0.00  0.00     0.000 A 
ATOM      2  C2  BNZ d   1       1.757   1.101   0.258  0.00  0.00     0.000 A 
ATOM      3  C3  BNZ d   1       1.940   2.447   0.414  0.00  0.00     0.000 A 
ATOM      4  C4  BNZ d   1       0.869   3.266   0.412  0.00  0.00     0.000 A 
ATOM      5  C5  BNZ d   1      -0.405   2.750   0.284  0.00  0.00     0.000 A 
ATOM      6  C6  BNZ d   1      -0.588   1.392   0.166  0.00  0.00     0.000 A 
ENDROOT
TORSDOF 0
ENDMDL
