MODEL 1
REMARK minimizedAffinity -4.65695238
REMARK minimizedRMSD -1
REMARK  0 active torsions:
REMARK  status: ('A' for Active; 'I' for Inactive)
ROOT
ATOM      1  C1  BNZ d   1       0.072   2.215   0.025  0.00  0.00     0.000 A 
ATOM      2  C2  BNZ d   1      -1.194   1.905   0.444  0.00  0.00     0.000 A 
ATOM      3  C3  BNZ d   1      -1.559   0.608   0.670  0.00  0.00     0.000 A 
ATOM      4  C4  BNZ d   1      -0.671  -0.381   0.439  0.00  0.00     0.000 A 
ATOM      5  C5  BNZ d   1       0.607  -0.085   0.008  0.00  0.00     0.000 A 
ATOM      6  C6  BNZ d   1       0.983   1.225  -0.181  0.00  0.00     0.000 A 
ENDROOT
TORSDOF 0
ENDMDL
