MODEL 1
REMARK minimizedAffinity -4.98785353
REMARK minimizedRMSD -1
REMARK  0 active torsions:
REMARK  status: ('A' for Active; 'I' for Inactive)
ROOT
ATOM      1  C1  BNZ d   1       1.175   1.683  -0.752  0.00  0.00     0.000 A 
ATOM      2  C2  BNZ d   1       0.971   0.349  -0.521  0.00  0.00     0.000 A 
ATOM      3  C3  BNZ d   1      -0.192  -0.093   0.046  0.00  0.00     0.000 A 
ATOM      4  C4  BNZ d   1      -1.131   0.801   0.416  0.00  0.00     0.000 A 
ATOM      5  C5  BNZ d   1      -0.936   2.150   0.198  0.00  0.00     0.000 A 
ATOM      6  C6  BNZ d   1       0.219   2.589  -0.407  0.00  0.00     0.000 A 
ENDROOT
TORSDOF 0
ENDMDL
