MODEL 1
REMARK minimizedAffinity -2.40233731
REMARK minimizedRMSD -1
REMARK  0 active torsions:
REMARK  status: ('A' for Active; 'I' for Inactive)
ROOT
ATOM      1  C1  BNZ d   1      -1.234   0.970   0.755  0.00  0.00     0.000 A 
ATOM      2  C2  BNZ d   1      -1.060   2.327   0.709  0.00  0.00     0.000 A 
ATOM      3  C3  BNZ d   1       0.042   2.872   0.110  0.00  0.00     0.000 A 
ATOM      4  C4  BNZ d   1       0.985   2.058  -0.406  0.00  0.00     0.000 A 
ATOM      5  C5  BNZ d   1       0.828   0.687  -0.360  0.00  0.00     0.000 A 
ATOM      6  C6  BNZ d   1      -0.300   0.144   0.210  0.00  0.00     0.000 A 
ENDROOT
TORSDOF 0
ENDMDL
