MODEL 1
REMARK minimizedAffinity -4.64932013
REMARK minimizedRMSD -1
REMARK  0 active torsions:
REMARK  status: ('A' for Active; 'I' for Inactive)
ROOT
ATOM      1  C1  BNZ d   1      -1.141   2.365  -0.073  0.00  0.00     0.000 A 
ATOM      2  C2  BNZ d   1      -1.589   1.113   0.253  0.00  0.00     0.000 A 
ATOM      3  C3  BNZ d   1      -0.729   0.050   0.290  0.00  0.00     0.000 A 
ATOM      4  C4  BNZ d   1       0.566   0.234  -0.037  0.00  0.00     0.000 A 
ATOM      5  C5  BNZ d   1       1.031   1.489  -0.376  0.00  0.00     0.000 A 
ATOM      6  C6  BNZ d   1       0.171   2.563  -0.375  0.00  0.00     0.000 A 
ENDROOT
TORSDOF 0
ENDMDL
