MODEL 1
REMARK minimizedAffinity -3.66523838
REMARK minimizedRMSD -1
REMARK  0 active torsions:
REMARK  status: ('A' for Active; 'I' for Inactive)
ROOT
ATOM      1  C1  BNZ d   1      -0.762   0.018  -0.422  0.00  0.00     0.000 A 
ATOM      2  C2  BNZ d   1      -1.517   1.140  -0.208  0.00  0.00     0.000 A 
ATOM      3  C3  BNZ d   1      -0.931   2.370  -0.109  0.00  0.00     0.000 A 
ATOM      4  C4  BNZ d   1       0.412   2.473  -0.185  0.00  0.00     0.000 A 
ATOM      5  C5  BNZ d   1       1.188   1.350  -0.391  0.00  0.00     0.000 A 
ATOM      6  C6  BNZ d   1       0.591   0.118  -0.529  0.00  0.00     0.000 A 
ENDROOT
TORSDOF 0
ENDMDL
