MODEL 1
REMARK minimizedAffinity -5.23816013
REMARK minimizedRMSD -1
REMARK  0 active torsions:
REMARK  status: ('A' for Active; 'I' for Inactive)
ROOT
ATOM      1  C1  BNZ d   1       0.364   2.246   0.375  0.00  0.00     0.000 A 
ATOM      2  C2  BNZ d   1      -0.999   2.115   0.394  0.00  0.00     0.000 A 
ATOM      3  C3  BNZ d   1      -1.586   0.888   0.262  0.00  0.00     0.000 A 
ATOM      4  C4  BNZ d   1      -0.813  -0.200   0.071  0.00  0.00     0.000 A 
ATOM      5  C5  BNZ d   1       0.562  -0.084   0.040  0.00  0.00     0.000 A 
ATOM      6  C6  BNZ d   1       1.152   1.148   0.212  0.00  0.00     0.000 A 
ENDROOT
TORSDOF 0
ENDMDL
