MODEL 1
REMARK minimizedAffinity -3.10372543
REMARK minimizedRMSD -1
REMARK  0 active torsions:
REMARK  status: ('A' for Active; 'I' for Inactive)
ROOT
ATOM      1  C1  BNZ d   1      -1.299   0.281   0.662  0.00  0.00     0.000 A 
ATOM      2  C2  BNZ d   1      -0.509  -0.833   0.560  0.00  0.00     0.000 A 
ATOM      3  C3  BNZ d   1       0.845  -0.719   0.412  0.00  0.00     0.000 A 
ATOM      4  C4  BNZ d   1       1.402   0.506   0.327  0.00  0.00     0.000 A 
ATOM      5  C5  BNZ d   1       0.618   1.639   0.419  0.00  0.00     0.000 A 
ATOM      6  C6  BNZ d   1      -0.740   1.520   0.607  0.00  0.00     0.000 A 
ENDROOT
TORSDOF 0
ENDMDL
