MODEL 1
REMARK minimizedAffinity -1.11659706
REMARK minimizedRMSD -1
REMARK  0 active torsions:
REMARK  status: ('A' for Active; 'I' for Inactive)
ROOT
ATOM      1  C1  BNZ d   1      -2.280  -4.067  -0.839  0.00  0.00     0.000 A 
ATOM      2  C2  BNZ d   1      -0.982  -3.873  -0.446  0.00  0.00     0.000 A 
ATOM      3  C3  BNZ d   1      -0.167  -3.012  -1.125  0.00  0.00     0.000 A 
ATOM      4  C4  BNZ d   1      -0.636  -2.376  -2.218  0.00  0.00     0.000 A 
ATOM      5  C5  BNZ d   1      -1.939  -2.568  -2.632  0.00  0.00     0.000 A 
ATOM      6  C6  BNZ d   1      -2.769  -3.406  -1.924  0.00  0.00     0.000 A 
ENDROOT
TORSDOF 0
ENDMDL
