MODEL 1
REMARK minimizedAffinity -3.81546044
REMARK minimizedRMSD -1
REMARK  0 active torsions:
REMARK  status: ('A' for Active; 'I' for Inactive)
ROOT
ATOM      1  C1  BNZ d   1      -1.040   1.099   0.558  0.00  0.00     0.000 A 
ATOM      2  C2  BNZ d   1      -0.654   2.411   0.485  0.00  0.00     0.000 A 
ATOM      3  C3  BNZ d   1       0.564   2.755  -0.031  0.00  0.00     0.000 A 
ATOM      4  C4  BNZ d   1       1.410   1.786  -0.436  0.00  0.00     0.000 A 
ATOM      5  C5  BNZ d   1       1.039   0.458  -0.361  0.00  0.00     0.000 A 
ATOM      6  C6  BNZ d   1      -0.203   0.118   0.123  0.00  0.00     0.000 A 
ENDROOT
TORSDOF 0
ENDMDL
