MODEL 1
REMARK minimizedAffinity -3.91061592
REMARK minimizedRMSD -1
REMARK  0 active torsions:
REMARK  status: ('A' for Active; 'I' for Inactive)
ROOT
ATOM      1  C1  BNZ d   1       0.010   2.360   0.065  0.00  0.00     0.000 A 
ATOM      2  C2  BNZ d   1       0.972   1.423  -0.202  0.00  0.00     0.000 A 
ATOM      3  C3  BNZ d   1       0.696   0.088  -0.100  0.00  0.00     0.000 A 
ATOM      4  C4  BNZ d   1      -0.527  -0.307   0.308  0.00  0.00     0.000 A 
ATOM      5  C5  BNZ d   1      -1.505   0.626   0.590  0.00  0.00     0.000 A 
ATOM      6  C6  BNZ d   1      -1.235   1.968   0.448  0.00  0.00     0.000 A 
ENDROOT
TORSDOF 0
ENDMDL
