MODEL 1
REMARK minimizedAffinity -3.73352265
REMARK minimizedRMSD -1
REMARK  0 active torsions:
REMARK  status: ('A' for Active; 'I' for Inactive)
ROOT
ATOM      1  C1  BNZ d   1       0.014  -0.962   0.343  0.00  0.00     0.000 A 
ATOM      2  C2  BNZ d   1      -0.991  -0.032   0.331  0.00  0.00     0.000 A 
ATOM      3  C3  BNZ d   1      -0.718   1.291   0.122  0.00  0.00     0.000 A 
ATOM      4  C4  BNZ d   1       0.561   1.687  -0.035  0.00  0.00     0.000 A 
ATOM      5  C5  BNZ d   1       1.586   0.763  -0.016  0.00  0.00     0.000 A 
ATOM      6  C6  BNZ d   1       1.304  -0.573   0.156  0.00  0.00     0.000 A 
ENDROOT
TORSDOF 0
ENDMDL
