MODEL 1
REMARK minimizedAffinity -3.01125407
REMARK minimizedRMSD -1
REMARK  0 active torsions:
REMARK  status: ('A' for Active; 'I' for Inactive)
ROOT
ATOM      1  C1  BNZ d   1       0.738   1.018  -1.280  0.00  0.00     0.000 A 
ATOM      2  C2  BNZ d   1       0.116  -0.040  -0.671  0.00  0.00     0.000 A 
ATOM      3  C3  BNZ d   1      -0.561   0.129   0.504  0.00  0.00     0.000 A 
ATOM      4  C4  BNZ d   1      -0.583   1.344   1.089  0.00  0.00     0.000 A 
ATOM      5  C5  BNZ d   1       0.047   2.418   0.492  0.00  0.00     0.000 A 
ATOM      6  C6  BNZ d   1       0.695   2.253  -0.710  0.00  0.00     0.000 A 
ENDROOT
TORSDOF 0
ENDMDL
