MODEL 1
REMARK minimizedAffinity 9.01242638
REMARK minimizedRMSD -1
REMARK  0 active torsions:
REMARK  status: ('A' for Active; 'I' for Inactive)
ROOT
ATOM      1  C1  BNZ d   1       3.037  -3.609  -1.615  0.00  0.00     0.000 A 
ATOM      2  C2  BNZ d   1       2.319  -3.378  -2.757  0.00  0.00     0.000 A 
ATOM      3  C3  BNZ d   1       1.342  -4.246  -3.157  0.00  0.00     0.000 A 
ATOM      4  C4  BNZ d   1       1.112  -5.363  -2.437  0.00  0.00     0.000 A 
ATOM      5  C5  BNZ d   1       1.834  -5.614  -1.288  0.00  0.00     0.000 A 
ATOM      6  C6  BNZ d   1       2.790  -4.718  -0.867  0.00  0.00     0.000 A 
ENDROOT
TORSDOF 0
ENDMDL
