MODEL 1
REMARK minimizedAffinity -3.74005675
REMARK minimizedRMSD -1
REMARK  0 active torsions:
REMARK  status: ('A' for Active; 'I' for Inactive)
ROOT
ATOM      1  C1  BNZ d   1       1.068   1.823  -0.916  0.00  0.00     0.000 A 
ATOM      2  C2  BNZ d   1       0.539   0.677  -0.384  0.00  0.00     0.000 A 
ATOM      3  C3  BNZ d   1      -0.604   0.715   0.364  0.00  0.00     0.000 A 
ATOM      4  C4  BNZ d   1      -1.194   1.902   0.614  0.00  0.00     0.000 A 
ATOM      5  C5  BNZ d   1      -0.667   3.068   0.093  0.00  0.00     0.000 A 
ATOM      6  C6  BNZ d   1       0.462   3.021  -0.692  0.00  0.00     0.000 A 
ENDROOT
TORSDOF 0
ENDMDL
