MODEL 1
REMARK minimizedAffinity -0.761893153
REMARK minimizedRMSD -1
REMARK  1 active torsions:
REMARK  status: ('A' for Active; 'I' for Inactive)
REMARK    1  A    between atoms: N_2  and  C1_3 
ROOT
ATOM      1  C1  UNL d   1       0.839  -0.653   1.384  0.00  0.00     0.143 A 
ATOM      2  C2  UNL d   1       1.938  -0.615   2.250  0.00  0.00    -0.057 A 
ATOM      3  C3  UNL d   1       2.925   0.370   2.127  0.00  0.00     0.033 A 
ATOM      4  C4  UNL d   1       2.845   1.321   1.115  0.00  0.00    -0.042 A 
ATOM      5  C5  UNL d   1       1.775   1.288   0.228  0.00  0.00     0.033 A 
ATOM      6  C6  UNL d   1       0.789   0.305   0.360  0.00  0.00    -0.057 A 
ENDROOT
BRANCH   1   7
ATOM      7  N   UNL d   1      -0.123  -1.666   1.393  0.00  0.00    -0.732 N 
ATOM      8  C   UNL d   1      -1.381  -1.493   0.699  0.00  0.00     0.284 C 
ATOM      9  H3  UNL d   1       0.286  -2.591   1.287  0.00  0.00     0.395 HD
ENDBRANCH   1   7
TORSDOF 1
ENDMDL
