MODEL 1
REMARK minimizedAffinity 10.9646759
REMARK minimizedRMSD -1
REMARK  1 active torsions:
REMARK  status: ('A' for Active; 'I' for Inactive)
REMARK    1  A    between atoms: N_2  and  C1_3 
ROOT
ATOM      1  C1  UNL d   1       2.138   0.653   1.717  0.00  0.00     0.143 A 
ATOM      2  C2  UNL d   1       1.008   0.233   1.007  0.00  0.00    -0.057 A 
ATOM      3  C3  UNL d   1       0.376  -0.982   1.302  0.00  0.00     0.033 A 
ATOM      4  C4  UNL d   1       0.883  -1.813   2.296  0.00  0.00    -0.042 A 
ATOM      5  C5  UNL d   1       2.019  -1.427   2.997  0.00  0.00     0.033 A 
ATOM      6  C6  UNL d   1       2.642  -0.210   2.702  0.00  0.00    -0.057 A 
ENDROOT
BRANCH   1   7
ATOM      7  N   UNL d   1       2.869   1.803   1.405  0.00  0.00    -0.732 N 
ATOM      8  C   UNL d   1       2.579   2.557   0.205  0.00  0.00     0.284 C 
ATOM      9  H3  UNL d   1       3.055   2.378   2.223  0.00  0.00     0.395 HD
ENDBRANCH   1   7
TORSDOF 1
ENDMDL
