MODEL 1
REMARK minimizedAffinity 0.505858243
REMARK minimizedRMSD -1
REMARK  1 active torsions:
REMARK  status: ('A' for Active; 'I' for Inactive)
REMARK    1  A    between atoms: N_2  and  C1_3 
ROOT
ATOM      1  C1  UNL d   1       0.197  -2.029  -1.883  0.00  0.00     0.143 A 
ATOM      2  C2  UNL d   1      -1.050  -2.495  -2.314  0.00  0.00    -0.057 A 
ATOM      3  C3  UNL d   1      -2.047  -2.852  -1.399  0.00  0.00     0.033 A 
ATOM      4  C4  UNL d   1      -1.805  -2.775  -0.032  0.00  0.00    -0.042 A 
ATOM      5  C5  UNL d   1      -0.565  -2.339   0.419  0.00  0.00     0.033 A 
ATOM      6  C6  UNL d   1       0.426  -1.977  -0.499  0.00  0.00    -0.057 A 
ENDROOT
BRANCH   1   7
ATOM      7  N   UNL d   1       1.264  -1.752  -2.742  0.00  0.00    -0.732 N 
ATOM      8  C   UNL d   1       2.220  -0.715  -2.420  0.00  0.00     0.284 C 
ATOM      9  H3  UNL d   1       1.680  -2.596  -3.129  0.00  0.00     0.395 HD
ENDBRANCH   1   7
TORSDOF 1
ENDMDL
