MODEL 1
REMARK minimizedAffinity 7.18213892
REMARK minimizedRMSD -1
REMARK  1 active torsions:
REMARK  status: ('A' for Active; 'I' for Inactive)
REMARK    1  A    between atoms: N_2  and  C1_3 
ROOT
ATOM      1  C1  UNL d   1       2.341   0.405   1.920  0.00  0.00     0.143 A 
ATOM      2  C2  UNL d   1       2.775  -0.187   3.111  0.00  0.00    -0.057 A 
ATOM      3  C3  UNL d   1       2.231  -1.396   3.560  0.00  0.00     0.033 A 
ATOM      4  C4  UNL d   1       1.220  -2.022   2.838  0.00  0.00    -0.042 A 
ATOM      5  C5  UNL d   1       0.756  -1.439   1.664  0.00  0.00     0.033 A 
ATOM      6  C6  UNL d   1       1.308  -0.234   1.218  0.00  0.00    -0.057 A 
ENDROOT
BRANCH   1   7
ATOM      7  N   UNL d   1       2.773   1.656   1.471  0.00  0.00    -0.732 N 
ATOM      8  C   UNL d   1       2.187   2.259   0.293  0.00  0.00     0.284 C 
ATOM      9  H3  UNL d   1       2.935   2.308   2.235  0.00  0.00     0.395 HD
ENDBRANCH   1   7
TORSDOF 1
ENDMDL
