MODEL 1
REMARK minimizedAffinity 0.182850957
REMARK minimizedRMSD -1
REMARK  1 active torsions:
REMARK  status: ('A' for Active; 'I' for Inactive)
REMARK    1  A    between atoms: N_2  and  C1_3 
ROOT
ATOM      1  C1  UNL d   1       3.564   5.490  -2.883  0.00  0.00     0.143 A 
ATOM      2  C2  UNL d   1       4.796   6.000  -2.457  0.00  0.00    -0.057 A 
ATOM      3  C3  UNL d   1       6.000   5.542  -3.006  0.00  0.00     0.033 A 
ATOM      4  C4  UNL d   1       5.995   4.542  -3.973  0.00  0.00    -0.042 A 
ATOM      5  C5  UNL d   1       4.784   4.003  -4.393  0.00  0.00     0.033 A 
ATOM      6  C6  UNL d   1       3.585   4.469  -3.846  0.00  0.00    -0.057 A 
ENDROOT
BRANCH   1   7
ATOM      7  N   UNL d   1       2.339   5.834  -2.307  0.00  0.00    -0.732 N 
ATOM      8  C   UNL d   1       1.682   4.935  -1.382  0.00  0.00     0.284 C 
ATOM      9  H3  UNL d   1       2.299   6.813  -2.034  0.00  0.00     0.395 HD
ENDBRANCH   1   7
TORSDOF 1
ENDMDL
