MODEL 1
REMARK minimizedAffinity 1.29503667
REMARK minimizedRMSD -1
REMARK  0 active torsions:
REMARK  status: ('A' for Active; 'I' for Inactive)
ROOT
ATOM      1  C2' OXE d   1      -5.185  -0.007  -5.942  0.00  0.00     0.078 C 
ATOM      2  C1' OXE d   1      -2.378   0.005  -6.000  0.00  0.00     0.078 C 
ATOM      3  C1  OXE d   1      -3.088   1.336  -5.976  0.00  0.00    -0.078 A 
ATOM      4  C2  OXE d   1      -4.461   1.321  -5.995  0.00  0.00    -0.078 A 
ATOM      5  C3  OXE d   1      -5.165   2.519  -5.919  0.00  0.00     0.003 A 
ATOM      6  C4  OXE d   1      -4.489   3.744  -5.978  0.00  0.00    -0.002 A 
ATOM      7  C5  OXE d   1      -3.091   3.782  -5.999  0.00  0.00    -0.002 A 
ATOM      8  C6  OXE d   1      -2.376   2.590  -5.955  0.00  0.00     0.003 A 
ENDROOT
TORSDOF 0
ENDMDL
