MODEL 1
REMARK minimizedAffinity -0.977870047
REMARK minimizedRMSD -1
REMARK  0 active torsions:
REMARK  status: ('A' for Active; 'I' for Inactive)
ROOT
ATOM      1  C2' OXE d   1      -5.653   3.475  -5.994  0.00  0.00     0.078 C 
ATOM      2  C1' OXE d   1      -2.942   4.204  -5.974  0.00  0.00     0.078 C 
ATOM      3  C1  OXE d   1      -3.275   2.733  -5.979  0.00  0.00    -0.078 A 
ATOM      4  C2  OXE d   1      -4.603   2.385  -5.942  0.00  0.00    -0.078 A 
ATOM      5  C3  OXE d   1      -4.966   1.043  -6.000  0.00  0.00     0.003 A 
ATOM      6  C4  OXE d   1      -3.990   0.041  -5.941  0.00  0.00    -0.002 A 
ATOM      7  C5  OXE d   1      -2.631   0.374  -5.938  0.00  0.00    -0.002 A 
ATOM      8  C6  OXE d   1      -2.257   1.712  -6.000  0.00  0.00     0.003 A 
ENDROOT
TORSDOF 0
ENDMDL
