MODEL 1
REMARK minimizedAffinity -1.38234723
REMARK minimizedRMSD -1
REMARK  0 active torsions:
REMARK  status: ('A' for Active; 'I' for Inactive)
ROOT
ATOM      1  C2' OXE d   1      -5.665   3.632  -5.997  0.00  0.00     0.078 C 
ATOM      2  C1' OXE d   1      -2.999   4.510  -5.976  0.00  0.00     0.078 C 
ATOM      3  C1  OXE d   1      -3.249   3.023  -5.980  0.00  0.00    -0.078 A 
ATOM      4  C2  OXE d   1      -4.557   2.602  -5.943  0.00  0.00    -0.078 A 
ATOM      5  C3  OXE d   1      -4.845   1.242  -6.000  0.00  0.00     0.003 A 
ATOM      6  C4  OXE d   1      -3.815   0.295  -5.939  0.00  0.00    -0.002 A 
ATOM      7  C5  OXE d   1      -2.477   0.703  -5.936  0.00  0.00    -0.002 A 
ATOM      8  C6  OXE d   1      -2.177   2.059  -5.999  0.00  0.00     0.003 A 
ENDROOT
TORSDOF 0
ENDMDL
