MODEL 1
REMARK minimizedAffinity -1.20246232
REMARK minimizedRMSD -1
REMARK  0 active torsions:
REMARK  status: ('A' for Active; 'I' for Inactive)
ROOT
ATOM      1  C2' OXE d   1      -3.096   5.385  -5.997  0.00  0.00     0.078 C 
ATOM      2  C1' OXE d   1      -5.817   4.719  -5.825  0.00  0.00     0.078 C 
ATOM      3  C1  OXE d   1      -4.818   3.590  -5.866  0.00  0.00    -0.078 A 
ATOM      4  C2  OXE d   1      -3.492   3.924  -5.997  0.00  0.00    -0.078 A 
ATOM      5  C3  OXE d   1      -2.524   2.923  -5.984  0.00  0.00     0.003 A 
ATOM      6  C4  OXE d   1      -2.900   1.574  -5.994  0.00  0.00    -0.002 A 
ATOM      7  C5  OXE d   1      -4.248   1.212  -5.901  0.00  0.00    -0.002 A 
ATOM      8  C6  OXE d   1      -5.215   2.205  -5.794  0.00  0.00     0.003 A 
ENDROOT
TORSDOF 0
ENDMDL
