MODEL 1
REMARK minimizedAffinity 2.37343812
REMARK minimizedRMSD -1
REMARK  0 active torsions:
REMARK  status: ('A' for Active; 'I' for Inactive)
ROOT
ATOM      1  C2' OXE d   1       3.752  -2.009  -1.391  0.00  0.00     0.078 C 
ATOM      2  C1' OXE d   1       4.914   0.392  -0.516  0.00  0.00     0.078 C 
ATOM      3  C1  OXE d   1       3.409   0.317  -0.568  0.00  0.00    -0.078 A 
ATOM      4  C2  OXE d   1       2.849  -0.845  -1.042  0.00  0.00    -0.078 A 
ATOM      5  C3  OXE d   1       1.465  -0.986  -1.060  0.00  0.00     0.003 A 
ATOM      6  C4  OXE d   1       0.637   0.098  -0.745  0.00  0.00    -0.002 A 
ATOM      7  C5  OXE d   1       1.188   1.305  -0.298  0.00  0.00    -0.002 A 
ATOM      8  C6  OXE d   1       2.567   1.416  -0.164  0.00  0.00     0.003 A 
ENDROOT
TORSDOF 0
ENDMDL
