MODEL 1
REMARK minimizedAffinity -4.02872992
REMARK minimizedRMSD -1
REMARK  0 active torsions:
REMARK  status: ('A' for Active; 'I' for Inactive)
ROOT
ATOM      1  C2' OXE d   1      -5.401  -0.253  -5.973  0.00  0.00     0.078 C 
ATOM      2  C1' OXE d   1      -2.600  -0.085  -5.877  0.00  0.00     0.078 C 
ATOM      3  C1  OXE d   1      -3.382   1.205  -5.901  0.00  0.00    -0.078 A 
ATOM      4  C2  OXE d   1      -4.750   1.113  -5.995  0.00  0.00    -0.078 A 
ATOM      5  C3  OXE d   1      -5.522   2.271  -5.965  0.00  0.00     0.003 A 
ATOM      6  C4  OXE d   1      -4.912   3.531  -5.996  0.00  0.00    -0.002 A 
ATOM      7  C5  OXE d   1      -3.519   3.646  -5.940  0.00  0.00    -0.002 A 
ATOM      8  C6  OXE d   1      -2.743   2.496  -5.850  0.00  0.00     0.003 A 
ENDROOT
TORSDOF 0
ENDMDL
