MODEL 1
REMARK minimizedAffinity -1.78172922
REMARK minimizedRMSD -1
REMARK  0 active torsions:
REMARK  status: ('A' for Active; 'I' for Inactive)
ROOT
ATOM      1  C2' OXE d   1      -2.746   3.045  -5.955  0.00  0.00     0.078 C 
ATOM      2  C1' OXE d   1      -5.553   3.063  -5.997  0.00  0.00     0.078 C 
ATOM      3  C1  OXE d   1      -4.858   1.724  -5.973  0.00  0.00    -0.078 A 
ATOM      4  C2  OXE d   1      -3.484   1.724  -6.000  0.00  0.00    -0.078 A 
ATOM      5  C3  OXE d   1      -2.793   0.519  -5.924  0.00  0.00     0.003 A 
ATOM      6  C4  OXE d   1      -3.483  -0.699  -5.975  0.00  0.00    -0.002 A 
ATOM      7  C5  OXE d   1      -4.882  -0.722  -5.988  0.00  0.00    -0.002 A 
ATOM      8  C6  OXE d   1      -5.584   0.478  -5.944  0.00  0.00     0.003 A 
ENDROOT
TORSDOF 0
ENDMDL
