MODEL 1
REMARK minimizedAffinity -2.72276235
REMARK minimizedRMSD -1
REMARK  0 active torsions:
REMARK  status: ('A' for Active; 'I' for Inactive)
ROOT
ATOM      1  C2' OXE d   1      -3.272  -0.095  -6.000  0.00  0.00     0.078 C 
ATOM      2  C1' OXE d   1      -5.979  -0.094  -5.256  0.00  0.00     0.078 C 
ATOM      3  C1  OXE d   1      -5.300   1.240  -5.442  0.00  0.00    -0.078 A 
ATOM      4  C2  OXE d   1      -3.963   1.230  -5.760  0.00  0.00    -0.078 A 
ATOM      5  C3  OXE d   1      -3.302   2.432  -5.996  0.00  0.00     0.003 A 
ATOM      6  C4  OXE d   1      -3.946   3.653  -5.762  0.00  0.00    -0.002 A 
ATOM      7  C5  OXE d   1      -5.296   3.686  -5.398  0.00  0.00    -0.002 A 
ATOM      8  C6  OXE d   1      -5.998   2.491  -5.276  0.00  0.00     0.003 A 
ENDROOT
TORSDOF 0
ENDMDL
