MODEL 1
REMARK minimizedAffinity -2.26964474
REMARK minimizedRMSD -1
REMARK  0 active torsions:
REMARK  status: ('A' for Active; 'I' for Inactive)
ROOT
ATOM      1  C2' OXE d   1      -5.225  -1.793  -5.999  0.00  0.00     0.078 C 
ATOM      2  C1' OXE d   1      -2.656  -0.662  -5.980  0.00  0.00     0.078 C 
ATOM      3  C1  OXE d   1      -2.762  -2.167  -5.982  0.00  0.00    -0.078 A 
ATOM      4  C2  OXE d   1      -4.023  -2.711  -5.944  0.00  0.00    -0.078 A 
ATOM      5  C3  OXE d   1      -4.179  -4.093  -5.999  0.00  0.00     0.003 A 
ATOM      6  C4  OXE d   1      -3.062  -4.936  -5.937  0.00  0.00    -0.002 A 
ATOM      7  C5  OXE d   1      -1.769  -4.401  -5.935  0.00  0.00    -0.002 A 
ATOM      8  C6  OXE d   1      -1.602  -3.023  -6.000  0.00  0.00     0.003 A 
ENDROOT
TORSDOF 0
ENDMDL
