MODEL 1
REMARK minimizedAffinity -2.58688617
REMARK minimizedRMSD -1
REMARK  0 active torsions:
REMARK  status: ('A' for Active; 'I' for Inactive)
ROOT
ATOM      1  C2' OXE d   1      -2.318   3.308  -5.998  0.00  0.00     0.078 C 
ATOM      2  C1' OXE d   1      -2.057   0.513  -5.987  0.00  0.00     0.078 C 
ATOM      3  C1  OXE d   1      -3.451   1.089  -5.983  0.00  0.00    -0.078 A 
ATOM      4  C2  OXE d   1      -3.569   2.458  -5.941  0.00  0.00    -0.078 A 
ATOM      5  C3  OXE d   1      -4.831   3.043  -5.991  0.00  0.00     0.003 A 
ATOM      6  C4  OXE d   1      -5.983   2.250  -5.928  0.00  0.00    -0.002 A 
ATOM      7  C5  OXE d   1      -5.885   0.854  -5.930  0.00  0.00    -0.002 A 
ATOM      8  C6  OXE d   1      -4.630   0.259  -5.999  0.00  0.00     0.003 A 
ENDROOT
TORSDOF 0
ENDMDL
