MODEL 1
REMARK minimizedAffinity 3.25362706
REMARK minimizedRMSD -1
REMARK  0 active torsions:
REMARK  status: ('A' for Active; 'I' for Inactive)
ROOT
ATOM      1  C2' OXE d   1      -5.987   3.285  -5.981  0.00  0.00     0.078 C 
ATOM      2  C1' OXE d   1      -3.241   3.868  -5.958  0.00  0.00     0.078 C 
ATOM      3  C1  OXE d   1      -3.652   2.417  -5.971  0.00  0.00    -0.078 A 
ATOM      4  C2  OXE d   1      -4.997   2.140  -5.935  0.00  0.00    -0.078 A 
ATOM      5  C3  OXE d   1      -5.432   0.820  -6.000  0.00  0.00     0.003 A 
ATOM      6  C4  OXE d   1      -4.510  -0.233  -5.947  0.00  0.00    -0.002 A 
ATOM      7  C5  OXE d   1      -3.136   0.026  -5.942  0.00  0.00    -0.002 A 
ATOM      8  C6  OXE d   1      -2.690   1.342  -5.997  0.00  0.00     0.003 A 
ENDROOT
TORSDOF 0
ENDMDL
