MODEL 1
REMARK minimizedAffinity -0.197271898
REMARK minimizedRMSD -1
REMARK  0 active torsions:
REMARK  status: ('A' for Active; 'I' for Inactive)
ROOT
ATOM      1  C2' OXE d   1      -2.005   0.816  -5.999  0.00  0.00     0.078 C 
ATOM      2  C1' OXE d   1      -4.558  -0.352  -5.982  0.00  0.00     0.078 C 
ATOM      3  C1  OXE d   1      -4.473   1.154  -5.982  0.00  0.00    -0.078 A 
ATOM      4  C2  OXE d   1      -3.220   1.716  -5.943  0.00  0.00    -0.078 A 
ATOM      5  C3  OXE d   1      -3.085   3.101  -5.996  0.00  0.00     0.003 A 
ATOM      6  C4  OXE d   1      -4.213   3.927  -5.934  0.00  0.00    -0.002 A 
ATOM      7  C5  OXE d   1      -5.498   3.374  -5.933  0.00  0.00    -0.002 A 
ATOM      8  C6  OXE d   1      -5.646   1.993  -6.000  0.00  0.00     0.003 A 
ENDROOT
TORSDOF 0
ENDMDL
