MODEL 1
REMARK minimizedAffinity -3.31910372
REMARK minimizedRMSD -1
REMARK  0 active torsions:
REMARK  status: ('A' for Active; 'I' for Inactive)
ROOT
ATOM      1  C2' OXE d   1      -3.324   4.687  -5.776  0.00  0.00     0.078 C 
ATOM      2  C1' OXE d   1      -5.998   3.866  -6.000  0.00  0.00     0.078 C 
ATOM      3  C1  OXE d   1      -4.937   2.796  -5.942  0.00  0.00    -0.078 A 
ATOM      4  C2  OXE d   1      -3.627   3.208  -5.880  0.00  0.00    -0.078 A 
ATOM      5  C3  OXE d   1      -2.611   2.263  -5.769  0.00  0.00     0.003 A 
ATOM      6  C4  OXE d   1      -2.900   0.897  -5.876  0.00  0.00    -0.002 A 
ATOM      7  C5  OXE d   1      -4.224   0.457  -5.980  0.00  0.00    -0.002 A 
ATOM      8  C6  OXE d   1      -5.255   1.390  -5.972  0.00  0.00     0.003 A 
ENDROOT
TORSDOF 0
ENDMDL
