MODEL 1
REMARK minimizedAffinity -3.04170322
REMARK minimizedRMSD -1
REMARK  0 active torsions:
REMARK  status: ('A' for Active; 'I' for Inactive)
ROOT
ATOM      1  C2' OXE d   1      -5.973   3.399  -5.848  0.00  0.00     0.078 C 
ATOM      2  C1' OXE d   1      -3.166   3.334  -5.817  0.00  0.00     0.078 C 
ATOM      3  C1  OXE d   1      -3.900   2.018  -5.898  0.00  0.00    -0.078 A 
ATOM      4  C2  OXE d   1      -5.273   2.057  -5.865  0.00  0.00    -0.078 A 
ATOM      5  C3  OXE d   1      -6.000   0.877  -5.992  0.00  0.00     0.003 A 
ATOM      6  C4  OXE d   1      -5.345  -0.361  -5.997  0.00  0.00    -0.002 A 
ATOM      7  C5  OXE d   1      -3.948  -0.425  -5.991  0.00  0.00    -0.002 A 
ATOM      8  C6  OXE d   1      -3.211   0.754  -5.984  0.00  0.00     0.003 A 
ENDROOT
TORSDOF 0
ENDMDL
