MODEL 1
REMARK minimizedAffinity -1.9512552
REMARK minimizedRMSD -1
REMARK  0 active torsions:
REMARK  status: ('A' for Active; 'I' for Inactive)
ROOT
ATOM      1  C2' OXE d   1      -3.169   3.351  -5.957  0.00  0.00     0.078 C 
ATOM      2  C1' OXE d   1      -5.974   3.246  -6.000  0.00  0.00     0.078 C 
ATOM      3  C1  OXE d   1      -5.221   1.939  -5.972  0.00  0.00    -0.078 A 
ATOM      4  C2  OXE d   1      -3.849   2.000  -5.998  0.00  0.00    -0.078 A 
ATOM      5  C3  OXE d   1      -3.106   0.825  -5.918  0.00  0.00     0.003 A 
ATOM      6  C4  OXE d   1      -3.742  -0.421  -5.967  0.00  0.00    -0.002 A 
ATOM      7  C5  OXE d   1      -5.138  -0.505  -5.981  0.00  0.00    -0.002 A 
ATOM      8  C6  OXE d   1      -5.892   0.663  -5.940  0.00  0.00     0.003 A 
ENDROOT
TORSDOF 0
ENDMDL
