MODEL 1
REMARK minimizedAffinity -3.23625493
REMARK minimizedRMSD -1
REMARK  0 active torsions:
REMARK  status: ('A' for Active; 'I' for Inactive)
ROOT
ATOM      1  C2' OXE d   1      -3.201   2.925  -5.904  0.00  0.00     0.078 C 
ATOM      2  C1' OXE d   1      -6.000   2.708  -5.943  0.00  0.00     0.078 C 
ATOM      3  C1  OXE d   1      -5.195   1.432  -5.943  0.00  0.00    -0.078 A 
ATOM      4  C2  OXE d   1      -3.826   1.548  -5.971  0.00  0.00    -0.078 A 
ATOM      5  C3  OXE d   1      -3.037   0.403  -5.916  0.00  0.00     0.003 A 
ATOM      6  C4  OXE d   1      -3.623  -0.866  -5.988  0.00  0.00    -0.002 A 
ATOM      7  C5  OXE d   1      -5.014  -1.006  -6.000  0.00  0.00    -0.002 A 
ATOM      8  C6  OXE d   1      -5.814   0.130  -5.935  0.00  0.00     0.003 A 
ENDROOT
TORSDOF 0
ENDMDL
