MODEL 1
REMARK minimizedAffinity -1.64203155
REMARK minimizedRMSD -1
REMARK  0 active torsions:
REMARK  status: ('A' for Active; 'I' for Inactive)
ROOT
ATOM      1  C2' OXE d   1      -5.088   3.267  -5.810  0.00  0.00     0.078 C 
ATOM      2  C1' OXE d   1      -2.481   2.236  -5.667  0.00  0.00     0.078 C 
ATOM      3  C1  OXE d   1      -3.619   1.255  -5.800  0.00  0.00    -0.078 A 
ATOM      4  C2  OXE d   1      -4.895   1.766  -5.822  0.00  0.00    -0.078 A 
ATOM      5  C3  OXE d   1      -5.977   0.909  -5.999  0.00  0.00     0.003 A 
ATOM      6  C4  OXE d   1      -5.790  -0.479  -5.999  0.00  0.00    -0.002 A 
ATOM      7  C5  OXE d   1      -4.502  -1.022  -5.938  0.00  0.00    -0.002 A 
ATOM      8  C6  OXE d   1      -3.406  -0.169  -5.881  0.00  0.00     0.003 A 
ENDROOT
TORSDOF 0
ENDMDL
