MODEL 1
REMARK minimizedAffinity -3.20905066
REMARK minimizedRMSD -1
REMARK  0 active torsions:
REMARK  status: ('A' for Active; 'I' for Inactive)
ROOT
ATOM      1  C2' OXE d   1      -4.122   2.988  -5.853  0.00  0.00     0.078 C 
ATOM      2  C1' OXE d   1      -1.555   1.853  -5.837  0.00  0.00     0.078 C 
ATOM      3  C1  OXE d   1      -2.736   0.919  -5.911  0.00  0.00    -0.078 A 
ATOM      4  C2  OXE d   1      -3.990   1.481  -5.871  0.00  0.00    -0.078 A 
ATOM      5  C3  OXE d   1      -5.113   0.668  -5.992  0.00  0.00     0.003 A 
ATOM      6  C4  OXE d   1      -4.983  -0.726  -5.999  0.00  0.00    -0.002 A 
ATOM      7  C5  OXE d   1      -3.716  -1.320  -6.000  0.00  0.00    -0.002 A 
ATOM      8  C6  OXE d   1      -2.585  -0.512  -5.999  0.00  0.00     0.003 A 
ENDROOT
TORSDOF 0
ENDMDL
