MODEL 1
REMARK minimizedAffinity 0.495479256
REMARK minimizedRMSD -1
REMARK  0 active torsions:
REMARK  status: ('A' for Active; 'I' for Inactive)
ROOT
ATOM      1  C2' OXE d   1      -4.245  -0.421  -5.959  0.00  0.00     0.078 C 
ATOM      2  C1' OXE d   1      -1.660   0.672  -6.000  0.00  0.00     0.078 C 
ATOM      3  C1  OXE d   1      -2.827   1.627  -5.972  0.00  0.00    -0.078 A 
ATOM      4  C2  OXE d   1      -4.089   1.084  -6.000  0.00  0.00    -0.078 A 
ATOM      5  C3  OXE d   1      -5.201   1.918  -5.920  0.00  0.00     0.003 A 
ATOM      6  C4  OXE d   1      -5.048   3.309  -5.968  0.00  0.00    -0.002 A 
ATOM      7  C5  OXE d   1      -3.772   3.883  -5.980  0.00  0.00    -0.002 A 
ATOM      8  C6  OXE d   1      -2.653   3.058  -5.940  0.00  0.00     0.003 A 
ENDROOT
TORSDOF 0
ENDMDL
