MODEL 1
REMARK minimizedAffinity 22.5370617
REMARK minimizedRMSD -1
REMARK  0 active torsions:
REMARK  status: ('A' for Active; 'I' for Inactive)
ROOT
ATOM      1  C   UNL d   1      -0.339  -2.714  -1.571  0.00  0.00     0.077 C 
ATOM      2  C1  UNL d   1       1.035  -2.251  -1.186  0.00  0.00    -0.074 A 
ATOM      3  C2  UNL d   1       2.031  -3.169  -0.839  0.00  0.00    -0.005 A 
ATOM      4  C3  UNL d   1       3.307  -2.725  -0.492  0.00  0.00     0.006 A 
ATOM      5  C4  UNL d   1       3.599  -1.360  -0.488  0.00  0.00    -0.005 A 
ATOM      6  C5  UNL d   1       2.615  -0.428  -0.832  0.00  0.00    -0.074 A 
ATOM      7  C6  UNL d   1       2.915   1.042  -0.842  0.00  0.00     0.077 C 
ATOM      8  C7  UNL d   1       1.338  -0.883  -1.187  0.00  0.00    -0.001 A 
ENDROOT
TORSDOF 0
ENDMDL
