MODEL 1
REMARK minimizedAffinity 14.6643524
REMARK minimizedRMSD -1
REMARK  0 active torsions:
REMARK  status: ('A' for Active; 'I' for Inactive)
ROOT
ATOM      1  C   UNL d   1       1.968  -3.319  -0.621  0.00  0.00     0.077 C 
ATOM      2  C1  UNL d   1       2.051  -1.944  -1.213  0.00  0.00    -0.074 A 
ATOM      3  C2  UNL d   1       1.266  -1.586  -2.314  0.00  0.00    -0.005 A 
ATOM      4  C3  UNL d   1       1.347  -0.300  -2.848  0.00  0.00     0.006 A 
ATOM      5  C4  UNL d   1       2.214   0.639  -2.288  0.00  0.00    -0.005 A 
ATOM      6  C5  UNL d   1       3.007   0.300  -1.187  0.00  0.00    -0.074 A 
ATOM      7  C6  UNL d   1       3.936   1.301  -0.568  0.00  0.00     0.077 C 
ATOM      8  C7  UNL d   1       2.914  -0.992  -0.652  0.00  0.00    -0.001 A 
ENDROOT
TORSDOF 0
ENDMDL
