MODEL 1
REMARK minimizedAffinity 15.3428297
REMARK minimizedRMSD -1
REMARK  0 active torsions:
REMARK  status: ('A' for Active; 'I' for Inactive)
ROOT
ATOM      1  C   UNL d   1      -5.662   4.151   4.502  0.00  0.00     0.077 C 
ATOM      2  C1  UNL d   1      -4.571   3.131   4.639  0.00  0.00    -0.074 A 
ATOM      3  C2  UNL d   1      -4.007   2.845   5.886  0.00  0.00    -0.005 A 
ATOM      4  C3  UNL d   1      -2.999   1.888   5.999  0.00  0.00     0.006 A 
ATOM      5  C4  UNL d   1      -2.547   1.207   4.869  0.00  0.00    -0.005 A 
ATOM      6  C5  UNL d   1      -3.099   1.479   3.613  0.00  0.00    -0.074 A 
ATOM      7  C6  UNL d   1      -2.631   0.749   2.389  0.00  0.00     0.077 C 
ATOM      8  C7  UNL d   1      -4.116   2.438   3.509  0.00  0.00    -0.001 A 
ENDROOT
TORSDOF 0
ENDMDL
