MODEL 1
REMARK minimizedAffinity 11.0005445
REMARK minimizedRMSD -1
REMARK  0 active torsions:
REMARK  status: ('A' for Active; 'I' for Inactive)
ROOT
ATOM      1  C   UNL d   1      -0.980  -4.104  -1.669  0.00  0.00     0.077 C 
ATOM      2  C1  UNL d   1       0.012  -2.996  -1.477  0.00  0.00    -0.074 A 
ATOM      3  C2  UNL d   1       0.821  -2.945  -0.337  0.00  0.00    -0.005 A 
ATOM      4  C3  UNL d   1       1.746  -1.913  -0.177  0.00  0.00     0.006 A 
ATOM      5  C4  UNL d   1       1.872  -0.925  -1.153  0.00  0.00    -0.005 A 
ATOM      6  C5  UNL d   1       1.073  -0.960  -2.300  0.00  0.00    -0.074 A 
ATOM      7  C6  UNL d   1       1.203   0.090  -3.364  0.00  0.00     0.077 C 
ATOM      8  C7  UNL d   1       0.151  -2.003  -2.457  0.00  0.00    -0.001 A 
ENDROOT
TORSDOF 0
ENDMDL
