MODEL 1
REMARK minimizedAffinity 19.4638557
REMARK minimizedRMSD -1
REMARK  0 active torsions:
REMARK  status: ('A' for Active; 'I' for Inactive)
ROOT
ATOM      1  C   UNL d   1      -5.998   4.199  -5.936  0.00  0.00     0.077 C 
ATOM      2  C1  UNL d   1      -4.517   4.196  -5.699  0.00  0.00    -0.074 A 
ATOM      3  C2  UNL d   1      -3.739   5.318  -5.999  0.00  0.00    -0.005 A 
ATOM      4  C3  UNL d   1      -2.364   5.304  -5.764  0.00  0.00     0.006 A 
ATOM      5  C4  UNL d   1      -1.754   4.168  -5.229  0.00  0.00    -0.005 A 
ATOM      6  C5  UNL d   1      -2.517   3.037  -4.922  0.00  0.00    -0.074 A 
ATOM      7  C6  UNL d   1      -1.879   1.812  -4.337  0.00  0.00     0.077 C 
ATOM      8  C7  UNL d   1      -3.899   3.062  -5.154  0.00  0.00    -0.001 A 
ENDROOT
TORSDOF 0
ENDMDL
