MODEL 1
REMARK minimizedAffinity 15.6935005
REMARK minimizedRMSD -1
REMARK  0 active torsions:
REMARK  status: ('A' for Active; 'I' for Inactive)
ROOT
ATOM      1  C   UNL d   1      -1.800   0.925   2.098  0.00  0.00     0.077 C 
ATOM      2  C1  UNL d   1      -3.097   0.711   2.822  0.00  0.00    -0.074 A 
ATOM      3  C2  UNL d   1      -3.911  -0.387   2.529  0.00  0.00    -0.005 A 
ATOM      4  C3  UNL d   1      -5.109  -0.578   3.217  0.00  0.00     0.006 A 
ATOM      5  C4  UNL d   1      -5.504   0.326   4.203  0.00  0.00    -0.005 A 
ATOM      6  C5  UNL d   1      -4.703   1.430   4.511  0.00  0.00    -0.074 A 
ATOM      7  C6  UNL d   1      -5.109   2.406   5.575  0.00  0.00     0.077 C 
ATOM      8  C7  UNL d   1      -3.497   1.611   3.820  0.00  0.00    -0.001 A 
ENDROOT
TORSDOF 0
ENDMDL
