MODEL 1
REMARK minimizedAffinity 3.06741285
REMARK minimizedRMSD -1
REMARK  0 active torsions:
REMARK  status: ('A' for Active; 'I' for Inactive)
ROOT
ATOM      1  C   UNL d   1      -2.685   0.237   2.429  0.00  0.00     0.077 C 
ATOM      2  C1  UNL d   1      -3.845   0.284   3.380  0.00  0.00    -0.074 A 
ATOM      3  C2  UNL d   1      -4.702  -0.812   3.522  0.00  0.00    -0.005 A 
ATOM      4  C3  UNL d   1      -5.770  -0.758   4.417  0.00  0.00     0.006 A 
ATOM      5  C4  UNL d   1      -5.992   0.391   5.177  0.00  0.00    -0.005 A 
ATOM      6  C5  UNL d   1      -5.145   1.496   5.049  0.00  0.00    -0.074 A 
ATOM      7  C6  UNL d   1      -5.364   2.735   5.866  0.00  0.00     0.077 C 
ATOM      8  C7  UNL d   1      -4.070   1.431   4.153  0.00  0.00    -0.001 A 
ENDROOT
TORSDOF 0
ENDMDL
