MODEL 1
REMARK minimizedAffinity 12.3473139
REMARK minimizedRMSD -1
REMARK  0 active torsions:
REMARK  status: ('A' for Active; 'I' for Inactive)
ROOT
ATOM      1  C   UNL d   1       1.592   3.015   1.366  0.00  0.00     0.077 C 
ATOM      2  C1  UNL d   1       1.176   1.580   1.502  0.00  0.00    -0.074 A 
ATOM      3  C2  UNL d   1       0.319   1.175   2.531  0.00  0.00    -0.005 A 
ATOM      4  C3  UNL d   1      -0.066  -0.161   2.639  0.00  0.00     0.006 A 
ATOM      5  C4  UNL d   1       0.400  -1.104   1.722  0.00  0.00    -0.005 A 
ATOM      6  C5  UNL d   1       1.256  -0.716   0.686  0.00  0.00    -0.074 A 
ATOM      7  C6  UNL d   1       1.759  -1.715  -0.314  0.00  0.00     0.077 C 
ATOM      8  C7  UNL d   1       1.634   0.629   0.580  0.00  0.00    -0.001 A 
ENDROOT
TORSDOF 0
ENDMDL
