MODEL 1
REMARK minimizedAffinity 9.55350399
REMARK minimizedRMSD -1
REMARK  0 active torsions:
REMARK  status: ('A' for Active; 'I' for Inactive)
ROOT
ATOM      1  C   UNL d   1      -3.339   1.666   3.266  0.00  0.00     0.077 C 
ATOM      2  C1  UNL d   1      -1.926   1.164   3.246  0.00  0.00    -0.074 A 
ATOM      3  C2  UNL d   1      -1.350   0.684   2.065  0.00  0.00    -0.005 A 
ATOM      4  C3  UNL d   1      -0.032   0.229   2.060  0.00  0.00     0.006 A 
ATOM      5  C4  UNL d   1       0.723   0.249   3.233  0.00  0.00    -0.005 A 
ATOM      6  C5  UNL d   1       0.164   0.726   4.423  0.00  0.00    -0.074 A 
ATOM      7  C6  UNL d   1       0.965   0.764   5.691  0.00  0.00     0.077 C 
ATOM      8  C7  UNL d   1      -1.159   1.188   4.419  0.00  0.00    -0.001 A 
ENDROOT
TORSDOF 0
ENDMDL
