MODEL 1
REMARK minimizedAffinity -0.831556857
REMARK minimizedRMSD -1
REMARK  0 active torsions:
REMARK  status: ('A' for Active; 'I' for Inactive)
ROOT
ATOM      1  C   UNL d   1       2.108  -1.404  -1.110  0.00  0.00     0.077 C 
ATOM      2  C1  UNL d   1       2.397  -2.838  -1.439  0.00  0.00    -0.074 A 
ATOM      3  C2  UNL d   1       3.557  -3.464  -0.972  0.00  0.00    -0.005 A 
ATOM      4  C3  UNL d   1       3.807  -4.802  -1.278  0.00  0.00     0.006 A 
ATOM      5  C4  UNL d   1       2.901  -5.526  -2.054  0.00  0.00    -0.005 A 
ATOM      6  C5  UNL d   1       1.735  -4.917  -2.530  0.00  0.00    -0.074 A 
ATOM      7  C6  UNL d   1       0.746  -5.684  -3.357  0.00  0.00     0.077 C 
ATOM      8  C7  UNL d   1       1.487  -3.575  -2.211  0.00  0.00    -0.001 A 
ENDROOT
TORSDOF 0
ENDMDL
