MODEL 1
REMARK minimizedAffinity 21.9583073
REMARK minimizedRMSD -1
REMARK  0 active torsions:
REMARK  status: ('A' for Active; 'I' for Inactive)
ROOT
ATOM      1  C   UNL d   1      -2.260  -5.312  -2.262  0.00  0.00     0.077 C 
ATOM      2  C1  UNL d   1      -2.048  -3.837  -2.430  0.00  0.00    -0.074 A 
ATOM      3  C2  UNL d   1      -3.022  -3.034  -3.033  0.00  0.00    -0.005 A 
ATOM      4  C3  UNL d   1      -2.815  -1.662  -3.174  0.00  0.00     0.006 A 
ATOM      5  C4  UNL d   1      -1.634  -1.079  -2.714  0.00  0.00    -0.005 A 
ATOM      6  C5  UNL d   1      -0.648  -1.865  -2.108  0.00  0.00    -0.074 A 
ATOM      7  C6  UNL d   1       0.623  -1.253  -1.600  0.00  0.00     0.077 C 
ATOM      8  C7  UNL d   1      -0.867  -3.242  -1.964  0.00  0.00    -0.001 A 
ENDROOT
TORSDOF 0
ENDMDL
