MODEL 1
REMARK minimizedAffinity 8.26185226
REMARK minimizedRMSD -1
REMARK  0 active torsions:
REMARK  status: ('A' for Active; 'I' for Inactive)
ROOT
ATOM      1  C   UNL d   1      -5.281  -1.228   2.149  0.00  0.00     0.077 C 
ATOM      2  C1  UNL d   1      -4.127  -0.358   2.550  0.00  0.00    -0.074 A 
ATOM      3  C2  UNL d   1      -4.339   0.872   3.182  0.00  0.00    -0.005 A 
ATOM      4  C3  UNL d   1      -3.256   1.666   3.557  0.00  0.00     0.006 A 
ATOM      5  C4  UNL d   1      -1.951   1.239   3.305  0.00  0.00    -0.005 A 
ATOM      6  C5  UNL d   1      -1.719   0.013   2.675  0.00  0.00    -0.074 A 
ATOM      7  C6  UNL d   1      -0.323  -0.465   2.406  0.00  0.00     0.077 C 
ATOM      8  C7  UNL d   1      -2.813  -0.783   2.307  0.00  0.00    -0.001 A 
ENDROOT
TORSDOF 0
ENDMDL
