MODEL 1
REMARK minimizedAffinity 10.5026531
REMARK minimizedRMSD -1
REMARK  0 active torsions:
REMARK  status: ('A' for Active; 'I' for Inactive)
ROOT
ATOM      1  C   UNL d   1       0.719  -2.766  -1.047  0.00  0.00     0.077 C 
ATOM      2  C1  UNL d   1      -0.449  -2.732  -1.987  0.00  0.00    -0.074 A 
ATOM      3  C2  UNL d   1      -1.169  -3.895  -2.281  0.00  0.00    -0.005 A 
ATOM      4  C3  UNL d   1      -2.260  -3.846  -3.150  0.00  0.00     0.006 A 
ATOM      5  C4  UNL d   1      -2.640  -2.636  -3.732  0.00  0.00    -0.005 A 
ATOM      6  C5  UNL d   1      -1.933  -1.463  -3.449  0.00  0.00    -0.074 A 
ATOM      7  C6  UNL d   1      -2.336  -0.153  -4.058  0.00  0.00     0.077 C 
ATOM      8  C7  UNL d   1      -0.843  -1.519  -2.570  0.00  0.00    -0.001 A 
ENDROOT
TORSDOF 0
ENDMDL
