MODEL 1
REMARK minimizedAffinity 9.06247425
REMARK minimizedRMSD -1
REMARK  0 active torsions:
REMARK  status: ('A' for Active; 'I' for Inactive)
ROOT
ATOM      1  C   UNL d   1       3.827  -3.198  -4.814  0.00  0.00     0.077 C 
ATOM      2  C1  UNL d   1       3.323  -2.737  -3.479  0.00  0.00    -0.074 A 
ATOM      3  C2  UNL d   1       3.307  -3.601  -2.379  0.00  0.00    -0.005 A 
ATOM      4  C3  UNL d   1       2.844  -3.155  -1.141  0.00  0.00     0.006 A 
ATOM      5  C4  UNL d   1       2.393  -1.843  -0.991  0.00  0.00    -0.005 A 
ATOM      6  C5  UNL d   1       2.403  -0.965  -2.079  0.00  0.00    -0.074 A 
ATOM      7  C6  UNL d   1       1.931   0.452  -1.932  0.00  0.00     0.077 C 
ATOM      8  C7  UNL d   1       2.875  -1.418  -3.318  0.00  0.00    -0.001 A 
ENDROOT
TORSDOF 0
ENDMDL
