MODEL 1
REMARK minimizedAffinity 6.35889626
REMARK minimizedRMSD -1
REMARK  0 active torsions:
REMARK  status: ('A' for Active; 'I' for Inactive)
ROOT
ATOM      1  C   UNL d   1      -4.541   3.894   5.035  0.00  0.00     0.077 C 
ATOM      2  C1  UNL d   1      -3.804   2.818   4.294  0.00  0.00    -0.074 A 
ATOM      3  C2  UNL d   1      -2.431   2.924   4.052  0.00  0.00    -0.005 A 
ATOM      4  C3  UNL d   1      -1.757   1.911   3.370  0.00  0.00     0.006 A 
ATOM      5  C4  UNL d   1      -2.449   0.785   2.922  0.00  0.00    -0.005 A 
ATOM      6  C5  UNL d   1      -3.822   0.662   3.155  0.00  0.00    -0.074 A 
ATOM      7  C6  UNL d   1      -4.579  -0.547   2.689  0.00  0.00     0.077 C 
ATOM      8  C7  UNL d   1      -4.491   1.680   3.848  0.00  0.00    -0.001 A 
ENDROOT
TORSDOF 0
ENDMDL
