MODEL 1
REMARK minimizedAffinity 15.4518538
REMARK minimizedRMSD -1
REMARK  0 active torsions:
REMARK  status: ('A' for Active; 'I' for Inactive)
ROOT
ATOM      1  C   UNL d   1       3.026   2.543  -0.728  0.00  0.00     0.077 C 
ATOM      2  C1  UNL d   1       2.557   1.261  -1.350  0.00  0.00    -0.074 A 
ATOM      3  C2  UNL d   1       1.931   1.256  -2.600  0.00  0.00    -0.005 A 
ATOM      4  C3  UNL d   1       1.509   0.055  -3.171  0.00  0.00     0.006 A 
ATOM      5  C4  UNL d   1       1.709  -1.150  -2.498  0.00  0.00    -0.005 A 
ATOM      6  C5  UNL d   1       2.334  -1.165  -1.247  0.00  0.00    -0.074 A 
ATOM      7  C6  UNL d   1       2.565  -2.453  -0.514  0.00  0.00     0.077 C 
ATOM      8  C7  UNL d   1       2.761   0.045  -0.683  0.00  0.00    -0.001 A 
ENDROOT
TORSDOF 0
ENDMDL
