MODEL 1
REMARK minimizedAffinity -3.3695612
REMARK minimizedRMSD -1
REMARK  0 active torsions:
REMARK  status: ('A' for Active; 'I' for Inactive)
ROOT
ATOM      1  C   UNL d   1      -0.108  -2.131   0.242  0.00  0.00     0.077 C 
ATOM      2  C1  UNL d   1       0.396  -0.937  -0.514  0.00  0.00    -0.074 A 
ATOM      3  C2  UNL d   1       0.508   0.312   0.106  0.00  0.00    -0.005 A 
ATOM      4  C3  UNL d   1       0.987   1.410  -0.608  0.00  0.00     0.006 A 
ATOM      5  C4  UNL d   1       1.358   1.272  -1.946  0.00  0.00    -0.005 A 
ATOM      6  C5  UNL d   1       1.253   0.031  -2.582  0.00  0.00    -0.074 A 
ATOM      7  C6  UNL d   1       1.657  -0.137  -4.017  0.00  0.00     0.077 C 
ATOM      8  C7  UNL d   1       0.778  -1.070  -1.857  0.00  0.00    -0.001 A 
ENDROOT
TORSDOF 0
ENDMDL
