MODEL 1
REMARK minimizedAffinity 15.8828115
REMARK minimizedRMSD -1
REMARK  0 active torsions:
REMARK  status: ('A' for Active; 'I' for Inactive)
ROOT
ATOM      1  C   UNL d   1      -0.796  -4.201  -0.192  0.00  0.00     0.124 A 
ATOM      2  C1  UNL d   1       0.547  -4.282   0.147  0.00  0.00     0.062 A 
ATOM      3  C2  UNL d   1       1.113  -3.336   0.997  0.00  0.00     0.162 A 
ATOM      4  C3  UNL d   1       0.335  -2.300   1.514  0.00  0.00    -0.034 A 
ATOM      5  C4  UNL d   1      -1.015  -2.225   1.168  0.00  0.00     0.162 A 
ATOM      6  C5  UNL d   1      -1.576  -3.173   0.318  0.00  0.00     0.062 A 
ATOM      7  F   UNL d   1      -2.874  -3.093  -0.008  0.00  0.00    -0.097 F 
ATOM      8  F1  UNL d   1      -1.792  -1.242   1.648  0.00  0.00    -0.096 F 
ATOM      9  I   UNL d   1       1.177  -0.884   2.785  0.00  0.00    -0.060 I 
ATOM     10  F2  UNL d   1       2.414  -3.439   1.308  0.00  0.00    -0.096 F 
ATOM     11  F3  UNL d   1       1.303  -5.274  -0.346  0.00  0.00    -0.097 F 
ATOM     12  F4  UNL d   1      -1.338  -5.112  -1.011  0.00  0.00    -0.092 F 
ENDROOT
TORSDOF 0
ENDMDL
