MODEL 1
REMARK minimizedAffinity 26.9024162
REMARK minimizedRMSD -1
REMARK  0 active torsions:
REMARK  status: ('A' for Active; 'I' for Inactive)
ROOT
ATOM      1  C   UNL d   1       2.183  -1.489   1.529  0.00  0.00     0.124 A 
ATOM      2  C1  UNL d   1       1.553  -0.699   2.481  0.00  0.00     0.062 A 
ATOM      3  C2  UNL d   1       1.316  -1.199   3.758  0.00  0.00     0.162 A 
ATOM      4  C3  UNL d   1       1.708  -2.495   4.091  0.00  0.00    -0.034 A 
ATOM      5  C4  UNL d   1       2.340  -3.284   3.128  0.00  0.00     0.162 A 
ATOM      6  C5  UNL d   1       2.575  -2.780   1.853  0.00  0.00     0.062 A 
ATOM      7  F   UNL d   1       3.183  -3.544   0.934  0.00  0.00    -0.097 F 
ATOM      8  F1  UNL d   1       2.730  -4.534   3.414  0.00  0.00    -0.096 F 
ATOM      9  I   UNL d   1       1.355  -3.246   6.000  0.00  0.00    -0.060 I 
ATOM     10  F2  UNL d   1       0.706  -0.413   4.659  0.00  0.00    -0.096 F 
ATOM     11  F3  UNL d   1       1.172   0.548   2.170  0.00  0.00    -0.097 F 
ATOM     12  F4  UNL d   1       2.409  -1.006   0.300  0.00  0.00    -0.092 F 
ENDROOT
TORSDOF 0
ENDMDL
