MODEL 1
REMARK minimizedAffinity 31.5600853
REMARK minimizedRMSD -1
REMARK  0 active torsions:
REMARK  status: ('A' for Active; 'I' for Inactive)
ROOT
ATOM      1  C   UNL d   1       2.075  -1.242   1.387  0.00  0.00     0.124 A 
ATOM      2  C1  UNL d   1       2.545  -2.509   1.703  0.00  0.00     0.062 A 
ATOM      3  C2  UNL d   1       2.511  -2.960   3.019  0.00  0.00     0.162 A 
ATOM      4  C3  UNL d   1       2.003  -2.144   4.030  0.00  0.00    -0.034 A 
ATOM      5  C4  UNL d   1       1.533  -0.870   3.704  0.00  0.00     0.162 A 
ATOM      6  C5  UNL d   1       1.569  -0.424   2.387  0.00  0.00     0.062 A 
ATOM      7  F   UNL d   1       1.115   0.800   2.084  0.00  0.00    -0.097 F 
ATOM      8  F1  UNL d   1       1.038  -0.059   4.651  0.00  0.00    -0.096 F 
ATOM      9  I   UNL d   1       1.950  -2.814   6.000  0.00  0.00    -0.060 I 
ATOM     10  F2  UNL d   1       2.972  -4.189   3.296  0.00  0.00    -0.096 F 
ATOM     11  F3  UNL d   1       3.035  -3.301   0.738  0.00  0.00    -0.097 F 
ATOM     12  F4  UNL d   1       2.110  -0.811   0.119  0.00  0.00    -0.092 F 
ENDROOT
TORSDOF 0
ENDMDL
