MODEL 1
REMARK minimizedAffinity 19.102293
REMARK minimizedRMSD -1
REMARK  0 active torsions:
REMARK  status: ('A' for Active; 'I' for Inactive)
ROOT
ATOM      1  C   UNL d   1      -0.856  -4.941  -0.685  0.00  0.00     0.124 A 
ATOM      2  C1  UNL d   1       0.527  -4.836  -0.727  0.00  0.00     0.062 A 
ATOM      3  C2  UNL d   1       1.173  -3.809  -0.045  0.00  0.00     0.162 A 
ATOM      4  C3  UNL d   1       0.436  -2.878   0.686  0.00  0.00    -0.034 A 
ATOM      5  C4  UNL d   1      -0.956  -2.989   0.723  0.00  0.00     0.162 A 
ATOM      6  C5  UNL d   1      -1.596  -4.017   0.040  0.00  0.00     0.062 A 
ATOM      7  F   UNL d   1      -2.933  -4.116   0.081  0.00  0.00    -0.097 F 
ATOM      8  F1  UNL d   1      -1.695  -2.110   1.417  0.00  0.00    -0.096 F 
ATOM      9  I   UNL d   1       1.397  -1.340   1.708  0.00  0.00    -0.060 I 
ATOM     10  F2  UNL d   1       2.511  -3.733  -0.103  0.00  0.00    -0.096 F 
ATOM     11  F3  UNL d   1       1.244  -5.727  -1.428  0.00  0.00    -0.097 F 
ATOM     12  F4  UNL d   1      -1.475  -5.929  -1.343  0.00  0.00    -0.092 F 
ENDROOT
TORSDOF 0
ENDMDL
