MODEL 1
REMARK minimizedAffinity 18.8652439
REMARK minimizedRMSD -1
REMARK  0 active torsions:
REMARK  status: ('A' for Active; 'I' for Inactive)
ROOT
ATOM      1  C   UNL d   1       1.717  -0.729   1.868  0.00  0.00     0.124 A 
ATOM      2  C1  UNL d   1       1.494  -0.101   3.085  0.00  0.00     0.062 A 
ATOM      3  C2  UNL d   1       1.509  -0.837   4.266  0.00  0.00     0.162 A 
ATOM      4  C3  UNL d   1       1.750  -2.211   4.236  0.00  0.00    -0.034 A 
ATOM      5  C4  UNL d   1       1.972  -2.836   3.008  0.00  0.00     0.162 A 
ATOM      6  C5  UNL d   1       1.956  -2.096   1.830  0.00  0.00     0.062 A 
ATOM      7  F   UNL d   1       2.172  -2.705   0.655  0.00  0.00    -0.097 F 
ATOM      8  F1  UNL d   1       2.207  -4.155   2.942  0.00  0.00    -0.096 F 
ATOM      9  I   UNL d   1       1.773  -3.316   6.000  0.00  0.00    -0.060 I 
ATOM     10  F2  UNL d   1       1.291  -0.204   5.428  0.00  0.00    -0.096 F 
ATOM     11  F3  UNL d   1       1.262   1.219   3.124  0.00  0.00    -0.097 F 
ATOM     12  F4  UNL d   1       1.701  -0.019   0.733  0.00  0.00    -0.092 F 
ENDROOT
TORSDOF 0
ENDMDL
