MODEL 1
REMARK minimizedAffinity 13.1621113
REMARK minimizedRMSD -1
REMARK  0 active torsions:
REMARK  status: ('A' for Active; 'I' for Inactive)
ROOT
ATOM      1  C   UNL d   1      -3.363   3.044  -4.871  0.00  0.00     0.124 A 
ATOM      2  C1  UNL d   1      -3.802   2.049  -4.008  0.00  0.00     0.062 A 
ATOM      3  C2  UNL d   1      -4.549   2.380  -2.881  0.00  0.00     0.162 A 
ATOM      4  C3  UNL d   1      -4.862   3.712  -2.611  0.00  0.00    -0.034 A 
ATOM      5  C4  UNL d   1      -4.416   4.707  -3.483  0.00  0.00     0.162 A 
ATOM      6  C5  UNL d   1      -3.670   4.371  -4.608  0.00  0.00     0.062 A 
ATOM      7  F   UNL d   1      -3.247   5.333  -5.440  0.00  0.00    -0.097 F 
ATOM      8  F1  UNL d   1      -4.700   5.997  -3.252  0.00  0.00    -0.096 F 
ATOM      9  I   UNL d   1      -5.979   4.211  -0.926  0.00  0.00    -0.060 I 
ATOM     10  F2  UNL d   1      -4.960   1.398  -2.065  0.00  0.00    -0.096 F 
ATOM     11  F3  UNL d   1      -3.506   0.766  -4.260  0.00  0.00    -0.097 F 
ATOM     12  F4  UNL d   1      -2.644   2.723  -5.955  0.00  0.00    -0.092 F 
ENDROOT
TORSDOF 0
ENDMDL
