MODEL 1
REMARK minimizedAffinity 22.9947243
REMARK minimizedRMSD -1
REMARK  0 active torsions:
REMARK  status: ('A' for Active; 'I' for Inactive)
ROOT
ATOM      1  C   UNL d   1       2.061  -1.005   1.119  0.00  0.00     0.124 A 
ATOM      2  C1  UNL d   1       1.532  -0.251   2.157  0.00  0.00     0.062 A 
ATOM      3  C2  UNL d   1       1.306  -0.834   3.401  0.00  0.00     0.162 A 
ATOM      4  C3  UNL d   1       1.611  -2.178   3.614  0.00  0.00    -0.034 A 
ATOM      5  C4  UNL d   1       2.141  -2.930   2.565  0.00  0.00     0.162 A 
ATOM      6  C5  UNL d   1       2.365  -2.344   1.323  0.00  0.00     0.062 A 
ATOM      7  F   UNL d   1       2.876  -3.074   0.321  0.00  0.00    -0.097 F 
ATOM      8  F1  UNL d   1       2.445  -4.226   2.735  0.00  0.00    -0.096 F 
ATOM      9  I   UNL d   1       1.275  -3.053   5.472  0.00  0.00    -0.060 I 
ATOM     10  F2  UNL d   1       0.794  -0.081   4.386  0.00  0.00    -0.096 F 
ATOM     11  F3  UNL d   1       1.236   1.042   1.961  0.00  0.00    -0.097 F 
ATOM     12  F4  UNL d   1       2.276  -0.443  -0.078  0.00  0.00    -0.092 F 
ENDROOT
TORSDOF 0
ENDMDL
