MODEL 1
REMARK minimizedAffinity -1.98346829
REMARK minimizedRMSD -1
REMARK  1 active torsions:
REMARK  status: ('A' for Active; 'I' for Inactive)
REMARK    1  A    between atoms: C3_4  and  O_7 
ROOT
ATOM      1  C   UNL d   1       3.185   2.550   0.802  0.00  0.00    -0.033 A 
ATOM      2  C1  UNL d   1       2.619   2.190   2.026  0.00  0.00     0.039 A 
ATOM      3  C2  UNL d   1       1.753   1.098   2.103  0.00  0.00    -0.080 A 
ATOM      4  C3  UNL d   1       1.463   0.374   0.950  0.00  0.00     0.150 A 
ATOM      5  C4  UNL d   1       2.026   0.724  -0.273  0.00  0.00    -0.007 A 
ATOM      6  C5  UNL d   1       2.890   1.816  -0.347  0.00  0.00     0.039 A 
ENDROOT
BRANCH   4   7
ATOM      7  O   UNL d   1       0.619  -0.697   0.974  0.00  0.00    -0.526 OA
ATOM      8  H5  UNL d   1       0.283  -0.804   1.879  0.00  0.00     0.418 HD
ENDBRANCH   4   7
TORSDOF 1
ENDMDL
