MODEL 1
REMARK minimizedAffinity -3.86197233
REMARK minimizedRMSD -1
REMARK  1 active torsions:
REMARK  status: ('A' for Active; 'I' for Inactive)
REMARK    1  A    between atoms: C3_4  and  O_7 
ROOT
ATOM      1  C   UNL d   1       0.443  -0.284  -0.678  0.00  0.00    -0.033 A 
ATOM      2  C1  UNL d   1      -0.131  -1.055   0.334  0.00  0.00     0.039 A 
ATOM      3  C2  UNL d   1      -1.514  -1.042   0.525  0.00  0.00    -0.080 A 
ATOM      4  C3  UNL d   1      -2.311  -0.256  -0.303  0.00  0.00     0.150 A 
ATOM      5  C4  UNL d   1      -1.746   0.511  -1.316  0.00  0.00    -0.007 A 
ATOM      6  C5  UNL d   1      -0.364   0.498  -1.504  0.00  0.00     0.039 A 
ENDROOT
BRANCH   4   7
ATOM      7  O   UNL d   1      -3.665  -0.207  -0.152  0.00  0.00    -0.526 OA
ATOM      8  H5  UNL d   1      -3.910  -0.765   0.605  0.00  0.00     0.418 HD
ENDBRANCH   4   7
TORSDOF 1
ENDMDL
