MODEL 1
REMARK minimizedAffinity -4.68947172
REMARK minimizedRMSD -1
REMARK  1 active torsions:
REMARK  status: ('A' for Active; 'I' for Inactive)
REMARK    1  A    between atoms: C3_4  and  O_7 
ROOT
ATOM      1  C   UNL d   1       0.189  -0.099  -0.681  0.00  0.00    -0.033 A 
ATOM      2  C1  UNL d   1      -0.658  -0.374  -1.756  0.00  0.00     0.039 A 
ATOM      3  C2  UNL d   1      -1.987  -0.736  -1.525  0.00  0.00    -0.080 A 
ATOM      4  C3  UNL d   1      -2.455  -0.819  -0.217  0.00  0.00     0.150 A 
ATOM      5  C4  UNL d   1      -1.617  -0.542   0.859  0.00  0.00    -0.007 A 
ATOM      6  C5  UNL d   1      -0.291  -0.181   0.626  0.00  0.00     0.039 A 
ENDROOT
BRANCH   4   7
ATOM      7  O   UNL d   1      -3.742  -1.173   0.058  0.00  0.00    -0.526 OA
ATOM      8  H5  UNL d   1      -4.195  -1.362  -0.780  0.00  0.00     0.418 HD
ENDBRANCH   4   7
TORSDOF 1
ENDMDL
