MODEL 1
REMARK minimizedAffinity -4.41853094
REMARK minimizedRMSD -1
REMARK  1 active torsions:
REMARK  status: ('A' for Active; 'I' for Inactive)
REMARK    1  A    between atoms: C3_4  and  O_7 
ROOT
ATOM      1  C   UNL d   1       0.503  -0.874   0.371  0.00  0.00    -0.033 A 
ATOM      2  C1  UNL d   1       0.418   0.038  -0.684  0.00  0.00     0.039 A 
ATOM      3  C2  UNL d   1      -0.795   0.226  -1.349  0.00  0.00    -0.080 A 
ATOM      4  C3  UNL d   1      -1.913  -0.501  -0.951  0.00  0.00     0.150 A 
ATOM      5  C4  UNL d   1      -1.837  -1.408   0.101  0.00  0.00    -0.007 A 
ATOM      6  C5  UNL d   1      -0.625  -1.595   0.764  0.00  0.00     0.039 A 
ENDROOT
BRANCH   4   7
ATOM      7  O   UNL d   1      -3.117  -0.355  -1.574  0.00  0.00    -0.526 OA
ATOM      8  H5  UNL d   1      -3.013   0.283  -2.300  0.00  0.00     0.418 HD
ENDBRANCH   4   7
TORSDOF 1
ENDMDL
