MODEL 1
REMARK minimizedAffinity -5.6229229
REMARK minimizedRMSD -1
REMARK  1 active torsions:
REMARK  status: ('A' for Active; 'I' for Inactive)
REMARK    1  A    between atoms: C3_4  and  O_7 
ROOT
ATOM      1  C   UNL d   1      -3.091  -1.963  -0.311  0.00  0.00    -0.033 A 
ATOM      2  C1  UNL d   1      -2.318  -2.252   0.815  0.00  0.00     0.039 A 
ATOM      3  C2  UNL d   1      -1.080  -1.631   0.992  0.00  0.00    -0.080 A 
ATOM      4  C3  UNL d   1      -0.628  -0.724   0.038  0.00  0.00     0.150 A 
ATOM      5  C4  UNL d   1      -1.394  -0.429  -1.084  0.00  0.00    -0.007 A 
ATOM      6  C5  UNL d   1      -2.630  -1.050  -1.260  0.00  0.00     0.039 A 
ENDROOT
BRANCH   4   7
ATOM      7  O   UNL d   1       0.576  -0.097   0.165  0.00  0.00    -0.526 OA
ATOM      8  H5  UNL d   1       1.008  -0.420   0.974  0.00  0.00     0.418 HD
ENDBRANCH   4   7
TORSDOF 1
ENDMDL
