MODEL 1
REMARK minimizedAffinity -5.08798027
REMARK minimizedRMSD -1
REMARK  1 active torsions:
REMARK  status: ('A' for Active; 'I' for Inactive)
REMARK    1  A    between atoms: C3_4  and  O_7 
ROOT
ATOM      1  C   UNL d   1       0.049  -0.610   0.949  0.00  0.00    -0.033 A 
ATOM      2  C1  UNL d   1      -0.150   0.085  -0.246  0.00  0.00     0.039 A 
ATOM      3  C2  UNL d   1      -1.391   0.040  -0.883  0.00  0.00    -0.080 A 
ATOM      4  C3  UNL d   1      -2.424  -0.701  -0.316  0.00  0.00     0.150 A 
ATOM      5  C4  UNL d   1      -2.234  -1.392   0.876  0.00  0.00    -0.007 A 
ATOM      6  C5  UNL d   1      -0.994  -1.347   1.511  0.00  0.00     0.039 A 
ENDROOT
BRANCH   4   7
ATOM      7  O   UNL d   1      -3.651  -0.779  -0.904  0.00  0.00    -0.526 OA
ATOM      8  H5  UNL d   1      -3.627  -0.275  -1.735  0.00  0.00     0.418 HD
ENDBRANCH   4   7
TORSDOF 1
ENDMDL
