MODEL 1
REMARK minimizedAffinity -4.77539921
REMARK minimizedRMSD -1
REMARK  1 active torsions:
REMARK  status: ('A' for Active; 'I' for Inactive)
REMARK    1  A    between atoms: C3_4  and  O_7 
ROOT
ATOM      1  C   UNL d   1       0.696   0.078  -0.940  0.00  0.00    -0.033 A 
ATOM      2  C1  UNL d   1      -0.122  -0.456  -1.939  0.00  0.00     0.039 A 
ATOM      3  C2  UNL d   1      -1.487  -0.633  -1.706  0.00  0.00    -0.080 A 
ATOM      4  C3  UNL d   1      -2.022  -0.272  -0.472  0.00  0.00     0.150 A 
ATOM      5  C4  UNL d   1      -1.214   0.264   0.526  0.00  0.00    -0.007 A 
ATOM      6  C5  UNL d   1       0.149   0.439   0.292  0.00  0.00     0.039 A 
ENDROOT
BRANCH   4   7
ATOM      7  O   UNL d   1      -3.347  -0.431  -0.196  0.00  0.00    -0.526 OA
ATOM      8  H5  UNL d   1      -3.776  -0.838  -0.968  0.00  0.00     0.418 HD
ENDBRANCH   4   7
TORSDOF 1
ENDMDL
