MODEL 1
REMARK minimizedAffinity -4.5921979
REMARK minimizedRMSD -1
REMARK  1 active torsions:
REMARK  status: ('A' for Active; 'I' for Inactive)
REMARK    1  A    between atoms: C3_4  and  O_7 
ROOT
ATOM      1  C   UNL d   1       0.214   0.042  -0.190  0.00  0.00    -0.033 A 
ATOM      2  C1  UNL d   1      -0.224  -0.786   0.845  0.00  0.00     0.039 A 
ATOM      3  C2  UNL d   1      -1.555  -1.204   0.892  0.00  0.00    -0.080 A 
ATOM      4  C3  UNL d   1      -2.437  -0.788  -0.102  0.00  0.00     0.150 A 
ATOM      5  C4  UNL d   1      -2.007   0.035  -1.138  0.00  0.00    -0.007 A 
ATOM      6  C5  UNL d   1      -0.677   0.452  -1.182  0.00  0.00     0.039 A 
ENDROOT
BRANCH   4   7
ATOM      7  O   UNL d   1      -3.747  -1.165  -0.096  0.00  0.00    -0.526 OA
ATOM      8  H5  UNL d   1      -3.907  -1.708   0.694  0.00  0.00     0.418 HD
ENDBRANCH   4   7
TORSDOF 1
ENDMDL
