MODEL 1
REMARK minimizedAffinity -5.16936111
REMARK minimizedRMSD -1
REMARK  1 active torsions:
REMARK  status: ('A' for Active; 'I' for Inactive)
REMARK    1  A    between atoms: C3_4  and  O_7 
ROOT
ATOM      1  C   UNL d   1      -2.632  -0.049  -0.902  0.00  0.00    -0.033 A 
ATOM      2  C1  UNL d   1      -2.358  -0.594   0.354  0.00  0.00     0.039 A 
ATOM      3  C2  UNL d   1      -1.037  -0.724   0.787  0.00  0.00    -0.080 A 
ATOM      4  C3  UNL d   1      -0.001  -0.305  -0.043  0.00  0.00     0.150 A 
ATOM      5  C4  UNL d   1      -0.267   0.242  -1.294  0.00  0.00    -0.007 A 
ATOM      6  C5  UNL d   1      -1.586   0.371  -1.725  0.00  0.00     0.039 A 
ENDROOT
BRANCH   4   7
ATOM      7  O   UNL d   1       1.304  -0.417   0.335  0.00  0.00    -0.526 OA
ATOM      8  H5  UNL d   1       1.337  -0.839   1.209  0.00  0.00     0.418 HD
ENDBRANCH   4   7
TORSDOF 1
ENDMDL
