MODEL 1
REMARK minimizedAffinity -0.981776774
REMARK minimizedRMSD -1
REMARK  1 active torsions:
REMARK  status: ('A' for Active; 'I' for Inactive)
REMARK    1  A    between atoms: C3_4  and  O_7 
ROOT
ATOM      1  C   UNL d   1      -1.319  -0.407   1.844  0.00  0.00    -0.033 A 
ATOM      2  C1  UNL d   1      -0.900   0.833   1.358  0.00  0.00     0.039 A 
ATOM      3  C2  UNL d   1       0.219   0.917   0.527  0.00  0.00    -0.080 A 
ATOM      4  C3  UNL d   1       0.908  -0.244   0.190  0.00  0.00     0.150 A 
ATOM      5  C4  UNL d   1       0.494  -1.483   0.668  0.00  0.00    -0.007 A 
ATOM      6  C5  UNL d   1      -0.623  -1.565   1.498  0.00  0.00     0.039 A 
ENDROOT
BRANCH   4   7
ATOM      7  O   UNL d   1       2.009  -0.211  -0.614  0.00  0.00    -0.526 OA
ATOM      8  H5  UNL d   1       2.194   0.714  -0.845  0.00  0.00     0.418 HD
ENDBRANCH   4   7
TORSDOF 1
ENDMDL
