MODEL 1
REMARK minimizedAffinity -3.66078186
REMARK minimizedRMSD -1
REMARK  1 active torsions:
REMARK  status: ('A' for Active; 'I' for Inactive)
REMARK    1  A    between atoms: C3_4  and  O_7 
ROOT
ATOM      1  C   UNL d   1      -2.925  -0.578  -0.714  0.00  0.00    -0.033 A 
ATOM      2  C1  UNL d   1      -2.049  -0.110  -1.695  0.00  0.00     0.039 A 
ATOM      3  C2  UNL d   1      -0.713   0.143  -1.377  0.00  0.00    -0.080 A 
ATOM      4  C3  UNL d   1      -0.266  -0.077  -0.077  0.00  0.00     0.150 A 
ATOM      5  C4  UNL d   1      -1.133  -0.547   0.904  0.00  0.00    -0.007 A 
ATOM      6  C5  UNL d   1      -2.467  -0.798   0.585  0.00  0.00     0.039 A 
ENDROOT
BRANCH   4   7
ATOM      7  O   UNL d   1       1.027   0.160   0.282  0.00  0.00    -0.526 OA
ATOM      8  H5  UNL d   1       1.502   0.508  -0.491  0.00  0.00     0.418 HD
ENDBRANCH   4   7
TORSDOF 1
ENDMDL
