MODEL 1
REMARK minimizedAffinity -4.45576334
REMARK minimizedRMSD -1
REMARK  1 active torsions:
REMARK  status: ('A' for Active; 'I' for Inactive)
REMARK    1  A    between atoms: C3_4  and  O_7 
ROOT
ATOM      1  C   UNL d   1       0.500  -0.104  -0.754  0.00  0.00    -0.033 A 
ATOM      2  C1  UNL d   1      -0.376   0.122  -1.817  0.00  0.00     0.039 A 
ATOM      3  C2  UNL d   1      -1.752  -0.027  -1.633  0.00  0.00    -0.080 A 
ATOM      4  C3  UNL d   1      -2.238  -0.402  -0.384  0.00  0.00     0.150 A 
ATOM      5  C4  UNL d   1      -1.371  -0.625   0.681  0.00  0.00    -0.007 A 
ATOM      6  C5  UNL d   1       0.003  -0.476   0.495  0.00  0.00     0.039 A 
ENDROOT
BRANCH   4   7
ATOM      7  O   UNL d   1      -3.573  -0.565  -0.157  0.00  0.00    -0.526 OA
ATOM      8  H5  UNL d   1      -4.048  -0.405  -0.990  0.00  0.00     0.418 HD
ENDBRANCH   4   7
TORSDOF 1
ENDMDL
