MODEL 1
REMARK minimizedAffinity -4.53175402
REMARK minimizedRMSD -1
REMARK  1 active torsions:
REMARK  status: ('A' for Active; 'I' for Inactive)
REMARK    1  A    between atoms: C3_4  and  O_7 
ROOT
ATOM      1  C   UNL d   1      -2.772  -0.458  -1.534  0.00  0.00    -0.033 A 
ATOM      2  C1  UNL d   1      -3.350  -1.588  -0.952  0.00  0.00     0.039 A 
ATOM      3  C2  UNL d   1      -2.773  -2.164   0.181  0.00  0.00    -0.080 A 
ATOM      4  C3  UNL d   1      -1.621  -1.601   0.723  0.00  0.00     0.150 A 
ATOM      5  C4  UNL d   1      -1.043  -0.473   0.151  0.00  0.00    -0.007 A 
ATOM      6  C5  UNL d   1      -1.620   0.101  -0.981  0.00  0.00     0.039 A 
ENDROOT
BRANCH   4   7
ATOM      7  O   UNL d   1      -1.020  -2.131   1.826  0.00  0.00    -0.526 OA
ATOM      8  H5  UNL d   1      -1.513  -2.923   2.095  0.00  0.00     0.418 HD
ENDBRANCH   4   7
TORSDOF 1
ENDMDL
