MODEL 1
REMARK minimizedAffinity -4.79300308
REMARK minimizedRMSD -1
REMARK  1 active torsions:
REMARK  status: ('A' for Active; 'I' for Inactive)
REMARK    1  A    between atoms: C3_4  and  O_7 
ROOT
ATOM      1  C   UNL d   1       0.600  -0.085  -0.024  0.00  0.00    -0.033 A 
ATOM      2  C1  UNL d   1       0.169  -0.809   1.089  0.00  0.00     0.039 A 
ATOM      3  C2  UNL d   1      -1.176  -1.161   1.216  0.00  0.00    -0.080 A 
ATOM      4  C3  UNL d   1      -2.078  -0.785   0.225  0.00  0.00     0.150 A 
ATOM      5  C4  UNL d   1      -1.654  -0.067  -0.889  0.00  0.00    -0.007 A 
ATOM      6  C5  UNL d   1      -0.311   0.285  -1.014  0.00  0.00     0.039 A 
ENDROOT
BRANCH   4   7
ATOM      7  O   UNL d   1      -3.401  -1.102   0.307  0.00  0.00    -0.526 OA
ATOM      8  H5  UNL d   1      -3.553  -1.573   1.144  0.00  0.00     0.418 HD
ENDBRANCH   4   7
TORSDOF 1
ENDMDL
