MODEL 1
REMARK minimizedAffinity -3.58351207
REMARK minimizedRMSD -1
REMARK  1 active torsions:
REMARK  status: ('A' for Active; 'I' for Inactive)
REMARK    1  A    between atoms: C3_4  and  O_7 
ROOT
ATOM      1  C   UNL d   1       0.411  -0.405  -1.196  0.00  0.00    -0.033 A 
ATOM      2  C1  UNL d   1      -0.567  -0.690  -2.150  0.00  0.00     0.039 A 
ATOM      3  C2  UNL d   1      -1.916  -0.690  -1.792  0.00  0.00    -0.080 A 
ATOM      4  C3  UNL d   1      -2.274  -0.403  -0.477  0.00  0.00     0.150 A 
ATOM      5  C4  UNL d   1      -1.305  -0.115   0.478  0.00  0.00    -0.007 A 
ATOM      6  C5  UNL d   1       0.042  -0.116   0.119  0.00  0.00     0.039 A 
ENDROOT
BRANCH   4   7
ATOM      7  O   UNL d   1      -3.577  -0.396  -0.079  0.00  0.00    -0.526 OA
ATOM      8  H5  UNL d   1      -4.132  -0.641  -0.838  0.00  0.00     0.418 HD
ENDBRANCH   4   7
TORSDOF 1
ENDMDL
