MODEL 1
REMARK minimizedAffinity -4.3304143
REMARK minimizedRMSD -1
REMARK  1 active torsions:
REMARK  status: ('A' for Active; 'I' for Inactive)
REMARK    1  A    between atoms: C3_4  and  O_7 
ROOT
ATOM      1  C   UNL d   1      -3.035  -1.355  -0.077  0.00  0.00    -0.033 A 
ATOM      2  C1  UNL d   1      -2.616  -0.656  -1.211  0.00  0.00     0.039 A 
ATOM      3  C2  UNL d   1      -1.356  -0.056  -1.239  0.00  0.00    -0.080 A 
ATOM      4  C3  UNL d   1      -0.524  -0.162  -0.127  0.00  0.00     0.150 A 
ATOM      5  C4  UNL d   1      -0.933  -0.860   1.005  0.00  0.00    -0.007 A 
ATOM      6  C5  UNL d   1      -2.192  -1.458   1.030  0.00  0.00     0.039 A 
ENDROOT
BRANCH   4   7
ATOM      7  O   UNL d   1       0.712   0.411  -0.105  0.00  0.00    -0.526 OA
ATOM      8  H5  UNL d   1       0.847   0.883  -0.944  0.00  0.00     0.418 HD
ENDBRANCH   4   7
TORSDOF 1
ENDMDL
