MODEL 1
REMARK minimizedAffinity 2.74086738
REMARK minimizedRMSD -1
REMARK  0 active torsions:
REMARK  status: ('A' for Active; 'I' for Inactive)
ROOT
ATOM      1  C1  DEN d   1      -0.078   1.680  -1.749  0.00  0.00     0.130 A 
ATOM      2  C2  DEN d   1      -0.458   2.814  -0.910  0.00  0.00    -0.031 A 
ATOM      3  C3  DEN d   1      -0.021   2.527   0.471  0.00  0.00     0.027 A 
ATOM      4  C4  DEN d   1       1.204   0.450   1.386  0.00  0.00     0.027 A 
ATOM      5  C5  DEN d   1       1.727  -0.781   1.057  0.00  0.00    -0.003 A 
ATOM      6  C6  DEN d   1       1.656  -1.288  -0.214  0.00  0.00     0.001 A 
ATOM      7  C7  DEN d   1       1.088  -0.541  -1.212  0.00  0.00     0.017 A 
ATOM      8  C8  DEN d   1       0.551   0.697  -0.885  0.00  0.00    -0.094 A 
ATOM      9  C9  DEN d   1       0.644   1.198   0.402  0.00  0.00    -0.072 A 
ENDROOT
TORSDOF 0
ENDMDL
