MODEL 1
REMARK minimizedAffinity -0.490349561
REMARK minimizedRMSD -1
REMARK  0 active torsions:
REMARK  status: ('A' for Active; 'I' for Inactive)
ROOT
ATOM      1  C1  DEN d   1      -1.071   0.072  -0.163  0.00  0.00     0.130 A 
ATOM      2  C2  DEN d   1      -0.138   0.845  -0.977  0.00  0.00    -0.031 A 
ATOM      3  C3  DEN d   1       1.190   0.783  -0.332  0.00  0.00     0.027 A 
ATOM      4  C4  DEN d   1       1.887  -0.432   1.834  0.00  0.00     0.027 A 
ATOM      5  C5  DEN d   1       1.439  -1.211   2.878  0.00  0.00    -0.003 A 
ATOM      6  C6  DEN d   1       0.127  -1.586   2.999  0.00  0.00     0.001 A 
ATOM      7  C7  DEN d   1      -0.776  -1.219   2.035  0.00  0.00     0.017 A 
ATOM      8  C8  DEN d   1      -0.333  -0.428   0.983  0.00  0.00    -0.094 A 
ATOM      9  C9  DEN d   1       1.000  -0.069   0.872  0.00  0.00    -0.072 A 
ENDROOT
TORSDOF 0
ENDMDL
