MODEL 1
REMARK minimizedAffinity 2.42402387
REMARK minimizedRMSD -1
REMARK  0 active torsions:
REMARK  status: ('A' for Active; 'I' for Inactive)
ROOT
ATOM      1  C   UNL d   1      -1.158   1.118  -1.644  0.00  0.00     0.077 C 
ATOM      2  C1  UNL d   1      -0.128   1.203  -0.558  0.00  0.00    -0.074 A 
ATOM      3  C2  UNL d   1      -0.486   1.568   0.744  0.00  0.00    -0.005 A 
ATOM      4  C3  UNL d   1       0.482   1.634   1.747  0.00  0.00     0.006 A 
ATOM      5  C4  UNL d   1       1.814   1.336   1.458  0.00  0.00    -0.005 A 
ATOM      6  C5  UNL d   1       2.190   0.968   0.162  0.00  0.00    -0.074 A 
ATOM      7  C6  UNL d   1       3.616   0.636  -0.163  0.00  0.00     0.077 C 
ATOM      8  C7  UNL d   1       1.211   0.898  -0.838  0.00  0.00    -0.001 A 
ENDROOT
TORSDOF 0
ENDMDL
