MODEL 1
REMARK minimizedAffinity 13.0155458
REMARK minimizedRMSD -1
REMARK  0 active torsions:
REMARK  status: ('A' for Active; 'I' for Inactive)
ROOT
ATOM      1  C   UNL d   1       6.000   2.659   0.533  0.00  0.00     0.077 C 
ATOM      2  C1  UNL d   1       5.358   1.714  -0.440  0.00  0.00    -0.074 A 
ATOM      3  C2  UNL d   1       5.812   1.622  -1.759  0.00  0.00    -0.005 A 
ATOM      4  C3  UNL d   1       5.211   0.732  -2.649  0.00  0.00     0.006 A 
ATOM      5  C4  UNL d   1       4.152  -0.073  -2.230  0.00  0.00    -0.005 A 
ATOM      6  C5  UNL d   1       3.685   0.004  -0.914  0.00  0.00    -0.074 A 
ATOM      7  C6  UNL d   1       2.554  -0.862  -0.444  0.00  0.00     0.077 C 
ATOM      8  C7  UNL d   1       4.298   0.896  -0.023  0.00  0.00    -0.001 A 
ENDROOT
TORSDOF 0
ENDMDL
