MODEL 1
REMARK minimizedAffinity 12.4301357
REMARK minimizedRMSD -1
REMARK  0 active torsions:
REMARK  status: ('A' for Active; 'I' for Inactive)
ROOT
ATOM      1  C   UNL d   1      -1.158  -3.082  -1.100  0.00  0.00     0.077 C 
ATOM      2  C1  UNL d   1       0.321  -3.017  -0.857  0.00  0.00    -0.074 A 
ATOM      3  C2  UNL d   1       0.830  -2.830   0.431  0.00  0.00    -0.005 A 
ATOM      4  C3  UNL d   1       2.208  -2.781   0.643  0.00  0.00     0.006 A 
ATOM      5  C4  UNL d   1       3.089  -2.918  -0.431  0.00  0.00    -0.005 A 
ATOM      6  C5  UNL d   1       2.598  -3.107  -1.727  0.00  0.00    -0.074 A 
ATOM      7  C6  UNL d   1       3.531  -3.266  -2.890  0.00  0.00     0.077 C 
ATOM      8  C7  UNL d   1       1.212  -3.162  -1.930  0.00  0.00    -0.001 A 
ENDROOT
TORSDOF 0
ENDMDL
