MODEL 1
REMARK minimizedAffinity 3.99371314
REMARK minimizedRMSD -1
REMARK  0 active torsions:
REMARK  status: ('A' for Active; 'I' for Inactive)
ROOT
ATOM      1  C   UNL d   1      -5.652   4.871  -4.272  0.00  0.00     0.077 C 
ATOM      2  C1  UNL d   1      -5.275   3.419  -4.275  0.00  0.00    -0.074 A 
ATOM      3  C2  UNL d   1      -6.000   2.487  -3.526  0.00  0.00    -0.005 A 
ATOM      4  C3  UNL d   1      -5.644   1.138  -3.546  0.00  0.00     0.006 A 
ATOM      5  C4  UNL d   1      -4.561   0.709  -4.315  0.00  0.00    -0.005 A 
ATOM      6  C5  UNL d   1      -3.825   1.627  -5.072  0.00  0.00    -0.074 A 
ATOM      7  C6  UNL d   1      -2.665   1.181  -5.911  0.00  0.00     0.077 C 
ATOM      8  C7  UNL d   1      -4.194   2.979  -5.052  0.00  0.00    -0.001 A 
ENDROOT
TORSDOF 0
ENDMDL
