MODEL 1
REMARK minimizedAffinity 8.10279751
REMARK minimizedRMSD -1
REMARK  0 active torsions:
REMARK  status: ('A' for Active; 'I' for Inactive)
ROOT
ATOM      1  C   UNL d   1      -0.600  -3.961  -1.513  0.00  0.00     0.077 C 
ATOM      2  C1  UNL d   1       0.489  -3.231  -0.785  0.00  0.00    -0.074 A 
ATOM      3  C2  UNL d   1       0.816  -3.559   0.535  0.00  0.00    -0.005 A 
ATOM      4  C3  UNL d   1       1.838  -2.877   1.196  0.00  0.00     0.006 A 
ATOM      5  C4  UNL d   1       2.542  -1.863   0.545  0.00  0.00    -0.005 A 
ATOM      6  C5  UNL d   1       2.229  -1.522  -0.774  0.00  0.00    -0.074 A 
ATOM      7  C6  UNL d   1       2.982  -0.441  -1.492  0.00  0.00     0.077 C 
ATOM      8  C7  UNL d   1       1.206  -2.216  -1.434  0.00  0.00    -0.001 A 
ENDROOT
TORSDOF 0
ENDMDL
