MODEL 1
REMARK minimizedAffinity 3.78748417
REMARK minimizedRMSD -1
REMARK  0 active torsions:
REMARK  status: ('A' for Active; 'I' for Inactive)
ROOT
ATOM      1  C   UNL d   1       1.985  -3.070  -1.130  0.00  0.00     0.077 C 
ATOM      2  C1  UNL d   1       2.382  -1.659  -0.815  0.00  0.00    -0.074 A 
ATOM      3  C2  UNL d   1       1.607  -0.867   0.038  0.00  0.00    -0.005 A 
ATOM      4  C3  UNL d   1       1.994   0.441   0.329  0.00  0.00     0.006 A 
ATOM      5  C4  UNL d   1       3.158   0.970  -0.229  0.00  0.00    -0.005 A 
ATOM      6  C5  UNL d   1       3.947   0.193  -1.084  0.00  0.00    -0.074 A 
ATOM      7  C6  UNL d   1       5.206   0.743  -1.685  0.00  0.00     0.077 C 
ATOM      8  C7  UNL d   1       3.555  -1.123  -1.366  0.00  0.00    -0.001 A 
ENDROOT
TORSDOF 0
ENDMDL
