MODEL 1
REMARK minimizedAffinity 5.81662512
REMARK minimizedRMSD -1
REMARK  0 active torsions:
REMARK  status: ('A' for Active; 'I' for Inactive)
ROOT
ATOM      1  C   UNL d   1       3.871  -0.165  -0.785  0.00  0.00     0.077 C 
ATOM      2  C1  UNL d   1       2.972  -1.324  -0.472  0.00  0.00    -0.074 A 
ATOM      3  C2  UNL d   1       3.151  -2.079   0.691  0.00  0.00    -0.005 A 
ATOM      4  C3  UNL d   1       2.301  -3.149   0.973  0.00  0.00     0.006 A 
ATOM      5  C4  UNL d   1       1.266  -3.474   0.096  0.00  0.00    -0.005 A 
ATOM      6  C5  UNL d   1       1.071  -2.729  -1.072  0.00  0.00    -0.074 A 
ATOM      7  C6  UNL d   1      -0.043  -3.059  -2.021  0.00  0.00     0.077 C 
ATOM      8  C7  UNL d   1       1.925  -1.652  -1.345  0.00  0.00    -0.001 A 
ENDROOT
TORSDOF 0
ENDMDL
