MODEL 1
REMARK minimizedAffinity 9.58290195
REMARK minimizedRMSD -1
REMARK  0 active torsions:
REMARK  status: ('A' for Active; 'I' for Inactive)
ROOT
ATOM      1  C   UNL d   1      -1.342   1.063  -1.407  0.00  0.00     0.077 C 
ATOM      2  C1  UNL d   1      -0.258   0.919  -0.380  0.00  0.00    -0.074 A 
ATOM      3  C2  UNL d   1      -0.532   1.076   0.982  0.00  0.00    -0.005 A 
ATOM      4  C3  UNL d   1       0.485   0.930   1.926  0.00  0.00     0.006 A 
ATOM      5  C4  UNL d   1       1.784   0.625   1.517  0.00  0.00    -0.005 A 
ATOM      6  C5  UNL d   1       2.077   0.462   0.160  0.00  0.00    -0.074 A 
ATOM      7  C6  UNL d   1       3.465   0.125  -0.295  0.00  0.00     0.077 C 
ATOM      8  C7  UNL d   1       1.048   0.605  -0.782  0.00  0.00    -0.001 A 
ENDROOT
TORSDOF 0
ENDMDL
