MODEL 1
REMARK minimizedAffinity 5.716187
REMARK minimizedRMSD -1
REMARK  0 active torsions:
REMARK  status: ('A' for Active; 'I' for Inactive)
ROOT
ATOM      1  C   UNL d   1      -0.345   0.809  -1.523  0.00  0.00     0.077 C 
ATOM      2  C1  UNL d   1      -1.465   1.090  -0.566  0.00  0.00    -0.074 A 
ATOM      3  C2  UNL d   1      -1.224   1.724   0.657  0.00  0.00    -0.005 A 
ATOM      4  C3  UNL d   1      -2.277   1.988   1.533  0.00  0.00     0.006 A 
ATOM      5  C4  UNL d   1      -3.580   1.621   1.195  0.00  0.00    -0.005 A 
ATOM      6  C5  UNL d   1      -3.841   0.987  -0.024  0.00  0.00    -0.074 A 
ATOM      7  C6  UNL d   1      -5.237   0.596  -0.408  0.00  0.00     0.077 C 
ATOM      8  C7  UNL d   1      -2.778   0.732  -0.902  0.00  0.00    -0.001 A 
ENDROOT
TORSDOF 0
ENDMDL
