MODEL 1
REMARK minimizedAffinity -2.72152305
REMARK minimizedRMSD -1
REMARK  0 active torsions:
REMARK  status: ('A' for Active; 'I' for Inactive)
ROOT
ATOM      1  C   UNL d   1      -1.525  -1.175   1.679  0.00  0.00     0.077 C 
ATOM      2  C1  UNL d   1      -0.705  -0.398   0.693  0.00  0.00    -0.074 A 
ATOM      3  C2  UNL d   1      -0.892  -0.562  -0.684  0.00  0.00    -0.005 A 
ATOM      4  C3  UNL d   1      -0.129   0.175  -1.590  0.00  0.00     0.006 A 
ATOM      5  C4  UNL d   1       0.827   1.082  -1.129  0.00  0.00    -0.005 A 
ATOM      6  C5  UNL d   1       1.027   1.259   0.244  0.00  0.00    -0.074 A 
ATOM      7  C6  UNL d   1       2.043   2.237   0.755  0.00  0.00     0.077 C 
ATOM      8  C7  UNL d   1       0.251   0.520   1.147  0.00  0.00    -0.001 A 
ENDROOT
TORSDOF 0
ENDMDL
