MODEL 1
REMARK minimizedAffinity -5.91429377
REMARK minimizedRMSD -1
REMARK  0 active torsions:
REMARK  status: ('A' for Active; 'I' for Inactive)
ROOT
ATOM      1  C   UNL d   1      -3.900  -1.355   0.211  0.00  0.00     0.077 C 
ATOM      2  C1  UNL d   1      -2.819  -0.651  -0.553  0.00  0.00    -0.074 A 
ATOM      3  C2  UNL d   1      -3.083  -0.058  -1.791  0.00  0.00    -0.005 A 
ATOM      4  C3  UNL d   1      -2.069   0.602  -2.486  0.00  0.00     0.006 A 
ATOM      5  C4  UNL d   1      -0.782   0.674  -1.950  0.00  0.00    -0.005 A 
ATOM      6  C5  UNL d   1      -0.500   0.087  -0.712  0.00  0.00    -0.074 A 
ATOM      7  C6  UNL d   1       0.875   0.164  -0.118  0.00  0.00     0.077 C 
ATOM      8  C7  UNL d   1      -1.526  -0.568  -0.017  0.00  0.00    -0.001 A 
ENDROOT
TORSDOF 0
ENDMDL
