MODEL 1
REMARK minimizedAffinity -1.82924509
REMARK minimizedRMSD -1
REMARK  0 active torsions:
REMARK  status: ('A' for Active; 'I' for Inactive)
ROOT
ATOM      1  C   UNL d   1       1.186   1.435  -0.033  0.00  0.00     0.077 C 
ATOM      2  C1  UNL d   1       0.028   0.485  -0.114  0.00  0.00    -0.074 A 
ATOM      3  C2  UNL d   1      -0.920   0.593  -1.136  0.00  0.00    -0.005 A 
ATOM      4  C3  UNL d   1      -1.986  -0.304  -1.205  0.00  0.00     0.006 A 
ATOM      5  C4  UNL d   1      -2.115  -1.316  -0.253  0.00  0.00    -0.005 A 
ATOM      6  C5  UNL d   1      -1.176  -1.440   0.777  0.00  0.00    -0.074 A 
ATOM      7  C6  UNL d   1      -1.294  -2.528   1.802  0.00  0.00     0.077 C 
ATOM      8  C7  UNL d   1      -0.104  -0.540   0.834  0.00  0.00    -0.001 A 
ENDROOT
TORSDOF 0
ENDMDL
