MODEL 1
REMARK minimizedAffinity -3.83239484
REMARK minimizedRMSD -1
REMARK  0 active torsions:
REMARK  status: ('A' for Active; 'I' for Inactive)
ROOT
ATOM      1  C   UNL d   1      -2.301  -1.751  -2.849  0.00  0.00     0.077 C 
ATOM      2  C1  UNL d   1      -1.987  -0.869  -1.677  0.00  0.00    -0.074 A 
ATOM      3  C2  UNL d   1      -2.960  -0.581  -0.714  0.00  0.00    -0.005 A 
ATOM      4  C3  UNL d   1      -2.650   0.233   0.376  0.00  0.00     0.006 A 
ATOM      5  C4  UNL d   1      -1.368   0.766   0.513  0.00  0.00    -0.005 A 
ATOM      6  C5  UNL d   1      -0.383   0.488  -0.440  0.00  0.00    -0.074 A 
ATOM      7  C6  UNL d   1       1.003   1.044  -0.302  0.00  0.00     0.077 C 
ATOM      8  C7  UNL d   1      -0.699  -0.337  -1.528  0.00  0.00    -0.001 A 
ENDROOT
TORSDOF 0
ENDMDL
