MODEL 1
REMARK minimizedAffinity -4.90657282
REMARK minimizedRMSD -1
REMARK  0 active torsions:
REMARK  status: ('A' for Active; 'I' for Inactive)
ROOT
ATOM      1  C   UNL d   1       1.730  -0.863   1.101  0.00  0.00     0.077 C 
ATOM      2  C1  UNL d   1       0.596  -0.334   0.274  0.00  0.00    -0.074 A 
ATOM      3  C2  UNL d   1       0.832   0.535  -0.797  0.00  0.00    -0.005 A 
ATOM      4  C3  UNL d   1      -0.232   1.011  -1.563  0.00  0.00     0.006 A 
ATOM      5  C4  UNL d   1      -1.540   0.624  -1.267  0.00  0.00    -0.005 A 
ATOM      6  C5  UNL d   1      -1.794  -0.245  -0.202  0.00  0.00    -0.074 A 
ATOM      7  C6  UNL d   1      -3.193  -0.678   0.123  0.00  0.00     0.077 C 
ATOM      8  C7  UNL d   1      -0.720  -0.725   0.559  0.00  0.00    -0.001 A 
ENDROOT
TORSDOF 0
ENDMDL
