MODEL 1
REMARK minimizedAffinity 0.198004022
REMARK minimizedRMSD -1
REMARK  0 active torsions:
REMARK  status: ('A' for Active; 'I' for Inactive)
ROOT
ATOM      1  C   UNL d   1      -3.087  -0.165   1.565  0.00  0.00     0.077 C 
ATOM      2  C1  UNL d   1      -1.671  -0.457   1.166  0.00  0.00    -0.074 A 
ATOM      3  C2  UNL d   1      -0.828  -1.202   1.998  0.00  0.00    -0.005 A 
ATOM      4  C3  UNL d   1       0.483  -1.474   1.609  0.00  0.00     0.006 A 
ATOM      5  C4  UNL d   1       0.965  -1.004   0.386  0.00  0.00    -0.005 A 
ATOM      6  C5  UNL d   1       0.137  -0.259  -0.459  0.00  0.00    -0.074 A 
ATOM      7  C6  UNL d   1       0.636   0.244  -1.781  0.00  0.00     0.077 C 
ATOM      8  C7  UNL d   1      -1.182   0.004  -0.065  0.00  0.00    -0.001 A 
ENDROOT
TORSDOF 0
ENDMDL
