MODEL 1
REMARK minimizedAffinity -5.19185162
REMARK minimizedRMSD -1
REMARK  0 active torsions:
REMARK  status: ('A' for Active; 'I' for Inactive)
ROOT
ATOM      1  C   UNL d   1      -3.299  -0.563  -0.731  0.00  0.00     0.077 C 
ATOM      2  C1  UNL d   1      -1.995   0.144  -0.510  0.00  0.00    -0.074 A 
ATOM      3  C2  UNL d   1      -1.855   1.504  -0.808  0.00  0.00    -0.005 A 
ATOM      4  C3  UNL d   1      -0.638   2.150  -0.588  0.00  0.00     0.006 A 
ATOM      5  C4  UNL d   1       0.448   1.445  -0.069  0.00  0.00    -0.005 A 
ATOM      6  C5  UNL d   1       0.326   0.085   0.236  0.00  0.00    -0.074 A 
ATOM      7  C6  UNL d   1       1.481  -0.685   0.805  0.00  0.00     0.077 C 
ATOM      8  C7  UNL d   1      -0.901  -0.555   0.019  0.00  0.00    -0.001 A 
ENDROOT
TORSDOF 0
ENDMDL
