MODEL 1
REMARK minimizedAffinity -5.52376509
REMARK minimizedRMSD -1
REMARK  0 active torsions:
REMARK  status: ('A' for Active; 'I' for Inactive)
ROOT
ATOM      1  C   UNL d   1      -0.038  -1.131   1.189  0.00  0.00     0.077 C 
ATOM      2  C1  UNL d   1      -1.016  -0.721   0.128  0.00  0.00    -0.074 A 
ATOM      3  C2  UNL d   1      -2.387  -0.949   0.288  0.00  0.00    -0.005 A 
ATOM      4  C3  UNL d   1      -3.285  -0.554  -0.703  0.00  0.00     0.006 A 
ATOM      5  C4  UNL d   1      -2.823   0.071  -1.862  0.00  0.00    -0.005 A 
ATOM      6  C5  UNL d   1      -1.456   0.308  -2.039  0.00  0.00    -0.074 A 
ATOM      7  C6  UNL d   1      -0.944   0.988  -3.273  0.00  0.00     0.077 C 
ATOM      8  C7  UNL d   1      -0.560  -0.085  -1.035  0.00  0.00    -0.001 A 
ENDROOT
TORSDOF 0
ENDMDL
