MODEL 1
REMARK minimizedAffinity -5.85438442
REMARK minimizedRMSD -1
REMARK  0 active torsions:
REMARK  status: ('A' for Active; 'I' for Inactive)
ROOT
ATOM      1  C   UNL d   1      -1.145   1.560  -3.509  0.00  0.00     0.077 C 
ATOM      2  C1  UNL d   1      -1.223   0.779  -2.231  0.00  0.00    -0.074 A 
ATOM      3  C2  UNL d   1      -2.392   0.097  -1.875  0.00  0.00    -0.005 A 
ATOM      4  C3  UNL d   1      -2.446  -0.633  -0.688  0.00  0.00     0.006 A 
ATOM      5  C4  UNL d   1      -1.335  -0.688   0.155  0.00  0.00    -0.005 A 
ATOM      6  C5  UNL d   1      -0.158  -0.013  -0.185  0.00  0.00    -0.074 A 
ATOM      7  C6  UNL d   1       1.048  -0.071   0.705  0.00  0.00     0.077 C 
ATOM      8  C7  UNL d   1      -0.109   0.712  -1.383  0.00  0.00    -0.001 A 
ENDROOT
TORSDOF 0
ENDMDL
