MODEL 1
REMARK minimizedAffinity -4.98677588
REMARK minimizedRMSD -1
REMARK  0 active torsions:
REMARK  status: ('A' for Active; 'I' for Inactive)
ROOT
ATOM      1  C   UNL d   1      -1.041   0.515  -2.919  0.00  0.00     0.077 C 
ATOM      2  C1  UNL d   1      -0.823   0.151  -1.480  0.00  0.00    -0.074 A 
ATOM      3  C2  UNL d   1      -1.768  -0.605  -0.779  0.00  0.00    -0.005 A 
ATOM      4  C3  UNL d   1      -1.547  -0.944   0.556  0.00  0.00     0.006 A 
ATOM      5  C4  UNL d   1      -0.381  -0.532   1.202  0.00  0.00    -0.005 A 
ATOM      6  C5  UNL d   1       0.576   0.224   0.516  0.00  0.00    -0.074 A 
ATOM      7  C6  UNL d   1       1.839   0.667   1.193  0.00  0.00     0.077 C 
ATOM      8  C7  UNL d   1       0.350   0.555  -0.827  0.00  0.00    -0.001 A 
ENDROOT
TORSDOF 0
ENDMDL
