MODEL 1
REMARK minimizedAffinity -2.80452657
REMARK minimizedRMSD -1
REMARK  0 active torsions:
REMARK  status: ('A' for Active; 'I' for Inactive)
ROOT
ATOM      1  C   UNL d   1      -1.917  -2.902   0.363  0.00  0.00     0.077 C 
ATOM      2  C1  UNL d   1      -1.604  -1.552  -0.210  0.00  0.00    -0.074 A 
ATOM      3  C2  UNL d   1      -2.357  -1.026  -1.265  0.00  0.00    -0.005 A 
ATOM      4  C3  UNL d   1      -2.059   0.235  -1.782  0.00  0.00     0.006 A 
ATOM      5  C4  UNL d   1      -1.007   0.982  -1.249  0.00  0.00    -0.005 A 
ATOM      6  C5  UNL d   1      -0.244   0.473  -0.194  0.00  0.00    -0.074 A 
ATOM      7  C6  UNL d   1       0.883   1.267   0.396  0.00  0.00     0.077 C 
ATOM      8  C7  UNL d   1      -0.554  -0.792   0.324  0.00  0.00    -0.001 A 
ENDROOT
TORSDOF 0
ENDMDL
