MODEL 1
REMARK minimizedAffinity -3.29960704
REMARK minimizedRMSD -1
REMARK  0 active torsions:
REMARK  status: ('A' for Active; 'I' for Inactive)
ROOT
ATOM      1  C   UNL d   1      -2.157  -1.921  -2.710  0.00  0.00     0.077 C 
ATOM      2  C1  UNL d   1      -1.728  -1.123  -1.514  0.00  0.00    -0.074 A 
ATOM      3  C2  UNL d   1      -2.526  -1.063  -0.367  0.00  0.00    -0.005 A 
ATOM      4  C3  UNL d   1      -2.110  -0.324   0.740  0.00  0.00     0.006 A 
ATOM      5  C4  UNL d   1      -0.894   0.359   0.713  0.00  0.00    -0.005 A 
ATOM      6  C5  UNL d   1      -0.082   0.309  -0.425  0.00  0.00    -0.074 A 
ATOM      7  C6  UNL d   1       1.232   1.030  -0.468  0.00  0.00     0.077 C 
ATOM      8  C7  UNL d   1      -0.504  -0.440  -1.532  0.00  0.00    -0.001 A 
ENDROOT
TORSDOF 0
ENDMDL
