MODEL 1
REMARK minimizedAffinity -1.74031162
REMARK minimizedRMSD -1
REMARK  0 active torsions:
REMARK  status: ('A' for Active; 'I' for Inactive)
ROOT
ATOM      1  C   UNL d   1      -0.163   0.073   0.314  0.00  0.00     0.077 C 
ATOM      2  C1  UNL d   1      -1.132  -0.230  -0.790  0.00  0.00    -0.074 A 
ATOM      3  C2  UNL d   1      -1.923  -1.383  -0.755  0.00  0.00    -0.005 A 
ATOM      4  C3  UNL d   1      -2.826  -1.646  -1.785  0.00  0.00     0.006 A 
ATOM      5  C4  UNL d   1      -2.947  -0.762  -2.858  0.00  0.00    -0.005 A 
ATOM      6  C5  UNL d   1      -2.165   0.396  -2.909  0.00  0.00    -0.074 A 
ATOM      7  C6  UNL d   1      -2.289   1.362  -4.049  0.00  0.00     0.077 C 
ATOM      8  C7  UNL d   1      -1.264   0.658  -1.867  0.00  0.00    -0.001 A 
ENDROOT
TORSDOF 0
ENDMDL
