MODEL 1
REMARK minimizedAffinity -2.55289912
REMARK minimizedRMSD -1
REMARK  0 active torsions:
REMARK  status: ('A' for Active; 'I' for Inactive)
ROOT
ATOM      1  C   UNL d   1      -3.060   0.941   1.933  0.00  0.00     0.077 C 
ATOM      2  C1  UNL d   1      -1.617   0.615   1.684  0.00  0.00    -0.074 A 
ATOM      3  C2  UNL d   1      -0.730   0.421   2.748  0.00  0.00    -0.005 A 
ATOM      4  C3  UNL d   1       0.607   0.110   2.501  0.00  0.00     0.006 A 
ATOM      5  C4  UNL d   1       1.070  -0.011   1.190  0.00  0.00    -0.005 A 
ATOM      6  C5  UNL d   1       0.197   0.178   0.113  0.00  0.00    -0.074 A 
ATOM      7  C6  UNL d   1       0.676   0.041  -1.301  0.00  0.00     0.077 C 
ATOM      8  C7  UNL d   1      -1.146   0.484   0.370  0.00  0.00    -0.001 A 
ENDROOT
TORSDOF 0
ENDMDL
