MODEL 1
REMARK minimizedAffinity -4.30277872
REMARK minimizedRMSD -1
REMARK  0 active torsions:
REMARK  status: ('A' for Active; 'I' for Inactive)
ROOT
ATOM      1  C   UNL d   1      -2.775   0.924   2.659  0.00  0.00     0.077 C 
ATOM      2  C1  UNL d   1      -1.427   0.546   2.123  0.00  0.00    -0.074 A 
ATOM      3  C2  UNL d   1      -0.354   0.299   2.985  0.00  0.00    -0.005 A 
ATOM      4  C3  UNL d   1       0.893  -0.061   2.473  0.00  0.00     0.006 A 
ATOM      5  C4  UNL d   1       1.078  -0.178   1.094  0.00  0.00    -0.005 A 
ATOM      6  C5  UNL d   1       0.016   0.064   0.217  0.00  0.00    -0.074 A 
ATOM      7  C6  UNL d   1       0.196  -0.067  -1.267  0.00  0.00     0.077 C 
ATOM      8  C7  UNL d   1      -1.234   0.419   0.740  0.00  0.00    -0.001 A 
ENDROOT
TORSDOF 0
ENDMDL
