MODEL 1
REMARK minimizedAffinity 0.374138594
REMARK minimizedRMSD -1
REMARK  0 active torsions:
REMARK  status: ('A' for Active; 'I' for Inactive)
ROOT
ATOM      1  C   UNL d   1      -3.215   0.570   0.359  0.00  0.00     0.077 C 
ATOM      2  C1  UNL d   1      -1.729   0.402   0.245  0.00  0.00    -0.074 A 
ATOM      3  C2  UNL d   1      -0.910   0.458   1.377  0.00  0.00    -0.005 A 
ATOM      4  C3  UNL d   1       0.469   0.291   1.256  0.00  0.00     0.006 A 
ATOM      5  C4  UNL d   1       1.043   0.066   0.004  0.00  0.00    -0.005 A 
ATOM      6  C5  UNL d   1       0.240   0.006  -1.139  0.00  0.00    -0.074 A 
ATOM      7  C6  UNL d   1       0.839  -0.244  -2.491  0.00  0.00     0.077 C 
ATOM      8  C7  UNL d   1      -1.146   0.168  -1.009  0.00  0.00    -0.001 A 
ENDROOT
TORSDOF 0
ENDMDL
