MODEL 1
REMARK minimizedAffinity -1.27386987
REMARK minimizedRMSD -1
REMARK  0 active torsions:
REMARK  status: ('A' for Active; 'I' for Inactive)
ROOT
ATOM      1  C   UNL d   1       0.250   0.263  -1.642  0.00  0.00     0.077 C 
ATOM      2  C1  UNL d   1       0.338   0.187  -0.147  0.00  0.00    -0.074 A 
ATOM      3  C2  UNL d   1       1.520  -0.213   0.484  0.00  0.00    -0.005 A 
ATOM      4  C3  UNL d   1       1.590  -0.270   1.876  0.00  0.00     0.006 A 
ATOM      5  C4  UNL d   1       0.480   0.072   2.650  0.00  0.00    -0.005 A 
ATOM      6  C5  UNL d   1      -0.710   0.475   2.036  0.00  0.00    -0.074 A 
ATOM      7  C6  UNL d   1      -1.909   0.856   2.853  0.00  0.00     0.077 C 
ATOM      8  C7  UNL d   1      -0.770   0.537   0.637  0.00  0.00    -0.001 A 
ENDROOT
TORSDOF 0
ENDMDL
