MODEL 1
REMARK minimizedAffinity -2.50784993
REMARK minimizedRMSD -1
REMARK  0 active torsions:
REMARK  status: ('A' for Active; 'I' for Inactive)
ROOT
ATOM      1  C   UNL d   1       1.485   0.751  -4.793  0.00  0.00     0.077 C 
ATOM      2  C1  UNL d   1       1.384  -0.254  -3.685  0.00  0.00    -0.074 A 
ATOM      3  C2  UNL d   1       1.609  -1.614  -3.925  0.00  0.00    -0.005 A 
ATOM      4  C3  UNL d   1       1.521  -2.536  -2.882  0.00  0.00     0.006 A 
ATOM      5  C4  UNL d   1       1.209  -2.109  -1.591  0.00  0.00    -0.005 A 
ATOM      6  C5  UNL d   1       0.982  -0.753  -1.332  0.00  0.00    -0.074 A 
ATOM      7  C6  UNL d   1       0.656  -0.276   0.052  0.00  0.00     0.077 C 
ATOM      8  C7  UNL d   1       1.079   0.168  -2.383  0.00  0.00    -0.001 A 
ENDROOT
TORSDOF 0
ENDMDL
