MODEL 1
REMARK minimizedAffinity -1.2846384
REMARK minimizedRMSD -1
REMARK  0 active torsions:
REMARK  status: ('A' for Active; 'I' for Inactive)
ROOT
ATOM      1  C   UNL d   1       0.037  -0.397   2.533  0.00  0.00     0.077 C 
ATOM      2  C1  UNL d   1       0.367  -0.056   1.110  0.00  0.00    -0.074 A 
ATOM      3  C2  UNL d   1       0.762   1.237   0.754  0.00  0.00    -0.005 A 
ATOM      4  C3  UNL d   1       1.075   1.537  -0.572  0.00  0.00     0.006 A 
ATOM      5  C4  UNL d   1       0.997   0.548  -1.553  0.00  0.00    -0.005 A 
ATOM      6  C5  UNL d   1       0.605  -0.752  -1.216  0.00  0.00    -0.074 A 
ATOM      7  C6  UNL d   1       0.525  -1.829  -2.256  0.00  0.00     0.077 C 
ATOM      8  C7  UNL d   1       0.299  -1.046   0.120  0.00  0.00    -0.001 A 
ENDROOT
TORSDOF 0
ENDMDL
