MODEL 1
REMARK minimizedAffinity -1.97386742
REMARK minimizedRMSD -1
REMARK  0 active torsions:
REMARK  status: ('A' for Active; 'I' for Inactive)
ROOT
ATOM      1  C   UNL d   1       1.831  -1.496  -3.693  0.00  0.00     0.077 C 
ATOM      2  C1  UNL d   1       0.976  -0.709  -2.745  0.00  0.00    -0.074 A 
ATOM      3  C2  UNL d   1      -0.202  -0.094  -3.181  0.00  0.00    -0.005 A 
ATOM      4  C3  UNL d   1      -0.993   0.627  -2.286  0.00  0.00     0.006 A 
ATOM      5  C4  UNL d   1      -0.613   0.740  -0.948  0.00  0.00    -0.005 A 
ATOM      6  C5  UNL d   1       0.561   0.131  -0.493  0.00  0.00    -0.074 A 
ATOM      7  C6  UNL d   1       0.978   0.234   0.944  0.00  0.00     0.077 C 
ATOM      8  C7  UNL d   1       1.346  -0.597  -1.398  0.00  0.00    -0.001 A 
ENDROOT
TORSDOF 0
ENDMDL
