MODEL 1
REMARK minimizedAffinity -2.89722896
REMARK minimizedRMSD -1
REMARK  0 active torsions:
REMARK  status: ('A' for Active; 'I' for Inactive)
ROOT
ATOM      1  C   UNL d   1      -3.352   0.582   0.963  0.00  0.00     0.077 C 
ATOM      2  C1  UNL d   1      -1.978   0.534   1.562  0.00  0.00    -0.074 A 
ATOM      3  C2  UNL d   1      -1.775   0.810   2.917  0.00  0.00    -0.005 A 
ATOM      4  C3  UNL d   1      -0.492   0.752   3.462  0.00  0.00     0.006 A 
ATOM      5  C4  UNL d   1       0.598   0.417   2.659  0.00  0.00    -0.005 A 
ATOM      6  C5  UNL d   1       0.414   0.137   1.301  0.00  0.00    -0.074 A 
ATOM      7  C6  UNL d   1       1.574  -0.233   0.425  0.00  0.00     0.077 C 
ATOM      8  C7  UNL d   1      -0.878   0.191   0.762  0.00  0.00    -0.001 A 
ENDROOT
TORSDOF 0
ENDMDL
