MODEL 1
REMARK minimizedAffinity -4.24345827
REMARK minimizedRMSD -1
REMARK  0 active torsions:
REMARK  status: ('A' for Active; 'I' for Inactive)
ROOT
ATOM      1  C   UNL d   1      -2.861   1.080   1.935  0.00  0.00     0.077 C 
ATOM      2  C1  UNL d   1      -1.445   0.707   1.609  0.00  0.00    -0.074 A 
ATOM      3  C2  UNL d   1      -0.519   0.446   2.624  0.00  0.00    -0.005 A 
ATOM      4  C3  UNL d   1       0.792   0.091   2.306  0.00  0.00     0.006 A 
ATOM      5  C4  UNL d   1       1.189  -0.006   0.972  0.00  0.00    -0.005 A 
ATOM      6  C5  UNL d   1       0.277   0.250  -0.057  0.00  0.00    -0.074 A 
ATOM      7  C6  UNL d   1       0.684   0.140  -1.496  0.00  0.00     0.077 C 
ATOM      8  C7  UNL d   1      -1.040   0.599   0.271  0.00  0.00    -0.001 A 
ENDROOT
TORSDOF 0
ENDMDL
