MODEL 1
REMARK minimizedAffinity -2.75569963
REMARK minimizedRMSD -1
REMARK  0 active torsions:
REMARK  status: ('A' for Active; 'I' for Inactive)
ROOT
ATOM      1  C   UNL d   1      -3.123   1.199   2.266  0.00  0.00     0.077 C 
ATOM      2  C1  UNL d   1      -1.737   0.880   1.789  0.00  0.00    -0.074 A 
ATOM      3  C2  UNL d   1      -0.657   0.862   2.678  0.00  0.00    -0.005 A 
ATOM      4  C3  UNL d   1       0.624   0.554   2.222  0.00  0.00     0.006 A 
ATOM      5  C4  UNL d   1       0.839   0.262   0.874  0.00  0.00    -0.005 A 
ATOM      6  C5  UNL d   1      -0.229   0.275  -0.029  0.00  0.00    -0.074 A 
ATOM      7  C6  UNL d   1      -0.017  -0.047  -1.479  0.00  0.00     0.077 C 
ATOM      8  C7  UNL d   1      -1.515   0.578   0.439  0.00  0.00    -0.001 A 
ENDROOT
TORSDOF 0
ENDMDL
