MODEL 1
REMARK minimizedAffinity -4.173522
REMARK minimizedRMSD -1
REMARK  0 active torsions:
REMARK  status: ('A' for Active; 'I' for Inactive)
ROOT
ATOM      1  C   UNL d   1       1.555  -0.881   1.208  0.00  0.00     0.077 C 
ATOM      2  C1  UNL d   1       1.038  -0.556  -0.162  0.00  0.00    -0.074 A 
ATOM      3  C2  UNL d   1      -0.001   0.364  -0.338  0.00  0.00    -0.005 A 
ATOM      4  C3  UNL d   1      -0.466   0.664  -1.618  0.00  0.00     0.006 A 
ATOM      5  C4  UNL d   1       0.103   0.047  -2.734  0.00  0.00    -0.005 A 
ATOM      6  C5  UNL d   1       1.143  -0.874  -2.578  0.00  0.00    -0.074 A 
ATOM      7  C6  UNL d   1       1.771  -1.539  -3.767  0.00  0.00     0.077 C 
ATOM      8  C7  UNL d   1       1.609  -1.165  -1.288  0.00  0.00    -0.001 A 
ENDROOT
TORSDOF 0
ENDMDL
