MODEL 1
REMARK minimizedAffinity -4.39223146
REMARK minimizedRMSD -1
REMARK  0 active torsions:
REMARK  status: ('A' for Active; 'I' for Inactive)
ROOT
ATOM      1  C   UNL d   1       0.223   0.583  -1.023  0.00  0.00     0.077 C 
ATOM      2  C1  UNL d   1       0.705  -0.042  -2.299  0.00  0.00    -0.074 A 
ATOM      3  C2  UNL d   1      -0.094  -0.950  -3.001  0.00  0.00    -0.005 A 
ATOM      4  C3  UNL d   1       0.364  -1.516  -4.191  0.00  0.00     0.006 A 
ATOM      5  C4  UNL d   1       1.623  -1.181  -4.689  0.00  0.00    -0.005 A 
ATOM      6  C5  UNL d   1       2.436  -0.274  -4.001  0.00  0.00    -0.074 A 
ATOM      7  C6  UNL d   1       3.788   0.105  -4.528  0.00  0.00     0.077 C 
ATOM      8  C7  UNL d   1       1.966   0.296  -2.810  0.00  0.00    -0.001 A 
ENDROOT
TORSDOF 0
ENDMDL
