MODEL 1
REMARK minimizedAffinity -4.96006298
REMARK minimizedRMSD -1
REMARK  0 active torsions:
REMARK  status: ('A' for Active; 'I' for Inactive)
ROOT
ATOM      1  C   UNL d   1      -2.628   0.736   2.215  0.00  0.00     0.077 C 
ATOM      2  C1  UNL d   1      -1.237   0.435   1.743  0.00  0.00    -0.074 A 
ATOM      3  C2  UNL d   1      -0.197   0.230   2.656  0.00  0.00    -0.005 A 
ATOM      4  C3  UNL d   1       1.090  -0.059   2.203  0.00  0.00     0.006 A 
ATOM      5  C4  UNL d   1       1.350  -0.145   0.834  0.00  0.00    -0.005 A 
ATOM      6  C5  UNL d   1       0.323   0.056  -0.093  0.00  0.00    -0.074 A 
ATOM      7  C6  UNL d   1       0.584  -0.043  -1.567  0.00  0.00     0.077 C 
ATOM      8  C7  UNL d   1      -0.969   0.338   0.370  0.00  0.00    -0.001 A 
ENDROOT
TORSDOF 0
ENDMDL
