MODEL 1
REMARK minimizedAffinity -2.84291506
REMARK minimizedRMSD -1
REMARK  0 active torsions:
REMARK  status: ('A' for Active; 'I' for Inactive)
ROOT
ATOM      1  C   UNL d   1      -2.974   0.769   1.868  0.00  0.00     0.077 C 
ATOM      2  C1  UNL d   1      -1.533   0.477   1.572  0.00  0.00    -0.074 A 
ATOM      3  C2  UNL d   1      -0.571   0.504   2.587  0.00  0.00    -0.005 A 
ATOM      4  C3  UNL d   1       0.764   0.222   2.298  0.00  0.00     0.006 A 
ATOM      5  C4  UNL d   1       1.150  -0.090   0.994  0.00  0.00    -0.005 A 
ATOM      6  C5  UNL d   1       0.202  -0.122  -0.034  0.00  0.00    -0.074 A 
ATOM      7  C6  UNL d   1       0.599  -0.465  -1.439  0.00  0.00     0.077 C 
ATOM      8  C7  UNL d   1      -1.138   0.156   0.266  0.00  0.00    -0.001 A 
ENDROOT
TORSDOF 0
ENDMDL
