MODEL 1
REMARK minimizedAffinity -4.4986577
REMARK minimizedRMSD -1
REMARK  0 active torsions:
REMARK  status: ('A' for Active; 'I' for Inactive)
ROOT
ATOM      1  C   UNL d   1       0.330   1.107   2.572  0.00  0.00     0.077 C 
ATOM      2  C1  UNL d   1       0.579   0.259   1.360  0.00  0.00    -0.074 A 
ATOM      3  C2  UNL d   1       1.196  -0.991   1.471  0.00  0.00    -0.005 A 
ATOM      4  C3  UNL d   1       1.413  -1.772   0.336  0.00  0.00     0.006 A 
ATOM      5  C4  UNL d   1       1.016  -1.311  -0.920  0.00  0.00    -0.005 A 
ATOM      6  C5  UNL d   1       0.397  -0.064  -1.051  0.00  0.00    -0.074 A 
ATOM      7  C6  UNL d   1      -0.045   0.441  -2.392  0.00  0.00     0.077 C 
ATOM      8  C7  UNL d   1       0.176   0.712   0.095  0.00  0.00    -0.001 A 
ENDROOT
TORSDOF 0
ENDMDL
