MODEL 1
REMARK minimizedAffinity 1.67309892
REMARK minimizedRMSD -1
REMARK  1 active torsions:
REMARK  status: ('A' for Active; 'I' for Inactive)
REMARK    1  A    between atoms: C1_2  and  C2_3 
ROOT
ATOM      1  C2  UNL d   1       0.235   3.935  -0.109  0.00  0.00    -0.073 A 
ATOM      2  C3  UNL d   1       1.424   4.559  -0.503  0.00  0.00    -0.002 A 
ATOM      3  C4  UNL d   1       2.577   4.433   0.274  0.00  0.00     0.004 A 
ATOM      4  C5  UNL d   1       2.554   3.678   1.446  0.00  0.00    -0.004 A 
ATOM      5  C6  UNL d   1       1.379   3.037   1.850  0.00  0.00    -0.075 A 
ATOM      6  C7  UNL d   1       1.337   2.222   3.109  0.00  0.00     0.076 C 
ATOM      7  C8  UNL d   1       0.225   3.170   1.066  0.00  0.00     0.001 A 
ENDROOT
BRANCH   1   8
ATOM      8  C1  UNL d   1      -1.010   4.063  -0.948  0.00  0.00     0.053 C 
ATOM      9  C   UNL d   1      -1.958   5.120  -0.405  0.00  0.00     0.018 C 
ENDBRANCH   1   8
TORSDOF 1
ENDMDL
