MODEL 1
REMARK minimizedAffinity 10.0682592
REMARK minimizedRMSD -1
REMARK  1 active torsions:
REMARK  status: ('A' for Active; 'I' for Inactive)
REMARK    1  A    between atoms: C1_2  and  C2_3 
ROOT
ATOM      1  C2  UNL d   1       0.212   3.171   0.101  0.00  0.00    -0.073 A 
ATOM      2  C3  UNL d   1       1.203   4.131  -0.137  0.00  0.00    -0.002 A 
ATOM      3  C4  UNL d   1       1.070   5.034  -1.192  0.00  0.00     0.004 A 
ATOM      4  C5  UNL d   1      -0.056   4.993  -2.014  0.00  0.00    -0.004 A 
ATOM      5  C6  UNL d   1      -1.062   4.049  -1.786  0.00  0.00    -0.075 A 
ATOM      6  C7  UNL d   1      -2.279   3.989  -2.662  0.00  0.00     0.076 C 
ATOM      7  C8  UNL d   1      -0.920   3.143  -0.726  0.00  0.00     0.001 A 
ENDROOT
BRANCH   1   8
ATOM      8  C1  UNL d   1       0.348   2.197   1.242  0.00  0.00     0.053 C 
ATOM      9  C   UNL d   1      -0.633   2.494   2.365  0.00  0.00     0.018 C 
ENDBRANCH   1   8
TORSDOF 1
ENDMDL
