MODEL 1
REMARK minimizedAffinity 3.30668497
REMARK minimizedRMSD -1
REMARK  1 active torsions:
REMARK  status: ('A' for Active; 'I' for Inactive)
REMARK    1  A    between atoms: C1_2  and  C2_3 
ROOT
ATOM      1  C2  UNL d   1      -0.004  -3.029  -1.271  0.00  0.00    -0.073 A 
ATOM      2  C3  UNL d   1       1.161  -3.581  -0.727  0.00  0.00    -0.002 A 
ATOM      3  C4  UNL d   1       2.037  -2.788   0.015  0.00  0.00     0.004 A 
ATOM      4  C5  UNL d   1       1.755  -1.438   0.226  0.00  0.00    -0.004 A 
ATOM      5  C6  UNL d   1       0.590  -0.871  -0.300  0.00  0.00    -0.075 A 
ATOM      6  C7  UNL d   1       0.273   0.580  -0.084  0.00  0.00     0.076 C 
ATOM      7  C8  UNL d   1      -0.284  -1.673  -1.046  0.00  0.00     0.001 A 
ENDROOT
BRANCH   1   8
ATOM      8  C1  UNL d   1      -0.956  -3.883  -2.067  0.00  0.00     0.053 C 
ATOM      9  C   UNL d   1      -1.062  -3.423  -3.513  0.00  0.00     0.018 C 
ENDBRANCH   1   8
TORSDOF 1
ENDMDL
