MODEL 1
REMARK minimizedAffinity 13.8672323
REMARK minimizedRMSD -1
REMARK  1 active torsions:
REMARK  status: ('A' for Active; 'I' for Inactive)
REMARK    1  A    between atoms: C1_2  and  C2_3 
ROOT
ATOM      1  C2  UNL d   1       4.638  -4.956  -3.455  0.00  0.00    -0.073 A 
ATOM      2  C3  UNL d   1       4.097  -5.959  -2.643  0.00  0.00    -0.002 A 
ATOM      3  C4  UNL d   1       4.179  -5.861  -1.253  0.00  0.00     0.004 A 
ATOM      4  C5  UNL d   1       4.795  -4.758  -0.662  0.00  0.00    -0.004 A 
ATOM      5  C6  UNL d   1       5.331  -3.740  -1.457  0.00  0.00    -0.075 A 
ATOM      6  C7  UNL d   1       5.999  -2.548  -0.837  0.00  0.00     0.076 C 
ATOM      7  C8  UNL d   1       5.247  -3.846  -2.852  0.00  0.00     0.001 A 
ENDROOT
BRANCH   1   8
ATOM      8  C1  UNL d   1       4.546  -5.054  -4.956  0.00  0.00     0.053 C 
ATOM      9  C   UNL d   1       3.441  -6.000  -5.399  0.00  0.00     0.018 C 
ENDBRANCH   1   8
TORSDOF 1
ENDMDL
