MODEL 1
REMARK minimizedAffinity 12.3025475
REMARK minimizedRMSD -1
REMARK  1 active torsions:
REMARK  status: ('A' for Active; 'I' for Inactive)
REMARK    1  A    between atoms: C1_2  and  C2_3 
ROOT
ATOM      1  C2  UNL d   1      -4.443  -0.049   3.721  0.00  0.00    -0.073 A 
ATOM      2  C3  UNL d   1      -5.216   0.953   4.318  0.00  0.00    -0.002 A 
ATOM      3  C4  UNL d   1      -5.984   0.671   5.449  0.00  0.00     0.004 A 
ATOM      4  C5  UNL d   1      -5.982  -0.611   5.997  0.00  0.00    -0.004 A 
ATOM      5  C6  UNL d   1      -5.207  -1.623   5.421  0.00  0.00    -0.075 A 
ATOM      6  C7  UNL d   1      -5.196  -3.009   5.997  0.00  0.00     0.076 C 
ATOM      7  C8  UNL d   1      -4.441  -1.333   4.285  0.00  0.00     0.001 A 
ENDROOT
BRANCH   1   8
ATOM      8  C1  UNL d   1      -3.607   0.252   2.504  0.00  0.00     0.053 C 
ATOM      9  C   UNL d   1      -2.618   1.379   2.756  0.00  0.00     0.018 C 
ENDBRANCH   1   8
TORSDOF 1
ENDMDL
