MODEL 1
REMARK minimizedAffinity 8.56334114
REMARK minimizedRMSD -1
REMARK  1 active torsions:
REMARK  status: ('A' for Active; 'I' for Inactive)
REMARK    1  A    between atoms: C1_2  and  C2_3 
ROOT
ATOM      1  C2  UNL d   1      -2.794  -4.899  -5.594  0.00  0.00    -0.073 A 
ATOM      2  C3  UNL d   1      -3.254  -3.785  -4.883  0.00  0.00    -0.002 A 
ATOM      3  C4  UNL d   1      -2.371  -2.767  -4.519  0.00  0.00     0.004 A 
ATOM      4  C5  UNL d   1      -1.023  -2.850  -4.868  0.00  0.00    -0.004 A 
ATOM      5  C6  UNL d   1      -0.546  -3.950  -5.588  0.00  0.00    -0.075 A 
ATOM      6  C7  UNL d   1       0.901  -4.054  -5.969  0.00  0.00     0.076 C 
ATOM      7  C8  UNL d   1      -1.439  -4.969  -5.948  0.00  0.00     0.001 A 
ENDROOT
BRANCH   1   8
ATOM      8  C1  UNL d   1      -3.745  -5.997  -5.995  0.00  0.00     0.053 C 
ATOM      9  C   UNL d   1      -5.004  -5.999  -5.143  0.00  0.00     0.018 C 
ENDBRANCH   1   8
TORSDOF 1
ENDMDL
