MODEL 1
REMARK minimizedAffinity 4.92188978
REMARK minimizedRMSD -1
REMARK  1 active torsions:
REMARK  status: ('A' for Active; 'I' for Inactive)
REMARK    1  A    between atoms: C1_2  and  C2_3 
ROOT
ATOM      1  C2  UNL d   1       0.697   3.865   0.673  0.00  0.00    -0.073 A 
ATOM      2  C3  UNL d   1       1.985   4.194   1.109  0.00  0.00    -0.002 A 
ATOM      3  C4  UNL d   1       2.472   3.690   2.316  0.00  0.00     0.004 A 
ATOM      4  C5  UNL d   1       1.679   2.847   3.094  0.00  0.00    -0.004 A 
ATOM      5  C6  UNL d   1       0.393   2.497   2.670  0.00  0.00    -0.075 A 
ATOM      6  C7  UNL d   1      -0.473   1.593   3.497  0.00  0.00     0.076 C 
ATOM      7  C8  UNL d   1      -0.089   3.009   1.458  0.00  0.00     0.001 A 
ENDROOT
BRANCH   1   8
ATOM      8  C1  UNL d   1       0.170   4.402  -0.632  0.00  0.00     0.053 C 
ATOM      9  C   UNL d   1      -0.423   3.305  -1.502  0.00  0.00     0.018 C 
ENDBRANCH   1   8
TORSDOF 1
ENDMDL
