MODEL 1
REMARK minimizedAffinity 10.8033018
REMARK minimizedRMSD -1
REMARK  0 active torsions:
REMARK  status: ('A' for Active; 'I' for Inactive)
ROOT
ATOM      1  O1  BZF d   1      -4.967  -4.833  -4.754  0.00  0.00    -0.204 OA
ATOM      2  C2  BZF d   1      -5.140  -4.260  -5.998  0.00  0.00     0.174 A 
ATOM      3  C3  BZF d   1      -5.605  -2.999  -5.884  0.00  0.00    -0.012 A 
ATOM      4  C3A BZF d   1      -5.642  -2.738  -4.477  0.00  0.00    -0.107 A 
ATOM      5  C4  BZF d   1      -5.999  -1.650  -3.733  0.00  0.00     0.055 A 
ATOM      6  C5  BZF d   1      -5.991  -1.745  -2.378  0.00  0.00    -0.016 A 
ATOM      7  C6  BZF d   1      -5.636  -2.913  -1.734  0.00  0.00     0.022 A 
ATOM      8  C7  BZF d   1      -5.269  -4.016  -2.429  0.00  0.00     0.029 A 
ATOM      9  C7A BZF d   1      -5.245  -3.913  -3.799  0.00  0.00     0.058 A 
ENDROOT
TORSDOF 0
ENDMDL
