MODEL 1
REMARK minimizedAffinity 14.4064646
REMARK minimizedRMSD -1
REMARK  0 active torsions:
REMARK  status: ('A' for Active; 'I' for Inactive)
ROOT
ATOM      1  O1  BZF d   1      -1.090  -3.364  -5.825  0.00  0.00    -0.204 OA
ATOM      2  C2  BZF d   1      -2.251  -4.098  -5.976  0.00  0.00     0.174 A 
ATOM      3  C3  BZF d   1      -3.329  -3.288  -6.000  0.00  0.00    -0.012 A 
ATOM      4  C3A BZF d   1      -2.803  -1.959  -5.949  0.00  0.00    -0.107 A 
ATOM      5  C4  BZF d   1      -3.378  -0.720  -5.958  0.00  0.00     0.055 A 
ATOM      6  C5  BZF d   1      -2.587   0.376  -5.822  0.00  0.00    -0.016 A 
ATOM      7  C6  BZF d   1      -1.220   0.271  -5.669  0.00  0.00     0.022 A 
ATOM      8  C7  BZF d   1      -0.604  -0.935  -5.659  0.00  0.00     0.029 A 
ATOM      9  C7A BZF d   1      -1.396  -2.044  -5.829  0.00  0.00     0.058 A 
ENDROOT
TORSDOF 0
ENDMDL
