MODEL 1
REMARK minimizedAffinity 2.69094539
REMARK minimizedRMSD -1
REMARK  0 active torsions:
REMARK  status: ('A' for Active; 'I' for Inactive)
ROOT
ATOM      1  O1  BZF d   1      -5.388   2.102   1.548  0.00  0.00    -0.204 OA
ATOM      2  C2  BZF d   1      -5.086   3.445   1.657  0.00  0.00     0.174 A 
ATOM      3  C3  BZF d   1      -3.787   3.619   1.975  0.00  0.00    -0.012 A 
ATOM      4  C3A BZF d   1      -3.221   2.305   1.980  0.00  0.00    -0.107 A 
ATOM      5  C4  BZF d   1      -1.964   1.825   2.210  0.00  0.00     0.055 A 
ATOM      6  C5  BZF d   1      -1.760   0.481   2.211  0.00  0.00    -0.016 A 
ATOM      7  C6  BZF d   1      -2.790  -0.410   1.991  0.00  0.00     0.022 A 
ATOM      8  C7  BZF d   1      -4.053   0.019   1.753  0.00  0.00     0.029 A 
ATOM      9  C7A BZF d   1      -4.256   1.377   1.719  0.00  0.00     0.058 A 
ENDROOT
TORSDOF 0
ENDMDL
