MODEL 1
REMARK minimizedAffinity 25.0044823
REMARK minimizedRMSD -1
REMARK  0 active torsions:
REMARK  status: ('A' for Active; 'I' for Inactive)
ROOT
ATOM      1  O1  BZF d   1      -0.251   1.214   1.530  0.00  0.00    -0.204 OA
ATOM      2  C2  BZF d   1      -0.230   0.703   2.814  0.00  0.00     0.174 A 
ATOM      3  C3  BZF d   1      -1.265  -0.139   3.010  0.00  0.00    -0.012 A 
ATOM      4  C3A BZF d   1      -1.924  -0.227   1.744  0.00  0.00    -0.107 A 
ATOM      5  C4  BZF d   1      -3.012  -0.922   1.298  0.00  0.00     0.055 A 
ATOM      6  C5  BZF d   1      -3.441  -0.731   0.023  0.00  0.00    -0.016 A 
ATOM      7  C6  BZF d   1      -2.809   0.149  -0.831  0.00  0.00     0.022 A 
ATOM      8  C7  BZF d   1      -1.723   0.857  -0.436  0.00  0.00     0.029 A 
ATOM      9  C7A BZF d   1      -1.268   0.642   0.842  0.00  0.00     0.058 A 
ENDROOT
TORSDOF 0
ENDMDL
