MODEL 1
REMARK minimizedAffinity 13.841485
REMARK minimizedRMSD -1
REMARK  0 active torsions:
REMARK  status: ('A' for Active; 'I' for Inactive)
ROOT
ATOM      1  O1  BZF d   1      -0.634   0.354   1.194  0.00  0.00    -0.204 OA
ATOM      2  C2  BZF d   1      -1.649   1.114   0.646  0.00  0.00     0.174 A 
ATOM      3  C3  BZF d   1      -2.776   1.007   1.379  0.00  0.00    -0.012 A 
ATOM      4  C3A BZF d   1      -2.418   0.197   2.503  0.00  0.00    -0.107 A 
ATOM      5  C4  BZF d   1      -3.106  -0.251   3.595  0.00  0.00     0.055 A 
ATOM      6  C5  BZF d   1      -2.485  -1.084   4.471  0.00  0.00    -0.016 A 
ATOM      7  C6  BZF d   1      -1.180  -1.493   4.284  0.00  0.00     0.022 A 
ATOM      8  C7  BZF d   1      -0.456  -1.071   3.219  0.00  0.00     0.029 A 
ATOM      9  C7A BZF d   1      -1.070  -0.202   2.350  0.00  0.00     0.058 A 
ENDROOT
TORSDOF 0
ENDMDL
