MODEL 1
REMARK minimizedAffinity 6.88467598
REMARK minimizedRMSD -1
REMARK  0 active torsions:
REMARK  status: ('A' for Active; 'I' for Inactive)
ROOT
ATOM      1  O1  BZF d   1      -5.871  -4.445  -4.619  0.00  0.00    -0.204 OA
ATOM      2  C2  BZF d   1      -5.966  -3.758  -5.813  0.00  0.00     0.174 A 
ATOM      3  C3  BZF d   1      -5.997  -2.427  -5.598  0.00  0.00    -0.012 A 
ATOM      4  C3A BZF d   1      -5.824  -2.270  -4.186  0.00  0.00    -0.107 A 
ATOM      5  C4  BZF d   1      -5.752  -1.181  -3.365  0.00  0.00     0.055 A 
ATOM      6  C5  BZF d   1      -5.653  -1.372  -2.023  0.00  0.00    -0.016 A 
ATOM      7  C6  BZF d   1      -5.627  -2.635  -1.469  0.00  0.00     0.022 A 
ATOM      8  C7  BZF d   1      -5.690  -3.745  -2.244  0.00  0.00     0.029 A 
ATOM      9  C7A BZF d   1      -5.758  -3.556  -3.603  0.00  0.00     0.058 A 
ENDROOT
TORSDOF 0
ENDMDL
