MODEL 1
REMARK minimizedAffinity 7.57697678
REMARK minimizedRMSD -1
REMARK  0 active torsions:
REMARK  status: ('A' for Active; 'I' for Inactive)
ROOT
ATOM      1  O1  BZF d   1      -2.570  -0.789  -1.526  0.00  0.00    -0.204 OA
ATOM      2  C2  BZF d   1      -3.173  -2.015  -1.323  0.00  0.00     0.174 A 
ATOM      3  C3  BZF d   1      -3.151  -2.349  -0.017  0.00  0.00    -0.012 A 
ATOM      4  C3A BZF d   1      -2.575  -1.222   0.650  0.00  0.00    -0.107 A 
ATOM      5  C4  BZF d   1      -2.302  -0.943   1.959  0.00  0.00     0.055 A 
ATOM      6  C5  BZF d   1      -1.669   0.218   2.269  0.00  0.00    -0.016 A 
ATOM      7  C6  BZF d   1      -1.290   1.121   1.297  0.00  0.00     0.022 A 
ATOM      8  C7  BZF d   1      -1.544   0.891  -0.015  0.00  0.00     0.029 A 
ATOM      9  C7A BZF d   1      -2.213  -0.267  -0.328  0.00  0.00     0.058 A 
ENDROOT
TORSDOF 0
ENDMDL
