MODEL 1
REMARK minimizedAffinity 15.9328289
REMARK minimizedRMSD -1
REMARK  0 active torsions:
REMARK  status: ('A' for Active; 'I' for Inactive)
ROOT
ATOM      1  O1  BZF d   1      -6.000  -2.551  -2.418  0.00  0.00    -0.204 OA
ATOM      2  C2  BZF d   1      -5.789  -1.204  -2.637  0.00  0.00     0.174 A 
ATOM      3  C3  BZF d   1      -5.278  -0.992  -3.867  0.00  0.00    -0.012 A 
ATOM      4  C3A BZF d   1      -5.249  -2.281  -4.488  0.00  0.00    -0.107 A 
ATOM      5  C4  BZF d   1      -4.859  -2.720  -5.721  0.00  0.00     0.055 A 
ATOM      6  C5  BZF d   1      -4.888  -4.052  -5.988  0.00  0.00    -0.016 A 
ATOM      7  C6  BZF d   1      -5.296  -4.972  -5.045  0.00  0.00     0.022 A 
ATOM      8  C7  BZF d   1      -5.696  -4.584  -3.809  0.00  0.00     0.029 A 
ATOM      9  C7A BZF d   1      -5.699  -3.236  -3.548  0.00  0.00     0.058 A 
ENDROOT
TORSDOF 0
ENDMDL
