MODEL 1
REMARK minimizedAffinity 11.4807587
REMARK minimizedRMSD -1
REMARK  0 active torsions:
REMARK  status: ('A' for Active; 'I' for Inactive)
ROOT
ATOM      1  O1  BZF d   1      -5.529  -3.656  -1.699  0.00  0.00    -0.204 OA
ATOM      2  C2  BZF d   1      -5.733  -2.750  -2.722  0.00  0.00     0.174 A 
ATOM      3  C3  BZF d   1      -6.000  -1.524  -2.228  0.00  0.00    -0.012 A 
ATOM      4  C3A BZF d   1      -5.870  -1.653  -0.809  0.00  0.00    -0.107 A 
ATOM      5  C4  BZF d   1      -5.999  -0.775   0.229  0.00  0.00     0.055 A 
ATOM      6  C5  BZF d   1      -5.880  -1.235   1.502  0.00  0.00    -0.016 A 
ATOM      7  C6  BZF d   1      -5.637  -2.566   1.773  0.00  0.00     0.022 A 
ATOM      8  C7  BZF d   1      -5.497  -3.473   0.776  0.00  0.00     0.029 A 
ATOM      9  C7A BZF d   1      -5.584  -3.005  -0.512  0.00  0.00     0.058 A 
ENDROOT
TORSDOF 0
ENDMDL
