MODEL 1
REMARK minimizedAffinity 13.5245991
REMARK minimizedRMSD -1
REMARK  0 active torsions:
REMARK  status: ('A' for Active; 'I' for Inactive)
ROOT
ATOM      1  O1  BZF d   1       0.282   2.421  -0.594  0.00  0.00    -0.204 OA
ATOM      2  C2  BZF d   1       1.522   2.691  -0.048  0.00  0.00     0.174 A 
ATOM      3  C3  BZF d   1       1.582   2.272   1.233  0.00  0.00    -0.012 A 
ATOM      4  C3A BZF d   1       0.331   1.622   1.476  0.00  0.00    -0.107 A 
ATOM      5  C4  BZF d   1      -0.202   0.986   2.560  0.00  0.00     0.055 A 
ATOM      6  C5  BZF d   1      -1.479   0.524   2.494  0.00  0.00    -0.016 A 
ATOM      7  C6  BZF d   1      -2.251   0.684   1.362  0.00  0.00     0.022 A 
ATOM      8  C7  BZF d   1      -1.764   1.304   0.259  0.00  0.00     0.029 A 
ATOM      9  C7A BZF d   1      -0.464   1.743   0.312  0.00  0.00     0.058 A 
ENDROOT
TORSDOF 0
ENDMDL
