MODEL 1
REMARK minimizedAffinity 7.00366545
REMARK minimizedRMSD -1
REMARK  0 active torsions:
REMARK  status: ('A' for Active; 'I' for Inactive)
ROOT
ATOM      1  O1  BZF d   1       1.192  -1.020  -3.935  0.00  0.00    -0.204 OA
ATOM      2  C2  BZF d   1       2.507  -0.837  -3.555  0.00  0.00     0.174 A 
ATOM      3  C3  BZF d   1       2.650   0.313  -2.865  0.00  0.00    -0.012 A 
ATOM      4  C3A BZF d   1       1.326   0.838  -2.731  0.00  0.00    -0.107 A 
ATOM      5  C4  BZF d   1       0.815   1.952  -2.129  0.00  0.00     0.055 A 
ATOM      6  C5  BZF d   1      -0.514   2.213  -2.242  0.00  0.00    -0.016 A 
ATOM      7  C6  BZF d   1      -1.358   1.385  -2.953  0.00  0.00     0.022 A 
ATOM      8  C7  BZF d   1      -0.898   0.266  -3.563  0.00  0.00     0.029 A 
ATOM      9  C7A BZF d   1       0.438  -0.018  -3.422  0.00  0.00     0.058 A 
ENDROOT
TORSDOF 0
ENDMDL
