MODEL 1
REMARK minimizedAffinity 3.84802771
REMARK minimizedRMSD -1
REMARK  0 active torsions:
REMARK  status: ('A' for Active; 'I' for Inactive)
ROOT
ATOM      1  O1  BZF d   1      -0.761  -0.846  -4.635  0.00  0.00    -0.204 OA
ATOM      2  C2  BZF d   1      -1.524   0.262  -4.321  0.00  0.00     0.174 A 
ATOM      3  C3  BZF d   1      -0.765   1.218  -3.747  0.00  0.00    -0.012 A 
ATOM      4  C3A BZF d   1       0.572   0.710  -3.785  0.00  0.00    -0.107 A 
ATOM      5  C4  BZF d   1       1.777   1.208  -3.378  0.00  0.00     0.055 A 
ATOM      6  C5  BZF d   1       2.885   0.430  -3.491  0.00  0.00    -0.016 A 
ATOM      7  C6  BZF d   1       2.824  -0.851  -4.000  0.00  0.00     0.022 A 
ATOM      8  C7  BZF d   1       1.652  -1.386  -4.421  0.00  0.00     0.029 A 
ATOM      9  C7A BZF d   1       0.536  -0.590  -4.339  0.00  0.00     0.058 A 
ENDROOT
TORSDOF 0
ENDMDL
