MODEL 1
REMARK minimizedAffinity -1.42663097
REMARK minimizedRMSD -1
REMARK  0 active torsions:
REMARK  status: ('A' for Active; 'I' for Inactive)
ROOT
ATOM      1  O1  BZF d   1      -2.618  -0.109  -0.086  0.00  0.00    -0.204 OA
ATOM      2  C2  BZF d   1      -1.611   0.726   0.359  0.00  0.00     0.174 A 
ATOM      3  C3  BZF d   1      -1.982   1.363   1.489  0.00  0.00    -0.012 A 
ATOM      4  C3A BZF d   1      -3.267   0.826   1.818  0.00  0.00    -0.107 A 
ATOM      5  C4  BZF d   1      -4.144   1.050   2.841  0.00  0.00     0.055 A 
ATOM      6  C5  BZF d   1      -5.346   0.416   2.831  0.00  0.00    -0.016 A 
ATOM      7  C6  BZF d   1      -5.706  -0.442   1.813  0.00  0.00     0.022 A 
ATOM      8  C7  BZF d   1      -4.868  -0.699   0.780  0.00  0.00     0.029 A 
ATOM      9  C7A BZF d   1      -3.639  -0.086   0.804  0.00  0.00     0.058 A 
ENDROOT
TORSDOF 0
ENDMDL
