MODEL 1
REMARK minimizedAffinity 3.65286803
REMARK minimizedRMSD -1
REMARK  0 active torsions:
REMARK  status: ('A' for Active; 'I' for Inactive)
ROOT
ATOM      1  O1  BZF d   1      -0.443  -0.392   3.508  0.00  0.00    -0.204 OA
ATOM      2  C2  BZF d   1       0.700  -0.233   2.749  0.00  0.00     0.174 A 
ATOM      3  C3  BZF d   1       0.412   0.352   1.568  0.00  0.00    -0.012 A 
ATOM      4  C3A BZF d   1      -0.985   0.656   1.629  0.00  0.00    -0.107 A 
ATOM      5  C4  BZF d   1      -1.854   1.257   0.764  0.00  0.00     0.055 A 
ATOM      6  C5  BZF d   1      -3.169   1.334   1.096  0.00  0.00    -0.016 A 
ATOM      7  C6  BZF d   1      -3.650   0.818   2.282  0.00  0.00     0.022 A 
ATOM      8  C7  BZF d   1      -2.826   0.217   3.174  0.00  0.00     0.029 A 
ATOM      9  C7A BZF d   1      -1.491   0.166   2.856  0.00  0.00     0.058 A 
ENDROOT
TORSDOF 0
ENDMDL
