MODEL 1
REMARK minimizedAffinity 16.6937847
REMARK minimizedRMSD -1
REMARK  0 active torsions:
REMARK  status: ('A' for Active; 'I' for Inactive)
ROOT
ATOM      1  O1  BZF d   1       6.000   3.026  -3.935  0.00  0.00    -0.204 OA
ATOM      2  C2  BZF d   1       5.853   3.950  -4.952  0.00  0.00     0.174 A 
ATOM      3  C3  BZF d   1       5.072   3.458  -5.936  0.00  0.00    -0.012 A 
ATOM      4  C3A BZF d   1       4.632   2.181  -5.464  0.00  0.00    -0.107 A 
ATOM      5  C4  BZF d   1       3.820   1.216  -5.987  0.00  0.00     0.055 A 
ATOM      6  C5  BZF d   1       3.652   0.053  -5.305  0.00  0.00    -0.016 A 
ATOM      7  C6  BZF d   1       4.284  -0.180  -4.101  0.00  0.00     0.022 A 
ATOM      8  C7  BZF d   1       5.096   0.749  -3.540  0.00  0.00     0.029 A 
ATOM      9  C7A BZF d   1       5.242   1.938  -4.211  0.00  0.00     0.058 A 
ENDROOT
TORSDOF 0
ENDMDL
