MODEL 1
REMARK minimizedAffinity 8.90507984
REMARK minimizedRMSD -1
REMARK  0 active torsions:
REMARK  status: ('A' for Active; 'I' for Inactive)
ROOT
ATOM      1  O1  BZF d   1      -3.682  -0.678   3.947  0.00  0.00    -0.204 OA
ATOM      2  C2  BZF d   1      -4.925  -0.103   3.766  0.00  0.00     0.174 A 
ATOM      3  C3  BZF d   1      -4.887   0.819   2.782  0.00  0.00    -0.012 A 
ATOM      4  C3A BZF d   1      -3.558   0.755   2.257  0.00  0.00    -0.107 A 
ATOM      5  C4  BZF d   1      -2.912   1.417   1.253  0.00  0.00     0.055 A 
ATOM      6  C5  BZF d   1      -1.592   1.173   1.042  0.00  0.00    -0.016 A 
ATOM      7  C6  BZF d   1      -0.886   0.277   1.819  0.00  0.00     0.022 A 
ATOM      8  C7  BZF d   1      -1.485  -0.407   2.824  0.00  0.00     0.029 A 
ATOM      9  C7A BZF d   1      -2.827  -0.187   3.018  0.00  0.00     0.058 A 
ENDROOT
TORSDOF 0
ENDMDL
