MODEL 1
REMARK minimizedAffinity 6.22999239
REMARK minimizedRMSD -1
REMARK  0 active torsions:
REMARK  status: ('A' for Active; 'I' for Inactive)
ROOT
ATOM      1  O1  BZF d   1       2.599  -2.629  -5.151  0.00  0.00    -0.204 OA
ATOM      2  C2  BZF d   1       1.510  -2.693  -6.000  0.00  0.00     0.174 A 
ATOM      3  C3  BZF d   1       0.835  -1.525  -6.000  0.00  0.00    -0.012 A 
ATOM      4  C3A BZF d   1       1.598  -0.649  -5.165  0.00  0.00    -0.107 A 
ATOM      5  C4  BZF d   1       1.448   0.654  -4.786  0.00  0.00     0.055 A 
ATOM      6  C5  BZF d   1       2.330   1.191  -3.903  0.00  0.00    -0.016 A 
ATOM      7  C6  BZF d   1       3.369   0.454  -3.375  0.00  0.00     0.022 A 
ATOM      8  C7  BZF d   1       3.562  -0.842  -3.724  0.00  0.00     0.029 A 
ATOM      9  C7A BZF d   1       2.692  -1.378  -4.642  0.00  0.00     0.058 A 
ENDROOT
TORSDOF 0
ENDMDL
