MODEL 1
REMARK minimizedAffinity -3.31452084
REMARK minimizedRMSD -1
REMARK  1 active torsions:
REMARK  status: ('A' for Active; 'I' for Inactive)
REMARK    1  A    between atoms: C3_4  and  O_7 
ROOT
ATOM      1  C   UNL d   1       0.879   0.832  -0.673  0.00  0.00    -0.033 A 
ATOM      2  C1  UNL d   1      -0.138   0.000  -0.200  0.00  0.00     0.039 A 
ATOM      3  C2  UNL d   1       0.177  -1.232   0.375  0.00  0.00    -0.080 A 
ATOM      4  C3  UNL d   1       1.510  -1.620   0.473  0.00  0.00     0.150 A 
ATOM      5  C4  UNL d   1       2.528  -0.795   0.008  0.00  0.00    -0.007 A 
ATOM      6  C5  UNL d   1       2.212   0.435  -0.567  0.00  0.00     0.039 A 
ENDROOT
BRANCH   4   7
ATOM      7  O   UNL d   1       1.866  -2.816   1.023  0.00  0.00    -0.526 OA
ATOM      8  H5  UNL d   1       1.056  -3.292   1.274  0.00  0.00     0.418 HD
ENDBRANCH   4   7
TORSDOF 1
ENDMDL
