MODEL 1
REMARK minimizedAffinity -4.10082483
REMARK minimizedRMSD -1
REMARK  1 active torsions:
REMARK  status: ('A' for Active; 'I' for Inactive)
REMARK    1  A    between atoms: C3_4  and  O_7 
ROOT
ATOM      1  C   UNL d   1       0.530   0.690  -0.205  0.00  0.00    -0.033 A 
ATOM      2  C1  UNL d   1       1.853   0.365  -0.512  0.00  0.00     0.039 A 
ATOM      3  C2  UNL d   1       2.343  -0.912  -0.235  0.00  0.00    -0.080 A 
ATOM      4  C3  UNL d   1       1.500  -1.855   0.348  0.00  0.00     0.150 A 
ATOM      5  C4  UNL d   1       0.180  -1.540   0.653  0.00  0.00    -0.007 A 
ATOM      6  C5  UNL d   1      -0.307  -0.263   0.376  0.00  0.00     0.039 A 
ENDROOT
BRANCH   4   7
ATOM      7  O   UNL d   1       1.935  -3.114   0.641  0.00  0.00    -0.526 OA
ATOM      8  H5  UNL d   1       2.874  -3.179   0.402  0.00  0.00     0.418 HD
ENDBRANCH   4   7
TORSDOF 1
ENDMDL
