MODEL 1
REMARK minimizedAffinity -3.46470165
REMARK minimizedRMSD -1
REMARK  1 active torsions:
REMARK  status: ('A' for Active; 'I' for Inactive)
REMARK    1  A    between atoms: C3_4  and  O_7 
ROOT
ATOM      1  C   UNL d   1       2.976  -0.669  -0.344  0.00  0.00    -0.033 A 
ATOM      2  C1  UNL d   1       2.345  -1.373   0.684  0.00  0.00     0.039 A 
ATOM      3  C2  UNL d   1       1.017  -1.095   1.011  0.00  0.00    -0.080 A 
ATOM      4  C3  UNL d   1       0.331  -0.112   0.303  0.00  0.00     0.150 A 
ATOM      5  C4  UNL d   1       0.951   0.591  -0.724  0.00  0.00    -0.007 A 
ATOM      6  C5  UNL d   1       2.278   0.312  -1.049  0.00  0.00     0.039 A 
ENDROOT
BRANCH   4   7
ATOM      7  O   UNL d   1      -0.966   0.199   0.589  0.00  0.00    -0.526 OA
ATOM      8  H5  UNL d   1      -1.254  -0.347   1.340  0.00  0.00     0.418 HD
ENDBRANCH   4   7
TORSDOF 1
ENDMDL
