MODEL 1
REMARK minimizedAffinity -2.42737794
REMARK minimizedRMSD -1
REMARK  1 active torsions:
REMARK  status: ('A' for Active; 'I' for Inactive)
REMARK    1  A    between atoms: C3_4  and  O_7 
ROOT
ATOM      1  C   UNL d   1       2.046  -1.380   1.120  0.00  0.00    -0.033 A 
ATOM      2  C1  UNL d   1       2.662  -0.323   0.448  0.00  0.00     0.039 A 
ATOM      3  C2  UNL d   1       1.887   0.639  -0.204  0.00  0.00    -0.080 A 
ATOM      4  C3  UNL d   1       0.500   0.532  -0.174  0.00  0.00     0.150 A 
ATOM      5  C4  UNL d   1      -0.121  -0.516   0.497  0.00  0.00    -0.007 A 
ATOM      6  C5  UNL d   1       0.655  -1.476   1.146  0.00  0.00     0.039 A 
ENDROOT
BRANCH   4   7
ATOM      7  O   UNL d   1      -0.298   1.444  -0.800  0.00  0.00    -0.526 OA
ATOM      8  H5  UNL d   1       0.269   2.094  -1.246  0.00  0.00     0.418 HD
ENDBRANCH   4   7
TORSDOF 1
ENDMDL
