MODEL 1
REMARK minimizedAffinity -1.41751719
REMARK minimizedRMSD -1
REMARK  1 active torsions:
REMARK  status: ('A' for Active; 'I' for Inactive)
REMARK    1  A    between atoms: C3_4  and  O_7 
ROOT
ATOM      1  C   UNL d   1      -2.658   1.172  -3.031  0.00  0.00    -0.033 A 
ATOM      2  C1  UNL d   1      -2.808   0.341  -1.919  0.00  0.00     0.039 A 
ATOM      3  C2  UNL d   1      -1.837   0.332  -0.915  0.00  0.00    -0.080 A 
ATOM      4  C3  UNL d   1      -0.723   1.157  -1.035  0.00  0.00     0.150 A 
ATOM      5  C4  UNL d   1      -0.568   1.990  -2.138  0.00  0.00    -0.007 A 
ATOM      6  C5  UNL d   1      -1.538   1.998  -3.140  0.00  0.00     0.039 A 
ENDROOT
BRANCH   4   7
ATOM      7  O   UNL d   1       0.253   1.179  -0.084  0.00  0.00    -0.526 OA
ATOM      8  H5  UNL d   1       0.027   0.532   0.605  0.00  0.00     0.418 HD
ENDBRANCH   4   7
TORSDOF 1
ENDMDL
