MODEL 1
REMARK minimizedAffinity -3.75987697
REMARK minimizedRMSD -1
REMARK  1 active torsions:
REMARK  status: ('A' for Active; 'I' for Inactive)
REMARK    1  A    between atoms: C3_4  and  O_7 
ROOT
ATOM      1  C   UNL d   1      -2.368   2.053  -2.739  0.00  0.00    -0.033 A 
ATOM      2  C1  UNL d   1      -1.689   2.873  -1.836  0.00  0.00     0.039 A 
ATOM      3  C2  UNL d   1      -0.874   2.308  -0.853  0.00  0.00    -0.080 A 
ATOM      4  C3  UNL d   1      -0.746   0.924  -0.785  0.00  0.00     0.150 A 
ATOM      5  C4  UNL d   1      -1.416   0.100  -1.684  0.00  0.00    -0.007 A 
ATOM      6  C5  UNL d   1      -2.231   0.666  -2.664  0.00  0.00     0.039 A 
ENDROOT
BRANCH   4   7
ATOM      7  O   UNL d   1       0.035   0.326   0.159  0.00  0.00    -0.526 OA
ATOM      8  H5  UNL d   1       0.413   1.017   0.728  0.00  0.00     0.418 HD
ENDBRANCH   4   7
TORSDOF 1
ENDMDL
