MODEL 1
REMARK minimizedAffinity -4.51785755
REMARK minimizedRMSD -1
REMARK  1 active torsions:
REMARK  status: ('A' for Active; 'I' for Inactive)
REMARK    1  A    between atoms: C3_4  and  O_7 
ROOT
ATOM      1  C   UNL d   1       0.071  -1.160   1.113  0.00  0.00    -0.033 A 
ATOM      2  C1  UNL d   1      -0.154  -0.019   0.340  0.00  0.00     0.039 A 
ATOM      3  C2  UNL d   1       0.869   0.501  -0.455  0.00  0.00    -0.080 A 
ATOM      4  C3  UNL d   1       2.110  -0.129  -0.470  0.00  0.00     0.150 A 
ATOM      5  C4  UNL d   1       2.341  -1.268   0.295  0.00  0.00    -0.007 A 
ATOM      6  C5  UNL d   1       1.318  -1.786   1.089  0.00  0.00     0.039 A 
ENDROOT
BRANCH   4   7
ATOM      7  O   UNL d   1       3.141   0.344  -1.226  0.00  0.00    -0.526 OA
ATOM      8  H5  UNL d   1       2.845   1.152  -1.678  0.00  0.00     0.418 HD
ENDBRANCH   4   7
TORSDOF 1
ENDMDL
