MODEL 1
REMARK minimizedAffinity -4.07311726
REMARK minimizedRMSD -1
REMARK  1 active torsions:
REMARK  status: ('A' for Active; 'I' for Inactive)
REMARK    1  A    between atoms: C3_4  and  O_7 
ROOT
ATOM      1  C   UNL d   1       3.138  -0.965   0.608  0.00  0.00    -0.033 A 
ATOM      2  C1  UNL d   1       1.983  -1.604   1.062  0.00  0.00     0.039 A 
ATOM      3  C2  UNL d   1       0.730  -1.033   0.832  0.00  0.00    -0.080 A 
ATOM      4  C3  UNL d   1       0.646   0.176   0.146  0.00  0.00     0.150 A 
ATOM      5  C4  UNL d   1       1.792   0.816  -0.313  0.00  0.00    -0.007 A 
ATOM      6  C5  UNL d   1       3.043   0.245  -0.081  0.00  0.00     0.039 A 
ENDROOT
BRANCH   4   7
ATOM      7  O   UNL d   1      -0.554   0.774  -0.098  0.00  0.00    -0.526 OA
ATOM      8  H5  UNL d   1      -1.255   0.233   0.302  0.00  0.00     0.418 HD
ENDBRANCH   4   7
TORSDOF 1
ENDMDL
