MODEL 1
REMARK minimizedAffinity -1.56772959
REMARK minimizedRMSD -1
REMARK  1 active torsions:
REMARK  status: ('A' for Active; 'I' for Inactive)
REMARK    1  A    between atoms: C3_4  and  O_7 
ROOT
ATOM      1  C   UNL d   1      -2.816   0.748  -2.636  0.00  0.00    -0.033 A 
ATOM      2  C1  UNL d   1      -2.804  -0.282  -1.694  0.00  0.00     0.039 A 
ATOM      3  C2  UNL d   1      -1.752  -0.384  -0.782  0.00  0.00    -0.080 A 
ATOM      4  C3  UNL d   1      -0.720   0.550  -0.821  0.00  0.00     0.150 A 
ATOM      5  C4  UNL d   1      -0.728   1.582  -1.754  0.00  0.00    -0.007 A 
ATOM      6  C5  UNL d   1      -1.779   1.681  -2.665  0.00  0.00     0.039 A 
ENDROOT
BRANCH   4   7
ATOM      7  O   UNL d   1       0.330   0.489   0.047  0.00  0.00    -0.526 OA
ATOM      8  H5  UNL d   1       0.215  -0.292   0.614  0.00  0.00     0.418 HD
ENDBRANCH   4   7
TORSDOF 1
ENDMDL
