MODEL 1
REMARK minimizedAffinity -2.81386542
REMARK minimizedRMSD -1
REMARK  1 active torsions:
REMARK  status: ('A' for Active; 'I' for Inactive)
REMARK    1  A    between atoms: C3_4  and  O_7 
ROOT
ATOM      1  C   UNL d   1      -2.851   0.767  -1.508  0.00  0.00    -0.033 A 
ATOM      2  C1  UNL d   1      -1.678   1.241  -0.917  0.00  0.00     0.039 A 
ATOM      3  C2  UNL d   1      -1.381   0.916   0.408  0.00  0.00    -0.080 A 
ATOM      4  C3  UNL d   1      -2.264   0.119   1.131  0.00  0.00     0.150 A 
ATOM      5  C4  UNL d   1      -3.433  -0.360   0.547  0.00  0.00    -0.007 A 
ATOM      6  C5  UNL d   1      -3.728  -0.034  -0.776  0.00  0.00     0.039 A 
ENDROOT
BRANCH   4   7
ATOM      7  O   UNL d   1      -2.020  -0.220   2.428  0.00  0.00    -0.526 OA
ATOM      8  H5  UNL d   1      -1.192   0.205   2.707  0.00  0.00     0.418 HD
ENDBRANCH   4   7
TORSDOF 1
ENDMDL
