MODEL 1
REMARK minimizedAffinity -2.36551833
REMARK minimizedRMSD -1
REMARK  1 active torsions:
REMARK  status: ('A' for Active; 'I' for Inactive)
REMARK    1  A    between atoms: C3_4  and  O_7 
ROOT
ATOM      1  C   UNL d   1      -1.699  -0.150   0.675  0.00  0.00    -0.033 A 
ATOM      2  C1  UNL d   1      -0.639   0.621   0.194  0.00  0.00     0.039 A 
ATOM      3  C2  UNL d   1      -0.677   1.131  -1.106  0.00  0.00    -0.080 A 
ATOM      4  C3  UNL d   1      -1.780   0.864  -1.912  0.00  0.00     0.150 A 
ATOM      5  C4  UNL d   1      -2.841   0.100  -1.438  0.00  0.00    -0.007 A 
ATOM      6  C5  UNL d   1      -2.801  -0.409  -0.141  0.00  0.00     0.039 A 
ENDROOT
BRANCH   4   7
ATOM      7  O   UNL d   1      -1.860   1.336  -3.188  0.00  0.00    -0.526 OA
ATOM      8  H5  UNL d   1      -1.043   1.823  -3.389  0.00  0.00     0.418 HD
ENDBRANCH   4   7
TORSDOF 1
ENDMDL
