MODEL 1
REMARK minimizedAffinity 3.04043722
REMARK minimizedRMSD -1
REMARK  1 active torsions:
REMARK  status: ('A' for Active; 'I' for Inactive)
REMARK    1  A    between atoms: C3_4  and  O_7 
ROOT
ATOM      1  C   UNL d   1       2.592  -4.803  -5.169  0.00  0.00    -0.033 A 
ATOM      2  C1  UNL d   1       1.751  -3.890  -4.530  0.00  0.00     0.039 A 
ATOM      3  C2  UNL d   1       0.365  -4.029  -4.627  0.00  0.00    -0.080 A 
ATOM      4  C3  UNL d   1      -0.166  -5.083  -5.364  0.00  0.00     0.150 A 
ATOM      5  C4  UNL d   1       0.666  -5.999  -6.000  0.00  0.00    -0.007 A 
ATOM      6  C5  UNL d   1       2.050  -5.858  -5.903  0.00  0.00     0.039 A 
ENDROOT
BRANCH   4   7
ATOM      7  O   UNL d   1      -1.512  -5.257  -5.491  0.00  0.00    -0.526 OA
ATOM      8  H5  UNL d   1      -1.962  -4.534  -5.023  0.00  0.00     0.418 HD
ENDBRANCH   4   7
TORSDOF 1
ENDMDL
