MODEL 1
REMARK minimizedAffinity 14.2250128
REMARK minimizedRMSD -1
REMARK  0 active torsions:
REMARK  status: ('A' for Active; 'I' for Inactive)
ROOT
ATOM      1  C   UNL d   1      -1.401   1.522   2.249  0.00  0.00     0.020 A 
ATOM      2  C1  UNL d   1      -1.603   2.863   2.570  0.00  0.00     0.020 A 
ATOM      3  C2  UNL d   1      -2.799   3.266   3.168  0.00  0.00     0.034 A 
ATOM      4  C3  UNL d   1      -3.797   2.325   3.448  0.00  0.00     0.017 A 
ATOM      5  C4  UNL d   1      -3.594   0.979   3.125  0.00  0.00     0.017 A 
ATOM      6  C5  UNL d   1      -2.394   0.581   2.526  0.00  0.00     0.034 A 
ATOM      7 Cl   UNL d   1      -4.779  -0.239   3.439  0.00  0.00    -0.070 Cl
ATOM      8 Cl1  UNL d   1      -5.251   2.893   4.189  0.00  0.00    -0.070 Cl
ENDROOT
TORSDOF 0
ENDMDL
