MODEL 1
REMARK minimizedAffinity -2.21282649
REMARK minimizedRMSD -1
REMARK  0 active torsions:
REMARK  status: ('A' for Active; 'I' for Inactive)
ROOT
ATOM      1  C   UNL d   1       4.220  -4.574   0.754  0.00  0.00     0.020 A 
ATOM      2  C1  UNL d   1       5.348  -4.277  -0.010  0.00  0.00     0.020 A 
ATOM      3  C2  UNL d   1       5.226  -4.074  -1.386  0.00  0.00     0.034 A 
ATOM      4  C3  UNL d   1       3.973  -4.167  -2.003  0.00  0.00     0.017 A 
ATOM      5  C4  UNL d   1       2.841  -4.464  -1.235  0.00  0.00     0.017 A 
ATOM      6  C5  UNL d   1       2.969  -4.667   0.143  0.00  0.00     0.034 A 
ATOM      7 Cl   UNL d   1       1.262  -4.595  -1.925  0.00  0.00    -0.070 Cl
ATOM      8 Cl1  UNL d   1       3.895  -3.903  -3.708  0.00  0.00    -0.070 Cl
ENDROOT
TORSDOF 0
ENDMDL
