MODEL 1
REMARK minimizedAffinity 7.41968918
REMARK minimizedRMSD -1
REMARK  0 active torsions:
REMARK  status: ('A' for Active; 'I' for Inactive)
ROOT
ATOM      1  C   UNL d   1       2.138   2.762  -2.548  0.00  0.00     0.020 A 
ATOM      2  C1  UNL d   1       1.431   1.986  -3.466  0.00  0.00     0.020 A 
ATOM      3  C2  UNL d   1       1.423   0.595  -3.345  0.00  0.00     0.034 A 
ATOM      4  C3  UNL d   1       2.123  -0.025  -2.303  0.00  0.00     0.017 A 
ATOM      5  C4  UNL d   1       2.832   0.755  -1.382  0.00  0.00     0.017 A 
ATOM      6  C5  UNL d   1       2.837   2.147  -1.508  0.00  0.00     0.034 A 
ATOM      7 Cl   UNL d   1       3.719   0.062  -0.070  0.00  0.00    -0.070 Cl
ATOM      8 Cl1  UNL d   1       2.069  -1.749  -2.214  0.00  0.00    -0.070 Cl
ENDROOT
TORSDOF 0
ENDMDL
