MODEL 1
REMARK minimizedAffinity 1.09799337
REMARK minimizedRMSD -1
REMARK  0 active torsions:
REMARK  status: ('A' for Active; 'I' for Inactive)
ROOT
ATOM      1  C   UNL d   1       2.034   0.567  -1.271  0.00  0.00     0.020 A 
ATOM      2  C1  UNL d   1       2.744   1.383  -2.150  0.00  0.00     0.020 A 
ATOM      3  C2  UNL d   1       2.501   2.758  -2.176  0.00  0.00     0.034 A 
ATOM      4  C3  UNL d   1       1.546   3.321  -1.322  0.00  0.00     0.017 A 
ATOM      5  C4  UNL d   1       0.833   2.500  -0.440  0.00  0.00     0.017 A 
ATOM      6  C5  UNL d   1       1.080   1.124  -0.418  0.00  0.00     0.034 A 
ATOM      7 Cl   UNL d   1      -0.361   3.122   0.644  0.00  0.00    -0.070 Cl
ATOM      8 Cl1  UNL d   1       1.298   5.029  -1.408  0.00  0.00    -0.070 Cl
ENDROOT
TORSDOF 0
ENDMDL
