MODEL 1
REMARK minimizedAffinity 16.6495781
REMARK minimizedRMSD -1
REMARK  0 active torsions:
REMARK  status: ('A' for Active; 'I' for Inactive)
ROOT
ATOM      1  C   UNL d   1      -0.024   1.048   2.775  0.00  0.00     0.020 A 
ATOM      2  C1  UNL d   1       1.143   1.538   3.360  0.00  0.00     0.020 A 
ATOM      3  C2  UNL d   1       2.348   1.493   2.657  0.00  0.00     0.034 A 
ATOM      4  C3  UNL d   1       2.390   0.958   1.365  0.00  0.00     0.017 A 
ATOM      5  C4  UNL d   1       1.218   0.467   0.778  0.00  0.00     0.017 A 
ATOM      6  C5  UNL d   1       0.014   0.514   1.486  0.00  0.00     0.034 A 
ATOM      7 Cl   UNL d   1       1.191  -0.209  -0.813  0.00  0.00    -0.070 Cl
ATOM      8 Cl1  UNL d   1       3.916   0.935   0.554  0.00  0.00    -0.070 Cl
ENDROOT
TORSDOF 0
ENDMDL
