MODEL 1
REMARK minimizedAffinity 6.71376801
REMARK minimizedRMSD -1
REMARK  0 active torsions:
REMARK  status: ('A' for Active; 'I' for Inactive)
ROOT
ATOM      1  C   UNL d   1       1.480  -0.867  -3.088  0.00  0.00     0.020 A 
ATOM      2  C1  UNL d   1       1.551  -1.538  -1.867  0.00  0.00     0.020 A 
ATOM      3  C2  UNL d   1       1.919  -0.847  -0.711  0.00  0.00     0.034 A 
ATOM      4  C3  UNL d   1       2.218   0.519  -0.772  0.00  0.00     0.017 A 
ATOM      5  C4  UNL d   1       2.147   1.191  -1.997  0.00  0.00     0.017 A 
ATOM      6  C5  UNL d   1       1.777   0.495  -3.152  0.00  0.00     0.034 A 
ATOM      7 Cl   UNL d   1       2.501   2.876  -2.151  0.00  0.00    -0.070 Cl
ATOM      8 Cl1  UNL d   1       2.666   1.309   0.697  0.00  0.00    -0.070 Cl
ENDROOT
TORSDOF 0
ENDMDL
