MODEL 1
REMARK minimizedAffinity 0.40180999
REMARK minimizedRMSD -1
REMARK  0 active torsions:
REMARK  status: ('A' for Active; 'I' for Inactive)
ROOT
ATOM      1  C   UNL d   1       0.751   2.117  -0.392  0.00  0.00     0.020 A 
ATOM      2  C1  UNL d   1       1.949   2.116  -1.104  0.00  0.00     0.020 A 
ATOM      3  C2  UNL d   1       2.548   3.325  -1.464  0.00  0.00     0.034 A 
ATOM      4  C3  UNL d   1       1.948   4.540  -1.112  0.00  0.00     0.017 A 
ATOM      5  C4  UNL d   1       0.745   4.540  -0.397  0.00  0.00     0.017 A 
ATOM      6  C5  UNL d   1       0.150   3.326  -0.039  0.00  0.00     0.034 A 
ATOM      7 Cl   UNL d   1      -0.055   5.998   0.072  0.00  0.00    -0.070 Cl
ATOM      8 Cl1  UNL d   1       2.744   5.997  -1.591  0.00  0.00    -0.070 Cl
ENDROOT
TORSDOF 0
ENDMDL
