MODEL 1
REMARK minimizedAffinity 16.6730614
REMARK minimizedRMSD -1
REMARK  0 active torsions:
REMARK  status: ('A' for Active; 'I' for Inactive)
ROOT
ATOM      1  C   UNL d   1       2.947   0.169   0.196  0.00  0.00     0.020 A 
ATOM      2  C1  UNL d   1       1.790   0.470   0.912  0.00  0.00     0.020 A 
ATOM      3  C2  UNL d   1       0.537   0.294   0.321  0.00  0.00     0.034 A 
ATOM      4  C3  UNL d   1       0.439  -0.184  -0.991  0.00  0.00     0.017 A 
ATOM      5  C4  UNL d   1       1.601  -0.486  -1.709  0.00  0.00     0.017 A 
ATOM      6  C5  UNL d   1       2.853  -0.308  -1.112  0.00  0.00     0.034 A 
ATOM      7 Cl   UNL d   1       1.561  -1.081  -3.332  0.00  0.00    -0.070 Cl
ATOM      8 Cl1  UNL d   1      -1.143  -0.378  -1.659  0.00  0.00    -0.070 Cl
ENDROOT
TORSDOF 0
ENDMDL
