MODEL 1
REMARK minimizedAffinity 4.37785053
REMARK minimizedRMSD -1
REMARK  0 active torsions:
REMARK  status: ('A' for Active; 'I' for Inactive)
ROOT
ATOM      1  C   UNL d   1       2.424   0.499  -2.271  0.00  0.00     0.020 A 
ATOM      2  C1  UNL d   1       1.149  -0.049  -2.401  0.00  0.00     0.020 A 
ATOM      3  C2  UNL d   1       0.825  -1.231  -1.732  0.00  0.00     0.034 A 
ATOM      4  C3  UNL d   1       1.777  -1.870  -0.930  0.00  0.00     0.017 A 
ATOM      5  C4  UNL d   1       3.058  -1.319  -0.800  0.00  0.00     0.017 A 
ATOM      6  C5  UNL d   1       3.377  -0.135  -1.472  0.00  0.00     0.034 A 
ATOM      7 Cl   UNL d   1       4.286  -2.050   0.172  0.00  0.00    -0.070 Cl
ATOM      8 Cl1  UNL d   1       1.308  -3.328  -0.132  0.00  0.00    -0.070 Cl
ENDROOT
TORSDOF 0
ENDMDL
