MODEL 1
REMARK minimizedAffinity 3.73533964
REMARK minimizedRMSD -1
REMARK  0 active torsions:
REMARK  status: ('A' for Active; 'I' for Inactive)
ROOT
ATOM      1  C   UNL d   1       1.510   2.251  -1.358  0.00  0.00     0.020 A 
ATOM      2  C1  UNL d   1       0.133   2.251  -1.144  0.00  0.00     0.020 A 
ATOM      3  C2  UNL d   1      -0.509   3.419  -0.727  0.00  0.00     0.034 A 
ATOM      4  C3  UNL d   1       0.228   4.592  -0.522  0.00  0.00     0.017 A 
ATOM      5  C4  UNL d   1       1.611   4.590  -0.737  0.00  0.00     0.017 A 
ATOM      6  C5  UNL d   1       2.248   3.418  -1.155  0.00  0.00     0.034 A 
ATOM      7 Cl   UNL d   1       2.586   5.998  -0.506  0.00  0.00    -0.070 Cl
ATOM      8 Cl1  UNL d   1      -0.631   6.000  -0.006  0.00  0.00    -0.070 Cl
ENDROOT
TORSDOF 0
ENDMDL
