MODEL 1
REMARK minimizedAffinity 19.7947884
REMARK minimizedRMSD -1
REMARK  0 active torsions:
REMARK  status: ('A' for Active; 'I' for Inactive)
ROOT
ATOM      1  C   UNL d   1       1.122  -1.444  -2.267  0.00  0.00     0.020 A 
ATOM      2  C1  UNL d   1       0.949  -0.103  -1.924  0.00  0.00     0.020 A 
ATOM      3  C2  UNL d   1       1.718   0.460  -0.903  0.00  0.00     0.034 A 
ATOM      4  C3  UNL d   1       2.662  -0.316  -0.222  0.00  0.00     0.017 A 
ATOM      5  C4  UNL d   1       2.834  -1.662  -0.567  0.00  0.00     0.017 A 
ATOM      6  C5  UNL d   1       2.062  -2.221  -1.590  0.00  0.00     0.034 A 
ATOM      7 Cl   UNL d   1       3.980  -2.683   0.227  0.00  0.00    -0.070 Cl
ATOM      8 Cl1  UNL d   1       3.578   0.446   1.029  0.00  0.00    -0.070 Cl
ENDROOT
TORSDOF 0
ENDMDL
