MODEL 1
REMARK minimizedAffinity -1.87123144
REMARK minimizedRMSD -1
REMARK  0 active torsions:
REMARK  status: ('A' for Active; 'I' for Inactive)
ROOT
ATOM      1  C   UNL d   1      -5.353   5.109  -5.954  0.00  0.00     0.020 A 
ATOM      2  C1  UNL d   1      -4.265   5.980  -5.978  0.00  0.00     0.020 A 
ATOM      3  C2  UNL d   1      -2.964   5.472  -5.989  0.00  0.00     0.034 A 
ATOM      4  C3  UNL d   1      -2.749   4.089  -5.975  0.00  0.00     0.017 A 
ATOM      5  C4  UNL d   1      -3.842   3.216  -5.951  0.00  0.00     0.017 A 
ATOM      6  C5  UNL d   1      -5.142   3.730  -5.940  0.00  0.00     0.034 A 
ATOM      7 Cl   UNL d   1      -3.655   1.498  -5.933  0.00  0.00    -0.070 Cl
ATOM      8 Cl1  UNL d   1      -1.114   3.531  -5.990  0.00  0.00    -0.070 Cl
ENDROOT
TORSDOF 0
ENDMDL
