MODEL 1
REMARK minimizedAffinity 6.79471922
REMARK minimizedRMSD -1
REMARK  0 active torsions:
REMARK  status: ('A' for Active; 'I' for Inactive)
ROOT
ATOM      1  C   UNL d   1      -5.074  -2.046   3.252  0.00  0.00     0.020 A 
ATOM      2  C1  UNL d   1      -6.000  -2.939   2.714  0.00  0.00     0.020 A 
ATOM      3  C2  UNL d   1      -5.568  -4.153   2.177  0.00  0.00     0.034 A 
ATOM      4  C3  UNL d   1      -4.206  -4.478   2.176  0.00  0.00     0.017 A 
ATOM      5  C4  UNL d   1      -3.278  -3.581   2.716  0.00  0.00     0.017 A 
ATOM      6  C5  UNL d   1      -3.716  -2.366   3.253  0.00  0.00     0.034 A 
ATOM      7 Cl   UNL d   1      -1.581  -3.911   2.750  0.00  0.00    -0.070 Cl
ATOM      8 Cl1  UNL d   1      -3.743  -5.997   1.495  0.00  0.00    -0.070 Cl
ENDROOT
TORSDOF 0
ENDMDL
