MODEL 1
REMARK minimizedAffinity 6.29666233
REMARK minimizedRMSD -1
REMARK  0 active torsions:
REMARK  status: ('A' for Active; 'I' for Inactive)
ROOT
ATOM      1  C   UNL d   1      -2.733  -3.273  -5.998  0.00  0.00     0.020 A 
ATOM      2  C1  UNL d   1      -3.491  -4.281  -5.403  0.00  0.00     0.020 A 
ATOM      3  C2  UNL d   1      -3.141  -4.764  -4.140  0.00  0.00     0.034 A 
ATOM      4  C3  UNL d   1      -2.031  -4.240  -3.469  0.00  0.00     0.017 A 
ATOM      5  C4  UNL d   1      -1.271  -3.228  -4.067  0.00  0.00     0.017 A 
ATOM      6  C5  UNL d   1      -1.625  -2.748  -5.332  0.00  0.00     0.034 A 
ATOM      7 Cl   UNL d   1       0.113  -2.532  -3.300  0.00  0.00    -0.070 Cl
ATOM      8 Cl1  UNL d   1      -1.657  -4.884  -1.910  0.00  0.00    -0.070 Cl
ENDROOT
TORSDOF 0
ENDMDL
