MODEL 1
REMARK minimizedAffinity 11.588089
REMARK minimizedRMSD -1
REMARK  0 active torsions:
REMARK  status: ('A' for Active; 'I' for Inactive)
ROOT
ATOM      1  C   UNL d   1      -1.746  -4.338  -2.174  0.00  0.00     0.020 A 
ATOM      2  C1  UNL d   1      -1.121  -3.092  -2.174  0.00  0.00     0.020 A 
ATOM      3  C2  UNL d   1      -0.990  -2.377  -3.366  0.00  0.00     0.034 A 
ATOM      4  C3  UNL d   1      -1.486  -2.906  -4.563  0.00  0.00     0.017 A 
ATOM      5  C4  UNL d   1      -2.114  -4.157  -4.562  0.00  0.00     0.017 A 
ATOM      6  C5  UNL d   1      -2.242  -4.869  -3.366  0.00  0.00     0.034 A 
ATOM      7 Cl   UNL d   1      -2.751  -4.875  -5.999  0.00  0.00    -0.070 Cl
ATOM      8 Cl1  UNL d   1      -1.290  -1.966  -6.000  0.00  0.00    -0.070 Cl
ENDROOT
TORSDOF 0
ENDMDL
