MODEL 1
REMARK minimizedAffinity 9.4297266
REMARK minimizedRMSD -1
REMARK  0 active torsions:
REMARK  status: ('A' for Active; 'I' for Inactive)
ROOT
ATOM      1  C   UNL d   1      -3.012  -3.123   3.881  0.00  0.00     0.020 A 
ATOM      2  C1  UNL d   1      -2.936  -3.868   2.705  0.00  0.00     0.020 A 
ATOM      3  C2  UNL d   1      -1.766  -3.853   1.943  0.00  0.00     0.034 A 
ATOM      4  C3  UNL d   1      -0.666  -3.093   2.358  0.00  0.00     0.017 A 
ATOM      5  C4  UNL d   1      -0.743  -2.346   3.539  0.00  0.00     0.017 A 
ATOM      6  C5  UNL d   1      -1.917  -2.364   4.297  0.00  0.00     0.034 A 
ATOM      7 Cl   UNL d   1       0.573  -1.384   4.114  0.00  0.00    -0.070 Cl
ATOM      8 Cl1  UNL d   1       0.750  -3.122   1.367  0.00  0.00    -0.070 Cl
ENDROOT
TORSDOF 0
ENDMDL
