MODEL 1
REMARK minimizedAffinity 5.82243109
REMARK minimizedRMSD -1
REMARK  0 active torsions:
REMARK  status: ('A' for Active; 'I' for Inactive)
ROOT
ATOM      1  C   UNL d   1       1.615   2.427  -2.638  0.00  0.00     0.020 A 
ATOM      2  C1  UNL d   1       1.611   1.528  -1.572  0.00  0.00     0.020 A 
ATOM      3  C2  UNL d   1       1.606   2.002  -0.259  0.00  0.00     0.034 A 
ATOM      4  C3  UNL d   1       1.604   3.379  -0.007  0.00  0.00     0.017 A 
ATOM      5  C4  UNL d   1       1.608   4.281  -1.078  0.00  0.00     0.017 A 
ATOM      6  C5  UNL d   1       1.613   3.800  -2.391  0.00  0.00     0.034 A 
ATOM      7 Cl   UNL d   1       1.606   5.993  -0.846  0.00  0.00    -0.070 Cl
ATOM      8 Cl1  UNL d   1       1.597   3.894   1.642  0.00  0.00    -0.070 Cl
ENDROOT
TORSDOF 0
ENDMDL
