MODEL 1
REMARK minimizedAffinity 4.85679865
REMARK minimizedRMSD -1
REMARK  0 active torsions:
REMARK  status: ('A' for Active; 'I' for Inactive)
ROOT
ATOM      1  C   UNL d   1      -2.671  -3.443   2.334  0.00  0.00     0.020 A 
ATOM      2  C1  UNL d   1      -1.606  -2.922   3.068  0.00  0.00     0.020 A 
ATOM      3  C2  UNL d   1      -0.373  -2.703   2.451  0.00  0.00     0.034 A 
ATOM      4  C3  UNL d   1      -0.201  -3.006   1.095  0.00  0.00     0.017 A 
ATOM      5  C4  UNL d   1      -1.271  -3.530   0.359  0.00  0.00     0.017 A 
ATOM      6  C5  UNL d   1      -2.503  -3.746   0.982  0.00  0.00     0.034 A 
ATOM      7 Cl   UNL d   1      -1.135  -3.928  -1.317  0.00  0.00    -0.070 Cl
ATOM      8 Cl1  UNL d   1       1.351  -2.710   0.396  0.00  0.00    -0.070 Cl
ENDROOT
TORSDOF 0
ENDMDL
