MODEL 1
REMARK minimizedAffinity 3.66490602
REMARK minimizedRMSD -1
REMARK  0 active torsions:
REMARK  status: ('A' for Active; 'I' for Inactive)
ROOT
ATOM      1  C   UNL d   1       5.051  -2.310   5.943  0.00  0.00    -0.002 A 
ATOM      2  C1  UNL d   1       5.985  -2.266   4.917  0.00  0.00     0.010 A 
ATOM      3  C2  UNL d   1       5.709  -1.580   3.733  0.00  0.00     0.041 A 
ATOM      4  C3  UNL d   1       4.466  -0.930   3.597  0.00  0.00    -0.075 A 
ATOM      5  S   UNL d   1       3.909  -0.028   2.237  0.00  0.00     0.015 SA
ATOM      6  C4  UNL d   1       2.419   0.322   2.986  0.00  0.00     0.022 A 
ATOM      7  C5  UNL d   1       2.331  -0.228   4.243  0.00  0.00     0.026 A 
ATOM      8  C6  UNL d   1       3.510  -0.958   4.616  0.00  0.00    -0.082 A 
ATOM      9  C7  UNL d   1       3.820  -1.664   5.804  0.00  0.00     0.045 A 
ENDROOT
TORSDOF 0
ENDMDL
