MODEL 1
REMARK minimizedAffinity 11.2610531
REMARK minimizedRMSD -1
REMARK  0 active torsions:
REMARK  status: ('A' for Active; 'I' for Inactive)
ROOT
ATOM      1  C   UNL d   1       3.116  -5.964  -1.237  0.00  0.00    -0.002 A 
ATOM      2  C1  UNL d   1       4.488  -5.962  -1.445  0.00  0.00     0.010 A 
ATOM      3  C2  UNL d   1       5.010  -5.971  -2.740  0.00  0.00     0.041 A 
ATOM      4  C3  UNL d   1       4.121  -5.981  -3.833  0.00  0.00    -0.075 A 
ATOM      5  S   UNL d   1       4.533  -5.992  -5.507  0.00  0.00     0.015 SA
ATOM      6  C4  UNL d   1       2.897  -6.000  -5.986  0.00  0.00     0.022 A 
ATOM      7  C5  UNL d   1       2.044  -5.994  -4.908  0.00  0.00     0.026 A 
ATOM      8  C6  UNL d   1       2.736  -5.982  -3.649  0.00  0.00    -0.082 A 
ATOM      9  C7  UNL d   1       2.237  -5.974  -2.324  0.00  0.00     0.045 A 
ENDROOT
TORSDOF 0
ENDMDL
