MODEL 1
REMARK minimizedAffinity 5.96503162
REMARK minimizedRMSD -1
REMARK  0 active torsions:
REMARK  status: ('A' for Active; 'I' for Inactive)
ROOT
ATOM      1  C   UNL d   1       2.651  -3.180   3.565  0.00  0.00    -0.002 A 
ATOM      2  C1  UNL d   1       1.856  -2.424   4.415  0.00  0.00     0.010 A 
ATOM      3  C2  UNL d   1       1.615  -1.075   4.150  0.00  0.00     0.041 A 
ATOM      4  C3  UNL d   1       2.190  -0.492   3.003  0.00  0.00    -0.075 A 
ATOM      5  S   UNL d   1       2.032   1.142   2.477  0.00  0.00     0.015 SA
ATOM      6  C4  UNL d   1       3.015   0.875   1.111  0.00  0.00     0.022 A 
ATOM      7  C5  UNL d   1       3.462  -0.423   1.042  0.00  0.00     0.026 A 
ATOM      8  C6  UNL d   1       2.994  -1.233   2.132  0.00  0.00    -0.082 A 
ATOM      9  C7  UNL d   1       3.220  -2.598   2.429  0.00  0.00     0.045 A 
ENDROOT
TORSDOF 0
ENDMDL
