MODEL 1
REMARK minimizedAffinity 11.9746847
REMARK minimizedRMSD -1
REMARK  0 active torsions:
REMARK  status: ('A' for Active; 'I' for Inactive)
ROOT
ATOM      1  C   UNL d   1       3.104  -2.978   5.515  0.00  0.00    -0.002 A 
ATOM      2  C1  UNL d   1       3.437  -3.833   4.474  0.00  0.00     0.010 A 
ATOM      3  C2  UNL d   1       3.254  -3.440   3.147  0.00  0.00     0.041 A 
ATOM      4  C3  UNL d   1       2.728  -2.160   2.881  0.00  0.00    -0.075 A 
ATOM      5  S   UNL d   1       2.418  -1.464   1.334  0.00  0.00     0.015 SA
ATOM      6  C4  UNL d   1       1.838  -0.015   2.020  0.00  0.00     0.022 A 
ATOM      7  C5  UNL d   1       1.872  -0.045   3.394  0.00  0.00     0.026 A 
ATOM      8  C6  UNL d   1       2.386  -1.281   3.913  0.00  0.00    -0.082 A 
ATOM      9  C7  UNL d   1       2.582  -1.710   5.248  0.00  0.00     0.045 A 
ENDROOT
TORSDOF 0
ENDMDL
