MODEL 1
REMARK minimizedAffinity 9.62068367
REMARK minimizedRMSD -1
REMARK  0 active torsions:
REMARK  status: ('A' for Active; 'I' for Inactive)
ROOT
ATOM      1  C   UNL d   1       2.436  -4.051   4.101  0.00  0.00    -0.002 A 
ATOM      2  C1  UNL d   1       1.737  -3.153   4.895  0.00  0.00     0.010 A 
ATOM      3  C2  UNL d   1       1.433  -1.874   4.423  0.00  0.00     0.041 A 
ATOM      4  C3  UNL d   1       1.845  -1.511   3.126  0.00  0.00    -0.075 A 
ATOM      5  S   UNL d   1       1.584  -0.000   2.337  0.00  0.00     0.015 SA
ATOM      6  C4  UNL d   1       2.393  -0.512   0.927  0.00  0.00     0.022 A 
ATOM      7  C5  UNL d   1       2.858  -1.801   1.038  0.00  0.00     0.026 A 
ATOM      8  C6  UNL d   1       2.549  -2.398   2.307  0.00  0.00    -0.082 A 
ATOM      9  C7  UNL d   1       2.843  -3.687   2.815  0.00  0.00     0.045 A 
ENDROOT
TORSDOF 0
ENDMDL
