MODEL 1
REMARK minimizedAffinity 19.022707
REMARK minimizedRMSD -1
REMARK  0 active torsions:
REMARK  status: ('A' for Active; 'I' for Inactive)
ROOT
ATOM      1  C   UNL d   1      -5.920   3.642   0.047  0.00  0.00    -0.002 A 
ATOM      2  C1  UNL d   1      -5.999   2.259  -0.037  0.00  0.00     0.010 A 
ATOM      3  C2  UNL d   1      -5.999   1.476   1.119  0.00  0.00     0.041 A 
ATOM      4  C3  UNL d   1      -5.920   2.113   2.373  0.00  0.00    -0.075 A 
ATOM      5  S   UNL d   1      -5.906   1.359   3.923  0.00  0.00     0.015 SA
ATOM      6  C4  UNL d   1      -5.796   2.854   4.733  0.00  0.00     0.022 A 
ATOM      7  C5  UNL d   1      -5.770   3.914   3.858  0.00  0.00     0.026 A 
ATOM      8  C6  UNL d   1      -5.841   3.505   2.483  0.00  0.00    -0.082 A 
ATOM      9  C7  UNL d   1      -5.842   4.270   1.292  0.00  0.00     0.045 A 
ENDROOT
TORSDOF 0
ENDMDL
