MODEL 1
REMARK minimizedAffinity 7.25134945
REMARK minimizedRMSD -1
REMARK  1 active torsions:
REMARK  status: ('A' for Active; 'I' for Inactive)
REMARK    1  A    between atoms: C1_2  and  C2_3 
ROOT
ATOM      1  C2  UNL d   1      -4.067   1.960   4.598  0.00  0.00    -0.081 A 
ATOM      2  C3  UNL d   1      -4.039   2.187   3.217  0.00  0.00     0.006 A 
ATOM      3  C4  UNL d   1      -3.130   1.505   2.405  0.00  0.00     0.002 A 
ATOM      4  C5  UNL d   1      -2.240   0.579   2.959  0.00  0.00    -0.080 A 
ATOM      5  C6  UNL d   1      -1.280  -0.183   2.095  0.00  0.00     0.076 C 
ATOM      6  C7  UNL d   1      -2.256   0.364   4.341  0.00  0.00     0.002 A 
ATOM      7  C8  UNL d   1      -3.164   1.047   5.154  0.00  0.00     0.006 A 
ENDROOT
BRANCH   1   8
ATOM      8  C1  UNL d   1      -5.090   2.646   5.467  0.00  0.00     0.054 C 
ATOM      9  C   UNL d   1      -5.049   4.156   5.283  0.00  0.00     0.018 C 
ENDBRANCH   1   8
TORSDOF 1
ENDMDL
