MODEL 1
REMARK minimizedAffinity 11.5418425
REMARK minimizedRMSD -1
REMARK  1 active torsions:
REMARK  status: ('A' for Active; 'I' for Inactive)
REMARK    1  A    between atoms: C1_2  and  C2_3 
ROOT
ATOM      1  C2  UNL d   1      -3.638   5.565  -3.959  0.00  0.00    -0.081 A 
ATOM      2  C3  UNL d   1      -2.620   4.881  -3.285  0.00  0.00     0.006 A 
ATOM      3  C4  UNL d   1      -1.437   4.542  -3.945  0.00  0.00     0.002 A 
ATOM      4  C5  UNL d   1      -1.248   4.888  -5.287  0.00  0.00    -0.080 A 
ATOM      5  C6  UNL d   1       0.029   4.557  -5.999  0.00  0.00     0.076 C 
ATOM      6  C7  UNL d   1      -2.273   5.557  -5.966  0.00  0.00     0.002 A 
ATOM      7  C8  UNL d   1      -3.457   5.895  -5.307  0.00  0.00     0.006 A 
ENDROOT
BRANCH   1   8
ATOM      8  C1  UNL d   1      -4.889   5.989  -3.232  0.00  0.00     0.054 C 
ATOM      9  C   UNL d   1      -4.913   5.446  -1.810  0.00  0.00     0.018 C 
ENDBRANCH   1   8
TORSDOF 1
ENDMDL
