MODEL 1
REMARK minimizedAffinity 6.92989063
REMARK minimizedRMSD -1
REMARK  1 active torsions:
REMARK  status: ('A' for Active; 'I' for Inactive)
REMARK    1  A    between atoms: C1_2  and  C2_3 
ROOT
ATOM      1  C2  UNL d   1      -3.102  -1.505  -0.348  0.00  0.00    -0.081 A 
ATOM      2  C3  UNL d   1      -2.401  -0.466   0.277  0.00  0.00     0.006 A 
ATOM      3  C4  UNL d   1      -1.407  -0.747   1.217  0.00  0.00     0.002 A 
ATOM      4  C5  UNL d   1      -1.091  -2.070   1.542  0.00  0.00    -0.080 A 
ATOM      5  C6  UNL d   1      -0.005  -2.386   2.526  0.00  0.00     0.076 C 
ATOM      6  C7  UNL d   1      -1.802  -3.108   0.930  0.00  0.00     0.002 A 
ATOM      7  C8  UNL d   1      -2.797  -2.828  -0.009  0.00  0.00     0.006 A 
ENDROOT
BRANCH   1   8
ATOM      8  C1  UNL d   1      -4.130  -1.207  -1.409  0.00  0.00     0.054 C 
ATOM      9  C   UNL d   1      -3.470  -0.807  -2.721  0.00  0.00     0.018 C 
ENDBRANCH   1   8
TORSDOF 1
ENDMDL
