MODEL 1
REMARK minimizedAffinity 10.0591021
REMARK minimizedRMSD -1
REMARK  1 active torsions:
REMARK  status: ('A' for Active; 'I' for Inactive)
REMARK    1  A    between atoms: C1_2  and  C2_3 
ROOT
ATOM      1  C2  UNL d   1       3.284   3.364  -3.219  0.00  0.00    -0.081 A 
ATOM      2  C3  UNL d   1       2.582   4.576  -3.227  0.00  0.00     0.006 A 
ATOM      3  C4  UNL d   1       1.494   4.770  -2.373  0.00  0.00     0.002 A 
ATOM      4  C5  UNL d   1       1.095   3.759  -1.491  0.00  0.00    -0.080 A 
ATOM      5  C6  UNL d   1      -0.053   3.966  -0.548  0.00  0.00     0.076 C 
ATOM      6  C7  UNL d   1       1.785   2.542  -1.496  0.00  0.00     0.002 A 
ATOM      7  C8  UNL d   1       2.872   2.348  -2.350  0.00  0.00     0.006 A 
ENDROOT
BRANCH   1   8
ATOM      8  C1  UNL d   1       4.498   3.175  -4.093  0.00  0.00     0.054 C 
ATOM      9  C   UNL d   1       5.633   4.097  -3.670  0.00  0.00     0.018 C 
ENDBRANCH   1   8
TORSDOF 1
ENDMDL
