MODEL 1
REMARK minimizedAffinity 2.39952159
REMARK minimizedRMSD -1
REMARK  1 active torsions:
REMARK  status: ('A' for Active; 'I' for Inactive)
REMARK    1  A    between atoms: C1_2  and  C2_3 
ROOT
ATOM      1  C2  UNL d   1      -2.831  -1.115   3.004  0.00  0.00    -0.081 A 
ATOM      2  C3  UNL d   1      -2.992  -0.307   4.136  0.00  0.00     0.006 A 
ATOM      3  C4  UNL d   1      -3.952  -0.622   5.100  0.00  0.00     0.002 A 
ATOM      4  C5  UNL d   1      -4.761  -1.754   4.953  0.00  0.00    -0.080 A 
ATOM      5  C6  UNL d   1      -5.775  -2.120   5.996  0.00  0.00     0.076 C 
ATOM      6  C7  UNL d   1      -4.612  -2.552   3.814  0.00  0.00     0.002 A 
ATOM      7  C8  UNL d   1      -3.653  -2.237   2.849  0.00  0.00     0.006 A 
ENDROOT
BRANCH   1   8
ATOM      8  C1  UNL d   1      -1.753  -0.815   1.995  0.00  0.00     0.054 C 
ATOM      9  C   UNL d   1      -0.737  -1.946   1.916  0.00  0.00     0.018 C 
ENDBRANCH   1   8
TORSDOF 1
ENDMDL
