MODEL 1
REMARK minimizedAffinity 10.6387663
REMARK minimizedRMSD -1
REMARK  1 active torsions:
REMARK  status: ('A' for Active; 'I' for Inactive)
REMARK    1  A    between atoms: C1_2  and  C2_3 
ROOT
ATOM      1  C2  UNL d   1      -5.336  -2.364   3.058  0.00  0.00    -0.081 A 
ATOM      2  C3  UNL d   1      -5.730  -2.305   4.400  0.00  0.00     0.006 A 
ATOM      3  C4  UNL d   1      -5.958  -3.479   5.123  0.00  0.00     0.002 A 
ATOM      4  C5  UNL d   1      -5.788  -4.729   4.519  0.00  0.00    -0.080 A 
ATOM      5  C6  UNL d   1      -6.000  -5.996   5.293  0.00  0.00     0.076 C 
ATOM      6  C7  UNL d   1      -5.411  -4.788   3.173  0.00  0.00     0.002 A 
ATOM      7  C8  UNL d   1      -5.183  -3.615   2.449  0.00  0.00     0.006 A 
ENDROOT
BRANCH   1   8
ATOM      8  C1  UNL d   1      -5.027  -1.102   2.294  0.00  0.00     0.054 C 
ATOM      9  C   UNL d   1      -3.860  -0.350   2.917  0.00  0.00     0.018 C 
ENDBRANCH   1   8
TORSDOF 1
ENDMDL
