MODEL 1
REMARK minimizedAffinity 5.285357
REMARK minimizedRMSD -1
REMARK  1 active torsions:
REMARK  status: ('A' for Active; 'I' for Inactive)
REMARK    1  A    between atoms: C1_2  and  C2_3 
ROOT
ATOM      1  C2  UNL d   1      -4.518  -2.596   1.521  0.00  0.00    -0.081 A 
ATOM      2  C3  UNL d   1      -3.308  -2.981   0.930  0.00  0.00     0.006 A 
ATOM      3  C4  UNL d   1      -2.239  -2.085   0.859  0.00  0.00     0.002 A 
ATOM      4  C5  UNL d   1      -2.359  -0.793   1.383  0.00  0.00    -0.080 A 
ATOM      5  C6  UNL d   1      -1.209   0.168   1.340  0.00  0.00     0.076 C 
ATOM      6  C7  UNL d   1      -3.573  -0.403   1.958  0.00  0.00     0.002 A 
ATOM      7  C8  UNL d   1      -4.643  -1.298   2.029  0.00  0.00     0.006 A 
ENDROOT
BRANCH   1   8
ATOM      8  C1  UNL d   1      -5.651  -3.581   1.658  0.00  0.00     0.054 C 
ATOM      9  C   UNL d   1      -5.880  -3.962   3.114  0.00  0.00     0.018 C 
ENDBRANCH   1   8
TORSDOF 1
ENDMDL
