MODEL 1
REMARK minimizedAffinity 12.6167841
REMARK minimizedRMSD -1
REMARK  1 active torsions:
REMARK  status: ('A' for Active; 'I' for Inactive)
REMARK    1  A    between atoms: C1_2  and  C2_3 
ROOT
ATOM      1  C2  UNL d   1       3.658   3.007  -3.437  0.00  0.00    -0.081 A 
ATOM      2  C3  UNL d   1       2.342   2.541  -3.332  0.00  0.00     0.006 A 
ATOM      3  C4  UNL d   1       1.932   1.826  -2.204  0.00  0.00     0.002 A 
ATOM      4  C5  UNL d   1       2.828   1.571  -1.161  0.00  0.00    -0.080 A 
ATOM      5  C6  UNL d   1       2.393   0.830   0.069  0.00  0.00     0.076 C 
ATOM      6  C7  UNL d   1       4.148   2.020  -1.274  0.00  0.00     0.002 A 
ATOM      7  C8  UNL d   1       4.559   2.735  -2.401  0.00  0.00     0.006 A 
ENDROOT
BRANCH   1   8
ATOM      8  C1  UNL d   1       4.086   3.834  -4.622  0.00  0.00     0.054 C 
ATOM      9  C   UNL d   1       5.444   3.389  -5.147  0.00  0.00     0.018 C 
ENDBRANCH   1   8
TORSDOF 1
ENDMDL
