MODEL 1
REMARK minimizedAffinity 9.95477009
REMARK minimizedRMSD -1
REMARK  1 active torsions:
REMARK  status: ('A' for Active; 'I' for Inactive)
REMARK    1  A    between atoms: C1_2  and  C2_3 
ROOT
ATOM      1  C2  UNL d   1       4.422   4.703  -2.303  0.00  0.00    -0.081 A 
ATOM      2  C3  UNL d   1       4.454   3.363  -1.896  0.00  0.00     0.006 A 
ATOM      3  C4  UNL d   1       4.565   3.038  -0.542  0.00  0.00     0.002 A 
ATOM      4  C5  UNL d   1       4.638   4.045   0.427  0.00  0.00    -0.080 A 
ATOM      5  C6  UNL d   1       4.727   3.709   1.886  0.00  0.00     0.076 C 
ATOM      6  C7  UNL d   1       4.623   5.382   0.018  0.00  0.00     0.002 A 
ATOM      7  C8  UNL d   1       4.513   5.709  -1.335  0.00  0.00     0.006 A 
ENDROOT
BRANCH   1   8
ATOM      8  C1  UNL d   1       4.237   5.057  -3.757  0.00  0.00     0.054 C 
ATOM      9  C   UNL d   1       4.920   4.044  -4.665  0.00  0.00     0.018 C 
ENDBRANCH   1   8
TORSDOF 1
ENDMDL
