MODEL 1
REMARK minimizedAffinity 10.7595358
REMARK minimizedRMSD -1
REMARK  1 active torsions:
REMARK  status: ('A' for Active; 'I' for Inactive)
REMARK    1  A    between atoms: C1_2  and  C2_3 
ROOT
ATOM      1  C2  UNL d   1       3.522   3.091  -3.280  0.00  0.00    -0.081 A 
ATOM      2  C3  UNL d   1       4.441   2.987  -2.228  0.00  0.00     0.006 A 
ATOM      3  C4  UNL d   1       4.081   2.358  -1.034  0.00  0.00     0.002 A 
ATOM      4  C5  UNL d   1       2.801   1.817  -0.873  0.00  0.00    -0.080 A 
ATOM      5  C6  UNL d   1       2.413   1.114   0.393  0.00  0.00     0.076 C 
ATOM      6  C7  UNL d   1       1.878   1.937  -1.917  0.00  0.00     0.002 A 
ATOM      7  C8  UNL d   1       2.236   2.565  -3.112  0.00  0.00     0.006 A 
ENDROOT
BRANCH   1   8
ATOM      8  C1  UNL d   1       3.927   3.710  -4.593  0.00  0.00     0.054 C 
ATOM      9  C   UNL d   1       5.335   4.282  -4.524  0.00  0.00     0.018 C 
ENDBRANCH   1   8
TORSDOF 1
ENDMDL
