MODEL 1
REMARK minimizedAffinity 16.5832329
REMARK minimizedRMSD -1
REMARK  1 active torsions:
REMARK  status: ('A' for Active; 'I' for Inactive)
REMARK    1  A    between atoms: C1_2  and  C2_3 
ROOT
ATOM      1  C2  UNL d   1      -5.108  -5.037   3.752  0.00  0.00    -0.081 A 
ATOM      2  C3  UNL d   1      -4.890  -3.744   4.243  0.00  0.00     0.006 A 
ATOM      3  C4  UNL d   1      -4.112  -2.834   3.524  0.00  0.00     0.002 A 
ATOM      4  C5  UNL d   1      -3.546  -3.199   2.298  0.00  0.00    -0.080 A 
ATOM      5  C6  UNL d   1      -2.733  -2.222   1.501  0.00  0.00     0.076 C 
ATOM      6  C7  UNL d   1      -3.748  -4.496   1.815  0.00  0.00     0.002 A 
ATOM      7  C8  UNL d   1      -4.526  -5.407   2.534  0.00  0.00     0.006 A 
ENDROOT
BRANCH   1   8
ATOM      8  C1  UNL d   1      -6.000  -6.000   4.494  0.00  0.00     0.054 C 
ATOM      9  C   UNL d   1      -5.807  -5.884   5.999  0.00  0.00     0.018 C 
ENDBRANCH   1   8
TORSDOF 1
ENDMDL
