MODEL 1
REMARK minimizedAffinity 14.4525127
REMARK minimizedRMSD -1
REMARK  1 active torsions:
REMARK  status: ('A' for Active; 'I' for Inactive)
REMARK    1  A    between atoms: C1_2  and  C2_3 
ROOT
ATOM      1  C2  UNL d   1      -3.144   1.157   3.666  0.00  0.00    -0.081 A 
ATOM      2  C3  UNL d   1      -3.327   1.007   2.286  0.00  0.00     0.006 A 
ATOM      3  C4  UNL d   1      -2.784  -0.092   1.615  0.00  0.00     0.002 A 
ATOM      4  C5  UNL d   1      -2.057  -1.061   2.314  0.00  0.00    -0.080 A 
ATOM      5  C6  UNL d   1      -1.495  -2.261   1.611  0.00  0.00     0.076 C 
ATOM      6  C7  UNL d   1      -1.859  -0.902   3.690  0.00  0.00     0.002 A 
ATOM      7  C8  UNL d   1      -2.401   0.196   4.361  0.00  0.00     0.006 A 
ENDROOT
BRANCH   1   8
ATOM      8  C1  UNL d   1      -3.783   2.307   4.403  0.00  0.00     0.054 C 
ATOM      9  C   UNL d   1      -5.031   1.859   5.151  0.00  0.00     0.018 C 
ENDBRANCH   1   8
TORSDOF 1
ENDMDL
