MODEL 1
REMARK minimizedAffinity 14.0891647
REMARK minimizedRMSD -1
REMARK  1 active torsions:
REMARK  status: ('A' for Active; 'I' for Inactive)
REMARK    1  A    between atoms: C1_2  and  C2_3 
ROOT
ATOM      1  C2  UNL d   1       3.847   3.315  -2.959  0.00  0.00    -0.081 A 
ATOM      2  C3  UNL d   1       3.953   2.281  -2.020  0.00  0.00     0.006 A 
ATOM      3  C4  UNL d   1       2.827   1.543  -1.650  0.00  0.00     0.002 A 
ATOM      4  C5  UNL d   1       1.578   1.819  -2.218  0.00  0.00    -0.080 A 
ATOM      5  C6  UNL d   1       0.367   1.014  -1.852  0.00  0.00     0.076 C 
ATOM      6  C7  UNL d   1       1.469   2.863  -3.143  0.00  0.00     0.002 A 
ATOM      7  C8  UNL d   1       2.595   3.602  -3.513  0.00  0.00     0.006 A 
ENDROOT
BRANCH   1   8
ATOM      8  C1  UNL d   1       5.071   4.070  -3.409  0.00  0.00     0.054 C 
ATOM      9  C   UNL d   1       5.849   4.620  -2.221  0.00  0.00     0.018 C 
ENDBRANCH   1   8
TORSDOF 1
ENDMDL
