MODEL 1
REMARK minimizedAffinity 12.1085501
REMARK minimizedRMSD -1
REMARK  1 active torsions:
REMARK  status: ('A' for Active; 'I' for Inactive)
REMARK    1  A    between atoms: C1_2  and  C2_3 
ROOT
ATOM      1  C2  UNL d   1      -3.796   0.137   1.459  0.00  0.00    -0.081 A 
ATOM      2  C3  UNL d   1      -2.943   0.776   2.368  0.00  0.00     0.006 A 
ATOM      3  C4  UNL d   1      -1.752   0.168   2.769  0.00  0.00     0.002 A 
ATOM      4  C5  UNL d   1      -1.389  -1.085   2.264  0.00  0.00    -0.080 A 
ATOM      5  C6  UNL d   1      -0.098  -1.736   2.664  0.00  0.00     0.076 C 
ATOM      6  C7  UNL d   1      -2.249  -1.732   1.370  0.00  0.00     0.002 A 
ATOM      7  C8  UNL d   1      -3.441  -1.125   0.968  0.00  0.00     0.006 A 
ENDROOT
BRANCH   1   8
ATOM      8  C1  UNL d   1      -5.050   0.818   0.974  0.00  0.00     0.054 C 
ATOM      9  C   UNL d   1      -5.365   0.438  -0.465  0.00  0.00     0.018 C 
ENDBRANCH   1   8
TORSDOF 1
ENDMDL
