MODEL 1
REMARK minimizedAffinity 8.48073959
REMARK minimizedRMSD -1
REMARK  1 active torsions:
REMARK  status: ('A' for Active; 'I' for Inactive)
REMARK    1  A    between atoms: C1_2  and  C2_3 
ROOT
ATOM      1  C2  UNL d   1      -4.917  -5.385   3.759  0.00  0.00    -0.081 A 
ATOM      2  C3  UNL d   1      -4.694  -6.000   2.521  0.00  0.00     0.006 A 
ATOM      3  C4  UNL d   1      -3.763  -5.469   1.625  0.00  0.00     0.002 A 
ATOM      4  C5  UNL d   1      -3.035  -4.321   1.954  0.00  0.00    -0.080 A 
ATOM      5  C6  UNL d   1      -2.011  -3.759   1.014  0.00  0.00     0.076 C 
ATOM      6  C7  UNL d   1      -3.270  -3.697   3.184  0.00  0.00     0.002 A 
ATOM      7  C8  UNL d   1      -4.202  -4.227   4.081  0.00  0.00     0.006 A 
ENDROOT
BRANCH   1   8
ATOM      8  C1  UNL d   1      -5.873  -5.992   4.755  0.00  0.00     0.054 C 
ATOM      9  C   UNL d   1      -5.998  -5.126   6.000  0.00  0.00     0.018 C 
ENDBRANCH   1   8
TORSDOF 1
ENDMDL
