MODEL 1
REMARK minimizedAffinity 2.48115134
REMARK minimizedRMSD -1
REMARK  0 active torsions:
REMARK  status: ('A' for Active; 'I' for Inactive)
ROOT
ATOM      1  C   UNL d   1       1.022  -5.560   1.759  0.00  0.00     0.078 C 
ATOM      2  C1  UNL d   1       0.759  -4.249   1.082  0.00  0.00    -0.077 A 
ATOM      3  C2  UNL d   1      -0.534  -3.887   0.686  0.00  0.00    -0.001 A 
ATOM      4  C3  UNL d   1      -0.762  -2.667   0.047  0.00  0.00     0.003 A 
ATOM      5  C4  UNL d   1       0.299  -1.799  -0.203  0.00  0.00    -0.005 A 
ATOM      6  C5  UNL d   1       1.590  -2.151   0.186  0.00  0.00     0.003 A 
ATOM      7  C6  UNL d   1       1.820  -3.371   0.825  0.00  0.00    -0.001 A 
ENDROOT
TORSDOF 0
ENDMDL
