MODEL 1
REMARK minimizedAffinity 1.47380388
REMARK minimizedRMSD -1
REMARK  0 active torsions:
REMARK  status: ('A' for Active; 'I' for Inactive)
ROOT
ATOM      1  C   UNL d   1       5.984  -2.689  -5.985  0.00  0.00     0.078 C 
ATOM      2  C1  UNL d   1       5.994  -1.375  -5.263  0.00  0.00    -0.077 A 
ATOM      3  C2  UNL d   1       5.990  -1.320  -3.864  0.00  0.00    -0.001 A 
ATOM      4  C3  UNL d   1       5.990  -0.089  -3.206  0.00  0.00     0.003 A 
ATOM      5  C4  UNL d   1       5.993   1.096  -3.939  0.00  0.00    -0.005 A 
ATOM      6  C5  UNL d   1       5.995   1.052  -5.331  0.00  0.00     0.003 A 
ATOM      7  C6  UNL d   1       5.995  -0.178  -5.991  0.00  0.00    -0.001 A 
ENDROOT
TORSDOF 0
ENDMDL
