MODEL 1
REMARK minimizedAffinity 3.54858708
REMARK minimizedRMSD -1
REMARK  0 active torsions:
REMARK  status: ('A' for Active; 'I' for Inactive)
ROOT
ATOM      1  C   UNL d   1       0.544   1.049  -1.187  0.00  0.00     0.078 C 
ATOM      2  C1  UNL d   1       0.909  -0.128  -2.042  0.00  0.00    -0.077 A 
ATOM      3  C2  UNL d   1       1.198   0.032  -3.403  0.00  0.00    -0.001 A 
ATOM      4  C3  UNL d   1       1.527  -1.074  -4.189  0.00  0.00     0.003 A 
ATOM      5  C4  UNL d   1       1.570  -2.346  -3.624  0.00  0.00    -0.005 A 
ATOM      6  C5  UNL d   1       1.283  -2.515  -2.271  0.00  0.00     0.003 A 
ATOM      7  C6  UNL d   1       0.953  -1.411  -1.483  0.00  0.00    -0.001 A 
ENDROOT
TORSDOF 0
ENDMDL
