MODEL 1
REMARK minimizedAffinity 3.62940955
REMARK minimizedRMSD -1
REMARK  0 active torsions:
REMARK  status: ('A' for Active; 'I' for Inactive)
ROOT
ATOM      1  C   UNL d   1      -4.267   2.345   5.846  0.00  0.00     0.078 C 
ATOM      2  C1  UNL d   1      -3.909   1.180   4.971  0.00  0.00    -0.077 A 
ATOM      3  C2  UNL d   1      -2.587   0.726   4.881  0.00  0.00    -0.001 A 
ATOM      4  C3  UNL d   1      -2.267  -0.353   4.055  0.00  0.00     0.003 A 
ATOM      5  C4  UNL d   1      -3.262  -0.986   3.313  0.00  0.00    -0.005 A 
ATOM      6  C5  UNL d   1      -4.579  -0.539   3.395  0.00  0.00     0.003 A 
ATOM      7  C6  UNL d   1      -4.902   0.539   4.220  0.00  0.00    -0.001 A 
ENDROOT
TORSDOF 0
ENDMDL
