MODEL 1
REMARK minimizedAffinity 4.44571209
REMARK minimizedRMSD -1
REMARK  0 active torsions:
REMARK  status: ('A' for Active; 'I' for Inactive)
ROOT
ATOM      1  C   UNL d   1       0.776   1.413  -1.549  0.00  0.00     0.078 C 
ATOM      2  C1  UNL d   1       1.071   0.205  -2.388  0.00  0.00    -0.077 A 
ATOM      3  C2  UNL d   1       1.446   0.334  -3.731  0.00  0.00    -0.001 A 
ATOM      4  C3  UNL d   1       1.708  -0.799  -4.502  0.00  0.00     0.003 A 
ATOM      5  C4  UNL d   1       1.597  -2.069  -3.940  0.00  0.00    -0.005 A 
ATOM      6  C5  UNL d   1       1.223  -2.207  -2.605  0.00  0.00     0.003 A 
ATOM      7  C6  UNL d   1       0.961  -1.075  -1.832  0.00  0.00    -0.001 A 
ENDROOT
TORSDOF 0
ENDMDL
