MODEL 1
REMARK minimizedAffinity 0.0032056151
REMARK minimizedRMSD -1
REMARK  0 active torsions:
REMARK  status: ('A' for Active; 'I' for Inactive)
ROOT
ATOM      1  C   UNL d   1       1.345  -2.312  -2.905  0.00  0.00     0.078 C 
ATOM      2  C1  UNL d   1       1.119  -0.829  -2.887  0.00  0.00    -0.077 A 
ATOM      3  C2  UNL d   1       1.399  -0.043  -4.012  0.00  0.00    -0.001 A 
ATOM      4  C3  UNL d   1       1.193   1.337  -3.978  0.00  0.00     0.003 A 
ATOM      5  C4  UNL d   1       0.708   1.943  -2.821  0.00  0.00    -0.005 A 
ATOM      6  C5  UNL d   1       0.429   1.170  -1.696  0.00  0.00     0.003 A 
ATOM      7  C6  UNL d   1       0.634  -0.210  -1.729  0.00  0.00    -0.001 A 
ENDROOT
TORSDOF 0
ENDMDL
