MODEL 1
REMARK minimizedAffinity -0.864373744
REMARK minimizedRMSD -1
REMARK  0 active torsions:
REMARK  status: ('A' for Active; 'I' for Inactive)
ROOT
ATOM      1  C   UNL d   1       1.025  -1.313  -0.264  0.00  0.00     0.078 C 
ATOM      2  C1  UNL d   1       1.023  -0.370  -1.429  0.00  0.00    -0.077 A 
ATOM      3  C2  UNL d   1       1.488  -0.776  -2.686  0.00  0.00    -0.001 A 
ATOM      4  C3  UNL d   1       1.490   0.117  -3.760  0.00  0.00     0.003 A 
ATOM      5  C4  UNL d   1       1.030   1.421  -3.587  0.00  0.00    -0.005 A 
ATOM      6  C5  UNL d   1       0.568   1.834  -2.339  0.00  0.00     0.003 A 
ATOM      7  C6  UNL d   1       0.565   0.943  -1.264  0.00  0.00    -0.001 A 
ENDROOT
TORSDOF 0
ENDMDL
