MODEL 1
REMARK minimizedAffinity -0.437889278
REMARK minimizedRMSD -1
REMARK  0 active torsions:
REMARK  status: ('A' for Active; 'I' for Inactive)
ROOT
ATOM      1  C   UNL d   1      -3.068   1.759   5.242  0.00  0.00     0.078 C 
ATOM      2  C1  UNL d   1      -3.365   3.224   5.122  0.00  0.00    -0.077 A 
ATOM      3  C2  UNL d   1      -2.735   4.011   4.150  0.00  0.00    -0.001 A 
ATOM      4  C3  UNL d   1      -3.014   5.375   4.057  0.00  0.00     0.003 A 
ATOM      5  C4  UNL d   1      -3.923   5.965   4.933  0.00  0.00    -0.005 A 
ATOM      6  C5  UNL d   1      -4.553   5.191   5.905  0.00  0.00     0.003 A 
ATOM      7  C6  UNL d   1      -4.275   3.827   6.000  0.00  0.00    -0.001 A 
ENDROOT
TORSDOF 0
ENDMDL
