MODEL 1
REMARK minimizedAffinity 2.44812655
REMARK minimizedRMSD -1
REMARK  0 active torsions:
REMARK  status: ('A' for Active; 'I' for Inactive)
ROOT
ATOM      1  C   UNL d   1      -3.750   2.576   6.000  0.00  0.00     0.078 C 
ATOM      2  C1  UNL d   1      -3.569   1.147   5.581  0.00  0.00    -0.077 A 
ATOM      3  C2  UNL d   1      -4.498   0.165   5.949  0.00  0.00    -0.001 A 
ATOM      4  C3  UNL d   1      -4.312  -1.162   5.560  0.00  0.00     0.003 A 
ATOM      5  C4  UNL d   1      -3.198  -1.521   4.803  0.00  0.00    -0.005 A 
ATOM      6  C5  UNL d   1      -2.268  -0.551   4.435  0.00  0.00     0.003 A 
ATOM      7  C6  UNL d   1      -2.452   0.777   4.822  0.00  0.00    -0.001 A 
ENDROOT
TORSDOF 0
ENDMDL
