MODEL 1
REMARK minimizedAffinity -0.631723106
REMARK minimizedRMSD -1
REMARK  0 active torsions:
REMARK  status: ('A' for Active; 'I' for Inactive)
ROOT
ATOM      1  C   UNL d   1       0.560   1.174  -1.559  0.00  0.00     0.078 C 
ATOM      2  C1  UNL d   1       0.911  -0.106  -2.258  0.00  0.00    -0.077 A 
ATOM      3  C2  UNL d   1       1.302  -0.109  -3.602  0.00  0.00    -0.001 A 
ATOM      4  C3  UNL d   1       1.616  -1.309  -4.243  0.00  0.00     0.003 A 
ATOM      5  C4  UNL d   1       1.541  -2.514  -3.547  0.00  0.00    -0.005 A 
ATOM      6  C5  UNL d   1       1.151  -2.521  -2.210  0.00  0.00     0.003 A 
ATOM      7  C6  UNL d   1       0.836  -1.322  -1.567  0.00  0.00    -0.001 A 
ENDROOT
TORSDOF 0
ENDMDL
