MODEL 1
REMARK minimizedAffinity 2.31340075
REMARK minimizedRMSD -1
REMARK  0 active torsions:
REMARK  status: ('A' for Active; 'I' for Inactive)
ROOT
ATOM      1  C   UNL d   1       4.503   4.408  -4.792  0.00  0.00     0.078 C 
ATOM      2  C1  UNL d   1       4.957   2.979  -4.836  0.00  0.00    -0.077 A 
ATOM      3  C2  UNL d   1       4.755   2.193  -5.977  0.00  0.00    -0.001 A 
ATOM      4  C3  UNL d   1       5.174   0.862  -6.000  0.00  0.00     0.003 A 
ATOM      5  C4  UNL d   1       5.797   0.305  -4.884  0.00  0.00    -0.005 A 
ATOM      6  C5  UNL d   1       6.000   1.079  -3.744  0.00  0.00     0.003 A 
ATOM      7  C6  UNL d   1       5.582   2.410  -3.719  0.00  0.00    -0.001 A 
ENDROOT
TORSDOF 0
ENDMDL
