MODEL 1
REMARK minimizedAffinity -1.39401317
REMARK minimizedRMSD -1
REMARK  0 active torsions:
REMARK  status: ('A' for Active; 'I' for Inactive)
ROOT
ATOM      1  C   UNL d   1       2.714   0.463  -4.253  0.00  0.00     0.078 C 
ATOM      2  C1  UNL d   1       1.816   0.280  -3.067  0.00  0.00    -0.077 A 
ATOM      3  C2  UNL d   1       1.249   1.382  -2.414  0.00  0.00    -0.001 A 
ATOM      4  C3  UNL d   1       0.422   1.197  -1.305  0.00  0.00     0.003 A 
ATOM      5  C4  UNL d   1       0.155  -0.089  -0.838  0.00  0.00    -0.005 A 
ATOM      6  C5  UNL d   1       0.716  -1.191  -1.480  0.00  0.00     0.003 A 
ATOM      7  C6  UNL d   1       1.543  -1.008  -2.589  0.00  0.00    -0.001 A 
ENDROOT
TORSDOF 0
ENDMDL
