MODEL 1
REMARK minimizedAffinity -3.40791512
REMARK minimizedRMSD -1
REMARK  0 active torsions:
REMARK  status: ('A' for Active; 'I' for Inactive)
ROOT
ATOM      1  C   UNL d   1       2.493   3.740  -5.668  0.00  0.00     0.078 C 
ATOM      2  C1  UNL d   1       3.715   2.885  -5.508  0.00  0.00    -0.077 A 
ATOM      3  C2  UNL d   1       4.867   3.382  -4.886  0.00  0.00    -0.001 A 
ATOM      4  C3  UNL d   1       6.000   2.578  -4.753  0.00  0.00     0.003 A 
ATOM      5  C4  UNL d   1       5.993   1.273  -5.240  0.00  0.00    -0.005 A 
ATOM      6  C5  UNL d   1       4.852   0.770  -5.862  0.00  0.00     0.003 A 
ATOM      7  C6  UNL d   1       3.718   1.572  -5.996  0.00  0.00    -0.001 A 
ENDROOT
TORSDOF 0
ENDMDL
