MODEL 1
REMARK minimizedAffinity 1.17828393
REMARK minimizedRMSD -1
REMARK  0 active torsions:
REMARK  status: ('A' for Active; 'I' for Inactive)
ROOT
ATOM      1  C   UNL d   1      -3.771   2.800   5.999  0.00  0.00     0.078 C 
ATOM      2  C1  UNL d   1      -3.697   1.405   5.455  0.00  0.00    -0.077 A 
ATOM      3  C2  UNL d   1      -2.837   1.088   4.397  0.00  0.00    -0.001 A 
ATOM      4  C3  UNL d   1      -2.785  -0.213   3.894  0.00  0.00     0.003 A 
ATOM      5  C4  UNL d   1      -3.592  -1.208   4.443  0.00  0.00    -0.005 A 
ATOM      6  C5  UNL d   1      -4.452  -0.902   5.496  0.00  0.00     0.003 A 
ATOM      7  C6  UNL d   1      -4.505   0.399   6.000  0.00  0.00    -0.001 A 
ENDROOT
TORSDOF 0
ENDMDL
