MODEL 1
REMARK minimizedAffinity 1.90232337
REMARK minimizedRMSD -1
REMARK  0 active torsions:
REMARK  status: ('A' for Active; 'I' for Inactive)
ROOT
ATOM      1  C   UNL d   1       1.368  -2.697  -3.337  0.00  0.00     0.078 C 
ATOM      2  C1  UNL d   1       1.096  -1.430  -2.582  0.00  0.00    -0.077 A 
ATOM      3  C2  UNL d   1       0.597  -1.463  -1.274  0.00  0.00    -0.001 A 
ATOM      4  C3  UNL d   1       0.339  -0.276  -0.587  0.00  0.00     0.003 A 
ATOM      5  C4  UNL d   1       0.576   0.953  -1.199  0.00  0.00    -0.005 A 
ATOM      6  C5  UNL d   1       1.071   0.996  -2.501  0.00  0.00     0.003 A 
ATOM      7  C6  UNL d   1       1.330  -0.190  -3.190  0.00  0.00    -0.001 A 
ENDROOT
TORSDOF 0
ENDMDL
