MODEL 1
REMARK minimizedAffinity -4.01977015
REMARK minimizedRMSD -1
REMARK  1 active torsions:
REMARK  status: ('A' for Active; 'I' for Inactive)
REMARK    1  A    between atoms: C3_4  and  O_7 
ROOT
ATOM      1  C   UNL d   1       1.426  -2.957   1.076  0.00  0.00    -0.033 A 
ATOM      2  C1  UNL d   1       0.225  -3.030   0.368  0.00  0.00     0.039 A 
ATOM      3  C2  UNL d   1      -0.357  -1.868  -0.143  0.00  0.00    -0.080 A 
ATOM      4  C3  UNL d   1       0.271  -0.642   0.059  0.00  0.00     0.150 A 
ATOM      5  C4  UNL d   1       1.469  -0.563   0.761  0.00  0.00    -0.007 A 
ATOM      6  C5  UNL d   1       2.049  -1.724   1.271  0.00  0.00     0.039 A 
ENDROOT
BRANCH   4   7
ATOM      7  O   UNL d   1      -0.262   0.519  -0.416  0.00  0.00    -0.526 OA
ATOM      8  H5  UNL d   1      -1.105   0.314  -0.855  0.00  0.00     0.418 HD
ENDBRANCH   4   7
TORSDOF 1
ENDMDL
