MODEL 1
REMARK minimizedAffinity -4.28294802
REMARK minimizedRMSD -1
REMARK  1 active torsions:
REMARK  status: ('A' for Active; 'I' for Inactive)
REMARK    1  A    between atoms: C3_4  and  O_7 
ROOT
ATOM      1  C   UNL d   1       1.416  -0.552   0.161  0.00  0.00    -0.033 A 
ATOM      2  C1  UNL d   1       0.295  -1.166   0.724  0.00  0.00     0.039 A 
ATOM      3  C2  UNL d   1      -0.987  -0.738   0.372  0.00  0.00    -0.080 A 
ATOM      4  C3  UNL d   1      -1.134   0.301  -0.543  0.00  0.00     0.150 A 
ATOM      5  C4  UNL d   1      -0.021   0.914  -1.110  0.00  0.00    -0.007 A 
ATOM      6  C5  UNL d   1       1.258   0.487  -0.757  0.00  0.00     0.039 A 
ENDROOT
BRANCH   4   7
ATOM      7  O   UNL d   1      -2.364   0.755  -0.913  0.00  0.00    -0.526 OA
ATOM      8  H5  UNL d   1      -3.038   0.258  -0.419  0.00  0.00     0.418 HD
ENDBRANCH   4   7
TORSDOF 1
ENDMDL
