MODEL 1
REMARK minimizedAffinity -4.21623802
REMARK minimizedRMSD -1
REMARK  1 active torsions:
REMARK  status: ('A' for Active; 'I' for Inactive)
REMARK    1  A    between atoms: C3_4  and  O_7 
ROOT
ATOM      1  C   UNL d   1       2.154  -1.190   0.883  0.00  0.00    -0.033 A 
ATOM      2  C1  UNL d   1       0.870  -1.720   1.017  0.00  0.00     0.039 A 
ATOM      3  C2  UNL d   1      -0.221  -1.067   0.438  0.00  0.00    -0.080 A 
ATOM      4  C3  UNL d   1      -0.013   0.113  -0.271  0.00  0.00     0.150 A 
ATOM      5  C4  UNL d   1       1.264   0.644  -0.411  0.00  0.00    -0.007 A 
ATOM      6  C5  UNL d   1       2.352  -0.008   0.167  0.00  0.00     0.039 A 
ENDROOT
BRANCH   4   7
ATOM      7  O   UNL d   1      -1.047   0.788  -0.849  0.00  0.00    -0.526 OA
ATOM      8  H5  UNL d   1      -1.873   0.319  -0.645  0.00  0.00     0.418 HD
ENDBRANCH   4   7
TORSDOF 1
ENDMDL
