MODEL 1
REMARK minimizedAffinity -3.97845554
REMARK minimizedRMSD -1
REMARK  1 active torsions:
REMARK  status: ('A' for Active; 'I' for Inactive)
REMARK    1  A    between atoms: C3_4  and  O_7 
ROOT
ATOM      1  C   UNL d   1       1.957  -2.214   0.899  0.00  0.00    -0.033 A 
ATOM      2  C1  UNL d   1       2.528  -1.244   0.073  0.00  0.00     0.039 A 
ATOM      3  C2  UNL d   1       1.733  -0.232  -0.470  0.00  0.00    -0.080 A 
ATOM      4  C3  UNL d   1       0.372  -0.202  -0.179  0.00  0.00     0.150 A 
ATOM      5  C4  UNL d   1      -0.202  -1.163   0.647  0.00  0.00    -0.007 A 
ATOM      6  C5  UNL d   1       0.593  -2.173   1.187  0.00  0.00     0.039 A 
ENDROOT
BRANCH   4   7
ATOM      7  O   UNL d   1      -0.444   0.763  -0.689  0.00  0.00    -0.526 OA
ATOM      8  H5  UNL d   1       0.085   1.341  -1.264  0.00  0.00     0.418 HD
ENDBRANCH   4   7
TORSDOF 1
ENDMDL
