MODEL 1
REMARK minimizedAffinity -3.65613651
REMARK minimizedRMSD -1
REMARK  1 active torsions:
REMARK  status: ('A' for Active; 'I' for Inactive)
REMARK    1  A    between atoms: C3_4  and  O_7 
ROOT
ATOM      1  C   UNL d   1       0.654  -0.781  -0.521  0.00  0.00    -0.033 A 
ATOM      2  C1  UNL d   1       0.165  -1.781   0.322  0.00  0.00     0.039 A 
ATOM      3  C2  UNL d   1      -0.689  -1.452   1.376  0.00  0.00    -0.080 A 
ATOM      4  C3  UNL d   1      -1.047  -0.122   1.576  0.00  0.00     0.150 A 
ATOM      5  C4  UNL d   1      -0.567   0.879   0.738  0.00  0.00    -0.007 A 
ATOM      6  C5  UNL d   1       0.287   0.549  -0.314  0.00  0.00     0.039 A 
ENDROOT
BRANCH   4   7
ATOM      7  O   UNL d   1      -1.874   0.248   2.595  0.00  0.00    -0.526 OA
ATOM      8  H5  UNL d   1      -2.104  -0.544   3.108  0.00  0.00     0.418 HD
ENDBRANCH   4   7
TORSDOF 1
ENDMDL
