MODEL 1
REMARK minimizedAffinity -4.37682629
REMARK minimizedRMSD -1
REMARK  1 active torsions:
REMARK  status: ('A' for Active; 'I' for Inactive)
REMARK    1  A    between atoms: C3_4  and  O_7 
ROOT
ATOM      1  C   UNL d   1      -0.320   0.185  -0.015  0.00  0.00    -0.033 A 
ATOM      2  C1  UNL d   1      -1.056  -0.732   0.739  0.00  0.00     0.039 A 
ATOM      3  C2  UNL d   1      -0.474  -1.936   1.141  0.00  0.00    -0.080 A 
ATOM      4  C3  UNL d   1       0.843  -2.210   0.784  0.00  0.00     0.150 A 
ATOM      5  C4  UNL d   1       1.584  -1.300   0.037  0.00  0.00    -0.007 A 
ATOM      6  C5  UNL d   1       1.000  -0.099  -0.365  0.00  0.00     0.039 A 
ENDROOT
BRANCH   4   7
ATOM      7  O   UNL d   1       1.452  -3.374   1.149  0.00  0.00    -0.526 OA
ATOM      8  H5  UNL d   1       0.811  -3.917   1.636  0.00  0.00     0.418 HD
ENDBRANCH   4   7
TORSDOF 1
ENDMDL
