MODEL 1
REMARK minimizedAffinity -5.03295755
REMARK minimizedRMSD -1
REMARK  1 active torsions:
REMARK  status: ('A' for Active; 'I' for Inactive)
REMARK    1  A    between atoms: C3_4  and  O_7 
ROOT
ATOM      1  C   UNL d   1       0.012   0.392   0.064  0.00  0.00    -0.033 A 
ATOM      2  C1  UNL d   1      -0.776  -0.450   0.852  0.00  0.00     0.039 A 
ATOM      3  C2  UNL d   1      -0.284  -1.693   1.256  0.00  0.00    -0.080 A 
ATOM      4  C3  UNL d   1       0.995  -2.081   0.867  0.00  0.00     0.150 A 
ATOM      5  C4  UNL d   1       1.786  -1.246   0.085  0.00  0.00    -0.007 A 
ATOM      6  C5  UNL d   1       1.293  -0.006  -0.319  0.00  0.00     0.039 A 
ENDROOT
BRANCH   4   7
ATOM      7  O   UNL d   1       1.516  -3.286   1.232  0.00  0.00    -0.526 OA
ATOM      8  H5  UNL d   1       0.846  -3.768   1.746  0.00  0.00     0.418 HD
ENDBRANCH   4   7
TORSDOF 1
ENDMDL
