MODEL 1
REMARK minimizedAffinity -4.75528479
REMARK minimizedRMSD -1
REMARK  1 active torsions:
REMARK  status: ('A' for Active; 'I' for Inactive)
REMARK    1  A    between atoms: C3_4  and  O_7 
ROOT
ATOM      1  C   UNL d   1       0.388   0.576  -0.149  0.00  0.00    -0.033 A 
ATOM      2  C1  UNL d   1       1.762   0.327  -0.124  0.00  0.00     0.039 A 
ATOM      3  C2  UNL d   1       2.235  -0.967   0.103  0.00  0.00    -0.080 A 
ATOM      4  C3  UNL d   1       1.326  -2.002   0.302  0.00  0.00     0.150 A 
ATOM      5  C4  UNL d   1      -0.044  -1.762   0.274  0.00  0.00    -0.007 A 
ATOM      6  C5  UNL d   1      -0.515  -0.469   0.048  0.00  0.00     0.039 A 
ENDROOT
BRANCH   4   7
ATOM      7  O   UNL d   1       1.740  -3.280   0.532  0.00  0.00    -0.526 OA
ATOM      8  H5  UNL d   1       2.711  -3.290   0.552  0.00  0.00     0.418 HD
ENDBRANCH   4   7
TORSDOF 1
ENDMDL
