MODEL 1
REMARK minimizedAffinity -4.09138441
REMARK minimizedRMSD -1
REMARK  1 active torsions:
REMARK  status: ('A' for Active; 'I' for Inactive)
REMARK    1  A    between atoms: C3_4  and  O_7 
ROOT
ATOM      1  C   UNL d   1       1.855  -2.483   1.036  0.00  0.00    -0.033 A 
ATOM      2  C1  UNL d   1       2.456  -1.369   0.448  0.00  0.00     0.039 A 
ATOM      3  C2  UNL d   1       1.678  -0.273   0.068  0.00  0.00    -0.080 A 
ATOM      4  C3  UNL d   1       0.303  -0.303   0.283  0.00  0.00     0.150 A 
ATOM      5  C4  UNL d   1      -0.302  -1.409   0.872  0.00  0.00    -0.007 A 
ATOM      6  C5  UNL d   1       0.476  -2.503   1.249  0.00  0.00     0.039 A 
ENDROOT
BRANCH   4   7
ATOM      7  O   UNL d   1      -0.497   0.740  -0.075  0.00  0.00    -0.526 OA
ATOM      8  H5  UNL d   1       0.054   1.421  -0.496  0.00  0.00     0.418 HD
ENDBRANCH   4   7
TORSDOF 1
ENDMDL
