MODEL 1
REMARK minimizedAffinity -4.58390522
REMARK minimizedRMSD -1
REMARK  1 active torsions:
REMARK  status: ('A' for Active; 'I' for Inactive)
REMARK    1  A    between atoms: C3_4  and  O_7 
ROOT
ATOM      1  C   UNL d   1       1.568  -2.662   0.471  0.00  0.00    -0.033 A 
ATOM      2  C1  UNL d   1       2.188  -1.422   0.630  0.00  0.00     0.039 A 
ATOM      3  C2  UNL d   1       1.465  -0.246   0.421  0.00  0.00    -0.080 A 
ATOM      4  C3  UNL d   1       0.124  -0.324   0.054  0.00  0.00     0.150 A 
ATOM      5  C4  UNL d   1      -0.501  -1.557  -0.103  0.00  0.00    -0.007 A 
ATOM      6  C5  UNL d   1       0.223  -2.730   0.105  0.00  0.00     0.039 A 
ENDROOT
BRANCH   4   7
ATOM      7  O   UNL d   1      -0.621   0.796  -0.166  0.00  0.00    -0.526 OA
ATOM      8  H5  UNL d   1      -0.051   1.573  -0.048  0.00  0.00     0.418 HD
ENDBRANCH   4   7
TORSDOF 1
ENDMDL
