MODEL 1
REMARK minimizedAffinity -3.78427839
REMARK minimizedRMSD -1
REMARK  1 active torsions:
REMARK  status: ('A' for Active; 'I' for Inactive)
REMARK    1  A    between atoms: C3_4  and  O_7 
ROOT
ATOM      1  C   UNL d   1       0.018  -1.591   0.260  0.00  0.00    -0.033 A 
ATOM      2  C1  UNL d   1       0.725  -0.469  -0.178  0.00  0.00     0.039 A 
ATOM      3  C2  UNL d   1       2.035  -0.255   0.253  0.00  0.00    -0.080 A 
ATOM      4  C3  UNL d   1       2.627  -1.169   1.120  0.00  0.00     0.150 A 
ATOM      5  C4  UNL d   1       1.931  -2.291   1.558  0.00  0.00    -0.007 A 
ATOM      6  C5  UNL d   1       0.622  -2.503   1.127  0.00  0.00     0.039 A 
ENDROOT
BRANCH   4   7
ATOM      7  O   UNL d   1       3.903  -1.000   1.572  0.00  0.00    -0.526 OA
ATOM      8  H5  UNL d   1       4.249  -0.168   1.209  0.00  0.00     0.418 HD
ENDBRANCH   4   7
TORSDOF 1
ENDMDL
