MODEL 1
REMARK minimizedAffinity -4.19499826
REMARK minimizedRMSD -1
REMARK  1 active torsions:
REMARK  status: ('A' for Active; 'I' for Inactive)
REMARK    1  A    between atoms: C3_4  and  O_7 
ROOT
ATOM      1  C   UNL d   1       0.138   0.247   0.317  0.00  0.00    -0.033 A 
ATOM      2  C1  UNL d   1      -0.587  -0.691   1.055  0.00  0.00     0.039 A 
ATOM      3  C2  UNL d   1       0.020  -1.881   1.463  0.00  0.00    -0.080 A 
ATOM      4  C3  UNL d   1       1.350  -2.119   1.128  0.00  0.00     0.150 A 
ATOM      5  C4  UNL d   1       2.079  -1.188   0.396  0.00  0.00    -0.007 A 
ATOM      6  C5  UNL d   1       1.471  -0.001  -0.011  0.00  0.00     0.039 A 
ENDROOT
BRANCH   4   7
ATOM      7  O   UNL d   1       1.984  -3.268   1.500  0.00  0.00    -0.526 OA
ATOM      8  H5  UNL d   1       1.349  -3.830   1.975  0.00  0.00     0.418 HD
ENDBRANCH   4   7
TORSDOF 1
ENDMDL
