MODEL 1
REMARK minimizedAffinity -5.18808556
REMARK minimizedRMSD -1
REMARK  1 active torsions:
REMARK  status: ('A' for Active; 'I' for Inactive)
REMARK    1  A    between atoms: C3_4  and  O_7 
ROOT
ATOM      1  C   UNL d   1      -0.229   0.752   0.219  0.00  0.00    -0.033 A 
ATOM      2  C1  UNL d   1      -0.875  -0.219   0.987  0.00  0.00     0.039 A 
ATOM      3  C2  UNL d   1      -0.271  -1.460   1.198  0.00  0.00    -0.080 A 
ATOM      4  C3  UNL d   1       0.977  -1.717   0.637  0.00  0.00     0.150 A 
ATOM      5  C4  UNL d   1       1.627  -0.753  -0.126  0.00  0.00    -0.007 A 
ATOM      6  C5  UNL d   1       1.023   0.485  -0.336  0.00  0.00     0.039 A 
ENDROOT
BRANCH   4   7
ATOM      7  O   UNL d   1       1.603  -2.915   0.811  0.00  0.00    -0.526 OA
ATOM      8  H5  UNL d   1       1.023  -3.493   1.335  0.00  0.00     0.418 HD
ENDBRANCH   4   7
TORSDOF 1
ENDMDL
