MODEL 1
REMARK minimizedAffinity 1.54409623
REMARK minimizedRMSD -1
REMARK  1 active torsions:
REMARK  status: ('A' for Active; 'I' for Inactive)
REMARK    1  A    between atoms: C3_4  and  O_7 
ROOT
ATOM      1  C   UNL d   1      -0.943  -1.862   1.169  0.00  0.00    -0.033 A 
ATOM      2  C1  UNL d   1      -1.045  -0.879   2.156  0.00  0.00     0.039 A 
ATOM      3  C2  UNL d   1      -0.623   0.425   1.891  0.00  0.00    -0.080 A 
ATOM      4  C3  UNL d   1      -0.104   0.734   0.637  0.00  0.00     0.150 A 
ATOM      5  C4  UNL d   1      -0.003  -0.239  -0.352  0.00  0.00    -0.007 A 
ATOM      6  C5  UNL d   1      -0.424  -1.541  -0.085  0.00  0.00     0.039 A 
ENDROOT
BRANCH   4   7
ATOM      7  O   UNL d   1       0.325   1.992   0.333  0.00  0.00    -0.526 OA
ATOM      8  H5  UNL d   1       0.221   2.551   1.121  0.00  0.00     0.418 HD
ENDBRANCH   4   7
TORSDOF 1
ENDMDL
