MODEL 1
REMARK minimizedAffinity -2.26501226
REMARK minimizedRMSD -1
REMARK  1 active torsions:
REMARK  status: ('A' for Active; 'I' for Inactive)
REMARK    1  A    between atoms: C3_4  and  O_7 
ROOT
ATOM      1  C   UNL d   1      -0.011   0.776   0.171  0.00  0.00    -0.033 A 
ATOM      2  C1  UNL d   1      -0.622  -0.118   1.053  0.00  0.00     0.039 A 
ATOM      3  C2  UNL d   1      -0.079  -1.389   1.249  0.00  0.00    -0.080 A 
ATOM      4  C3  UNL d   1       1.074  -1.753   0.560  0.00  0.00     0.150 A 
ATOM      5  C4  UNL d   1       1.691  -0.867  -0.317  0.00  0.00    -0.007 A 
ATOM      6  C5  UNL d   1       1.146   0.402  -0.512  0.00  0.00     0.039 A 
ENDROOT
BRANCH   4   7
ATOM      7  O   UNL d   1       1.639  -2.985   0.716  0.00  0.00    -0.526 OA
ATOM      8  H5  UNL d   1       1.089  -3.500   1.330  0.00  0.00     0.418 HD
ENDBRANCH   4   7
TORSDOF 1
ENDMDL
