MODEL 1
REMARK minimizedAffinity -3.66573024
REMARK minimizedRMSD -1
REMARK  1 active torsions:
REMARK  status: ('A' for Active; 'I' for Inactive)
REMARK    1  A    between atoms: C3_4  and  O_7 
ROOT
ATOM      1  C   UNL d   1       0.125   0.410  -0.214  0.00  0.00    -0.033 A 
ATOM      2  C1  UNL d   1      -0.876  -0.440   0.261  0.00  0.00     0.039 A 
ATOM      3  C2  UNL d   1      -0.552  -1.725   0.701  0.00  0.00    -0.080 A 
ATOM      4  C3  UNL d   1       0.774  -2.147   0.661  0.00  0.00     0.150 A 
ATOM      5  C4  UNL d   1       1.776  -1.305   0.193  0.00  0.00    -0.007 A 
ATOM      6  C5  UNL d   1       1.451  -0.022  -0.247  0.00  0.00     0.039 A 
ENDROOT
BRANCH   4   7
ATOM      7  O   UNL d   1       1.137  -3.394   1.075  0.00  0.00    -0.526 OA
ATOM      8  H5  UNL d   1       0.336  -3.874   1.346  0.00  0.00     0.418 HD
ENDBRANCH   4   7
TORSDOF 1
ENDMDL
