MODEL 1
REMARK minimizedAffinity 0.074425675
REMARK minimizedRMSD -1
REMARK  0 active torsions:
REMARK  status: ('A' for Active; 'I' for Inactive)
ROOT
ATOM      1  C   UNL d   1       1.035  -0.995   3.570  0.00  0.00     0.020 A 
ATOM      2  C1  UNL d   1       0.422  -1.748   4.570  0.00  0.00     0.020 A 
ATOM      3  C2  UNL d   1      -0.936  -2.060   4.476  0.00  0.00     0.034 A 
ATOM      4  C3  UNL d   1      -1.686  -1.618   3.379  0.00  0.00     0.017 A 
ATOM      5  C4  UNL d   1      -1.069  -0.863   2.376  0.00  0.00     0.017 A 
ATOM      6  C5  UNL d   1       0.291  -0.554   2.475  0.00  0.00     0.034 A 
ATOM      7 Cl   UNL d   1      -1.928  -0.282   0.992  0.00  0.00    -0.070 Cl
ATOM      8 Cl1  UNL d   1      -3.360  -2.041   3.328  0.00  0.00    -0.070 Cl
ENDROOT
TORSDOF 0
ENDMDL
