MODEL 1
REMARK minimizedAffinity 12.9141397
REMARK minimizedRMSD -1
REMARK  0 active torsions:
REMARK  status: ('A' for Active; 'I' for Inactive)
ROOT
ATOM      1  C   UNL d   1       1.648  -1.977   5.420  0.00  0.00     0.020 A 
ATOM      2  C1  UNL d   1       1.447  -2.195   4.058  0.00  0.00     0.020 A 
ATOM      3  C2  UNL d   1       0.853  -1.205   3.273  0.00  0.00     0.034 A 
ATOM      4  C3  UNL d   1       0.459   0.008   3.849  0.00  0.00     0.017 A 
ATOM      5  C4  UNL d   1       0.662   0.226   5.217  0.00  0.00     0.017 A 
ATOM      6  C5  UNL d   1       1.257  -0.769   5.998  0.00  0.00     0.034 A 
ATOM      7 Cl   UNL d   1       0.202   1.697   5.999  0.00  0.00    -0.070 Cl
ATOM      8 Cl1  UNL d   1      -0.268   1.189   2.818  0.00  0.00    -0.070 Cl
ENDROOT
TORSDOF 0
ENDMDL
