MODEL 1
REMARK minimizedAffinity 15.6716557
REMARK minimizedRMSD -1
REMARK  0 active torsions:
REMARK  status: ('A' for Active; 'I' for Inactive)
ROOT
ATOM      1  C   UNL d   1       0.025   1.470  -6.000  0.00  0.00     0.020 A 
ATOM      2  C1  UNL d   1       1.082   0.581  -5.805  0.00  0.00     0.020 A 
ATOM      3  C2  UNL d   1       0.821  -0.761  -5.518  0.00  0.00     0.034 A 
ATOM      4  C3  UNL d   1      -0.498  -1.217  -5.424  0.00  0.00     0.017 A 
ATOM      5  C4  UNL d   1      -1.558  -0.324  -5.619  0.00  0.00     0.017 A 
ATOM      6  C5  UNL d   1      -1.292   1.018  -5.907  0.00  0.00     0.034 A 
ATOM      7 Cl   UNL d   1      -3.213  -0.814  -5.519  0.00  0.00    -0.070 Cl
ATOM      8 Cl1  UNL d   1      -0.746  -2.889  -5.066  0.00  0.00    -0.070 Cl
ENDROOT
TORSDOF 0
ENDMDL
