MODEL 1
REMARK minimizedAffinity 5.10088778
REMARK minimizedRMSD -1
REMARK  0 active torsions:
REMARK  status: ('A' for Active; 'I' for Inactive)
ROOT
ATOM      1  C   UNL d   1      -1.327   1.511  -3.267  0.00  0.00     0.020 A 
ATOM      2  C1  UNL d   1      -2.246   0.462  -3.268  0.00  0.00     0.020 A 
ATOM      3  C2  UNL d   1      -2.060  -0.629  -4.119  0.00  0.00     0.034 A 
ATOM      4  C3  UNL d   1      -0.953  -0.674  -4.973  0.00  0.00     0.017 A 
ATOM      5  C4  UNL d   1      -0.031   0.378  -4.972  0.00  0.00     0.017 A 
ATOM      6  C5  UNL d   1      -0.222   1.469  -4.118  0.00  0.00     0.034 A 
ATOM      7 Cl   UNL d   1       1.360   0.393  -5.998  0.00  0.00    -0.070 Cl
ATOM      8 Cl1  UNL d   1      -0.785  -2.055  -5.999  0.00  0.00    -0.070 Cl
ENDROOT
TORSDOF 0
ENDMDL
