MODEL 1
REMARK minimizedAffinity -1.59476221
REMARK minimizedRMSD -1
REMARK  0 active torsions:
REMARK  status: ('A' for Active; 'I' for Inactive)
ROOT
ATOM      1  C   UNL d   1       2.344  -1.453  -2.712  0.00  0.00     0.020 A 
ATOM      2  C1  UNL d   1       1.859  -2.106  -1.580  0.00  0.00     0.020 A 
ATOM      3  C2  UNL d   1       0.491  -2.089  -1.296  0.00  0.00     0.034 A 
ATOM      4  C3  UNL d   1      -0.395  -1.418  -2.146  0.00  0.00     0.017 A 
ATOM      5  C4  UNL d   1       0.093  -0.763  -3.283  0.00  0.00     0.017 A 
ATOM      6  C5  UNL d   1       1.463  -0.783  -3.562  0.00  0.00     0.034 A 
ATOM      7 Cl   UNL d   1      -0.940   0.086  -4.379  0.00  0.00    -0.070 Cl
ATOM      8 Cl1  UNL d   1      -2.073  -1.438  -1.735  0.00  0.00    -0.070 Cl
ENDROOT
TORSDOF 0
ENDMDL
