MODEL 1
REMARK minimizedAffinity 7.11215734
REMARK minimizedRMSD -1
REMARK  0 active torsions:
REMARK  status: ('A' for Active; 'I' for Inactive)
ROOT
ATOM      1  C   UNL d   1       3.402  -0.381  -5.608  0.00  0.00     0.020 A 
ATOM      2  C1  UNL d   1       3.845  -1.304  -4.661  0.00  0.00     0.020 A 
ATOM      3  C2  UNL d   1       2.948  -2.219  -4.105  0.00  0.00     0.034 A 
ATOM      4  C3  UNL d   1       1.604  -2.212  -4.495  0.00  0.00     0.017 A 
ATOM      5  C4  UNL d   1       1.160  -1.286  -5.446  0.00  0.00     0.017 A 
ATOM      6  C5  UNL d   1       2.063  -0.372  -6.000  0.00  0.00     0.034 A 
ATOM      7 Cl   UNL d   1      -0.483  -1.217  -5.978  0.00  0.00    -0.070 Cl
ATOM      8 Cl1  UNL d   1       0.550  -3.372  -3.767  0.00  0.00    -0.070 Cl
ENDROOT
TORSDOF 0
ENDMDL
