MODEL 1
REMARK minimizedAffinity 2.74577475
REMARK minimizedRMSD -1
REMARK  0 active torsions:
REMARK  status: ('A' for Active; 'I' for Inactive)
ROOT
ATOM      1  C   UNL d   1       1.130  -1.040   3.383  0.00  0.00     0.020 A 
ATOM      2  C1  UNL d   1       0.508  -2.196   3.852  0.00  0.00     0.020 A 
ATOM      3  C2  UNL d   1      -0.861  -2.384   3.649  0.00  0.00     0.034 A 
ATOM      4  C3  UNL d   1      -1.612  -1.415   2.975  0.00  0.00     0.017 A 
ATOM      5  C4  UNL d   1      -0.986  -0.255   2.504  0.00  0.00     0.017 A 
ATOM      6  C5  UNL d   1       0.385  -0.072   2.710  0.00  0.00     0.034 A 
ATOM      7 Cl   UNL d   1      -1.847   0.986   1.662  0.00  0.00    -0.070 Cl
ATOM      8 Cl1  UNL d   1      -3.300  -1.713   2.758  0.00  0.00    -0.070 Cl
ENDROOT
TORSDOF 0
ENDMDL
