MODEL 1
REMARK minimizedAffinity 5.08141422
REMARK minimizedRMSD -1
REMARK  0 active torsions:
REMARK  status: ('A' for Active; 'I' for Inactive)
ROOT
ATOM      1  C   UNL d   1       0.893  -1.163   2.392  0.00  0.00     0.020 A 
ATOM      2  C1  UNL d   1       2.108  -1.844   2.336  0.00  0.00     0.020 A 
ATOM      3  C2  UNL d   1       2.986  -1.796   3.421  0.00  0.00     0.034 A 
ATOM      4  C3  UNL d   1       2.651  -1.064   4.566  0.00  0.00     0.017 A 
ATOM      5  C4  UNL d   1       1.431  -0.380   4.621  0.00  0.00     0.017 A 
ATOM      6  C5  UNL d   1       0.555  -0.432   3.532  0.00  0.00     0.034 A 
ATOM      7 Cl   UNL d   1       0.948   0.543   6.000  0.00  0.00    -0.070 Cl
ATOM      8 Cl1  UNL d   1       3.785  -1.048   5.870  0.00  0.00    -0.070 Cl
ENDROOT
TORSDOF 0
ENDMDL
