MODEL 1
REMARK minimizedAffinity 4.32607031
REMARK minimizedRMSD -1
REMARK  0 active torsions:
REMARK  status: ('A' for Active; 'I' for Inactive)
ROOT
ATOM      1  C   UNL d   1       0.974  -2.853   4.142  0.00  0.00     0.020 A 
ATOM      2  C1  UNL d   1       1.804  -1.734   4.194  0.00  0.00     0.020 A 
ATOM      3  C2  UNL d   1       1.399  -0.536   3.601  0.00  0.00     0.034 A 
ATOM      4  C3  UNL d   1       0.161  -0.455   2.953  0.00  0.00     0.017 A 
ATOM      5  C4  UNL d   1      -0.671  -1.579   2.901  0.00  0.00     0.017 A 
ATOM      6  C5  UNL d   1      -0.261  -2.775   3.497  0.00  0.00     0.034 A 
ATOM      7 Cl   UNL d   1      -2.212  -1.555   2.120  0.00  0.00    -0.070 Cl
ATOM      8 Cl1  UNL d   1      -0.275   1.058   2.241  0.00  0.00    -0.070 Cl
ENDROOT
TORSDOF 0
ENDMDL
