MODEL 1
REMARK minimizedAffinity 3.19439507
REMARK minimizedRMSD -1
REMARK  0 active torsions:
REMARK  status: ('A' for Active; 'I' for Inactive)
ROOT
ATOM      1  C   UNL d   1       0.116  -5.956  -3.398  0.00  0.00     0.020 A 
ATOM      2  C1  UNL d   1       1.461  -5.602  -3.504  0.00  0.00     0.020 A 
ATOM      3  C2  UNL d   1       1.934  -4.456  -2.861  0.00  0.00     0.034 A 
ATOM      4  C3  UNL d   1       1.062  -3.659  -2.110  0.00  0.00     0.017 A 
ATOM      5  C4  UNL d   1      -0.288  -4.015  -2.005  0.00  0.00     0.017 A 
ATOM      6  C5  UNL d   1      -0.756  -5.164  -2.650  0.00  0.00     0.034 A 
ATOM      7 Cl   UNL d   1      -1.424  -3.082  -1.097  0.00  0.00    -0.070 Cl
ATOM      8 Cl1  UNL d   1       1.715  -2.256  -1.343  0.00  0.00    -0.070 Cl
ENDROOT
TORSDOF 0
ENDMDL
