MODEL 1
REMARK minimizedAffinity 4.58649731
REMARK minimizedRMSD -1
REMARK  1 active torsions:
REMARK  status: ('A' for Active; 'I' for Inactive)
REMARK    1  A    between atoms: C1_2  and  C2_3 
ROOT
ATOM      1  C2  UNL d   1      -5.145  -5.434  -2.726  0.00  0.00    -0.077 A 
ATOM      2  C3  UNL d   1      -5.748  -5.998  -1.593  0.00  0.00     0.002 A 
ATOM      3  C4  UNL d   1      -5.533  -5.445  -0.329  0.00  0.00     0.002 A 
ATOM      4  C5  UNL d   1      -4.720  -4.323  -0.187  0.00  0.00    -0.004 A 
ATOM      5  C6  UNL d   1      -4.114  -3.755  -1.307  0.00  0.00     0.002 A 
ATOM      6  C7  UNL d   1      -4.327  -4.308  -2.571  0.00  0.00     0.002 A 
ENDROOT
BRANCH   1   7
ATOM      7  C1  UNL d   1      -5.415  -5.999  -4.096  0.00  0.00     0.055 C 
ATOM      8  C   UNL d   1      -4.163  -5.977  -4.960  0.00  0.00     0.019 C 
ENDBRANCH   1   7
TORSDOF 1
ENDMDL
