MODEL 1
REMARK minimizedAffinity 1.69197595
REMARK minimizedRMSD -1
REMARK  1 active torsions:
REMARK  status: ('A' for Active; 'I' for Inactive)
REMARK    1  A    between atoms: C1_2  and  C2_3 
ROOT
ATOM      1  C2  UNL d   1       1.152   1.285  -0.232  0.00  0.00    -0.077 A 
ATOM      2  C3  UNL d   1      -0.150   1.559   0.210  0.00  0.00     0.002 A 
ATOM      3  C4  UNL d   1      -0.926   0.552   0.789  0.00  0.00     0.002 A 
ATOM      4  C5  UNL d   1      -0.407  -0.733   0.933  0.00  0.00    -0.004 A 
ATOM      5  C6  UNL d   1       0.886  -1.016   0.495  0.00  0.00     0.002 A 
ATOM      6  C7  UNL d   1       1.662  -0.012  -0.085  0.00  0.00     0.002 A 
ENDROOT
BRANCH   1   7
ATOM      7  C1  UNL d   1       2.008   2.381  -0.811  0.00  0.00     0.055 C 
ATOM      8  C   UNL d   1       3.399   1.871  -1.159  0.00  0.00     0.019 C 
ENDBRANCH   1   7
TORSDOF 1
ENDMDL
