MODEL 1
REMARK minimizedAffinity -0.253831953
REMARK minimizedRMSD -1
REMARK  1 active torsions:
REMARK  status: ('A' for Active; 'I' for Inactive)
REMARK    1  A    between atoms: C1_2  and  C2_3 
ROOT
ATOM      1  C2  UNL d   1       1.391   1.499  -0.406  0.00  0.00    -0.077 A 
ATOM      2  C3  UNL d   1       1.865   0.188  -0.257  0.00  0.00     0.002 A 
ATOM      3  C4  UNL d   1       0.984  -0.852   0.045  0.00  0.00     0.002 A 
ATOM      4  C5  UNL d   1      -0.376  -0.593   0.198  0.00  0.00    -0.004 A 
ATOM      5  C6  UNL d   1      -0.857   0.708   0.054  0.00  0.00     0.002 A 
ATOM      6  C7  UNL d   1       0.022   1.749  -0.247  0.00  0.00     0.002 A 
ENDROOT
BRANCH   1   7
ATOM      7  C1  UNL d   1       2.333   2.613  -0.781  0.00  0.00     0.055 C 
ATOM      8  C   UNL d   1       3.562   2.080  -1.503  0.00  0.00     0.019 C 
ENDBRANCH   1   7
TORSDOF 1
ENDMDL
