MODEL 1
REMARK minimizedAffinity 8.62491608
REMARK minimizedRMSD -1
REMARK  1 active torsions:
REMARK  status: ('A' for Active; 'I' for Inactive)
REMARK    1  A    between atoms: C1_2  and  C2_3 
ROOT
ATOM      1  C2  UNL d   1       1.835  -0.179   0.758  0.00  0.00    -0.077 A 
ATOM      2  C3  UNL d   1       0.976  -0.934   1.569  0.00  0.00     0.002 A 
ATOM      3  C4  UNL d   1      -0.376  -0.600   1.668  0.00  0.00     0.002 A 
ATOM      4  C5  UNL d   1      -0.881   0.486   0.957  0.00  0.00    -0.004 A 
ATOM      5  C6  UNL d   1      -0.035   1.244   0.149  0.00  0.00     0.002 A 
ATOM      6  C7  UNL d   1       1.317   0.913   0.050  0.00  0.00     0.002 A 
ENDROOT
BRANCH   1   7
ATOM      7  C1  UNL d   1       3.283  -0.567   0.611  0.00  0.00     0.055 C 
ATOM      8  C   UNL d   1       4.088  -0.181   1.844  0.00  0.00     0.019 C 
ENDBRANCH   1   7
TORSDOF 1
ENDMDL
