MODEL 1
REMARK minimizedAffinity 1.06033182
REMARK minimizedRMSD -1
REMARK  1 active torsions:
REMARK  status: ('A' for Active; 'I' for Inactive)
REMARK    1  A    between atoms: C1_2  and  C2_3 
ROOT
ATOM      1  C2  UNL d   1      -4.349  -5.327  -0.556  0.00  0.00    -0.077 A 
ATOM      2  C3  UNL d   1      -3.937  -4.002  -0.759  0.00  0.00     0.002 A 
ATOM      3  C4  UNL d   1      -4.183  -3.365  -1.977  0.00  0.00     0.002 A 
ATOM      4  C5  UNL d   1      -4.845  -4.043  -2.998  0.00  0.00    -0.004 A 
ATOM      5  C6  UNL d   1      -5.257  -5.361  -2.807  0.00  0.00     0.002 A 
ATOM      6  C7  UNL d   1      -5.011  -6.000  -1.591  0.00  0.00     0.002 A 
ENDROOT
BRANCH   1   7
ATOM      7  C1  UNL d   1      -4.128  -5.999   0.774  0.00  0.00     0.055 C 
ATOM      8  C   UNL d   1      -3.774  -4.988   1.854  0.00  0.00     0.019 C 
ENDBRANCH   1   7
TORSDOF 1
ENDMDL
