MODEL 1
REMARK minimizedAffinity 2.02791452
REMARK minimizedRMSD -1
REMARK  1 active torsions:
REMARK  status: ('A' for Active; 'I' for Inactive)
REMARK    1  A    between atoms: C1_2  and  C2_3 
ROOT
ATOM      1  C2  UNL d   1      -4.955  -4.946   1.680  0.00  0.00    -0.077 A 
ATOM      2  C3  UNL d   1      -4.482  -3.822   0.989  0.00  0.00     0.002 A 
ATOM      3  C4  UNL d   1      -4.581  -3.754  -0.402  0.00  0.00     0.002 A 
ATOM      4  C5  UNL d   1      -5.155  -4.806  -1.113  0.00  0.00    -0.004 A 
ATOM      5  C6  UNL d   1      -5.627  -5.929  -0.436  0.00  0.00     0.002 A 
ATOM      6  C7  UNL d   1      -5.528  -5.999   0.955  0.00  0.00     0.002 A 
ENDROOT
BRANCH   1   7
ATOM      7  C1  UNL d   1      -4.895  -5.000   3.184  0.00  0.00     0.055 C 
ATOM      8  C   UNL d   1      -5.897  -5.999   3.743  0.00  0.00     0.019 C 
ENDBRANCH   1   7
TORSDOF 1
ENDMDL
