MODEL 1
REMARK minimizedAffinity 9.36696339
REMARK minimizedRMSD -1
REMARK  1 active torsions:
REMARK  status: ('A' for Active; 'I' for Inactive)
REMARK    1  A    between atoms: C1_2  and  C2_3 
ROOT
ATOM      1  C2  UNL d   1       1.713  -0.719   1.586  0.00  0.00    -0.077 A 
ATOM      2  C3  UNL d   1       1.536  -1.867   0.802  0.00  0.00     0.002 A 
ATOM      3  C4  UNL d   1       0.413  -2.678   0.981  0.00  0.00     0.002 A 
ATOM      4  C5  UNL d   1      -0.542  -2.347   1.939  0.00  0.00    -0.004 A 
ATOM      5  C6  UNL d   1      -0.374  -1.207   2.725  0.00  0.00     0.002 A 
ATOM      6  C7  UNL d   1       0.748  -0.396   2.549  0.00  0.00     0.002 A 
ENDROOT
BRANCH   1   7
ATOM      7  C1  UNL d   1       2.898   0.184   1.361  0.00  0.00     0.055 C 
ATOM      8  C   UNL d   1       4.019  -0.118   2.345  0.00  0.00     0.019 C 
ENDBRANCH   1   7
TORSDOF 1
ENDMDL
