MODEL 1
REMARK minimizedAffinity 6.32380438
REMARK minimizedRMSD -1
REMARK  1 active torsions:
REMARK  status: ('A' for Active; 'I' for Inactive)
REMARK    1  A    between atoms: C1_2  and  C2_3 
ROOT
ATOM      1  C2  UNL d   1      -1.112   3.123  -0.838  0.00  0.00    -0.077 A 
ATOM      2  C3  UNL d   1      -2.415   3.439  -1.248  0.00  0.00     0.002 A 
ATOM      3  C4  UNL d   1      -3.512   2.804  -0.663  0.00  0.00     0.002 A 
ATOM      4  C5  UNL d   1      -3.318   1.853   0.336  0.00  0.00    -0.004 A 
ATOM      5  C6  UNL d   1      -2.026   1.531   0.749  0.00  0.00     0.002 A 
ATOM      6  C7  UNL d   1      -0.928   2.163   0.165  0.00  0.00     0.002 A 
ENDROOT
BRANCH   1   7
ATOM      7  C1  UNL d   1       0.071   3.842  -1.433  0.00  0.00     0.055 C 
ATOM      8  C   UNL d   1      -0.286   4.488  -2.764  0.00  0.00     0.019 C 
ENDBRANCH   1   7
TORSDOF 1
ENDMDL
