MODEL 1
REMARK minimizedAffinity -1.149014
REMARK minimizedRMSD -1
REMARK  1 active torsions:
REMARK  status: ('A' for Active; 'I' for Inactive)
REMARK    1  A    between atoms: C1_2  and  C2_3 
ROOT
ATOM      1  C2  UNL d   1       0.578   0.499  -0.192  0.00  0.00    -0.077 A 
ATOM      2  C3  UNL d   1      -0.220   1.652  -0.199  0.00  0.00     0.002 A 
ATOM      3  C4  UNL d   1       0.342   2.899  -0.477  0.00  0.00     0.002 A 
ATOM      4  C5  UNL d   1       1.704   3.005  -0.755  0.00  0.00    -0.004 A 
ATOM      5  C6  UNL d   1       2.506   1.865  -0.749  0.00  0.00     0.002 A 
ATOM      6  C7  UNL d   1       1.946   0.618  -0.470  0.00  0.00     0.002 A 
ENDROOT
BRANCH   1   7
ATOM      7  C1  UNL d   1      -0.036  -0.853   0.059  0.00  0.00     0.055 C 
ATOM      8  C   UNL d   1      -0.122  -1.154   1.548  0.00  0.00     0.019 C 
ENDBRANCH   1   7
TORSDOF 1
ENDMDL
