MODEL 1
REMARK minimizedAffinity 8.49746037
REMARK minimizedRMSD -1
REMARK  1 active torsions:
REMARK  status: ('A' for Active; 'I' for Inactive)
REMARK    1  A    between atoms: C1_2  and  C2_3 
ROOT
ATOM      1  C2  UNL d   1       1.912   2.324  -0.890  0.00  0.00    -0.077 A 
ATOM      2  C3  UNL d   1       2.999   2.491  -1.759  0.00  0.00     0.002 A 
ATOM      3  C4  UNL d   1       3.839   1.416  -2.054  0.00  0.00     0.002 A 
ATOM      4  C5  UNL d   1       3.598   0.165  -1.489  0.00  0.00    -0.004 A 
ATOM      5  C6  UNL d   1       2.520  -0.011  -0.623  0.00  0.00     0.002 A 
ATOM      6  C7  UNL d   1       1.680   1.063  -0.325  0.00  0.00     0.002 A 
ENDROOT
BRANCH   1   7
ATOM      7  C1  UNL d   1       0.976   3.470  -0.609  0.00  0.00     0.055 C 
ATOM      8  C   UNL d   1       0.213   3.882  -1.860  0.00  0.00     0.019 C 
ENDBRANCH   1   7
TORSDOF 1
ENDMDL
