MODEL 1
REMARK minimizedAffinity 12.4753714
REMARK minimizedRMSD -1
REMARK  1 active torsions:
REMARK  status: ('A' for Active; 'I' for Inactive)
REMARK    1  A    between atoms: C1_2  and  C2_3 
ROOT
ATOM      1  C2  UNL d   1      -2.642  -3.772  -2.632  0.00  0.00    -0.077 A 
ATOM      2  C3  UNL d   1      -2.675  -5.114  -3.037  0.00  0.00     0.002 A 
ATOM      3  C4  UNL d   1      -3.594  -6.000  -2.472  0.00  0.00     0.002 A 
ATOM      4  C5  UNL d   1      -4.490  -5.553  -1.503  0.00  0.00    -0.004 A 
ATOM      5  C6  UNL d   1      -4.464  -4.220  -1.092  0.00  0.00     0.002 A 
ATOM      6  C7  UNL d   1      -3.545  -3.334  -1.655  0.00  0.00     0.002 A 
ENDROOT
BRANCH   1   7
ATOM      7  C1  UNL d   1      -1.684  -2.804  -3.275  0.00  0.00     0.055 C 
ATOM      8  C   UNL d   1      -0.259  -3.035  -2.797  0.00  0.00     0.019 C 
ENDBRANCH   1   7
TORSDOF 1
ENDMDL
