MODEL 1
REMARK minimizedAffinity 16.1267147
REMARK minimizedRMSD -1
REMARK  0 active torsions:
REMARK  status: ('A' for Active; 'I' for Inactive)
ROOT
ATOM      1  C   UNL d   1       2.241  -0.743   3.842  0.00  0.00    -0.002 A 
ATOM      2  C1  UNL d   1       1.085  -0.995   4.567  0.00  0.00     0.010 A 
ATOM      3  C2  UNL d   1      -0.090  -0.290   4.298  0.00  0.00     0.041 A 
ATOM      4  C3  UNL d   1      -0.084   0.680   3.277  0.00  0.00    -0.075 A 
ATOM      5  S   UNL d   1      -1.405   1.666   2.772  0.00  0.00     0.015 SA
ATOM      6  C4  UNL d   1      -0.467   2.444   1.581  0.00  0.00     0.022 A 
ATOM      7  C5  UNL d   1       0.826   1.976   1.556  0.00  0.00     0.026 A 
ATOM      8  C6  UNL d   1       1.068   0.951   2.533  0.00  0.00    -0.082 A 
ATOM      9  C7  UNL d   1       2.243   0.221   2.830  0.00  0.00     0.045 A 
ENDROOT
TORSDOF 0
ENDMDL
