MODEL 1
REMARK minimizedAffinity 8.65518665
REMARK minimizedRMSD -1
REMARK  0 active torsions:
REMARK  status: ('A' for Active; 'I' for Inactive)
ROOT
ATOM      1  C   UNL d   1      -0.571   2.885   1.713  0.00  0.00    -0.002 A 
ATOM      2  C1  UNL d   1       0.243   2.560   0.637  0.00  0.00     0.010 A 
ATOM      3  C2  UNL d   1       1.113   1.470   0.709  0.00  0.00     0.041 A 
ATOM      4  C3  UNL d   1       1.150   0.704   1.890  0.00  0.00    -0.075 A 
ATOM      5  S   UNL d   1       2.135  -0.675   2.205  0.00  0.00     0.015 SA
ATOM      6  C4  UNL d   1       1.498  -0.866   3.774  0.00  0.00     0.022 A 
ATOM      7  C5  UNL d   1       0.555   0.091   4.067  0.00  0.00     0.026 A 
ATOM      8  C6  UNL d   1       0.338   1.011   2.986  0.00  0.00    -0.082 A 
ATOM      9  C7  UNL d   1      -0.532   2.122   2.883  0.00  0.00     0.045 A 
ENDROOT
TORSDOF 0
ENDMDL
