MODEL 1
REMARK minimizedAffinity 12.8861666
REMARK minimizedRMSD -1
REMARK  0 active torsions:
REMARK  status: ('A' for Active; 'I' for Inactive)
ROOT
ATOM      1  C   UNL d   1      -3.499   2.242  -4.113  0.00  0.00    -0.002 A 
ATOM      2  C1  UNL d   1      -3.090   1.511  -5.219  0.00  0.00     0.010 A 
ATOM      3  C2  UNL d   1      -2.327   0.352  -5.061  0.00  0.00     0.041 A 
ATOM      4  C3  UNL d   1      -1.981  -0.065  -3.761  0.00  0.00    -0.075 A 
ATOM      5  S   UNL d   1      -1.055  -1.453  -3.326  0.00  0.00     0.015 SA
ATOM      6  C4  UNL d   1      -1.182  -1.108  -1.661  0.00  0.00     0.022 A 
ATOM      7  C5  UNL d   1      -1.909   0.035  -1.425  0.00  0.00     0.026 A 
ATOM      8  C6  UNL d   1      -2.382   0.654  -2.631  0.00  0.00    -0.082 A 
ATOM      9  C7  UNL d   1      -3.154   1.826  -2.824  0.00  0.00     0.045 A 
ENDROOT
TORSDOF 0
ENDMDL
