MODEL 1
REMARK minimizedAffinity 18.6198807
REMARK minimizedRMSD -1
REMARK  0 active torsions:
REMARK  status: ('A' for Active; 'I' for Inactive)
ROOT
ATOM      1  C   UNL d   1       1.326   4.263   0.318  0.00  0.00    -0.002 A 
ATOM      2  C1  UNL d   1       0.895   5.444  -0.271  0.00  0.00     0.010 A 
ATOM      3  C2  UNL d   1      -0.443   5.610  -0.634  0.00  0.00     0.041 A 
ATOM      4  C3  UNL d   1      -1.350   4.560  -0.391  0.00  0.00    -0.075 A 
ATOM      5  S   UNL d   1      -3.036   4.539  -0.750  0.00  0.00     0.015 SA
ATOM      6  C4  UNL d   1      -3.225   2.963  -0.129  0.00  0.00     0.022 A 
ATOM      7  C5  UNL d   1      -2.041   2.450   0.345  0.00  0.00     0.026 A 
ATOM      8  C6  UNL d   1      -0.941   3.362   0.202  0.00  0.00    -0.082 A 
ATOM      9  C7  UNL d   1       0.423   3.224   0.558  0.00  0.00     0.045 A 
ENDROOT
TORSDOF 0
ENDMDL
