MODEL 1
REMARK minimizedAffinity 15.4645958
REMARK minimizedRMSD -1
REMARK  0 active torsions:
REMARK  status: ('A' for Active; 'I' for Inactive)
ROOT
ATOM      1  C   UNL d   1       3.461   3.751   2.574  0.00  0.00    -0.002 A 
ATOM      2  C1  UNL d   1       3.083   2.496   3.029  0.00  0.00     0.010 A 
ATOM      3  C2  UNL d   1       1.936   1.876   2.531  0.00  0.00     0.041 A 
ATOM      4  C3  UNL d   1       1.168   2.544   1.557  0.00  0.00    -0.075 A 
ATOM      5  S   UNL d   1      -0.275   1.978   0.802  0.00  0.00     0.015 SA
ATOM      6  C4  UNL d   1      -0.424   3.389  -0.142  0.00  0.00     0.022 A 
ATOM      7  C5  UNL d   1       0.594   4.281   0.100  0.00  0.00     0.026 A 
ATOM      8  C6  UNL d   1       1.529   3.808   1.082  0.00  0.00    -0.082 A 
ATOM      9  C7  UNL d   1       2.697   4.411   1.608  0.00  0.00     0.045 A 
ENDROOT
TORSDOF 0
ENDMDL
