MODEL 1
REMARK minimizedAffinity 15.8874846
REMARK minimizedRMSD -1
REMARK  0 active torsions:
REMARK  status: ('A' for Active; 'I' for Inactive)
ROOT
ATOM      1  C   UNL d   1       0.944   4.279   0.729  0.00  0.00    -0.002 A 
ATOM      2  C1  UNL d   1      -0.051   3.327   0.899  0.00  0.00     0.010 A 
ATOM      3  C2  UNL d   1       0.108   2.289   1.818  0.00  0.00     0.041 A 
ATOM      4  C3  UNL d   1       1.296   2.224   2.574  0.00  0.00    -0.075 A 
ATOM      5  S   UNL d   1       1.710   1.043   3.759  0.00  0.00     0.015 SA
ATOM      6  C4  UNL d   1       3.218   1.775   4.069  0.00  0.00     0.022 A 
ATOM      7  C5  UNL d   1       3.417   2.893   3.295  0.00  0.00     0.026 A 
ATOM      8  C6  UNL d   1       2.312   3.171   2.421  0.00  0.00    -0.082 A 
ATOM      9  C7  UNL d   1       2.121   4.211   1.479  0.00  0.00     0.045 A 
ENDROOT
TORSDOF 0
ENDMDL
