MODEL 1
REMARK minimizedAffinity 17.7130623
REMARK minimizedRMSD -1
REMARK  0 active torsions:
REMARK  status: ('A' for Active; 'I' for Inactive)
ROOT
ATOM      1  C   UNL d   1      -0.233   4.877  -0.762  0.00  0.00    -0.002 A 
ATOM      2  C1  UNL d   1      -0.356   3.591  -0.256  0.00  0.00     0.010 A 
ATOM      3  C2  UNL d   1       0.501   3.138   0.749  0.00  0.00     0.041 A 
ATOM      4  C3  UNL d   1       1.493   4.008   1.242  0.00  0.00    -0.075 A 
ATOM      5  S   UNL d   1       2.654   3.671   2.471  0.00  0.00     0.015 SA
ATOM      6  C4  UNL d   1       3.340   5.227   2.354  0.00  0.00     0.022 A 
ATOM      7  C5  UNL d   1       2.712   5.998   1.405  0.00  0.00     0.026 A 
ATOM      8  C6  UNL d   1       1.636   5.308   0.749  0.00  0.00    -0.082 A 
ATOM      9  C7  UNL d   1       0.752   5.738  -0.270  0.00  0.00     0.045 A 
ENDROOT
TORSDOF 0
ENDMDL
