MODEL 1
REMARK minimizedAffinity 5.98546505
REMARK minimizedRMSD -1
REMARK  0 active torsions:
REMARK  status: ('A' for Active; 'I' for Inactive)
ROOT
ATOM      1  C   UNL d   1      -2.432   2.474  -5.223  0.00  0.00     0.124 A 
ATOM      2  C1  UNL d   1      -3.742   2.144  -4.908  0.00  0.00     0.062 A 
ATOM      3  C2  UNL d   1      -4.739   3.115  -4.958  0.00  0.00     0.162 A 
ATOM      4  C3  UNL d   1      -4.429   4.424  -5.325  0.00  0.00    -0.034 A 
ATOM      5  C4  UNL d   1      -3.108   4.748  -5.639  0.00  0.00     0.162 A 
ATOM      6  C5  UNL d   1      -2.116   3.775  -5.588  0.00  0.00     0.062 A 
ATOM      7  F   UNL d   1      -0.850   4.096  -5.893  0.00  0.00    -0.097 F 
ATOM      8  F1  UNL d   1      -2.776   5.998  -5.996  0.00  0.00    -0.096 F 
ATOM      9  I   UNL d   1      -5.917   5.878  -5.400  0.00  0.00    -0.060 I 
ATOM     10  F2  UNL d   1      -5.998   2.768  -4.648  0.00  0.00    -0.096 F 
ATOM     11  F3  UNL d   1      -4.050   0.888  -4.554  0.00  0.00    -0.097 F 
ATOM     12  F4  UNL d   1      -1.474   1.539  -5.174  0.00  0.00    -0.092 F 
ENDROOT
TORSDOF 0
ENDMDL
