MODEL 1
REMARK minimizedAffinity 29.6999989
REMARK minimizedRMSD -1
REMARK  0 active torsions:
REMARK  status: ('A' for Active; 'I' for Inactive)
ROOT
ATOM      1  C   UNL d   1      -1.870  -5.567  -3.122  0.00  0.00     0.124 A 
ATOM      2  C1  UNL d   1      -3.013  -5.304  -3.866  0.00  0.00     0.062 A 
ATOM      3  C2  UNL d   1      -4.170  -4.856  -3.236  0.00  0.00     0.162 A 
ATOM      4  C3  UNL d   1      -4.191  -4.666  -1.854  0.00  0.00    -0.034 A 
ATOM      5  C4  UNL d   1      -3.038  -4.933  -1.113  0.00  0.00     0.162 A 
ATOM      6  C5  UNL d   1      -1.884  -5.381  -1.747  0.00  0.00     0.062 A 
ATOM      7  F   UNL d   1      -0.782  -5.635  -1.027  0.00  0.00    -0.097 F 
ATOM      8  F1  UNL d   1      -3.024  -4.761   0.217  0.00  0.00    -0.096 F 
ATOM      9  I   UNL d   1      -5.919  -3.995  -0.909  0.00  0.00    -0.060 I 
ATOM     10  F2  UNL d   1      -5.259  -4.610  -3.979  0.00  0.00    -0.096 F 
ATOM     11  F3  UNL d   1      -3.002  -5.484  -5.195  0.00  0.00    -0.097 F 
ATOM     12  F4  UNL d   1      -0.759  -6.000  -3.731  0.00  0.00    -0.092 F 
ENDROOT
TORSDOF 0
ENDMDL
