MODEL 1
REMARK minimizedAffinity 25.4939938
REMARK minimizedRMSD -1
REMARK  0 active torsions:
REMARK  status: ('A' for Active; 'I' for Inactive)
ROOT
ATOM      1  C   UNL d   1       1.613  -2.040   0.452  0.00  0.00     0.124 A 
ATOM      2  C1  UNL d   1       1.344  -0.679   0.491  0.00  0.00     0.062 A 
ATOM      3  C2  UNL d   1       0.120  -0.221   0.972  0.00  0.00     0.162 A 
ATOM      4  C3  UNL d   1      -0.843  -1.125   1.419  0.00  0.00    -0.034 A 
ATOM      5  C4  UNL d   1      -0.565  -2.493   1.376  0.00  0.00     0.162 A 
ATOM      6  C5  UNL d   1       0.659  -2.945   0.895  0.00  0.00     0.062 A 
ATOM      7  F   UNL d   1       0.918  -4.261   0.858  0.00  0.00    -0.097 F 
ATOM      8  F1  UNL d   1      -1.469  -3.389   1.798  0.00  0.00    -0.096 F 
ATOM      9  I   UNL d   1      -2.673  -0.444   2.139  0.00  0.00    -0.060 I 
ATOM     10  F2  UNL d   1      -0.113   1.099   0.998  0.00  0.00    -0.096 F 
ATOM     11  F3  UNL d   1       2.264   0.197   0.063  0.00  0.00    -0.097 F 
ATOM     12  F4  UNL d   1       2.791  -2.478  -0.012  0.00  0.00    -0.092 F 
ENDROOT
TORSDOF 0
ENDMDL
