MODEL 1
REMARK minimizedAffinity 12.0258141
REMARK minimizedRMSD -1
REMARK  0 active torsions:
REMARK  status: ('A' for Active; 'I' for Inactive)
ROOT
ATOM      1  C   UNL d   1      -3.694   4.022  -4.746  0.00  0.00     0.124 A 
ATOM      2  C1  UNL d   1      -3.277   3.088  -3.807  0.00  0.00     0.062 A 
ATOM      3  C2  UNL d   1      -3.777   3.129  -2.509  0.00  0.00     0.162 A 
ATOM      4  C3  UNL d   1      -4.700   4.108  -2.141  0.00  0.00    -0.034 A 
ATOM      5  C4  UNL d   1      -5.113   5.045  -3.090  0.00  0.00     0.162 A 
ATOM      6  C5  UNL d   1      -4.611   4.999  -4.386  0.00  0.00     0.062 A 
ATOM      7  F   UNL d   1      -5.014   5.903  -5.292  0.00  0.00    -0.097 F 
ATOM      8  F1  UNL d   1      -5.999   6.000  -2.770  0.00  0.00    -0.096 F 
ATOM      9  I   UNL d   1      -5.449   4.174  -0.200  0.00  0.00    -0.060 I 
ATOM     10  F2  UNL d   1      -3.357   2.214  -1.623  0.00  0.00    -0.096 F 
ATOM     11  F3  UNL d   1      -2.391   2.143  -4.152  0.00  0.00    -0.097 F 
ATOM     12  F4  UNL d   1      -3.211   3.980  -5.994  0.00  0.00    -0.092 F 
ENDROOT
TORSDOF 0
ENDMDL
