MODEL 1
REMARK minimizedAffinity 20.4398041
REMARK minimizedRMSD -1
REMARK  0 active torsions:
REMARK  status: ('A' for Active; 'I' for Inactive)
ROOT
ATOM      1  C   UNL d   1       4.485   3.505  -0.416  0.00  0.00     0.124 A 
ATOM      2  C1  UNL d   1       3.725   2.793   0.501  0.00  0.00     0.062 A 
ATOM      3  C2  UNL d   1       3.727   3.158   1.844  0.00  0.00     0.162 A 
ATOM      4  C3  UNL d   1       4.491   4.241   2.279  0.00  0.00    -0.034 A 
ATOM      5  C4  UNL d   1       5.253   4.952   1.350  0.00  0.00     0.162 A 
ATOM      6  C5  UNL d   1       5.248   4.584   0.008  0.00  0.00     0.062 A 
ATOM      7  F   UNL d   1       5.983   5.273  -0.877  0.00  0.00    -0.097 F 
ATOM      8  F1  UNL d   1       5.999   5.999   1.733  0.00  0.00    -0.096 F 
ATOM      9  I   UNL d   1       4.496   4.790   4.286  0.00  0.00    -0.060 I 
ATOM     10  F2  UNL d   1       2.983   2.452   2.709  0.00  0.00    -0.096 F 
ATOM     11  F3  UNL d   1       2.987   1.751   0.093  0.00  0.00    -0.097 F 
ATOM     12  F4  UNL d   1       4.482   3.152  -1.708  0.00  0.00    -0.092 F 
ENDROOT
TORSDOF 0
ENDMDL
