MODEL 1
REMARK minimizedAffinity -1.42704415
REMARK minimizedRMSD -1
REMARK  0 active torsions:
REMARK  status: ('A' for Active; 'I' for Inactive)
ROOT
ATOM      1  C   UNL d   1      -3.673   3.518  -4.789  0.00  0.00     0.124 A 
ATOM      2  C1  UNL d   1      -3.656   2.495  -3.851  0.00  0.00     0.062 A 
ATOM      3  C2  UNL d   1      -4.319   2.647  -2.637  0.00  0.00     0.162 A 
ATOM      4  C3  UNL d   1      -5.007   3.827  -2.354  0.00  0.00    -0.034 A 
ATOM      5  C4  UNL d   1      -5.019   4.852  -3.302  0.00  0.00     0.162 A 
ATOM      6  C5  UNL d   1      -4.354   4.695  -4.514  0.00  0.00     0.062 A 
ATOM      7  F   UNL d   1      -4.372   5.685  -5.418  0.00  0.00    -0.097 F 
ATOM      8  F1  UNL d   1      -5.670   6.000  -3.062  0.00  0.00    -0.096 F 
ATOM      9  I   UNL d   1      -6.000   4.059  -0.540  0.00  0.00    -0.060 I 
ATOM     10  F2  UNL d   1      -4.286   1.642  -1.750  0.00  0.00    -0.096 F 
ATOM     11  F3  UNL d   1      -2.998   1.357  -4.115  0.00  0.00    -0.097 F 
ATOM     12  F4  UNL d   1      -3.033   3.369  -5.956  0.00  0.00    -0.092 F 
ENDROOT
TORSDOF 0
ENDMDL
