MODEL 1
REMARK minimizedAffinity 4.52605534
REMARK minimizedRMSD -1
REMARK  0 active torsions:
REMARK  status: ('A' for Active; 'I' for Inactive)
ROOT
ATOM      1  C   UNL d   1      -5.446   3.601  -4.669  0.00  0.00     0.124 A 
ATOM      2  C1  UNL d   1      -5.403   2.415  -3.950  0.00  0.00     0.062 A 
ATOM      3  C2  UNL d   1      -5.560   2.429  -2.567  0.00  0.00     0.162 A 
ATOM      4  C3  UNL d   1      -5.763   3.633  -1.894  0.00  0.00    -0.034 A 
ATOM      5  C4  UNL d   1      -5.804   4.822  -2.624  0.00  0.00     0.162 A 
ATOM      6  C5  UNL d   1      -5.647   4.803  -4.006  0.00  0.00     0.062 A 
ATOM      7  F   UNL d   1      -5.689   5.950  -4.700  0.00  0.00    -0.097 F 
ATOM      8  F1  UNL d   1      -5.997   5.999  -2.009  0.00  0.00    -0.096 F 
ATOM      9  I   UNL d   1      -5.998   3.659   0.174  0.00  0.00    -0.060 I 
ATOM     10  F2  UNL d   1      -5.515   1.267  -1.897  0.00  0.00    -0.096 F 
ATOM     11  F3  UNL d   1      -5.209   1.251  -4.588  0.00  0.00    -0.097 F 
ATOM     12  F4  UNL d   1      -5.294   3.584  -6.000  0.00  0.00    -0.092 F 
ENDROOT
TORSDOF 0
ENDMDL
