MODEL 1
REMARK minimizedAffinity 2.79617071
REMARK minimizedRMSD -1
REMARK  0 active torsions:
REMARK  status: ('A' for Active; 'I' for Inactive)
ROOT
ATOM      1  C   UNL d   1      -5.980   1.978   0.813  0.00  0.00     0.124 A 
ATOM      2  C1  UNL d   1      -5.987   3.357   0.965  0.00  0.00     0.062 A 
ATOM      3  C2  UNL d   1      -5.993   4.185  -0.155  0.00  0.00     0.162 A 
ATOM      4  C3  UNL d   1      -5.991   3.634  -1.436  0.00  0.00    -0.034 A 
ATOM      5  C4  UNL d   1      -5.983   2.246  -1.581  0.00  0.00     0.162 A 
ATOM      6  C5  UNL d   1      -5.978   1.423  -0.459  0.00  0.00     0.062 A 
ATOM      7  F   UNL d   1      -5.970   0.091  -0.607  0.00  0.00    -0.097 F 
ATOM      8  F1  UNL d   1      -5.982   1.683  -2.799  0.00  0.00    -0.096 F 
ATOM      9  I   UNL d   1      -5.999   4.868  -3.113  0.00  0.00    -0.060 I 
ATOM     10  F2  UNL d   1      -6.000   5.514   0.021  0.00  0.00    -0.096 F 
ATOM     11  F3  UNL d   1      -5.988   3.896   2.193  0.00  0.00    -0.097 F 
ATOM     12  F4  UNL d   1      -5.974   1.184   1.892  0.00  0.00    -0.092 F 
ENDROOT
TORSDOF 0
ENDMDL
