MODEL 1
REMARK minimizedAffinity 8.21694565
REMARK minimizedRMSD -1
REMARK  0 active torsions:
REMARK  status: ('A' for Active; 'I' for Inactive)
ROOT
ATOM      1  C   UNL d   1      -1.013  -0.532   1.362  0.00  0.00     0.124 A 
ATOM      2  C1  UNL d   1      -2.375  -0.641   1.606  0.00  0.00     0.062 A 
ATOM      3  C2  UNL d   1      -3.145  -1.548   0.884  0.00  0.00     0.162 A 
ATOM      4  C3  UNL d   1      -2.554  -2.355  -0.089  0.00  0.00    -0.034 A 
ATOM      5  C4  UNL d   1      -1.184  -2.239  -0.329  0.00  0.00     0.162 A 
ATOM      6  C5  UNL d   1      -0.419  -1.331   0.395  0.00  0.00     0.062 A 
ATOM      7  F   UNL d   1       0.897  -1.227   0.158  0.00  0.00    -0.097 F 
ATOM      8  F1  UNL d   1      -0.584  -3.000  -1.257  0.00  0.00    -0.096 F 
ATOM      9  I   UNL d   1      -3.702  -3.713  -1.171  0.00  0.00    -0.060 I 
ATOM     10  F2  UNL d   1      -4.459  -1.632   1.140  0.00  0.00    -0.096 F 
ATOM     11  F3  UNL d   1      -2.951   0.130   2.539  0.00  0.00    -0.097 F 
ATOM     12  F4  UNL d   1      -0.274   0.342   2.058  0.00  0.00    -0.092 F 
ENDROOT
TORSDOF 0
ENDMDL
