MODEL 1
REMARK minimizedAffinity 7.10387182
REMARK minimizedRMSD -1
REMARK  0 active torsions:
REMARK  status: ('A' for Active; 'I' for Inactive)
ROOT
ATOM      1  C   UNL d   1       4.895   0.799  -3.928  0.00  0.00     0.124 A 
ATOM      2  C1  UNL d   1       4.640   1.671  -4.977  0.00  0.00     0.062 A 
ATOM      3  C2  UNL d   1       3.492   2.457  -4.970  0.00  0.00     0.162 A 
ATOM      4  C3  UNL d   1       2.589   2.376  -3.910  0.00  0.00    -0.034 A 
ATOM      5  C4  UNL d   1       2.851   1.495  -2.859  0.00  0.00     0.162 A 
ATOM      6  C5  UNL d   1       4.000   0.712  -2.870  0.00  0.00     0.062 A 
ATOM      7  F   UNL d   1       4.245  -0.131  -1.856  0.00  0.00    -0.097 F 
ATOM      8  F1  UNL d   1       2.004   1.392  -1.824  0.00  0.00    -0.096 F 
ATOM      9  I   UNL d   1       0.871   3.550  -3.897  0.00  0.00    -0.060 I 
ATOM     10  F2  UNL d   1       3.272   3.292  -5.997  0.00  0.00    -0.096 F 
ATOM     11  F3  UNL d   1       5.502   1.756  -6.000  0.00  0.00    -0.097 F 
ATOM     12  F4  UNL d   1       6.000   0.042  -3.937  0.00  0.00    -0.092 F 
ENDROOT
TORSDOF 0
ENDMDL
