MODEL 1
REMARK minimizedAffinity 26.2012997
REMARK minimizedRMSD -1
REMARK  0 active torsions:
REMARK  status: ('A' for Active; 'I' for Inactive)
ROOT
ATOM      1  C   UNL d   1       0.379   0.560  -4.423  0.00  0.00     0.124 A 
ATOM      2  C1  UNL d   1      -0.792   0.942  -5.062  0.00  0.00     0.062 A 
ATOM      3  C2  UNL d   1      -1.012   2.279  -5.380  0.00  0.00     0.162 A 
ATOM      4  C3  UNL d   1      -0.057   3.245  -5.059  0.00  0.00    -0.034 A 
ATOM      5  C4  UNL d   1       1.118   2.853  -4.415  0.00  0.00     0.162 A 
ATOM      6  C5  UNL d   1       1.333   1.515  -4.100  0.00  0.00     0.062 A 
ATOM      7  F   UNL d   1       2.465   1.148  -3.483  0.00  0.00    -0.097 F 
ATOM      8  F1  UNL d   1       2.056   3.755  -4.093  0.00  0.00    -0.096 F 
ATOM      9  I   UNL d   1      -0.383   5.245  -5.532  0.00  0.00    -0.060 I 
ATOM     10  F2  UNL d   1      -2.153   2.620  -5.998  0.00  0.00    -0.096 F 
ATOM     11  F3  UNL d   1      -1.715   0.021  -5.374  0.00  0.00    -0.097 F 
ATOM     12  F4  UNL d   1       0.588  -0.727  -4.118  0.00  0.00    -0.092 F 
ENDROOT
TORSDOF 0
ENDMDL
