MODEL 1
REMARK minimizedAffinity 22.5273819
REMARK minimizedRMSD -1
REMARK  0 active torsions:
REMARK  status: ('A' for Active; 'I' for Inactive)
ROOT
ATOM      1  C   UNL d   1      -2.435  -1.884   1.962  0.00  0.00     0.124 A 
ATOM      2  C1  UNL d   1      -2.554  -0.561   1.560  0.00  0.00     0.062 A 
ATOM      3  C2  UNL d   1      -2.580  -0.239   0.207  0.00  0.00     0.162 A 
ATOM      4  C3  UNL d   1      -2.488  -1.243  -0.757  0.00  0.00    -0.034 A 
ATOM      5  C4  UNL d   1      -2.368  -2.572  -0.346  0.00  0.00     0.162 A 
ATOM      6  C5  UNL d   1      -2.342  -2.888   1.008  0.00  0.00     0.062 A 
ATOM      7  F   UNL d   1      -2.227  -4.168   1.394  0.00  0.00    -0.097 F 
ATOM      8  F1  UNL d   1      -2.277  -3.562  -1.246  0.00  0.00    -0.096 F 
ATOM      9  I   UNL d   1      -2.527  -0.767  -2.783  0.00  0.00    -0.060 I 
ATOM     10  F2  UNL d   1      -2.697   1.048  -0.152  0.00  0.00    -0.096 F 
ATOM     11  F3  UNL d   1      -2.643   0.411   2.480  0.00  0.00    -0.097 F 
ATOM     12  F4  UNL d   1      -2.409  -2.191   3.265  0.00  0.00    -0.092 F 
ENDROOT
TORSDOF 0
ENDMDL
