MODEL 1
REMARK minimizedAffinity 28.1353664
REMARK minimizedRMSD -1
REMARK  0 active torsions:
REMARK  status: ('A' for Active; 'I' for Inactive)
ROOT
ATOM      1  C   UNL d   1       0.508   0.780  -3.678  0.00  0.00     0.124 A 
ATOM      2  C1  UNL d   1       1.359   1.864  -3.517  0.00  0.00     0.062 A 
ATOM      3  C2  UNL d   1       1.099   3.062  -4.177  0.00  0.00     0.162 A 
ATOM      4  C3  UNL d   1      -0.017   3.182  -5.004  0.00  0.00    -0.034 A 
ATOM      5  C4  UNL d   1      -0.868   2.086  -5.162  0.00  0.00     0.162 A 
ATOM      6  C5  UNL d   1      -0.605   0.892  -4.500  0.00  0.00     0.062 A 
ATOM      7  F   UNL d   1      -1.428  -0.155  -4.656  0.00  0.00    -0.097 F 
ATOM      8  F1  UNL d   1      -1.951   2.167  -5.950  0.00  0.00    -0.096 F 
ATOM      9  I   UNL d   1      -0.409   4.971  -5.993  0.00  0.00    -0.060 I 
ATOM     10  F2  UNL d   1       1.939   4.093  -4.003  0.00  0.00    -0.096 F 
ATOM     11  F3  UNL d   1       2.435   1.759  -2.724  0.00  0.00    -0.097 F 
ATOM     12  F4  UNL d   1       0.760  -0.371  -3.042  0.00  0.00    -0.092 F 
ENDROOT
TORSDOF 0
ENDMDL
