MODEL 1
REMARK minimizedAffinity 18.2709522
REMARK minimizedRMSD -1
REMARK  0 active torsions:
REMARK  status: ('A' for Active; 'I' for Inactive)
ROOT
ATOM      1  C   UNL d   1      -5.785   4.817  -1.928  0.00  0.00     0.124 A 
ATOM      2  C1  UNL d   1      -5.837   4.835  -0.541  0.00  0.00     0.062 A 
ATOM      3  C2  UNL d   1      -5.739   3.648   0.179  0.00  0.00     0.162 A 
ATOM      4  C3  UNL d   1      -5.586   2.432  -0.487  0.00  0.00    -0.034 A 
ATOM      5  C4  UNL d   1      -5.535   2.421  -1.882  0.00  0.00     0.162 A 
ATOM      6  C5  UNL d   1      -5.634   3.611  -2.597  0.00  0.00     0.062 A 
ATOM      7  F   UNL d   1      -5.584   3.591  -3.937  0.00  0.00    -0.097 F 
ATOM      8  F1  UNL d   1      -5.389   1.270  -2.554  0.00  0.00    -0.096 F 
ATOM      9  I   UNL d   1      -5.438   0.655   0.586  0.00  0.00    -0.060 I 
ATOM     10  F2  UNL d   1      -5.792   3.696   1.518  0.00  0.00    -0.096 F 
ATOM     11  F3  UNL d   1      -5.984   6.000   0.108  0.00  0.00    -0.097 F 
ATOM     12  F4  UNL d   1      -5.881   5.961  -2.618  0.00  0.00    -0.092 F 
ENDROOT
TORSDOF 0
ENDMDL
