MODEL 1
REMARK minimizedAffinity 25.4194794
REMARK minimizedRMSD -1
REMARK  0 active torsions:
REMARK  status: ('A' for Active; 'I' for Inactive)
ROOT
ATOM      1  C   UNL d   1       1.611   1.089  -3.295  0.00  0.00     0.124 A 
ATOM      2  C1  UNL d   1       2.139   2.357  -3.492  0.00  0.00     0.062 A 
ATOM      3  C2  UNL d   1       1.419   3.313  -4.204  0.00  0.00     0.162 A 
ATOM      4  C3  UNL d   1       0.162   3.004  -4.723  0.00  0.00    -0.034 A 
ATOM      5  C4  UNL d   1      -0.362   1.726  -4.522  0.00  0.00     0.162 A 
ATOM      6  C5  UNL d   1       0.361   0.774  -3.811  0.00  0.00     0.062 A 
ATOM      7  F   UNL d   1      -0.151  -0.451  -3.622  0.00  0.00    -0.097 F 
ATOM      8  F1  UNL d   1      -1.568   1.395  -5.009  0.00  0.00    -0.096 F 
ATOM      9  I   UNL d   1      -0.917   4.430  -5.788  0.00  0.00    -0.060 I 
ATOM     10  F2  UNL d   1       1.954   4.530  -4.378  0.00  0.00    -0.096 F 
ATOM     11  F3  UNL d   1       3.347   2.663  -2.996  0.00  0.00    -0.097 F 
ATOM     12  F4  UNL d   1       2.306   0.171  -2.611  0.00  0.00    -0.092 F 
ENDROOT
TORSDOF 0
ENDMDL
