MODEL 1
REMARK minimizedAffinity 27.6776791
REMARK minimizedRMSD -1
REMARK  0 active torsions:
REMARK  status: ('A' for Active; 'I' for Inactive)
ROOT
ATOM      1  C   UNL d   1       4.099   2.421  -5.331  0.00  0.00     0.124 A 
ATOM      2  C1  UNL d   1       2.790   1.976  -5.211  0.00  0.00     0.062 A 
ATOM      3  C2  UNL d   1       1.731   2.868  -5.357  0.00  0.00     0.162 A 
ATOM      4  C3  UNL d   1       1.977   4.215  -5.624  0.00  0.00    -0.034 A 
ATOM      5  C4  UNL d   1       3.297   4.655  -5.742  0.00  0.00     0.162 A 
ATOM      6  C5  UNL d   1       4.351   3.760  -5.596  0.00  0.00     0.062 A 
ATOM      7  F   UNL d   1       5.615   4.192  -5.711  0.00  0.00    -0.097 F 
ATOM      8  F1  UNL d   1       3.569   5.943  -5.998  0.00  0.00    -0.096 F 
ATOM      9  I   UNL d   1       0.397   5.552  -5.841  0.00  0.00    -0.060 I 
ATOM     10  F2  UNL d   1       0.476   2.410  -5.236  0.00  0.00    -0.096 F 
ATOM     11  F3  UNL d   1       2.543   0.683  -4.955  0.00  0.00    -0.097 F 
ATOM     12  F4  UNL d   1       5.116   1.561  -5.190  0.00  0.00    -0.092 F 
ENDROOT
TORSDOF 0
ENDMDL
