MODEL 1
REMARK minimizedAffinity 32.0274544
REMARK minimizedRMSD -1
REMARK  0 active torsions:
REMARK  status: ('A' for Active; 'I' for Inactive)
ROOT
ATOM      1  C   UNL d   1      -2.308  -4.731  -0.351  0.00  0.00     0.124 A 
ATOM      2  C1  UNL d   1      -3.461  -4.890  -1.107  0.00  0.00     0.062 A 
ATOM      3  C2  UNL d   1      -3.374  -5.250  -2.449  0.00  0.00     0.162 A 
ATOM      4  C3  UNL d   1      -2.129  -5.456  -3.043  0.00  0.00    -0.034 A 
ATOM      5  C4  UNL d   1      -0.974  -5.294  -2.276  0.00  0.00     0.162 A 
ATOM      6  C5  UNL d   1      -1.066  -4.933  -0.936  0.00  0.00     0.062 A 
ATOM      7  F   UNL d   1       0.049  -4.781  -0.207  0.00  0.00    -0.097 F 
ATOM      8  F1  UNL d   1       0.240  -5.484  -2.816  0.00  0.00    -0.096 F 
ATOM      9  I   UNL d   1      -1.994  -5.995  -5.049  0.00  0.00    -0.060 I 
ATOM     10  F2  UNL d   1      -4.504  -5.396  -3.156  0.00  0.00    -0.096 F 
ATOM     11  F3  UNL d   1      -4.662  -4.694  -0.545  0.00  0.00    -0.097 F 
ATOM     12  F4  UNL d   1      -2.395  -4.384   0.939  0.00  0.00    -0.092 F 
ENDROOT
TORSDOF 0
ENDMDL
