MODEL 1
REMARK minimizedAffinity 17.0761757
REMARK minimizedRMSD -1
REMARK  0 active torsions:
REMARK  status: ('A' for Active; 'I' for Inactive)
ROOT
ATOM      1  C   UNL d   1       2.802  -1.734  -1.526  0.00  0.00     0.124 A 
ATOM      2  C1  UNL d   1       2.995  -1.894  -0.161  0.00  0.00     0.062 A 
ATOM      3  C2  UNL d   1       2.026  -1.459   0.739  0.00  0.00     0.162 A 
ATOM      4  C3  UNL d   1       0.854  -0.862   0.276  0.00  0.00    -0.034 A 
ATOM      5  C4  UNL d   1       0.667  -0.704  -1.099  0.00  0.00     0.162 A 
ATOM      6  C5  UNL d   1       1.639  -1.139  -1.994  0.00  0.00     0.062 A 
ATOM      7  F   UNL d   1       1.451  -0.984  -3.312  0.00  0.00    -0.097 F 
ATOM      8  F1  UNL d   1      -0.448  -0.134  -1.578  0.00  0.00    -0.096 F 
ATOM      9  I   UNL d   1      -0.598  -0.212   1.617  0.00  0.00    -0.060 I 
ATOM     10  F2  UNL d   1       2.239  -1.627   2.052  0.00  0.00    -0.096 F 
ATOM     11  F3  UNL d   1       4.119  -2.467   0.293  0.00  0.00    -0.097 F 
ATOM     12  F4  UNL d   1       3.737  -2.152  -2.389  0.00  0.00    -0.092 F 
ENDROOT
TORSDOF 0
ENDMDL
