MODEL 1
REMARK minimizedAffinity 14.2566795
REMARK minimizedRMSD -1
REMARK  0 active torsions:
REMARK  status: ('A' for Active; 'I' for Inactive)
ROOT
ATOM      1  C   UNL d   1      -1.150  -0.348   1.791  0.00  0.00     0.124 A 
ATOM      2  C1  UNL d   1      -0.441  -1.515   1.543  0.00  0.00     0.062 A 
ATOM      3  C2  UNL d   1       0.580  -1.527   0.598  0.00  0.00     0.162 A 
ATOM      4  C3  UNL d   1       0.901  -0.366  -0.106  0.00  0.00    -0.034 A 
ATOM      5  C4  UNL d   1       0.184   0.804   0.148  0.00  0.00     0.162 A 
ATOM      6  C5  UNL d   1      -0.836   0.810   1.094  0.00  0.00     0.062 A 
ATOM      7  F   UNL d   1      -1.520   1.940   1.332  0.00  0.00    -0.097 F 
ATOM      8  F1  UNL d   1       0.466   1.938  -0.511  0.00  0.00    -0.096 F 
ATOM      9  I   UNL d   1       2.428  -0.380  -1.520  0.00  0.00    -0.060 I 
ATOM     10  F2  UNL d   1       1.248  -2.670   0.378  0.00  0.00    -0.096 F 
ATOM     11  F3  UNL d   1      -0.743  -2.636   2.214  0.00  0.00    -0.097 F 
ATOM     12  F4  UNL d   1      -2.133  -0.340   2.700  0.00  0.00    -0.092 F 
ENDROOT
TORSDOF 0
ENDMDL
