MODEL 1
REMARK minimizedAffinity 18.4681778
REMARK minimizedRMSD -1
REMARK  0 active torsions:
REMARK  status: ('A' for Active; 'I' for Inactive)
ROOT
ATOM      1  C   UNL d   1       2.436  -1.303  -2.807  0.00  0.00     0.124 A 
ATOM      2  C1  UNL d   1       1.710  -0.203  -3.243  0.00  0.00     0.062 A 
ATOM      3  C2  UNL d   1       0.959   0.543  -2.339  0.00  0.00     0.162 A 
ATOM      4  C3  UNL d   1       0.932   0.193  -0.989  0.00  0.00    -0.034 A 
ATOM      5  C4  UNL d   1       1.663  -0.915  -0.559  0.00  0.00     0.162 A 
ATOM      6  C5  UNL d   1       2.412  -1.657  -1.466  0.00  0.00     0.062 A 
ATOM      7  F   UNL d   1       3.113  -2.720  -1.043  0.00  0.00    -0.097 F 
ATOM      8  F1  UNL d   1       1.659  -1.279   0.732  0.00  0.00    -0.096 F 
ATOM      9  I   UNL d   1      -0.189   1.307   0.365  0.00  0.00    -0.060 I 
ATOM     10  F2  UNL d   1       0.268   1.601  -2.789  0.00  0.00    -0.096 F 
ATOM     11  F3  UNL d   1       1.730   0.141  -4.539  0.00  0.00    -0.097 F 
ATOM     12  F4  UNL d   1       3.156  -2.020  -3.679  0.00  0.00    -0.092 F 
ENDROOT
TORSDOF 0
ENDMDL
