MODEL 1
REMARK minimizedAffinity 5.75325918
REMARK minimizedRMSD -1
REMARK  0 active torsions:
REMARK  status: ('A' for Active; 'I' for Inactive)
ROOT
ATOM      1  C   UNL d   1       1.695   0.871   3.661  0.00  0.00     0.078 C 
ATOM      2  C1  UNL d   1       3.001   1.588   3.831  0.00  0.00    -0.077 A 
ATOM      3  C2  UNL d   1       3.750   1.453   5.006  0.00  0.00    -0.001 A 
ATOM      4  C3  UNL d   1       4.959   2.135   5.154  0.00  0.00     0.003 A 
ATOM      5  C4  UNL d   1       5.429   2.957   4.132  0.00  0.00    -0.005 A 
ATOM      6  C5  UNL d   1       4.689   3.098   2.960  0.00  0.00     0.003 A 
ATOM      7  C6  UNL d   1       3.480   2.418   2.810  0.00  0.00    -0.001 A 
ENDROOT
TORSDOF 0
ENDMDL
