MODEL 1
REMARK minimizedAffinity 0.0072985678
REMARK minimizedRMSD -1
REMARK  0 active torsions:
REMARK  status: ('A' for Active; 'I' for Inactive)
ROOT
ATOM      1  C   UNL d   1       0.435  -0.070  -0.850  0.00  0.00     0.078 C 
ATOM      2  C1  UNL d   1       1.912  -0.106  -1.109  0.00  0.00    -0.077 A 
ATOM      3  C2  UNL d   1       2.658   1.076  -1.190  0.00  0.00    -0.001 A 
ATOM      4  C3  UNL d   1       4.030   1.029  -1.440  0.00  0.00     0.003 A 
ATOM      5  C4  UNL d   1       4.668  -0.198  -1.614  0.00  0.00    -0.005 A 
ATOM      6  C5  UNL d   1       3.933  -1.379  -1.538  0.00  0.00     0.003 A 
ATOM      7  C6  UNL d   1       2.561  -1.334  -1.287  0.00  0.00    -0.001 A 
ENDROOT
TORSDOF 0
ENDMDL
