MODEL 1
REMARK minimizedAffinity -2.75821376
REMARK minimizedRMSD -1
REMARK  0 active torsions:
REMARK  status: ('A' for Active; 'I' for Inactive)
ROOT
ATOM      1  C   UNL d   1       4.032  -3.334  -3.264  0.00  0.00     0.078 C 
ATOM      2  C1  UNL d   1       4.058  -1.992  -2.595  0.00  0.00    -0.077 A 
ATOM      3  C2  UNL d   1       3.164  -1.682  -1.563  0.00  0.00    -0.001 A 
ATOM      4  C3  UNL d   1       3.193  -0.426  -0.956  0.00  0.00     0.003 A 
ATOM      5  C4  UNL d   1       4.114   0.532  -1.376  0.00  0.00    -0.005 A 
ATOM      6  C5  UNL d   1       5.007   0.234  -2.404  0.00  0.00     0.003 A 
ATOM      7  C6  UNL d   1       4.979  -1.022  -3.012  0.00  0.00    -0.001 A 
ENDROOT
TORSDOF 0
ENDMDL
