MODEL 1
REMARK minimizedAffinity 2.56177831
REMARK minimizedRMSD -1
REMARK  0 active torsions:
REMARK  status: ('A' for Active; 'I' for Inactive)
ROOT
ATOM      1  C   UNL d   1       3.763   0.539  -1.283  0.00  0.00     0.078 C 
ATOM      2  C1  UNL d   1       2.483  -0.227  -1.126  0.00  0.00    -0.077 A 
ATOM      3  C2  UNL d   1       2.457  -1.622  -1.250  0.00  0.00    -0.001 A 
ATOM      4  C3  UNL d   1       1.257  -2.321  -1.112  0.00  0.00     0.003 A 
ATOM      5  C4  UNL d   1       0.074  -1.634  -0.849  0.00  0.00    -0.005 A 
ATOM      6  C5  UNL d   1       0.089  -0.246  -0.726  0.00  0.00     0.003 A 
ATOM      7  C6  UNL d   1       1.288   0.455  -0.865  0.00  0.00    -0.001 A 
ENDROOT
TORSDOF 0
ENDMDL
