MODEL 1
REMARK minimizedAffinity -6.40844345
REMARK minimizedRMSD -1
REMARK  0 active torsions:
REMARK  status: ('A' for Active; 'I' for Inactive)
ROOT
ATOM      1  C   UNL d   1      -1.464   3.160  -0.806  0.00  0.00     0.077 C 
ATOM      2  C1  UNL d   1      -0.920   2.086   0.088  0.00  0.00    -0.074 A 
ATOM      3  C2  UNL d   1      -0.875   2.259   1.475  0.00  0.00    -0.005 A 
ATOM      4  C3  UNL d   1      -0.375   1.247   2.294  0.00  0.00     0.006 A 
ATOM      5  C4  UNL d   1       0.083   0.053   1.736  0.00  0.00    -0.005 A 
ATOM      6  C5  UNL d   1       0.044  -0.139   0.351  0.00  0.00    -0.074 A 
ATOM      7  C6  UNL d   1       0.524  -1.420  -0.264  0.00  0.00     0.077 C 
ATOM      8  C7  UNL d   1      -0.465   0.880  -0.465  0.00  0.00    -0.001 A 
ENDROOT
TORSDOF 0
ENDMDL
