MODEL 1
REMARK minimizedAffinity -3.29873824
REMARK minimizedRMSD -1
REMARK  0 active torsions:
REMARK  status: ('A' for Active; 'I' for Inactive)
ROOT
ATOM      1  C   UNL d   1       0.123   0.116   1.310  0.00  0.00     0.077 C 
ATOM      2  C1  UNL d   1       0.054  -0.755   0.091  0.00  0.00    -0.074 A 
ATOM      3  C2  UNL d   1       0.682  -0.376  -1.100  0.00  0.00    -0.005 A 
ATOM      4  C3  UNL d   1       0.617  -1.201  -2.223  0.00  0.00     0.006 A 
ATOM      5  C4  UNL d   1      -0.075  -2.411  -2.167  0.00  0.00    -0.005 A 
ATOM      6  C5  UNL d   1      -0.709  -2.807  -0.985  0.00  0.00    -0.074 A 
ATOM      7  C6  UNL d   1      -1.449  -4.109  -0.904  0.00  0.00     0.077 C 
ATOM      8  C7  UNL d   1      -0.633  -1.976   0.142  0.00  0.00    -0.001 A 
ENDROOT
TORSDOF 0
ENDMDL
