MODEL 1
REMARK minimizedAffinity -4.88838863
REMARK minimizedRMSD -1
REMARK  0 active torsions:
REMARK  status: ('A' for Active; 'I' for Inactive)
ROOT
ATOM      1  C   UNL d   1      -1.839   4.046   1.499  0.00  0.00     0.077 C 
ATOM      2  C1  UNL d   1      -1.273   2.835   0.819  0.00  0.00    -0.074 A 
ATOM      3  C2  UNL d   1      -1.360   2.683  -0.569  0.00  0.00    -0.005 A 
ATOM      4  C3  UNL d   1      -0.820   1.556  -1.188  0.00  0.00     0.006 A 
ATOM      5  C4  UNL d   1      -0.188   0.572  -0.428  0.00  0.00    -0.005 A 
ATOM      6  C5  UNL d   1      -0.090   0.707   0.960  0.00  0.00    -0.074 A 
ATOM      7  C6  UNL d   1       0.596  -0.337   1.791  0.00  0.00     0.077 C 
ATOM      8  C7  UNL d   1      -0.629   1.845   1.575  0.00  0.00    -0.001 A 
ENDROOT
TORSDOF 0
ENDMDL
