MODEL 1
REMARK minimizedAffinity -6.41817474
REMARK minimizedRMSD -1
REMARK  0 active torsions:
REMARK  status: ('A' for Active; 'I' for Inactive)
ROOT
ATOM      1  C   UNL d   1       0.193  -0.817  -1.246  0.00  0.00     0.077 C 
ATOM      2  C1  UNL d   1      -0.256   0.566  -0.877  0.00  0.00    -0.074 A 
ATOM      3  C2  UNL d   1      -0.241   1.601  -1.818  0.00  0.00    -0.005 A 
ATOM      4  C3  UNL d   1      -0.671   2.879  -1.463  0.00  0.00     0.006 A 
ATOM      5  C4  UNL d   1      -1.120   3.135  -0.166  0.00  0.00    -0.005 A 
ATOM      6  C5  UNL d   1      -1.143   2.113   0.787  0.00  0.00    -0.074 A 
ATOM      7  C6  UNL d   1      -1.631   2.368   2.182  0.00  0.00     0.077 C 
ATOM      8  C7  UNL d   1      -0.716   0.829   0.421  0.00  0.00    -0.001 A 
ENDROOT
TORSDOF 0
ENDMDL
