MODEL 1
REMARK minimizedAffinity -5.5766964
REMARK minimizedRMSD -1
REMARK  0 active torsions:
REMARK  status: ('A' for Active; 'I' for Inactive)
ROOT
ATOM      1  C   UNL d   1      -1.303   2.961   1.345  0.00  0.00     0.077 C 
ATOM      2  C1  UNL d   1      -0.609   1.699   0.926  0.00  0.00    -0.074 A 
ATOM      3  C2  UNL d   1      -0.646   1.265  -0.403  0.00  0.00    -0.005 A 
ATOM      4  C3  UNL d   1       0.012   0.094  -0.779  0.00  0.00     0.006 A 
ATOM      5  C4  UNL d   1       0.713  -0.653   0.168  0.00  0.00    -0.005 A 
ATOM      6  C5  UNL d   1       0.763  -0.235   1.501  0.00  0.00    -0.074 A 
ATOM      7  C6  UNL d   1       1.520  -1.021   2.529  0.00  0.00     0.077 C 
ATOM      8  C7  UNL d   1       0.105   0.947   1.870  0.00  0.00    -0.001 A 
ENDROOT
TORSDOF 0
ENDMDL
