MODEL 1
REMARK minimizedAffinity 4.25183296
REMARK minimizedRMSD -1
REMARK  0 active torsions:
REMARK  status: ('A' for Active; 'I' for Inactive)
ROOT
ATOM      1  C   UNL d   1       0.128  -0.446   2.342  0.00  0.00     0.077 C 
ATOM      2  C1  UNL d   1       0.213   1.017   2.026  0.00  0.00    -0.074 A 
ATOM      3  C2  UNL d   1       0.391   1.963   3.041  0.00  0.00    -0.005 A 
ATOM      4  C3  UNL d   1       0.477   3.320   2.731  0.00  0.00     0.006 A 
ATOM      5  C4  UNL d   1       0.386   3.745   1.405  0.00  0.00    -0.005 A 
ATOM      6  C5  UNL d   1       0.209   2.814   0.376  0.00  0.00    -0.074 A 
ATOM      7  C6  UNL d   1       0.120   3.253  -1.055  0.00  0.00     0.077 C 
ATOM      8  C7  UNL d   1       0.130   1.451   0.695  0.00  0.00    -0.001 A 
ENDROOT
TORSDOF 0
ENDMDL
