MODEL 1
REMARK minimizedAffinity -2.73297358
REMARK minimizedRMSD -1
REMARK  0 active torsions:
REMARK  status: ('A' for Active; 'I' for Inactive)
ROOT
ATOM      1  C   UNL d   1       0.202  -0.664   2.988  0.00  0.00     0.077 C 
ATOM      2  C1  UNL d   1      -0.108   0.601   2.243  0.00  0.00    -0.074 A 
ATOM      3  C2  UNL d   1       0.724   1.720   2.349  0.00  0.00    -0.005 A 
ATOM      4  C3  UNL d   1       0.427   2.885   1.642  0.00  0.00     0.006 A 
ATOM      5  C4  UNL d   1      -0.702   2.944   0.825  0.00  0.00    -0.005 A 
ATOM      6  C5  UNL d   1      -1.545   1.834   0.706  0.00  0.00    -0.074 A 
ATOM      7  C6  UNL d   1      -2.757   1.876  -0.176  0.00  0.00     0.077 C 
ATOM      8  C7  UNL d   1      -1.237   0.664   1.414  0.00  0.00    -0.001 A 
ENDROOT
TORSDOF 0
ENDMDL
