MODEL 1
REMARK minimizedAffinity 6.70795202
REMARK minimizedRMSD -1
REMARK  0 active torsions:
REMARK  status: ('A' for Active; 'I' for Inactive)
ROOT
ATOM      1  C   UNL d   1       5.300  -5.998   1.852  0.00  0.00     0.078 C 
ATOM      2  C1  UNL d   1       5.361  -5.249   0.554  0.00  0.00    -0.077 A 
ATOM      3  C2  UNL d   1       4.869  -5.816  -0.628  0.00  0.00    -0.001 A 
ATOM      4  C3  UNL d   1       4.941  -5.111  -1.831  0.00  0.00     0.003 A 
ATOM      5  C4  UNL d   1       5.505  -3.837  -1.863  0.00  0.00    -0.005 A 
ATOM      6  C5  UNL d   1       5.999  -3.267  -0.692  0.00  0.00     0.003 A 
ATOM      7  C6  UNL d   1       5.928  -3.969   0.512  0.00  0.00    -0.001 A 
ENDROOT
TORSDOF 0
ENDMDL
