MODEL 1
REMARK minimizedAffinity -2.88005972
REMARK minimizedRMSD -1
REMARK  0 active torsions:
REMARK  status: ('A' for Active; 'I' for Inactive)
ROOT
ATOM      1  C   UNL d   1       1.204  -0.488  -0.704  0.00  0.00     0.078 C 
ATOM      2  C1  UNL d   1       0.159   0.222   0.104  0.00  0.00    -0.077 A 
ATOM      3  C2  UNL d   1      -0.188  -0.224   1.385  0.00  0.00    -0.001 A 
ATOM      4  C3  UNL d   1      -1.170   0.441   2.122  0.00  0.00     0.003 A 
ATOM      5  C4  UNL d   1      -1.812   1.555   1.586  0.00  0.00    -0.005 A 
ATOM      6  C5  UNL d   1      -1.474   2.005   0.311  0.00  0.00     0.003 A 
ATOM      7  C6  UNL d   1      -0.493   1.342  -0.427  0.00  0.00    -0.001 A 
ENDROOT
TORSDOF 0
ENDMDL
