MODEL 1
REMARK minimizedAffinity -4.74264765
REMARK minimizedRMSD -1
REMARK  0 active torsions:
REMARK  status: ('A' for Active; 'I' for Inactive)
ROOT
ATOM      1  C   UNL d   1      -0.336  -0.464   1.118  0.00  0.00     0.078 C 
ATOM      2  C1  UNL d   1      -0.635   0.924   0.635  0.00  0.00    -0.077 A 
ATOM      3  C2  UNL d   1      -1.270   1.855   1.466  0.00  0.00    -0.001 A 
ATOM      4  C3  UNL d   1      -1.552   3.141   1.000  0.00  0.00     0.003 A 
ATOM      5  C4  UNL d   1      -1.202   3.506  -0.298  0.00  0.00    -0.005 A 
ATOM      6  C5  UNL d   1      -0.572   2.586  -1.133  0.00  0.00     0.003 A 
ATOM      7  C6  UNL d   1      -0.290   1.300  -0.669  0.00  0.00    -0.001 A 
ENDROOT
TORSDOF 0
ENDMDL
