MODEL 1
REMARK minimizedAffinity -4.17007828
REMARK minimizedRMSD -1
REMARK  0 active torsions:
REMARK  status: ('A' for Active; 'I' for Inactive)
ROOT
ATOM      1  C   UNL d   1      -2.343   2.327   1.643  0.00  0.00     0.078 C 
ATOM      2  C1  UNL d   1      -1.337   1.377   1.065  0.00  0.00    -0.077 A 
ATOM      3  C2  UNL d   1      -0.870   0.284   1.806  0.00  0.00    -0.001 A 
ATOM      4  C3  UNL d   1       0.074  -0.587   1.259  0.00  0.00     0.003 A 
ATOM      5  C4  UNL d   1       0.559  -0.374  -0.030  0.00  0.00    -0.005 A 
ATOM      6  C5  UNL d   1       0.102   0.712  -0.773  0.00  0.00     0.003 A 
ATOM      7  C6  UNL d   1      -0.842   1.584  -0.228  0.00  0.00    -0.001 A 
ENDROOT
TORSDOF 0
ENDMDL
