MODEL 1
REMARK minimizedAffinity -3.88548088
REMARK minimizedRMSD -1
REMARK  0 active torsions:
REMARK  status: ('A' for Active; 'I' for Inactive)
ROOT
ATOM      1  C   UNL d   1      -2.114   2.474   0.038  0.00  0.00     0.078 C 
ATOM      2  C1  UNL d   1      -0.996   1.480  -0.061  0.00  0.00    -0.077 A 
ATOM      3  C2  UNL d   1      -0.809   0.504   0.925  0.00  0.00    -0.001 A 
ATOM      4  C3  UNL d   1       0.242  -0.409   0.825  0.00  0.00     0.003 A 
ATOM      5  C4  UNL d   1       1.115  -0.355  -0.259  0.00  0.00    -0.005 A 
ATOM      6  C5  UNL d   1       0.939   0.614  -1.245  0.00  0.00     0.003 A 
ATOM      7  C6  UNL d   1      -0.112   1.528  -1.147  0.00  0.00    -0.001 A 
ENDROOT
TORSDOF 0
ENDMDL
