MODEL 1
REMARK minimizedAffinity -3.90917516
REMARK minimizedRMSD -1
REMARK  0 active torsions:
REMARK  status: ('A' for Active; 'I' for Inactive)
ROOT
ATOM      1  C   UNL d   1       0.753   1.887  -1.567  0.00  0.00     0.078 C 
ATOM      2  C1  UNL d   1       0.351   1.125  -0.340  0.00  0.00    -0.077 A 
ATOM      3  C2  UNL d   1      -0.396   1.735   0.675  0.00  0.00    -0.001 A 
ATOM      4  C3  UNL d   1      -0.755   1.016   1.817  0.00  0.00     0.003 A 
ATOM      5  C4  UNL d   1      -0.369  -0.316   1.955  0.00  0.00    -0.005 A 
ATOM      6  C5  UNL d   1       0.376  -0.931   0.951  0.00  0.00     0.003 A 
ATOM      7  C6  UNL d   1       0.736  -0.214  -0.191  0.00  0.00    -0.001 A 
ENDROOT
TORSDOF 0
ENDMDL
