MODEL 1
REMARK minimizedAffinity -2.78005981
REMARK minimizedRMSD -1
REMARK  0 active torsions:
REMARK  status: ('A' for Active; 'I' for Inactive)
ROOT
ATOM      1  C   UNL d   1      -0.352  -0.273   0.722  0.00  0.00     0.078 C 
ATOM      2  C1  UNL d   1       0.082  -1.091  -0.457  0.00  0.00    -0.077 A 
ATOM      3  C2  UNL d   1       1.408  -1.063  -0.905  0.00  0.00    -0.001 A 
ATOM      4  C3  UNL d   1       1.796  -1.823  -2.010  0.00  0.00     0.003 A 
ATOM      5  C4  UNL d   1       0.863  -2.615  -2.677  0.00  0.00    -0.005 A 
ATOM      6  C5  UNL d   1      -0.460  -2.647  -2.240  0.00  0.00     0.003 A 
ATOM      7  C6  UNL d   1      -0.849  -1.888  -1.135  0.00  0.00    -0.001 A 
ENDROOT
TORSDOF 0
ENDMDL
