MODEL 1
REMARK minimizedAffinity 4.23413658
REMARK minimizedRMSD -1
REMARK  0 active torsions:
REMARK  status: ('A' for Active; 'I' for Inactive)
ROOT
ATOM      1  C   UNL d   1      -1.159   2.233   2.703  0.00  0.00     0.078 C 
ATOM      2  C1  UNL d   1      -0.550   1.223   1.776  0.00  0.00    -0.077 A 
ATOM      3  C2  UNL d   1      -0.463  -0.127   2.136  0.00  0.00    -0.001 A 
ATOM      4  C3  UNL d   1       0.115  -1.054   1.267  0.00  0.00     0.003 A 
ATOM      5  C4  UNL d   1       0.611  -0.640   0.033  0.00  0.00    -0.005 A 
ATOM      6  C5  UNL d   1       0.531   0.702  -0.334  0.00  0.00     0.003 A 
ATOM      7  C6  UNL d   1      -0.046   1.630   0.534  0.00  0.00    -0.001 A 
ENDROOT
TORSDOF 0
ENDMDL
