MODEL 1
REMARK minimizedAffinity 1.11018777
REMARK minimizedRMSD -1
REMARK  0 active torsions:
REMARK  status: ('A' for Active; 'I' for Inactive)
ROOT
ATOM      1  C   UNL d   1       0.146   3.613   1.363  0.00  0.00     0.078 C 
ATOM      2  C1  UNL d   1      -0.252   2.167   1.353  0.00  0.00    -0.077 A 
ATOM      3  C2  UNL d   1      -0.253   1.428   0.164  0.00  0.00    -0.001 A 
ATOM      4  C3  UNL d   1      -0.635   0.086   0.167  0.00  0.00     0.003 A 
ATOM      5  C4  UNL d   1      -1.020  -0.529   1.357  0.00  0.00    -0.005 A 
ATOM      6  C5  UNL d   1      -1.025   0.199   2.545  0.00  0.00     0.003 A 
ATOM      7  C6  UNL d   1      -0.643   1.541   2.543  0.00  0.00    -0.001 A 
ENDROOT
TORSDOF 0
ENDMDL
