MODEL 1
REMARK minimizedAffinity 4.87747622
REMARK minimizedRMSD -1
REMARK  0 active torsions:
REMARK  status: ('A' for Active; 'I' for Inactive)
ROOT
ATOM      1  C   UNL d   1      -1.547   1.319   3.106  0.00  0.00     0.078 C 
ATOM      2  C1  UNL d   1      -0.656   0.446   2.273  0.00  0.00    -0.077 A 
ATOM      3  C2  UNL d   1      -0.207  -0.791   2.752  0.00  0.00    -0.001 A 
ATOM      4  C3  UNL d   1       0.630  -1.588   1.970  0.00  0.00     0.003 A 
ATOM      5  C4  UNL d   1       1.026  -1.157   0.705  0.00  0.00    -0.005 A 
ATOM      6  C5  UNL d   1       0.586   0.073   0.221  0.00  0.00     0.003 A 
ATOM      7  C6  UNL d   1      -0.251   0.872   1.002  0.00  0.00    -0.001 A 
ENDROOT
TORSDOF 0
ENDMDL
