MODEL 1
REMARK minimizedAffinity -4.22620106
REMARK minimizedRMSD -1
REMARK  0 active torsions:
REMARK  status: ('A' for Active; 'I' for Inactive)
ROOT
ATOM      1  C   UNL d   1       0.843  -0.281  -0.936  0.00  0.00     0.078 C 
ATOM      2  C1  UNL d   1      -0.181   0.625  -0.320  0.00  0.00    -0.077 A 
ATOM      3  C2  UNL d   1      -1.031   0.168   0.695  0.00  0.00    -0.001 A 
ATOM      4  C3  UNL d   1      -1.986   1.019   1.253  0.00  0.00     0.003 A 
ATOM      5  C4  UNL d   1      -2.101   2.332   0.802  0.00  0.00    -0.005 A 
ATOM      6  C5  UNL d   1      -1.262   2.796  -0.209  0.00  0.00     0.003 A 
ATOM      7  C6  UNL d   1      -0.306   1.946  -0.768  0.00  0.00    -0.001 A 
ENDROOT
TORSDOF 0
ENDMDL
