MODEL 1
REMARK minimizedAffinity -3.8319509
REMARK minimizedRMSD -1
REMARK  0 active torsions:
REMARK  status: ('A' for Active; 'I' for Inactive)
ROOT
ATOM      1  C   UNL d   1       0.566  -0.890  -0.621  0.00  0.00     0.078 C 
ATOM      2  C1  UNL d   1      -0.275   0.143   0.068  0.00  0.00    -0.077 A 
ATOM      3  C2  UNL d   1      -1.285   0.826  -0.619  0.00  0.00    -0.001 A 
ATOM      4  C3  UNL d   1      -2.053   1.792   0.032  0.00  0.00     0.003 A 
ATOM      5  C4  UNL d   1      -1.818   2.085   1.374  0.00  0.00    -0.005 A 
ATOM      6  C5  UNL d   1      -0.813   1.412   2.066  0.00  0.00     0.003 A 
ATOM      7  C6  UNL d   1      -0.044   0.445   1.416  0.00  0.00    -0.001 A 
ENDROOT
TORSDOF 0
ENDMDL
