MODEL 1
REMARK minimizedAffinity -4.24837542
REMARK minimizedRMSD -1
REMARK  0 active torsions:
REMARK  status: ('A' for Active; 'I' for Inactive)
ROOT
ATOM      1  C   UNL d   1       1.123   0.776  -0.853  0.00  0.00     0.078 C 
ATOM      2  C1  UNL d   1      -0.147   0.704  -0.060  0.00  0.00    -0.077 A 
ATOM      3  C2  UNL d   1      -1.084  -0.311  -0.288  0.00  0.00    -0.001 A 
ATOM      4  C3  UNL d   1      -2.267  -0.360   0.451  0.00  0.00     0.003 A 
ATOM      5  C4  UNL d   1      -2.524   0.605   1.423  0.00  0.00    -0.005 A 
ATOM      6  C5  UNL d   1      -1.599   1.621   1.656  0.00  0.00     0.003 A 
ATOM      7  C6  UNL d   1      -0.416   1.671   0.918  0.00  0.00    -0.001 A 
ENDROOT
TORSDOF 0
ENDMDL
