MODEL 1
REMARK minimizedAffinity -4.32574844
REMARK minimizedRMSD -1
REMARK  0 active torsions:
REMARK  status: ('A' for Active; 'I' for Inactive)
ROOT
ATOM      1  C   UNL d   1       0.969  -1.118  -0.453  0.00  0.00     0.078 C 
ATOM      2  C1  UNL d   1       0.052  -0.140   0.217  0.00  0.00    -0.077 A 
ATOM      3  C2  UNL d   1      -0.136  -0.160   1.604  0.00  0.00    -0.001 A 
ATOM      4  C3  UNL d   1      -1.000   0.751   2.213  0.00  0.00     0.003 A 
ATOM      5  C4  UNL d   1      -1.685   1.688   1.443  0.00  0.00    -0.005 A 
ATOM      6  C5  UNL d   1      -1.506   1.715   0.061  0.00  0.00     0.003 A 
ATOM      7  C6  UNL d   1      -0.642   0.805  -0.550  0.00  0.00    -0.001 A 
ENDROOT
TORSDOF 0
ENDMDL
