MODEL 1
REMARK minimizedAffinity -4.3973074
REMARK minimizedRMSD -1
REMARK  0 active torsions:
REMARK  status: ('A' for Active; 'I' for Inactive)
ROOT
ATOM      1  C   UNL d   1      -1.774   1.538   1.915  0.00  0.00     0.078 C 
ATOM      2  C1  UNL d   1      -0.697   0.903   1.088  0.00  0.00    -0.077 A 
ATOM      3  C2  UNL d   1      -0.263   1.492  -0.107  0.00  0.00    -0.001 A 
ATOM      4  C3  UNL d   1       0.733   0.885  -0.872  0.00  0.00     0.003 A 
ATOM      5  C4  UNL d   1       1.305  -0.315  -0.452  0.00  0.00    -0.005 A 
ATOM      6  C5  UNL d   1       0.879  -0.909   0.734  0.00  0.00     0.003 A 
ATOM      7  C6  UNL d   1      -0.118  -0.303   1.500  0.00  0.00    -0.001 A 
ENDROOT
TORSDOF 0
ENDMDL
