MODEL 1
REMARK minimizedAffinity -4.51716709
REMARK minimizedRMSD -1
REMARK  0 active torsions:
REMARK  status: ('A' for Active; 'I' for Inactive)
ROOT
ATOM      1  C   UNL d   1       2.987  -1.609   0.178  0.00  0.00     0.078 C 
ATOM      2  C1  UNL d   1       1.621  -1.024  -0.015  0.00  0.00    -0.077 A 
ATOM      3  C2  UNL d   1       0.590  -1.773  -0.596  0.00  0.00    -0.001 A 
ATOM      4  C3  UNL d   1      -0.675  -1.212  -0.778  0.00  0.00     0.003 A 
ATOM      5  C4  UNL d   1      -0.921   0.101  -0.383  0.00  0.00    -0.005 A 
ATOM      6  C5  UNL d   1       0.099   0.856   0.194  0.00  0.00     0.003 A 
ATOM      7  C6  UNL d   1       1.364   0.296   0.377  0.00  0.00    -0.001 A 
ENDROOT
TORSDOF 0
ENDMDL
