MODEL 1
REMARK minimizedAffinity 0.232980311
REMARK minimizedRMSD -1
REMARK  0 active torsions:
REMARK  status: ('A' for Active; 'I' for Inactive)
ROOT
ATOM      1  C   UNL d   1       3.143  -2.048  -2.694  0.00  0.00     0.078 C 
ATOM      2  C1  UNL d   1       2.235  -1.948  -1.505  0.00  0.00    -0.077 A 
ATOM      3  C2  UNL d   1       2.741  -2.034  -0.202  0.00  0.00    -0.001 A 
ATOM      4  C3  UNL d   1       1.882  -1.949   0.895  0.00  0.00     0.003 A 
ATOM      5  C4  UNL d   1       0.513  -1.779   0.701  0.00  0.00    -0.005 A 
ATOM      6  C5  UNL d   1       0.000  -1.695  -0.592  0.00  0.00     0.003 A 
ATOM      7  C6  UNL d   1       0.857  -1.780  -1.690  0.00  0.00    -0.001 A 
ENDROOT
TORSDOF 0
ENDMDL
