MODEL 1
REMARK minimizedAffinity -4.28427172
REMARK minimizedRMSD -1
REMARK  0 active torsions:
REMARK  status: ('A' for Active; 'I' for Inactive)
ROOT
ATOM      1  C   UNL d   1       2.572  -1.827   0.726  0.00  0.00     0.078 C 
ATOM      2  C1  UNL d   1       1.390  -0.982   0.356  0.00  0.00    -0.077 A 
ATOM      3  C2  UNL d   1       1.436   0.413   0.475  0.00  0.00    -0.001 A 
ATOM      4  C3  UNL d   1       0.325   1.186   0.136  0.00  0.00     0.003 A 
ATOM      5  C4  UNL d   1      -0.840   0.575  -0.323  0.00  0.00    -0.005 A 
ATOM      6  C5  UNL d   1      -0.895  -0.812  -0.443  0.00  0.00     0.003 A 
ATOM      7  C6  UNL d   1       0.215  -1.588  -0.105  0.00  0.00    -0.001 A 
ENDROOT
TORSDOF 0
ENDMDL
