MODEL 1
REMARK minimizedAffinity -3.95537686
REMARK minimizedRMSD -1
REMARK  0 active torsions:
REMARK  status: ('A' for Active; 'I' for Inactive)
ROOT
ATOM      1  C   UNL d   1       2.643  -1.483   1.151  0.00  0.00     0.078 C 
ATOM      2  C1  UNL d   1       1.435  -0.738   0.665  0.00  0.00    -0.077 A 
ATOM      3  C2  UNL d   1       0.383  -1.407   0.028  0.00  0.00    -0.001 A 
ATOM      4  C3  UNL d   1      -0.731  -0.699  -0.427  0.00  0.00     0.003 A 
ATOM      5  C4  UNL d   1      -0.802   0.681  -0.252  0.00  0.00    -0.005 A 
ATOM      6  C5  UNL d   1       0.241   1.356   0.379  0.00  0.00     0.003 A 
ATOM      7  C6  UNL d   1       1.355   0.650   0.835  0.00  0.00    -0.001 A 
ENDROOT
TORSDOF 0
ENDMDL
