MODEL 1
REMARK minimizedAffinity 3.68555856
REMARK minimizedRMSD -1
REMARK  0 active torsions:
REMARK  status: ('A' for Active; 'I' for Inactive)
ROOT
ATOM      1  C   UNL d   1      -1.127  -3.111   1.471  0.00  0.00     0.078 C 
ATOM      2  C1  UNL d   1      -0.067  -2.437   0.653  0.00  0.00    -0.077 A 
ATOM      3  C2  UNL d   1      -0.262  -1.148   0.141  0.00  0.00    -0.001 A 
ATOM      4  C3  UNL d   1       0.730  -0.536  -0.628  0.00  0.00     0.003 A 
ATOM      5  C4  UNL d   1       1.923  -1.207  -0.893  0.00  0.00    -0.005 A 
ATOM      6  C5  UNL d   1       2.124  -2.490  -0.389  0.00  0.00     0.003 A 
ATOM      7  C6  UNL d   1       1.134  -3.103   0.379  0.00  0.00    -0.001 A 
ENDROOT
TORSDOF 0
ENDMDL
