MODEL 1
REMARK minimizedAffinity -5.38384676
REMARK minimizedRMSD -1
REMARK  0 active torsions:
REMARK  status: ('A' for Active; 'I' for Inactive)
ROOT
ATOM      1  C   UNL d   1      -0.847   0.510  -0.222  0.00  0.00     0.078 C 
ATOM      2  C1  UNL d   1       0.390  -0.299   0.030  0.00  0.00    -0.077 A 
ATOM      3  C2  UNL d   1       1.395   0.168   0.885  0.00  0.00    -0.001 A 
ATOM      4  C3  UNL d   1       2.546  -0.591   1.103  0.00  0.00     0.003 A 
ATOM      5  C4  UNL d   1       2.703  -1.822   0.468  0.00  0.00    -0.005 A 
ATOM      6  C5  UNL d   1       1.708  -2.294  -0.387  0.00  0.00     0.003 A 
ATOM      7  C6  UNL d   1       0.557  -1.536  -0.605  0.00  0.00    -0.001 A 
ENDROOT
TORSDOF 0
ENDMDL
