MODEL 1
REMARK minimizedAffinity -4.00698233
REMARK minimizedRMSD -1
REMARK  0 active torsions:
REMARK  status: ('A' for Active; 'I' for Inactive)
ROOT
ATOM      1  C   UNL d   1       3.313  -0.323   1.357  0.00  0.00     0.078 C 
ATOM      2  C1  UNL d   1       2.084   0.212   0.684  0.00  0.00    -0.077 A 
ATOM      3  C2  UNL d   1       1.087  -0.650   0.212  0.00  0.00    -0.001 A 
ATOM      4  C3  UNL d   1      -0.047  -0.139  -0.421  0.00  0.00     0.003 A 
ATOM      5  C4  UNL d   1      -0.195   1.237  -0.587  0.00  0.00    -0.005 A 
ATOM      6  C5  UNL d   1       0.792   2.103  -0.122  0.00  0.00     0.003 A 
ATOM      7  C6  UNL d   1       1.927   1.593   0.511  0.00  0.00    -0.001 A 
ENDROOT
TORSDOF 0
ENDMDL
