MODEL 1
REMARK minimizedAffinity -5.3178215
REMARK minimizedRMSD -1
REMARK  0 active torsions:
REMARK  status: ('A' for Active; 'I' for Inactive)
ROOT
ATOM      1  C   UNL d   1       2.737  -1.126   0.928  0.00  0.00     0.078 C 
ATOM      2  C1  UNL d   1       1.488  -0.533   0.346  0.00  0.00    -0.077 A 
ATOM      3  C2  UNL d   1       0.655  -1.286  -0.491  0.00  0.00    -0.001 A 
ATOM      4  C3  UNL d   1      -0.499  -0.719  -1.034  0.00  0.00     0.003 A 
ATOM      5  C4  UNL d   1      -0.829   0.604  -0.747  0.00  0.00    -0.005 A 
ATOM      6  C5  UNL d   1      -0.005   1.362   0.083  0.00  0.00     0.003 A 
ATOM      7  C6  UNL d   1       1.149   0.796   0.627  0.00  0.00    -0.001 A 
ENDROOT
TORSDOF 0
ENDMDL
