MODEL 1
REMARK minimizedAffinity -1.75292516
REMARK minimizedRMSD -1
REMARK  1 active torsions:
REMARK  status: ('A' for Active; 'I' for Inactive)
REMARK    1  A    between atoms: N_2  and  C1_3 
ROOT
ATOM      1  C1  UNL d   1      -0.589  -1.154   0.192  0.00  0.00     0.143 A 
ATOM      2  C2  UNL d   1       0.043  -0.933  -1.036  0.00  0.00    -0.057 A 
ATOM      3  C3  UNL d   1       0.474   0.345  -1.412  0.00  0.00     0.033 A 
ATOM      4  C4  UNL d   1       0.254   1.434  -0.575  0.00  0.00    -0.042 A 
ATOM      5  C5  UNL d   1      -0.394   1.242   0.640  0.00  0.00     0.033 A 
ATOM      6  C6  UNL d   1      -0.817  -0.038   1.012  0.00  0.00    -0.057 A 
ENDROOT
BRANCH   1   7
ATOM      7  N   UNL d   1      -1.128  -2.383   0.580  0.00  0.00    -0.732 N 
ATOM      8  C   UNL d   1      -0.318  -3.582   0.562  0.00  0.00     0.284 C 
ATOM      9  H3  UNL d   1      -1.734  -2.302   1.393  0.00  0.00     0.395 HD
ENDBRANCH   1   7
TORSDOF 1
ENDMDL
