MODEL 1
REMARK minimizedAffinity -4.4022584
REMARK minimizedRMSD -1
REMARK  1 active torsions:
REMARK  status: ('A' for Active; 'I' for Inactive)
REMARK    1  A    between atoms: N_2  and  C1_3 
ROOT
ATOM      1  C1  UNL d   1      -0.119   0.298   0.270  0.00  0.00     0.143 A 
ATOM      2  C2  UNL d   1      -1.198  -0.358   0.874  0.00  0.00    -0.057 A 
ATOM      3  C3  UNL d   1      -1.232  -1.753   0.979  0.00  0.00     0.033 A 
ATOM      4  C4  UNL d   1      -0.198  -2.522   0.456  0.00  0.00    -0.042 A 
ATOM      5  C5  UNL d   1       0.872  -1.893  -0.170  0.00  0.00     0.033 A 
ATOM      6  C6  UNL d   1       0.904  -0.499  -0.267  0.00  0.00    -0.057 A 
ENDROOT
BRANCH   1   7
ATOM      7  N   UNL d   1      -0.073   1.676   0.047  0.00  0.00    -0.732 N 
ATOM      8  C   UNL d   1       1.138   2.425   0.305  0.00  0.00     0.284 C 
ATOM      9  H3  UNL d   1      -0.556   1.948  -0.806  0.00  0.00     0.395 HD
ENDBRANCH   1   7
TORSDOF 1
ENDMDL
