MODEL 1
REMARK minimizedAffinity -3.39613152
REMARK minimizedRMSD -1
REMARK  1 active torsions:
REMARK  status: ('A' for Active; 'I' for Inactive)
REMARK    1  A    between atoms: N_2  and  C1_3 
ROOT
ATOM      1  C1  UNL d   1       0.240   1.435  -0.579  0.00  0.00     0.143 A 
ATOM      2  C2  UNL d   1       0.439   1.075  -1.916  0.00  0.00    -0.057 A 
ATOM      3  C3  UNL d   1       0.688  -0.254  -2.281  0.00  0.00     0.033 A 
ATOM      4  C4  UNL d   1       0.772  -1.244  -1.308  0.00  0.00    -0.042 A 
ATOM      5  C5  UNL d   1       0.603  -0.906   0.030  0.00  0.00     0.033 A 
ATOM      6  C6  UNL d   1       0.347   0.422   0.387  0.00  0.00    -0.057 A 
ENDROOT
BRANCH   1   7
ATOM      7  N   UNL d   1       0.086   2.753  -0.143  0.00  0.00    -0.732 N 
ATOM      8  C   UNL d   1       1.242   3.587   0.106  0.00  0.00     0.284 C 
ATOM      9  H3  UNL d   1      -0.678   3.232  -0.615  0.00  0.00     0.395 HD
ENDBRANCH   1   7
TORSDOF 1
ENDMDL
