MODEL 1
REMARK minimizedAffinity -3.45961356
REMARK minimizedRMSD -1
REMARK  1 active torsions:
REMARK  status: ('A' for Active; 'I' for Inactive)
REMARK    1  A    between atoms: N_2  and  C1_3 
ROOT
ATOM      1  C1  UNL d   1      -0.112   0.307   0.276  0.00  0.00     0.143 A 
ATOM      2  C2  UNL d   1      -1.109  -0.202   1.115  0.00  0.00    -0.057 A 
ATOM      3  C3  UNL d   1      -1.228  -1.578   1.349  0.00  0.00     0.033 A 
ATOM      4  C4  UNL d   1      -0.367  -2.473   0.723  0.00  0.00    -0.042 A 
ATOM      5  C5  UNL d   1       0.615  -1.991  -0.134  0.00  0.00     0.033 A 
ATOM      6  C6  UNL d   1       0.734  -0.616  -0.359  0.00  0.00    -0.057 A 
ENDROOT
BRANCH   1   7
ATOM      7  N   UNL d   1      -0.004   1.655  -0.074  0.00  0.00    -0.732 N 
ATOM      8  C   UNL d   1       1.259   2.351   0.053  0.00  0.00     0.284 C 
ATOM      9  H3  UNL d   1      -0.518   1.879  -0.923  0.00  0.00     0.395 HD
ENDBRANCH   1   7
TORSDOF 1
ENDMDL
