MODEL 1
REMARK minimizedAffinity -3.0715735
REMARK minimizedRMSD -1
REMARK  1 active torsions:
REMARK  status: ('A' for Active; 'I' for Inactive)
REMARK    1  A    between atoms: N_2  and  C1_3 
ROOT
ATOM      1  C1  UNL d   1       0.230   1.860  -0.432  0.00  0.00     0.143 A 
ATOM      2  C2  UNL d   1       0.104   1.237  -1.679  0.00  0.00    -0.057 A 
ATOM      3  C3  UNL d   1       0.040  -0.157  -1.790  0.00  0.00     0.033 A 
ATOM      4  C4  UNL d   1       0.131  -0.957  -0.656  0.00  0.00    -0.042 A 
ATOM      5  C5  UNL d   1       0.281  -0.360   0.591  0.00  0.00     0.033 A 
ATOM      6  C6  UNL d   1       0.337   1.033   0.697  0.00  0.00    -0.057 A 
ENDROOT
BRANCH   1   7
ATOM      7  N   UNL d   1       0.398   3.237  -0.264  0.00  0.00    -0.732 N 
ATOM      8  C   UNL d   1       1.630   3.769   0.275  0.00  0.00     0.284 C 
ATOM      9  H3  UNL d   1       0.019   3.772  -1.043  0.00  0.00     0.395 HD
ENDBRANCH   1   7
TORSDOF 1
ENDMDL
