MODEL 1
REMARK minimizedAffinity -3.59570146
REMARK minimizedRMSD -1
REMARK  1 active torsions:
REMARK  status: ('A' for Active; 'I' for Inactive)
REMARK    1  A    between atoms: N_2  and  C1_3 
ROOT
ATOM      1  C1  UNL d   1       0.056  -0.047   0.193  0.00  0.00     0.143 A 
ATOM      2  C2  UNL d   1      -0.836  -0.699   1.052  0.00  0.00    -0.057 A 
ATOM      3  C3  UNL d   1      -0.982  -2.091   1.027  0.00  0.00     0.033 A 
ATOM      4  C4  UNL d   1      -0.259  -2.856   0.118  0.00  0.00    -0.042 A 
ATOM      5  C5  UNL d   1       0.615  -2.228  -0.762  0.00  0.00     0.033 A 
ATOM      6  C6  UNL d   1       0.762  -0.838  -0.727  0.00  0.00    -0.057 A 
ENDROOT
BRANCH   1   7
ATOM      7  N   UNL d   1       0.175   1.342   0.102  0.00  0.00    -0.732 N 
ATOM      8  C   UNL d   1       1.374   2.010   0.558  0.00  0.00     0.284 C 
ATOM      9  H3  UNL d   1      -0.199   1.707  -0.771  0.00  0.00     0.395 HD
ENDBRANCH   1   7
TORSDOF 1
ENDMDL
