MODEL 1
REMARK minimizedAffinity -1.29819787
REMARK minimizedRMSD -1
REMARK  1 active torsions:
REMARK  status: ('A' for Active; 'I' for Inactive)
REMARK    1  A    between atoms: N_2  and  C1_3 
ROOT
ATOM      1  C1  UNL d   1      -0.075   0.723   0.299  0.00  0.00     0.143 A 
ATOM      2  C2  UNL d   1       0.510   0.396  -0.929  0.00  0.00    -0.057 A 
ATOM      3  C3  UNL d   1       0.735  -0.937  -1.293  0.00  0.00     0.033 A 
ATOM      4  C4  UNL d   1       0.406  -1.969  -0.419  0.00  0.00    -0.042 A 
ATOM      5  C5  UNL d   1      -0.153  -1.665   0.817  0.00  0.00     0.033 A 
ATOM      6  C6  UNL d   1      -0.382  -0.332   1.172  0.00  0.00    -0.057 A 
ENDROOT
BRANCH   1   7
ATOM      7  N   UNL d   1      -0.234   2.032   0.760  0.00  0.00    -0.732 N 
ATOM      8  C   UNL d   1       0.883   2.952   0.768  0.00  0.00     0.284 C 
ATOM      9  H3  UNL d   1      -1.112   2.447   0.456  0.00  0.00     0.395 HD
ENDBRANCH   1   7
TORSDOF 1
ENDMDL
