MODEL 1
REMARK minimizedAffinity -2.97078609
REMARK minimizedRMSD -1
REMARK  1 active torsions:
REMARK  status: ('A' for Active; 'I' for Inactive)
REMARK    1  A    between atoms: N_2  and  C1_3 
ROOT
ATOM      1  C1  UNL d   1      -0.055   0.989  -0.027  0.00  0.00     0.143 A 
ATOM      2  C2  UNL d   1      -0.337  -0.173   0.698  0.00  0.00    -0.057 A 
ATOM      3  C3  UNL d   1      -0.229  -1.440   0.112  0.00  0.00     0.033 A 
ATOM      4  C4  UNL d   1       0.137  -1.565  -1.224  0.00  0.00    -0.042 A 
ATOM      5  C5  UNL d   1       0.397  -0.422  -1.972  0.00  0.00     0.033 A 
ATOM      6  C6  UNL d   1       0.294   0.839  -1.379  0.00  0.00    -0.057 A 
ENDROOT
BRANCH   1   7
ATOM      7  N   UNL d   1      -0.240   2.281   0.471  0.00  0.00    -0.732 N 
ATOM      8  C   UNL d   1       0.892   3.074   0.900  0.00  0.00     0.284 C 
ATOM      9  H3  UNL d   1      -0.939   2.803  -0.053  0.00  0.00     0.395 HD
ENDBRANCH   1   7
TORSDOF 1
ENDMDL
