MODEL 1
REMARK minimizedAffinity -4.73856688
REMARK minimizedRMSD -1
REMARK  1 active torsions:
REMARK  status: ('A' for Active; 'I' for Inactive)
REMARK    1  A    between atoms: N_2  and  C1_3 
ROOT
ATOM      1  C1  UNL d   1       0.358   4.208   2.457  0.00  0.00     0.143 A 
ATOM      2  C2  UNL d   1      -0.278   3.285   1.620  0.00  0.00    -0.057 A 
ATOM      3  C3  UNL d   1       0.367   2.761   0.493  0.00  0.00     0.033 A 
ATOM      4  C4  UNL d   1       1.654   3.175   0.166  0.00  0.00    -0.042 A 
ATOM      5  C5  UNL d   1       2.297   4.110   0.970  0.00  0.00     0.033 A 
ATOM      6  C6  UNL d   1       1.650   4.625   2.098  0.00  0.00    -0.057 A 
ENDROOT
BRANCH   1   7
ATOM      7  N   UNL d   1      -0.266   4.839   3.536  0.00  0.00    -0.732 N 
ATOM      8  C   UNL d   1      -1.412   5.697   3.326  0.00  0.00     0.284 C 
ATOM      9  H3  UNL d   1      -0.345   4.232   4.349  0.00  0.00     0.395 HD
ENDBRANCH   1   7
TORSDOF 1
ENDMDL
