MODEL 1
REMARK minimizedAffinity -3.98580456
REMARK minimizedRMSD -1
REMARK  1 active torsions:
REMARK  status: ('A' for Active; 'I' for Inactive)
REMARK    1  A    between atoms: N_2  and  C1_3 
ROOT
ATOM      1  C1  UNL d   1      -0.353   0.149   0.300  0.00  0.00     0.143 A 
ATOM      2  C2  UNL d   1      -1.333  -0.511   1.049  0.00  0.00    -0.057 A 
ATOM      3  C3  UNL d   1      -1.351  -1.907   1.151  0.00  0.00     0.033 A 
ATOM      4  C4  UNL d   1      -0.402  -2.672   0.481  0.00  0.00    -0.042 A 
ATOM      5  C5  UNL d   1       0.567  -2.038  -0.289  0.00  0.00     0.033 A 
ATOM      6  C6  UNL d   1       0.583  -0.643  -0.382  0.00  0.00    -0.057 A 
ENDROOT
BRANCH   1   7
ATOM      7  N   UNL d   1      -0.341   1.529   0.079  0.00  0.00    -0.732 N 
ATOM      8  C   UNL d   1       0.833   2.315   0.393  0.00  0.00     0.284 C 
ATOM      9  H3  UNL d   1      -0.792   1.786  -0.795  0.00  0.00     0.395 HD
ENDBRANCH   1   7
TORSDOF 1
ENDMDL
