MODEL 1
REMARK minimizedAffinity -3.80454683
REMARK minimizedRMSD -1
REMARK  1 active torsions:
REMARK  status: ('A' for Active; 'I' for Inactive)
REMARK    1  A    between atoms: N_2  and  C1_3 
ROOT
ATOM      1  C1  UNL d   1      -0.049  -0.478  -0.201  0.00  0.00     0.143 A 
ATOM      2  C2  UNL d   1      -0.515  -0.992   1.014  0.00  0.00    -0.057 A 
ATOM      3  C3  UNL d   1      -0.674  -2.370   1.205  0.00  0.00     0.033 A 
ATOM      4  C4  UNL d   1      -0.397  -3.259   0.172  0.00  0.00    -0.042 A 
ATOM      5  C5  UNL d   1       0.043  -2.768  -1.053  0.00  0.00     0.033 A 
ATOM      6  C6  UNL d   1       0.206  -1.392  -1.236  0.00  0.00    -0.057 A 
ENDROOT
BRANCH   1   7
ATOM      7  N   UNL d   1       0.036   0.887  -0.486  0.00  0.00    -0.732 N 
ATOM      8  C   UNL d   1       1.197   1.653  -0.084  0.00  0.00     0.284 C 
ATOM      9  H3  UNL d   1      -0.308   1.112  -1.416  0.00  0.00     0.395 HD
ENDBRANCH   1   7
TORSDOF 1
ENDMDL
