MODEL 1
REMARK minimizedAffinity -4.04570532
REMARK minimizedRMSD -1
REMARK  1 active torsions:
REMARK  status: ('A' for Active; 'I' for Inactive)
REMARK    1  A    between atoms: N_2  and  C1_3 
ROOT
ATOM      1  C1  UNL d   1       1.345   2.534  -0.020  0.00  0.00     0.143 A 
ATOM      2  C2  UNL d   1       0.092   2.983   0.410  0.00  0.00    -0.057 A 
ATOM      3  C3  UNL d   1      -0.026   3.950   1.416  0.00  0.00     0.033 A 
ATOM      4  C4  UNL d   1       1.110   4.465   2.031  0.00  0.00    -0.042 A 
ATOM      5  C5  UNL d   1       2.365   4.015   1.636  0.00  0.00     0.033 A 
ATOM      6  C6  UNL d   1       2.477   3.055   0.627  0.00  0.00    -0.057 A 
ENDROOT
BRANCH   1   7
ATOM      7  N   UNL d   1       1.526   1.504  -0.946  0.00  0.00    -0.732 N 
ATOM      8  C   UNL d   1       0.429   0.629  -1.299  0.00  0.00     0.284 C 
ATOM      9  H3  UNL d   1       2.102   1.788  -1.736  0.00  0.00     0.395 HD
ENDBRANCH   1   7
TORSDOF 1
ENDMDL
