MODEL 1
REMARK minimizedAffinity -4.63708878
REMARK minimizedRMSD -1
REMARK  1 active torsions:
REMARK  status: ('A' for Active; 'I' for Inactive)
REMARK    1  A    between atoms: N_2  and  C1_3 
ROOT
ATOM      1  C1  UNL d   1       0.062  -0.369  -0.594  0.00  0.00     0.143 A 
ATOM      2  C2  UNL d   1       0.038  -1.410   0.341  0.00  0.00    -0.057 A 
ATOM      3  C3  UNL d   1       0.311  -2.730  -0.036  0.00  0.00     0.033 A 
ATOM      4  C4  UNL d   1       0.586  -3.038  -1.364  0.00  0.00    -0.042 A 
ATOM      5  C5  UNL d   1       0.591  -2.024  -2.314  0.00  0.00     0.033 A 
ATOM      6  C6  UNL d   1       0.324  -0.706  -1.931  0.00  0.00    -0.057 A 
ENDROOT
BRANCH   1   7
ATOM      7  N   UNL d   1      -0.298   0.949  -0.300  0.00  0.00    -0.732 N 
ATOM      8  C   UNL d   1       0.665   1.866   0.270  0.00  0.00     0.284 C 
ATOM      9  H3  UNL d   1      -0.888   1.360  -1.020  0.00  0.00     0.395 HD
ENDBRANCH   1   7
TORSDOF 1
ENDMDL
