MODEL 1
REMARK minimizedAffinity -3.72127223
REMARK minimizedRMSD -1
REMARK  1 active torsions:
REMARK  status: ('A' for Active; 'I' for Inactive)
REMARK    1  A    between atoms: N_2  and  C1_3 
ROOT
ATOM      1  C1  UNL d   1      -0.199  -0.033  -0.018  0.00  0.00     0.143 A 
ATOM      2  C2  UNL d   1      -1.257  -0.648   0.661  0.00  0.00    -0.057 A 
ATOM      3  C3  UNL d   1      -1.201  -1.999   1.021  0.00  0.00     0.033 A 
ATOM      4  C4  UNL d   1      -0.094  -2.771   0.681  0.00  0.00    -0.042 A 
ATOM      5  C5  UNL d   1       0.958  -2.187  -0.015  0.00  0.00     0.033 A 
ATOM      6  C6  UNL d   1       0.899  -0.835  -0.366  0.00  0.00    -0.057 A 
ENDROOT
BRANCH   1   7
ATOM      7  N   UNL d   1      -0.237   1.281  -0.489  0.00  0.00    -0.732 N 
ATOM      8  C   UNL d   1       0.776   2.236  -0.093  0.00  0.00     0.284 C 
ATOM      9  H3  UNL d   1      -0.496   1.334  -1.472  0.00  0.00     0.395 HD
ENDBRANCH   1   7
TORSDOF 1
ENDMDL
