MODEL 1
REMARK minimizedAffinity -2.26759481
REMARK minimizedRMSD -1
REMARK  1 active torsions:
REMARK  status: ('A' for Active; 'I' for Inactive)
REMARK    1  A    between atoms: N_2  and  C1_3 
ROOT
ATOM      1  C1  UNL d   1      -0.093   0.207   0.587  0.00  0.00     0.143 A 
ATOM      2  C2  UNL d   1      -1.166  -0.667   0.380  0.00  0.00    -0.057 A 
ATOM      3  C3  UNL d   1      -1.028  -2.046   0.577  0.00  0.00     0.033 A 
ATOM      4  C4  UNL d   1       0.198  -2.581   0.957  0.00  0.00    -0.042 A 
ATOM      5  C5  UNL d   1       1.285  -1.735   1.144  0.00  0.00     0.033 A 
ATOM      6  C6  UNL d   1       1.139  -0.357   0.953  0.00  0.00    -0.057 A 
ENDROOT
BRANCH   1   7
ATOM      7  N   UNL d   1      -0.140   1.576   0.313  0.00  0.00    -0.732 N 
ATOM      8  C   UNL d   1       0.974   2.435   0.654  0.00  0.00     0.284 C 
ATOM      9  H3  UNL d   1      -0.558   1.776  -0.593  0.00  0.00     0.395 HD
ENDBRANCH   1   7
TORSDOF 1
ENDMDL
