MODEL 1
REMARK minimizedAffinity 0.281934708
REMARK minimizedRMSD -1
REMARK  0 active torsions:
REMARK  status: ('A' for Active; 'I' for Inactive)
ROOT
ATOM      1  C   UNL d   1      -4.527  -6.000  -6.000  0.00  0.00     0.172 C 
ATOM      2  N   UNL d   1      -4.111  -4.670  -5.621  0.00  0.00    -0.070 N 
ATOM      3  C1  UNL d   1      -3.032  -4.365  -4.835  0.00  0.00    -0.004 A 
ATOM      4  C2  UNL d   1      -2.975  -2.993  -4.710  0.00  0.00    -0.047 A 
ATOM      5  C3  UNL d   1      -4.058  -2.456  -5.446  0.00  0.00    -0.047 A 
ATOM      6  C4  UNL d   1      -4.745  -3.516  -6.000  0.00  0.00    -0.004 A 
ENDROOT
TORSDOF 0
ENDMDL
