MODEL 1
REMARK minimizedAffinity 7.66360331
REMARK minimizedRMSD -1
REMARK  0 active torsions:
REMARK  status: ('A' for Active; 'I' for Inactive)
ROOT
ATOM      1  C   UNL d   1       3.112  -6.000  -0.174  0.00  0.00     0.172 C 
ATOM      2  N   UNL d   1       2.850  -4.665  -0.657  0.00  0.00    -0.070 N 
ATOM      3  C1  UNL d   1       3.418  -3.515  -0.176  0.00  0.00    -0.004 A 
ATOM      4  C2  UNL d   1       2.909  -2.458  -0.900  0.00  0.00    -0.047 A 
ATOM      5  C3  UNL d   1       2.003  -2.991  -1.848  0.00  0.00    -0.047 A 
ATOM      6  C4  UNL d   1       1.986  -4.359  -1.676  0.00  0.00    -0.004 A 
ENDROOT
TORSDOF 0
ENDMDL
