MODEL 1
REMARK minimizedAffinity 6.74020052
REMARK minimizedRMSD -1
REMARK  0 active torsions:
REMARK  status: ('A' for Active; 'I' for Inactive)
ROOT
ATOM      1  C   UNL d   1       4.643   0.782   0.617  0.00  0.00     0.172 C 
ATOM      2  N   UNL d   1       3.912  -0.334   0.064  0.00  0.00    -0.070 N 
ATOM      3  C1  UNL d   1       2.792  -0.245  -0.719  0.00  0.00    -0.004 A 
ATOM      4  C2  UNL d   1       2.399  -1.526  -1.041  0.00  0.00    -0.047 A 
ATOM      5  C3  UNL d   1       3.314  -2.416  -0.429  0.00  0.00    -0.047 A 
ATOM      6  C4  UNL d   1       4.240  -1.651   0.248  0.00  0.00    -0.004 A 
ENDROOT
TORSDOF 0
ENDMDL
