MODEL 1
REMARK minimizedAffinity -1.61220884
REMARK minimizedRMSD -1
REMARK  0 active torsions:
REMARK  status: ('A' for Active; 'I' for Inactive)
ROOT
ATOM      1  C   UNL d   1       1.304  -3.836  -3.395  0.00  0.00     0.172 C 
ATOM      2  N   UNL d   1       2.134  -4.265  -2.294  0.00  0.00    -0.070 N 
ATOM      3  C1  UNL d   1       2.621  -3.460  -1.300  0.00  0.00    -0.004 A 
ATOM      4  C2  UNL d   1       3.364  -4.246  -0.445  0.00  0.00    -0.047 A 
ATOM      5  C3  UNL d   1       3.323  -5.570  -0.945  0.00  0.00    -0.047 A 
ATOM      6  C4  UNL d   1       2.555  -5.553  -2.090  0.00  0.00    -0.004 A 
ENDROOT
TORSDOF 0
ENDMDL
