MODEL 1
REMARK minimizedAffinity 8.18857956
REMARK minimizedRMSD -1
REMARK  0 active torsions:
REMARK  status: ('A' for Active; 'I' for Inactive)
ROOT
ATOM      1  C   UNL d   1       2.871  -2.487  -0.079  0.00  0.00     0.172 C 
ATOM      2  N   UNL d   1       2.174  -3.034  -1.219  0.00  0.00    -0.070 N 
ATOM      3  C1  UNL d   1       2.016  -2.415  -2.430  0.00  0.00    -0.004 A 
ATOM      4  C2  UNL d   1       1.297  -3.262  -3.246  0.00  0.00    -0.047 A 
ATOM      5  C3  UNL d   1       1.013  -4.430  -2.499  0.00  0.00    -0.047 A 
ATOM      6  C4  UNL d   1       1.567  -4.262  -1.247  0.00  0.00    -0.004 A 
ENDROOT
TORSDOF 0
ENDMDL
