MODEL 1
REMARK minimizedAffinity 0.330236703
REMARK minimizedRMSD -1
REMARK  0 active torsions:
REMARK  status: ('A' for Active; 'I' for Inactive)
ROOT
ATOM      1  C   UNL d   1      -5.776   4.569  -5.990  0.00  0.00     0.172 C 
ATOM      2  N   UNL d   1      -4.400   4.843  -5.647  0.00  0.00    -0.070 N 
ATOM      3  C1  UNL d   1      -3.723   5.999  -5.926  0.00  0.00    -0.004 A 
ATOM      4  C2  UNL d   1      -2.441   5.867  -5.436  0.00  0.00    -0.047 A 
ATOM      5  C3  UNL d   1      -2.345   4.586  -4.843  0.00  0.00    -0.047 A 
ATOM      6  C4  UNL d   1      -3.572   3.973  -4.988  0.00  0.00    -0.004 A 
ENDROOT
TORSDOF 0
ENDMDL
