MODEL 1
REMARK minimizedAffinity 4.05611467
REMARK minimizedRMSD -1
REMARK  0 active torsions:
REMARK  status: ('A' for Active; 'I' for Inactive)
ROOT
ATOM      1  C   UNL d   1      -0.849  -5.999  -3.375  0.00  0.00     0.172 C 
ATOM      2  N   UNL d   1      -1.793  -5.373  -4.270  0.00  0.00    -0.070 N 
ATOM      3  C1  UNL d   1      -2.260  -5.910  -5.440  0.00  0.00    -0.004 A 
ATOM      4  C2  UNL d   1      -3.139  -5.007  -5.997  0.00  0.00    -0.047 A 
ATOM      5  C3  UNL d   1      -3.202  -3.888  -5.132  0.00  0.00    -0.047 A 
ATOM      6  C4  UNL d   1      -2.359  -4.142  -4.071  0.00  0.00    -0.004 A 
ENDROOT
TORSDOF 0
ENDMDL
