MODEL 1
REMARK minimizedAffinity 8.71569061
REMARK minimizedRMSD -1
REMARK  0 active torsions:
REMARK  status: ('A' for Active; 'I' for Inactive)
ROOT
ATOM      1  C   UNL d   1      -4.902   2.843   4.081  0.00  0.00     0.172 C 
ATOM      2  N   UNL d   1      -4.090   1.837   3.438  0.00  0.00    -0.070 N 
ATOM      3  C1  UNL d   1      -4.520   0.601   3.036  0.00  0.00    -0.004 A 
ATOM      4  C2  UNL d   1      -3.449  -0.055   2.469  0.00  0.00    -0.047 A 
ATOM      5  C3  UNL d   1      -2.336   0.817   2.534  0.00  0.00    -0.047 A 
ATOM      6  C4  UNL d   1      -2.761   1.981   3.139  0.00  0.00    -0.004 A 
ENDROOT
TORSDOF 0
ENDMDL
