MODEL 1
REMARK minimizedAffinity 4.8252883
REMARK minimizedRMSD -1
REMARK  0 active torsions:
REMARK  status: ('A' for Active; 'I' for Inactive)
ROOT
ATOM      1  C   UNL d   1       1.887  -0.480  -1.182  0.00  0.00     0.172 C 
ATOM      2  N   UNL d   1       3.183  -0.886  -0.693  0.00  0.00    -0.070 N 
ATOM      3  C1  UNL d   1       3.548  -2.164  -0.363  0.00  0.00    -0.004 A 
ATOM      4  C2  UNL d   1       4.860  -2.133   0.058  0.00  0.00    -0.047 A 
ATOM      5  C3  UNL d   1       5.298  -0.790  -0.020  0.00  0.00    -0.047 A 
ATOM      6  C4  UNL d   1       4.241  -0.039  -0.488  0.00  0.00    -0.004 A 
ENDROOT
TORSDOF 0
ENDMDL
