MODEL 1
REMARK minimizedAffinity 5.86452627
REMARK minimizedRMSD -1
REMARK  0 active torsions:
REMARK  status: ('A' for Active; 'I' for Inactive)
ROOT
ATOM      1  C   UNL d   1      -2.374  -3.442  -5.798  0.00  0.00     0.172 C 
ATOM      2  N   UNL d   1      -3.815  -3.383  -5.877  0.00  0.00    -0.070 N 
ATOM      3  C1  UNL d   1      -4.567  -2.239  -5.909  0.00  0.00    -0.004 A 
ATOM      4  C2  UNL d   1      -5.893  -2.607  -5.985  0.00  0.00    -0.047 A 
ATOM      5  C3  UNL d   1      -5.940  -4.021  -5.997  0.00  0.00    -0.047 A 
ATOM      6  C4  UNL d   1      -4.640  -4.476  -5.929  0.00  0.00    -0.004 A 
ENDROOT
TORSDOF 0
ENDMDL
