MODEL 1
REMARK minimizedAffinity 13.0969315
REMARK minimizedRMSD -1
REMARK  0 active torsions:
REMARK  status: ('A' for Active; 'I' for Inactive)
ROOT
ATOM      1  C   UNL d   1      -2.887  -2.256  -4.428  0.00  0.00     0.172 C 
ATOM      2  N   UNL d   1      -3.924  -3.042  -5.055  0.00  0.00    -0.070 N 
ATOM      3  C1  UNL d   1      -5.189  -2.606  -5.349  0.00  0.00    -0.004 A 
ATOM      4  C2  UNL d   1      -5.868  -3.650  -5.938  0.00  0.00    -0.047 A 
ATOM      5  C3  UNL d   1      -4.982  -4.751  -6.000  0.00  0.00    -0.047 A 
ATOM      6  C4  UNL d   1      -3.786  -4.347  -5.446  0.00  0.00    -0.004 A 
ENDROOT
TORSDOF 0
ENDMDL
