MODEL 1
REMARK minimizedAffinity 3.9395225
REMARK minimizedRMSD -1
REMARK  0 active torsions:
REMARK  status: ('A' for Active; 'I' for Inactive)
ROOT
ATOM      1  C   UNL d   1      -5.949  -1.557  -5.999  0.00  0.00     0.172 C 
ATOM      2  N   UNL d   1      -4.885  -2.531  -5.949  0.00  0.00    -0.070 N 
ATOM      3  C1  UNL d   1      -5.044  -3.890  -6.000  0.00  0.00    -0.004 A 
ATOM      4  C2  UNL d   1      -3.794  -4.465  -5.926  0.00  0.00    -0.047 A 
ATOM      5  C3  UNL d   1      -2.850  -3.415  -5.827  0.00  0.00    -0.047 A 
ATOM      6  C4  UNL d   1      -3.553  -2.228  -5.844  0.00  0.00    -0.004 A 
ENDROOT
TORSDOF 0
ENDMDL
