MODEL 1
REMARK minimizedAffinity 5.63209867
REMARK minimizedRMSD -1
REMARK  0 active torsions:
REMARK  status: ('A' for Active; 'I' for Inactive)
ROOT
ATOM      1  C   UNL d   1      -0.716  -4.196  -2.674  0.00  0.00     0.172 C 
ATOM      2  N   UNL d   1       0.299  -3.345  -2.101  0.00  0.00    -0.070 N 
ATOM      3  C1  UNL d   1       0.862  -3.495  -0.862  0.00  0.00    -0.004 A 
ATOM      4  C2  UNL d   1       1.785  -2.486  -0.691  0.00  0.00    -0.047 A 
ATOM      5  C3  UNL d   1       1.776  -1.701  -1.869  0.00  0.00    -0.047 A 
ATOM      6  C4  UNL d   1       0.847  -2.255  -2.724  0.00  0.00    -0.004 A 
ENDROOT
TORSDOF 0
ENDMDL
