MODEL 1
REMARK minimizedAffinity 3.53789091
REMARK minimizedRMSD -1
REMARK  0 active torsions:
REMARK  status: ('A' for Active; 'I' for Inactive)
ROOT
ATOM      1  C   UNL d   1      -5.820  -2.205  -5.999  0.00  0.00     0.172 C 
ATOM      2  N   UNL d   1      -4.865  -3.288  -5.999  0.00  0.00    -0.070 N 
ATOM      3  C1  UNL d   1      -5.171  -4.622  -5.998  0.00  0.00    -0.004 A 
ATOM      4  C2  UNL d   1      -3.986  -5.327  -5.999  0.00  0.00    -0.047 A 
ATOM      5  C3  UNL d   1      -2.932  -4.383  -5.999  0.00  0.00    -0.047 A 
ATOM      6  C4  UNL d   1      -3.504  -3.128  -5.999  0.00  0.00    -0.004 A 
ENDROOT
TORSDOF 0
ENDMDL
