MODEL 1
REMARK minimizedAffinity 8.54883575
REMARK minimizedRMSD -1
REMARK  0 active torsions:
REMARK  status: ('A' for Active; 'I' for Inactive)
ROOT
ATOM      1  C   UNL d   1      -5.199   4.128  -5.969  0.00  0.00     0.172 C 
ATOM      2  N   UNL d   1      -3.763   3.983  -5.974  0.00  0.00    -0.070 N 
ATOM      3  C1  UNL d   1      -3.080   2.796  -5.981  0.00  0.00    -0.004 A 
ATOM      4  C2  UNL d   1      -1.733   3.084  -5.984  0.00  0.00    -0.047 A 
ATOM      5  C3  UNL d   1      -1.601   4.493  -5.978  0.00  0.00    -0.047 A 
ATOM      6  C4  UNL d   1      -2.873   5.025  -5.971  0.00  0.00    -0.004 A 
ENDROOT
TORSDOF 0
ENDMDL
