MODEL 1
REMARK minimizedAffinity 7.4511795
REMARK minimizedRMSD -1
REMARK  0 active torsions:
REMARK  status: ('A' for Active; 'I' for Inactive)
ROOT
ATOM      1  C   UNL d   1      -6.000  -1.993  -5.990  0.00  0.00     0.172 C 
ATOM      2  N   UNL d   1      -5.212  -3.142  -5.607  0.00  0.00    -0.070 N 
ATOM      3  C1  UNL d   1      -4.100  -3.117  -4.808  0.00  0.00    -0.004 A 
ATOM      4  C2  UNL d   1      -3.642  -4.410  -4.683  0.00  0.00    -0.047 A 
ATOM      5  C3  UNL d   1      -4.507  -5.241  -5.433  0.00  0.00    -0.047 A 
ATOM      6  C4  UNL d   1      -5.470  -4.430  -5.995  0.00  0.00    -0.004 A 
ENDROOT
TORSDOF 0
ENDMDL
