MODEL 1
REMARK minimizedAffinity 15.0016985
REMARK minimizedRMSD -1
REMARK  0 active torsions:
REMARK  status: ('A' for Active; 'I' for Inactive)
ROOT
ATOM      1  C   UNL d   1      -5.992   3.015   3.264  0.00  0.00     0.172 C 
ATOM      2  N   UNL d   1      -4.852   2.303   3.791  0.00  0.00    -0.070 N 
ATOM      3  C1  UNL d   1      -4.037   1.463   3.079  0.00  0.00    -0.004 A 
ATOM      4  C2  UNL d   1      -3.070   0.986   3.938  0.00  0.00    -0.047 A 
ATOM      5  C3  UNL d   1      -3.312   1.558   5.209  0.00  0.00    -0.047 A 
ATOM      6  C4  UNL d   1      -4.421   2.370   5.089  0.00  0.00    -0.004 A 
ENDROOT
TORSDOF 0
ENDMDL
