MODEL 1
REMARK minimizedAffinity -0.36718595
REMARK minimizedRMSD -1
REMARK  1 active torsions:
REMARK  status: ('A' for Active; 'I' for Inactive)
REMARK    1  A    between atoms: C1_2  and  C2_3 
ROOT
ATOM      1  C2  UNL d   1       2.539   2.570  -3.723  0.00  0.00    -0.073 A 
ATOM      2  C3  UNL d   1       2.869   3.926  -3.626  0.00  0.00    -0.002 A 
ATOM      3  C4  UNL d   1       4.206   4.324  -3.571  0.00  0.00     0.004 A 
ATOM      4  C5  UNL d   1       5.224   3.372  -3.619  0.00  0.00    -0.004 A 
ATOM      5  C6  UNL d   1       4.914   2.012  -3.729  0.00  0.00    -0.075 A 
ATOM      6  C7  UNL d   1       5.997   0.976  -3.780  0.00  0.00     0.076 C 
ATOM      7  C8  UNL d   1       3.569   1.621  -3.781  0.00  0.00     0.001 A 
ENDROOT
BRANCH   1   8
ATOM      8  C1  UNL d   1       1.097   2.136  -3.790  0.00  0.00     0.053 C 
ATOM      9  C   UNL d   1       0.737   1.181  -2.663  0.00  0.00     0.018 C 
ENDBRANCH   1   8
TORSDOF 1
ENDMDL
