MODEL 1
REMARK minimizedAffinity 9.96502876
REMARK minimizedRMSD -1
REMARK  1 active torsions:
REMARK  status: ('A' for Active; 'I' for Inactive)
REMARK    1  A    between atoms: C1_2  and  C2_3 
ROOT
ATOM      1  C2  UNL d   1       0.677   2.276  -0.413  0.00  0.00    -0.073 A 
ATOM      2  C3  UNL d   1       1.411   1.893   0.715  0.00  0.00    -0.002 A 
ATOM      3  C4  UNL d   1       1.764   2.838   1.680  0.00  0.00     0.004 A 
ATOM      4  C5  UNL d   1       1.381   4.170   1.531  0.00  0.00    -0.004 A 
ATOM      5  C6  UNL d   1       0.636   4.570   0.416  0.00  0.00    -0.075 A 
ATOM      6  C7  UNL d   1       0.218   6.000   0.240  0.00  0.00     0.076 C 
ATOM      7  C8  UNL d   1       0.288   3.616  -0.549  0.00  0.00     0.001 A 
ENDROOT
BRANCH   1   8
ATOM      8  C1  UNL d   1       0.288   1.258  -1.454  0.00  0.00     0.053 C 
ATOM      9  C   UNL d   1       1.292   1.197  -2.594  0.00  0.00     0.018 C 
ENDBRANCH   1   8
TORSDOF 1
ENDMDL
