MODEL 1
REMARK minimizedAffinity 3.19425058
REMARK minimizedRMSD -1
REMARK  1 active torsions:
REMARK  status: ('A' for Active; 'I' for Inactive)
REMARK    1  A    between atoms: C1_2  and  C2_3 
ROOT
ATOM      1  C2  UNL d   1      -1.323  -0.578   0.751  0.00  0.00    -0.073 A 
ATOM      2  C3  UNL d   1      -1.272  -1.902   1.201  0.00  0.00    -0.002 A 
ATOM      3  C4  UNL d   1      -0.449  -2.832   0.564  0.00  0.00     0.004 A 
ATOM      4  C5  UNL d   1       0.334  -2.446  -0.524  0.00  0.00    -0.004 A 
ATOM      5  C6  UNL d   1       0.306  -1.125  -0.981  0.00  0.00    -0.075 A 
ATOM      6  C7  UNL d   1       1.141  -0.695  -2.151  0.00  0.00     0.076 C 
ATOM      7  C8  UNL d   1      -0.525  -0.198  -0.338  0.00  0.00     0.001 A 
ENDROOT
BRANCH   1   8
ATOM      8  C1  UNL d   1      -2.205   0.431   1.440  0.00  0.00     0.053 C 
ATOM      9  C   UNL d   1      -2.626  -0.032   2.826  0.00  0.00     0.018 C 
ENDBRANCH   1   8
TORSDOF 1
ENDMDL
