MODEL 1
REMARK minimizedAffinity -2.17906475
REMARK minimizedRMSD -1
REMARK  1 active torsions:
REMARK  status: ('A' for Active; 'I' for Inactive)
REMARK    1  A    between atoms: C1_2  and  C2_3 
ROOT
ATOM      1  C2  UNL d   1      -0.456   0.962  -0.906  0.00  0.00    -0.073 A 
ATOM      2  C3  UNL d   1      -1.318   0.233  -0.079  0.00  0.00    -0.002 A 
ATOM      3  C4  UNL d   1      -1.186  -1.152   0.029  0.00  0.00     0.004 A 
ATOM      4  C5  UNL d   1      -0.189  -1.820  -0.681  0.00  0.00    -0.004 A 
ATOM      5  C6  UNL d   1       0.690  -1.108  -1.503  0.00  0.00    -0.075 A 
ATOM      6  C7  UNL d   1       1.766  -1.812  -2.276  0.00  0.00     0.076 C 
ATOM      7  C8  UNL d   1       0.549   0.283  -1.609  0.00  0.00     0.001 A 
ENDROOT
BRANCH   1   8
ATOM      8  C1  UNL d   1      -0.590   2.459  -1.022  0.00  0.00     0.053 C 
ATOM      9  C   UNL d   1      -0.156   3.170   0.251  0.00  0.00     0.018 C 
ENDBRANCH   1   8
TORSDOF 1
ENDMDL
