MODEL 1
REMARK minimizedAffinity 0.89771384
REMARK minimizedRMSD -1
REMARK  1 active torsions:
REMARK  status: ('A' for Active; 'I' for Inactive)
REMARK    1  A    between atoms: C1_2  and  C2_3 
ROOT
ATOM      1  C2  UNL d   1       1.331  -0.608  -2.598  0.00  0.00    -0.073 A 
ATOM      2  C3  UNL d   1       0.579   0.429  -2.033  0.00  0.00    -0.002 A 
ATOM      3  C4  UNL d   1      -0.026   0.262  -0.787  0.00  0.00     0.004 A 
ATOM      4  C5  UNL d   1       0.120  -0.938  -0.091  0.00  0.00    -0.004 A 
ATOM      5  C6  UNL d   1       0.876  -1.981  -0.634  0.00  0.00    -0.075 A 
ATOM      6  C7  UNL d   1       1.041  -3.279   0.101  0.00  0.00     0.076 C 
ATOM      7  C8  UNL d   1       1.479  -1.807  -1.887  0.00  0.00     0.001 A 
ENDROOT
BRANCH   1   8
ATOM      8  C1  UNL d   1       1.991  -0.430  -3.941  0.00  0.00     0.053 C 
ATOM      9  C   UNL d   1       1.417   0.752  -4.707  0.00  0.00     0.018 C 
ENDBRANCH   1   8
TORSDOF 1
ENDMDL
