MODEL 1
REMARK minimizedAffinity -3.29476714
REMARK minimizedRMSD -1
REMARK  1 active torsions:
REMARK  status: ('A' for Active; 'I' for Inactive)
REMARK    1  A    between atoms: C1_2  and  C2_3 
ROOT
ATOM      1  C2  UNL d   1       5.635   1.015   4.109  0.00  0.00    -0.073 A 
ATOM      2  C3  UNL d   1       5.284   0.914   2.758  0.00  0.00    -0.002 A 
ATOM      3  C4  UNL d   1       5.159   2.062   1.974  0.00  0.00     0.004 A 
ATOM      4  C5  UNL d   1       5.389   3.320   2.531  0.00  0.00    -0.004 A 
ATOM      5  C6  UNL d   1       5.751   3.441   3.876  0.00  0.00    -0.075 A 
ATOM      6  C7  UNL d   1       6.000   4.787   4.490  0.00  0.00     0.076 C 
ATOM      7  C8  UNL d   1       5.872   2.283   4.657  0.00  0.00     0.001 A 
ENDROOT
BRANCH   1   8
ATOM      8  C1  UNL d   1       5.777  -0.222   4.957  0.00  0.00     0.053 C 
ATOM      9  C   UNL d   1       5.624  -1.495   4.139  0.00  0.00     0.018 C 
ENDBRANCH   1   8
TORSDOF 1
ENDMDL
