MODEL 1
REMARK minimizedAffinity -3.36937428
REMARK minimizedRMSD -1
REMARK  1 active torsions:
REMARK  status: ('A' for Active; 'I' for Inactive)
REMARK    1  A    between atoms: C1_2  and  C2_3 
ROOT
ATOM      1  C2  UNL d   1      -1.755   0.275   0.894  0.00  0.00    -0.073 A 
ATOM      2  C3  UNL d   1      -1.294  -1.045   0.946  0.00  0.00    -0.002 A 
ATOM      3  C4  UNL d   1      -0.397  -1.517  -0.013  0.00  0.00     0.004 A 
ATOM      4  C5  UNL d   1       0.054  -0.673  -1.028  0.00  0.00    -0.004 A 
ATOM      5  C6  UNL d   1      -0.386   0.653  -1.090  0.00  0.00    -0.075 A 
ATOM      6  C7  UNL d   1       0.088   1.573  -2.177  0.00  0.00     0.076 C 
ATOM      7  C8  UNL d   1      -1.289   1.119  -0.125  0.00  0.00     0.001 A 
ENDROOT
BRANCH   1   8
ATOM      8  C1  UNL d   1      -2.719   0.791   1.931  0.00  0.00     0.053 C 
ATOM      9  C   UNL d   1      -2.665  -0.023   3.214  0.00  0.00     0.018 C 
ENDBRANCH   1   8
TORSDOF 1
ENDMDL
