MODEL 1
REMARK minimizedAffinity -2.43460083
REMARK minimizedRMSD -1
REMARK  1 active torsions:
REMARK  status: ('A' for Active; 'I' for Inactive)
REMARK    1  A    between atoms: C1_2  and  C2_3 
ROOT
ATOM      1  C2  UNL d   1       0.085  -0.716  -0.378  0.00  0.00    -0.073 A 
ATOM      2  C3  UNL d   1      -1.119  -0.300   0.204  0.00  0.00    -0.002 A 
ATOM      3  C4  UNL d   1      -1.686   0.925  -0.149  0.00  0.00     0.004 A 
ATOM      4  C5  UNL d   1      -1.061   1.743  -1.090  0.00  0.00    -0.004 A 
ATOM      5  C6  UNL d   1       0.136   1.340  -1.691  0.00  0.00    -0.075 A 
ATOM      6  C7  UNL d   1       0.822   2.209  -2.703  0.00  0.00     0.076 C 
ATOM      7  C8  UNL d   1       0.701   0.109  -1.330  0.00  0.00     0.001 A 
ENDROOT
BRANCH   1   8
ATOM      8  C1  UNL d   1       0.697  -2.041  -0.005  0.00  0.00     0.053 C 
ATOM      9  C   UNL d   1       1.725  -2.501  -1.026  0.00  0.00     0.018 C 
ENDBRANCH   1   8
TORSDOF 1
ENDMDL
