MODEL 1
REMARK minimizedAffinity -3.92325759
REMARK minimizedRMSD -1
REMARK  1 active torsions:
REMARK  status: ('A' for Active; 'I' for Inactive)
REMARK    1  A    between atoms: C1_2  and  C2_3 
ROOT
ATOM      1  C2  UNL d   1       0.215  -0.029   0.209  0.00  0.00    -0.073 A 
ATOM      2  C3  UNL d   1       0.600  -1.356   0.428  0.00  0.00    -0.002 A 
ATOM      3  C4  UNL d   1       1.032  -2.149  -0.635  0.00  0.00     0.004 A 
ATOM      4  C5  UNL d   1       1.091  -1.623  -1.925  0.00  0.00    -0.004 A 
ATOM      5  C6  UNL d   1       0.722  -0.295  -2.163  0.00  0.00    -0.075 A 
ATOM      6  C7  UNL d   1       0.778   0.286  -3.545  0.00  0.00     0.076 C 
ATOM      7  C8  UNL d   1       0.286   0.495  -1.090  0.00  0.00     0.001 A 
ENDROOT
BRANCH   1   8
ATOM      8  C1  UNL d   1      -0.247   0.834   1.355  0.00  0.00     0.053 C 
ATOM      9  C   UNL d   1       0.166   2.286   1.178  0.00  0.00     0.018 C 
ENDBRANCH   1   8
TORSDOF 1
ENDMDL
