MODEL 1
REMARK minimizedAffinity -0.58357501
REMARK minimizedRMSD -1
REMARK  1 active torsions:
REMARK  status: ('A' for Active; 'I' for Inactive)
REMARK    1  A    between atoms: C1_2  and  C2_3 
ROOT
ATOM      1  C2  UNL d   1      -0.029  -0.198   0.111  0.00  0.00    -0.073 A 
ATOM      2  C3  UNL d   1       0.711   0.948  -0.201  0.00  0.00    -0.002 A 
ATOM      3  C4  UNL d   1       0.675   2.061   0.641  0.00  0.00     0.004 A 
ATOM      4  C5  UNL d   1      -0.095   2.037   1.804  0.00  0.00    -0.004 A 
ATOM      5  C6  UNL d   1      -0.833   0.896   2.138  0.00  0.00    -0.075 A 
ATOM      6  C7  UNL d   1      -1.667   0.855   3.384  0.00  0.00     0.076 C 
ATOM      7  C8  UNL d   1      -0.793  -0.216   1.287  0.00  0.00     0.001 A 
ENDROOT
BRANCH   1   8
ATOM      8  C1  UNL d   1       0.012  -1.404  -0.792  0.00  0.00     0.053 C 
ATOM      9  C   UNL d   1       0.908  -2.500  -0.237  0.00  0.00     0.018 C 
ENDBRANCH   1   8
TORSDOF 1
ENDMDL
