MODEL 1
REMARK minimizedAffinity -2.89742994
REMARK minimizedRMSD -1
REMARK  1 active torsions:
REMARK  status: ('A' for Active; 'I' for Inactive)
REMARK    1  A    between atoms: C1_2  and  C2_3 
ROOT
ATOM      1  C2  UNL d   1      -0.134   0.019  -0.951  0.00  0.00    -0.073 A 
ATOM      2  C3  UNL d   1       0.962  -0.004  -1.821  0.00  0.00    -0.002 A 
ATOM      3  C4  UNL d   1       1.767  -1.140  -1.912  0.00  0.00     0.004 A 
ATOM      4  C5  UNL d   1       1.481  -2.266  -1.139  0.00  0.00    -0.004 A 
ATOM      5  C6  UNL d   1       0.384  -2.267  -0.272  0.00  0.00    -0.075 A 
ATOM      6  C7  UNL d   1       0.064  -3.469   0.567  0.00  0.00     0.076 C 
ATOM      7  C8  UNL d   1      -0.418  -1.121  -0.185  0.00  0.00     0.001 A 
ENDROOT
BRANCH   1   8
ATOM      8  C1  UNL d   1      -1.010   1.242  -0.854  0.00  0.00     0.053 C 
ATOM      9  C   UNL d   1      -0.418   2.295   0.069  0.00  0.00     0.018 C 
ENDBRANCH   1   8
TORSDOF 1
ENDMDL
