MODEL 1
REMARK minimizedAffinity -1.32128167
REMARK minimizedRMSD -1
REMARK  0 active torsions:
REMARK  status: ('A' for Active; 'I' for Inactive)
ROOT
ATOM      1  C   UNL d   1       0.028  -2.560   2.963  0.00  0.00     0.077 C 
ATOM      2  C1  UNL d   1      -0.532  -2.021   1.680  0.00  0.00    -0.074 A 
ATOM      3  C2  UNL d   1      -1.656  -2.603   1.086  0.00  0.00    -0.005 A 
ATOM      4  C3  UNL d   1      -2.171  -2.084  -0.102  0.00  0.00     0.006 A 
ATOM      5  C4  UNL d   1      -1.569  -0.981  -0.707  0.00  0.00    -0.005 A 
ATOM      6  C5  UNL d   1      -0.444  -0.385  -0.127  0.00  0.00    -0.074 A 
ATOM      7  C6  UNL d   1       0.210   0.808  -0.758  0.00  0.00     0.077 C 
ATOM      8  C7  UNL d   1       0.063  -0.907   1.071  0.00  0.00    -0.001 A 
ENDROOT
TORSDOF 0
ENDMDL
