MODEL 1
REMARK minimizedAffinity -5.93282986
REMARK minimizedRMSD -1
REMARK  0 active torsions:
REMARK  status: ('A' for Active; 'I' for Inactive)
ROOT
ATOM      1  C   UNL d   1      -3.436  -0.021   2.248  0.00  0.00     0.077 C 
ATOM      2  C1  UNL d   1      -2.284  -0.668   1.538  0.00  0.00    -0.074 A 
ATOM      3  C2  UNL d   1      -2.054  -2.043   1.646  0.00  0.00    -0.005 A 
ATOM      4  C3  UNL d   1      -0.984  -2.632   0.972  0.00  0.00     0.006 A 
ATOM      5  C4  UNL d   1      -0.134  -1.853   0.186  0.00  0.00    -0.005 A 
ATOM      6  C5  UNL d   1      -0.349  -0.476   0.066  0.00  0.00    -0.074 A 
ATOM      7  C6  UNL d   1       0.549   0.374  -0.783  0.00  0.00     0.077 C 
ATOM      8  C7  UNL d   1      -1.430   0.107   0.740  0.00  0.00    -0.001 A 
ENDROOT
TORSDOF 0
ENDMDL
