MODEL 1
REMARK minimizedAffinity -4.7013526
REMARK minimizedRMSD -1
REMARK  0 active torsions:
REMARK  status: ('A' for Active; 'I' for Inactive)
ROOT
ATOM      1  C   UNL d   1      -2.362  -2.292   1.644  0.00  0.00     0.077 C 
ATOM      2  C1  UNL d   1      -1.018  -1.848   1.150  0.00  0.00    -0.074 A 
ATOM      3  C2  UNL d   1       0.094  -2.693   1.232  0.00  0.00    -0.005 A 
ATOM      4  C3  UNL d   1       1.336  -2.269   0.759  0.00  0.00     0.006 A 
ATOM      5  C4  UNL d   1       1.479  -0.998   0.201  0.00  0.00    -0.005 A 
ATOM      6  C5  UNL d   1       0.379  -0.140   0.110  0.00  0.00    -0.074 A 
ATOM      7  C6  UNL d   1       0.513   1.226  -0.496  0.00  0.00     0.077 C 
ATOM      8  C7  UNL d   1      -0.868  -0.575   0.581  0.00  0.00    -0.001 A 
ENDROOT
TORSDOF 0
ENDMDL
