MODEL 1
REMARK minimizedAffinity -4.1993866
REMARK minimizedRMSD -1
REMARK  0 active torsions:
REMARK  status: ('A' for Active; 'I' for Inactive)
ROOT
ATOM      1  C   UNL d   1      -2.013  -2.493   1.063  0.00  0.00     0.077 C 
ATOM      2  C1  UNL d   1      -0.710  -1.787   0.831  0.00  0.00    -0.074 A 
ATOM      3  C2  UNL d   1       0.483  -2.286   1.363  0.00  0.00    -0.005 A 
ATOM      4  C3  UNL d   1       1.688  -1.624   1.131  0.00  0.00     0.006 A 
ATOM      5  C4  UNL d   1       1.712  -0.457   0.367  0.00  0.00    -0.005 A 
ATOM      6  C5  UNL d   1       0.530   0.057  -0.174  0.00  0.00    -0.074 A 
ATOM      7  C6  UNL d   1       0.540   1.305  -1.007  0.00  0.00     0.077 C 
ATOM      8  C7  UNL d   1      -0.677  -0.618   0.057  0.00  0.00    -0.001 A 
ENDROOT
TORSDOF 0
ENDMDL
