MODEL 1
REMARK minimizedAffinity -2.71996236
REMARK minimizedRMSD -1
REMARK  0 active torsions:
REMARK  status: ('A' for Active; 'I' for Inactive)
ROOT
ATOM      1  C   UNL d   1      -2.310  -2.327   0.948  0.00  0.00     0.077 C 
ATOM      2  C1  UNL d   1      -1.724  -0.968   0.706  0.00  0.00    -0.074 A 
ATOM      3  C2  UNL d   1      -2.387   0.188   1.132  0.00  0.00    -0.005 A 
ATOM      4  C3  UNL d   1      -1.824   1.444   0.908  0.00  0.00     0.006 A 
ATOM      5  C4  UNL d   1      -0.595   1.558   0.258  0.00  0.00    -0.005 A 
ATOM      6  C5  UNL d   1       0.083   0.414  -0.174  0.00  0.00    -0.074 A 
ATOM      7  C6  UNL d   1       1.410   0.518  -0.866  0.00  0.00     0.077 C 
ATOM      8  C7  UNL d   1      -0.485  -0.846   0.060  0.00  0.00    -0.001 A 
ENDROOT
TORSDOF 0
ENDMDL
