MODEL 1
REMARK minimizedAffinity -2.19420791
REMARK minimizedRMSD -1
REMARK  0 active torsions:
REMARK  status: ('A' for Active; 'I' for Inactive)
ROOT
ATOM      1  C   UNL d   1       1.705   0.436   0.004  0.00  0.00     0.077 C 
ATOM      2  C1  UNL d   1       0.243   0.335   0.323  0.00  0.00    -0.074 A 
ATOM      3  C2  UNL d   1      -0.516   1.479   0.587  0.00  0.00    -0.005 A 
ATOM      4  C3  UNL d   1      -1.877   1.370   0.873  0.00  0.00     0.006 A 
ATOM      5  C4  UNL d   1      -2.491   0.117   0.899  0.00  0.00    -0.005 A 
ATOM      6  C5  UNL d   1      -1.748  -1.038   0.637  0.00  0.00    -0.074 A 
ATOM      7  C6  UNL d   1      -2.395  -2.392   0.651  0.00  0.00     0.077 C 
ATOM      8  C7  UNL d   1      -0.383  -0.920   0.343  0.00  0.00    -0.001 A 
ENDROOT
TORSDOF 0
ENDMDL
