MODEL 1
REMARK minimizedAffinity -4.76517153
REMARK minimizedRMSD -1
REMARK  0 active torsions:
REMARK  status: ('A' for Active; 'I' for Inactive)
ROOT
ATOM      1  C   UNL d   1       1.394  -3.109   1.111  0.00  0.00     0.077 C 
ATOM      2  C1  UNL d   1       0.580  -1.918   0.697  0.00  0.00    -0.074 A 
ATOM      3  C2  UNL d   1      -0.814  -1.926   0.809  0.00  0.00    -0.005 A 
ATOM      4  C3  UNL d   1      -1.556  -0.808   0.429  0.00  0.00     0.006 A 
ATOM      5  C4  UNL d   1      -0.913   0.327  -0.066  0.00  0.00    -0.005 A 
ATOM      6  C5  UNL d   1       0.480   0.353  -0.185  0.00  0.00    -0.074 A 
ATOM      7  C6  UNL d   1       1.188   1.569  -0.706  0.00  0.00     0.077 C 
ATOM      8  C7  UNL d   1       1.220  -0.771   0.206  0.00  0.00    -0.001 A 
ENDROOT
TORSDOF 0
ENDMDL
