MODEL 1
REMARK minimizedAffinity -5.7428546
REMARK minimizedRMSD -1
REMARK  0 active torsions:
REMARK  status: ('A' for Active; 'I' for Inactive)
ROOT
ATOM      1  C   UNL d   1       1.048   0.954  -0.659  0.00  0.00     0.077 C 
ATOM      2  C1  UNL d   1       0.197   0.007   0.134  0.00  0.00    -0.074 A 
ATOM      3  C2  UNL d   1       0.636  -1.289   0.419  0.00  0.00    -0.005 A 
ATOM      4  C3  UNL d   1      -0.163  -2.155   1.166  0.00  0.00     0.006 A 
ATOM      5  C4  UNL d   1      -1.408  -1.733   1.635  0.00  0.00    -0.005 A 
ATOM      6  C5  UNL d   1      -1.864  -0.440   1.360  0.00  0.00    -0.074 A 
ATOM      7  C6  UNL d   1      -3.195   0.032   1.865  0.00  0.00     0.077 C 
ATOM      8  C7  UNL d   1      -1.052   0.426   0.615  0.00  0.00    -0.001 A 
ENDROOT
TORSDOF 0
ENDMDL
