MODEL 1
REMARK minimizedAffinity -3.44186854
REMARK minimizedRMSD -1
REMARK  0 active torsions:
REMARK  status: ('A' for Active; 'I' for Inactive)
ROOT
ATOM      1  C   UNL d   1       0.812   1.906  -1.265  0.00  0.00     0.077 C 
ATOM      2  C1  UNL d   1      -0.084   0.919  -0.577  0.00  0.00    -0.074 A 
ATOM      3  C2  UNL d   1       0.239  -0.441  -0.539  0.00  0.00    -0.005 A 
ATOM      4  C3  UNL d   1      -0.599  -1.345   0.113  0.00  0.00     0.006 A 
ATOM      5  C4  UNL d   1      -1.768  -0.899   0.733  0.00  0.00    -0.005 A 
ATOM      6  C5  UNL d   1      -2.107   0.457   0.706  0.00  0.00    -0.074 A 
ATOM      7  C6  UNL d   1      -3.354   0.955   1.375  0.00  0.00     0.077 C 
ATOM      8  C7  UNL d   1      -1.256   1.361   0.055  0.00  0.00    -0.001 A 
ENDROOT
TORSDOF 0
ENDMDL
