MODEL 1
REMARK minimizedAffinity -2.06390405
REMARK minimizedRMSD -1
REMARK  0 active torsions:
REMARK  status: ('A' for Active; 'I' for Inactive)
ROOT
ATOM      1  C   UNL d   1       0.798  -3.190   3.394  0.00  0.00     0.077 C 
ATOM      2  C1  UNL d   1       0.081  -2.592   2.220  0.00  0.00    -0.074 A 
ATOM      3  C2  UNL d   1      -1.174  -3.066   1.826  0.00  0.00    -0.005 A 
ATOM      4  C3  UNL d   1      -1.833  -2.494   0.738  0.00  0.00     0.006 A 
ATOM      5  C4  UNL d   1      -1.244  -1.442   0.034  0.00  0.00    -0.005 A 
ATOM      6  C5  UNL d   1       0.010  -0.954   0.414  0.00  0.00    -0.074 A 
ATOM      7  C6  UNL d   1       0.652   0.182  -0.325  0.00  0.00     0.077 C 
ATOM      8  C7  UNL d   1       0.662  -1.530   1.513  0.00  0.00    -0.001 A 
ENDROOT
TORSDOF 0
ENDMDL
