MODEL 1
REMARK minimizedAffinity -4.48698568
REMARK minimizedRMSD -1
REMARK  0 active torsions:
REMARK  status: ('A' for Active; 'I' for Inactive)
ROOT
ATOM      1  C   UNL d   1      -2.477  -0.437   2.565  0.00  0.00     0.077 C 
ATOM      2  C1  UNL d   1      -1.212  -0.647   1.786  0.00  0.00    -0.074 A 
ATOM      3  C2  UNL d   1      -0.459  -1.816   1.939  0.00  0.00    -0.005 A 
ATOM      4  C3  UNL d   1       0.710  -2.001   1.202  0.00  0.00     0.006 A 
ATOM      5  C4  UNL d   1       1.137  -1.021   0.305  0.00  0.00    -0.005 A 
ATOM      6  C5  UNL d   1       0.397   0.154   0.138  0.00  0.00    -0.074 A 
ATOM      7  C6  UNL d   1       0.837   1.213  -0.829  0.00  0.00     0.077 C 
ATOM      8  C7  UNL d   1      -0.781   0.329   0.877  0.00  0.00    -0.001 A 
ENDROOT
TORSDOF 0
ENDMDL
