MODEL 1
REMARK minimizedAffinity -4.30862999
REMARK minimizedRMSD -1
REMARK  0 active torsions:
REMARK  status: ('A' for Active; 'I' for Inactive)
ROOT
ATOM      1  C   UNL d   1      -2.837   0.190   2.074  0.00  0.00     0.077 C 
ATOM      2  C1  UNL d   1      -1.528  -0.257   1.494  0.00  0.00    -0.074 A 
ATOM      3  C2  UNL d   1      -1.059  -1.559   1.696  0.00  0.00    -0.005 A 
ATOM      4  C3  UNL d   1       0.155  -1.963   1.143  0.00  0.00     0.006 A 
ATOM      5  C4  UNL d   1       0.912  -1.071   0.382  0.00  0.00    -0.005 A 
ATOM      6  C5  UNL d   1       0.459   0.235   0.168  0.00  0.00    -0.074 A 
ATOM      7  C6  UNL d   1       1.256   1.203  -0.655  0.00  0.00     0.077 C 
ATOM      8  C7  UNL d   1      -0.766   0.631   0.722  0.00  0.00    -0.001 A 
ENDROOT
TORSDOF 0
ENDMDL
