MODEL 1
REMARK minimizedAffinity -2.58468533
REMARK minimizedRMSD -1
REMARK  0 active torsions:
REMARK  status: ('A' for Active; 'I' for Inactive)
ROOT
ATOM      1  C   UNL d   1       0.876   2.203  -2.697  0.00  0.00     0.077 C 
ATOM      2  C1  UNL d   1       0.452   1.223  -1.643  0.00  0.00    -0.074 A 
ATOM      3  C2  UNL d   1       1.119   0.004  -1.485  0.00  0.00    -0.005 A 
ATOM      4  C3  UNL d   1       0.719  -0.892  -0.493  0.00  0.00     0.006 A 
ATOM      5  C4  UNL d   1      -0.350  -0.579   0.348  0.00  0.00    -0.005 A 
ATOM      6  C5  UNL d   1      -1.028   0.635   0.204  0.00  0.00    -0.074 A 
ATOM      7  C6  UNL d   1      -2.172   0.992   1.106  0.00  0.00     0.077 C 
ATOM      8  C7  UNL d   1      -0.616   1.534  -0.789  0.00  0.00    -0.001 A 
ENDROOT
TORSDOF 0
ENDMDL
