MODEL 1
REMARK minimizedAffinity -4.03386402
REMARK minimizedRMSD -1
REMARK  0 active torsions:
REMARK  status: ('A' for Active; 'I' for Inactive)
ROOT
ATOM      1  C   UNL d   1       2.853  -1.466   1.163  0.00  0.00     0.077 C 
ATOM      2  C1  UNL d   1       1.446  -1.111   0.784  0.00  0.00    -0.074 A 
ATOM      3  C2  UNL d   1       1.118   0.182   0.364  0.00  0.00    -0.005 A 
ATOM      4  C3  UNL d   1      -0.193   0.494   0.006  0.00  0.00     0.006 A 
ATOM      5  C4  UNL d   1      -1.189  -0.482   0.065  0.00  0.00    -0.005 A 
ATOM      6  C5  UNL d   1      -0.880  -1.781   0.482  0.00  0.00    -0.074 A 
ATOM      7  C6  UNL d   1      -1.936  -2.844   0.542  0.00  0.00     0.077 C 
ATOM      8  C7  UNL d   1       0.441  -2.088   0.833  0.00  0.00    -0.001 A 
ENDROOT
TORSDOF 0
ENDMDL
