MODEL 1
REMARK minimizedAffinity 1.38650763
REMARK minimizedRMSD -1
REMARK  1 active torsions:
REMARK  status: ('A' for Active; 'I' for Inactive)
REMARK    1  A    between atoms: N_2  and  C1_3 
ROOT
ATOM      1  C1  UNL d   1       3.927  -2.642  -0.936  0.00  0.00     0.143 A 
ATOM      2  C2  UNL d   1       3.214  -3.706  -1.499  0.00  0.00    -0.057 A 
ATOM      3  C3  UNL d   1       3.874  -4.784  -2.102  0.00  0.00     0.033 A 
ATOM      4  C4  UNL d   1       5.263  -4.803  -2.177  0.00  0.00    -0.042 A 
ATOM      5  C5  UNL d   1       5.991  -3.744  -1.646  0.00  0.00     0.033 A 
ATOM      6  C6  UNL d   1       5.327  -2.674  -1.039  0.00  0.00    -0.057 A 
ENDROOT
BRANCH   1   7
ATOM      7  N   UNL d   1       3.327  -1.495  -0.410  0.00  0.00    -0.732 N 
ATOM      8  C   UNL d   1       2.052  -1.576   0.269  0.00  0.00     0.284 C 
ATOM      9  H3  UNL d   1       3.998  -0.876   0.038  0.00  0.00     0.395 HD
ENDBRANCH   1   7
TORSDOF 1
ENDMDL
