MODEL 1
REMARK minimizedAffinity 5.45250797
REMARK minimizedRMSD -1
REMARK  1 active torsions:
REMARK  status: ('A' for Active; 'I' for Inactive)
REMARK    1  A    between atoms: N_2  and  C1_3 
ROOT
ATOM      1  C1  UNL d   1      -0.048   4.687   0.347  0.00  0.00     0.143 A 
ATOM      2  C2  UNL d   1       1.224   4.299   0.780  0.00  0.00    -0.057 A 
ATOM      3  C3  UNL d   1       1.391   3.262   1.706  0.00  0.00     0.033 A 
ATOM      4  C4  UNL d   1       0.283   2.611   2.238  0.00  0.00    -0.042 A 
ATOM      5  C5  UNL d   1      -0.993   2.997   1.841  0.00  0.00     0.033 A 
ATOM      6  C6  UNL d   1      -1.152   4.029   0.911  0.00  0.00    -0.057 A 
ENDROOT
BRANCH   1   7
ATOM      7  N   UNL d   1      -0.284   5.775  -0.496  0.00  0.00    -0.732 N 
ATOM      8  C   UNL d   1      -1.531   5.890  -1.221  0.00  0.00     0.284 C 
ATOM      9  H3  UNL d   1       0.050   6.652  -0.102  0.00  0.00     0.395 HD
ENDBRANCH   1   7
TORSDOF 1
ENDMDL
