MODEL 1
REMARK minimizedAffinity 11.9512959
REMARK minimizedRMSD -1
REMARK  1 active torsions:
REMARK  status: ('A' for Active; 'I' for Inactive)
REMARK    1  A    between atoms: N_2  and  C1_3 
ROOT
ATOM      1  C1  UNL d   1      -0.208   1.819   0.089  0.00  0.00     0.143 A 
ATOM      2  C2  UNL d   1      -1.603   1.713   0.048  0.00  0.00    -0.057 A 
ATOM      3  C3  UNL d   1      -2.232   0.674  -0.647  0.00  0.00     0.033 A 
ATOM      4  C4  UNL d   1      -1.476  -0.265  -1.340  0.00  0.00    -0.042 A 
ATOM      5  C5  UNL d   1      -0.089  -0.166  -1.334  0.00  0.00     0.033 A 
ATOM      6  C6  UNL d   1       0.534   0.871  -0.633  0.00  0.00    -0.057 A 
ENDROOT
BRANCH   1   7
ATOM      7  N   UNL d   1       0.474   2.885   0.680  0.00  0.00    -0.732 N 
ATOM      8  C   UNL d   1       0.519   4.180   0.035  0.00  0.00     0.284 C 
ATOM      9  H3  UNL d   1       0.332   2.927   1.687  0.00  0.00     0.395 HD
ENDBRANCH   1   7
TORSDOF 1
ENDMDL
