MODEL 1
REMARK minimizedAffinity 8.30925083
REMARK minimizedRMSD -1
REMARK  1 active torsions:
REMARK  status: ('A' for Active; 'I' for Inactive)
REMARK    1  A    between atoms: N_2  and  C1_3 
ROOT
ATOM      1  C1  UNL d   1       4.412  -4.163  -2.763  0.00  0.00     0.143 A 
ATOM      2  C2  UNL d   1       4.827  -4.885  -1.638  0.00  0.00    -0.057 A 
ATOM      3  C3  UNL d   1       5.436  -4.248  -0.550  0.00  0.00     0.033 A 
ATOM      4  C4  UNL d   1       5.667  -2.876  -0.580  0.00  0.00    -0.042 A 
ATOM      5  C5  UNL d   1       5.286  -2.143  -1.698  0.00  0.00     0.033 A 
ATOM      6  C6  UNL d   1       4.672  -2.784  -2.778  0.00  0.00    -0.057 A 
ENDROOT
BRANCH   1   7
ATOM      7  N   UNL d   1       3.891  -4.753  -3.917  0.00  0.00    -0.732 N 
ATOM      8  C   UNL d   1       4.733  -5.554  -4.779  0.00  0.00     0.284 C 
ATOM      9  H3  UNL d   1       2.960  -5.137  -3.770  0.00  0.00     0.395 HD
ENDBRANCH   1   7
TORSDOF 1
ENDMDL
