MODEL 1
REMARK minimizedAffinity 9.55143261
REMARK minimizedRMSD -1
REMARK  1 active torsions:
REMARK  status: ('A' for Active; 'I' for Inactive)
REMARK    1  A    between atoms: N_2  and  C1_3 
ROOT
ATOM      1  C1  UNL d   1       0.332   1.949   3.296  0.00  0.00     0.143 A 
ATOM      2  C2  UNL d   1      -0.968   2.413   3.074  0.00  0.00    -0.057 A 
ATOM      3  C3  UNL d   1      -1.248   3.330   2.053  0.00  0.00     0.033 A 
ATOM      4  C4  UNL d   1      -0.223   3.821   1.252  0.00  0.00    -0.042 A 
ATOM      5  C5  UNL d   1       1.082   3.392   1.470  0.00  0.00     0.033 A 
ATOM      6  C6  UNL d   1       1.353   2.472   2.487  0.00  0.00    -0.057 A 
ENDROOT
BRANCH   1   7
ATOM      7  N   UNL d   1       0.690   1.114   4.358  0.00  0.00    -0.732 N 
ATOM      8  C   UNL d   1       0.971  -0.287   4.131  0.00  0.00     0.284 C 
ATOM      9  H3  UNL d   1       1.326   1.566   5.010  0.00  0.00     0.395 HD
ENDBRANCH   1   7
TORSDOF 1
ENDMDL
