MODEL 1
REMARK minimizedAffinity 9.9873333
REMARK minimizedRMSD -1
REMARK  1 active torsions:
REMARK  status: ('A' for Active; 'I' for Inactive)
REMARK    1  A    between atoms: N_2  and  C1_3 
ROOT
ATOM      1  C1  UNL d   1      -0.154   2.147  -0.303  0.00  0.00     0.143 A 
ATOM      2  C2  UNL d   1       0.619   1.055  -0.711  0.00  0.00    -0.057 A 
ATOM      3  C3  UNL d   1       0.023  -0.140  -1.130  0.00  0.00     0.033 A 
ATOM      4  C4  UNL d   1      -1.361  -0.275  -1.121  0.00  0.00    -0.042 A 
ATOM      5  C5  UNL d   1      -2.149   0.789  -0.695  0.00  0.00     0.033 A 
ATOM      6  C6  UNL d   1      -1.548   1.982  -0.284  0.00  0.00    -0.057 A 
ENDROOT
BRANCH   1   7
ATOM      7  N   UNL d   1       0.381   3.328   0.218  0.00  0.00    -0.732 N 
ATOM      8  C   UNL d   1       0.205   4.586  -0.475  0.00  0.00     0.284 C 
ATOM      9  H3  UNL d   1       0.273   3.391   1.228  0.00  0.00     0.395 HD
ENDBRANCH   1   7
TORSDOF 1
ENDMDL
