MODEL 1
REMARK minimizedAffinity 3.56752443
REMARK minimizedRMSD -1
REMARK  1 active torsions:
REMARK  status: ('A' for Active; 'I' for Inactive)
REMARK    1  A    between atoms: N_2  and  C1_3 
ROOT
ATOM      1  C1  UNL d   1       0.219   3.885   0.263  0.00  0.00     0.143 A 
ATOM      2  C2  UNL d   1       1.211   4.865   0.155  0.00  0.00    -0.057 A 
ATOM      3  C3  UNL d   1       1.093   5.920  -0.758  0.00  0.00     0.033 A 
ATOM      4  C4  UNL d   1      -0.009   5.998  -1.602  0.00  0.00    -0.042 A 
ATOM      5  C5  UNL d   1      -0.996   5.020  -1.530  0.00  0.00     0.033 A 
ATOM      6  C6  UNL d   1      -0.875   3.973  -0.612  0.00  0.00    -0.057 A 
ENDROOT
BRANCH   1   7
ATOM      7  N   UNL d   1       0.326   2.758   1.081  0.00  0.00    -0.732 N 
ATOM      8  C   UNL d   1      -0.056   2.820   2.475  0.00  0.00     0.284 C 
ATOM      9  H3  UNL d   1       0.034   1.905   0.608  0.00  0.00     0.395 HD
ENDBRANCH   1   7
TORSDOF 1
ENDMDL
