MODEL 1
REMARK minimizedAffinity 7.22856665
REMARK minimizedRMSD -1
REMARK  1 active torsions:
REMARK  status: ('A' for Active; 'I' for Inactive)
REMARK    1  A    between atoms: N_2  and  C1_3 
ROOT
ATOM      1  C1  UNL d   1       5.035  -4.103   0.211  0.00  0.00     0.143 A 
ATOM      2  C2  UNL d   1       4.072  -3.644   1.116  0.00  0.00    -0.057 A 
ATOM      3  C3  UNL d   1       3.615  -2.321   1.082  0.00  0.00     0.033 A 
ATOM      4  C4  UNL d   1       4.137  -1.422   0.157  0.00  0.00    -0.042 A 
ATOM      5  C5  UNL d   1       5.114  -1.849  -0.735  0.00  0.00     0.033 A 
ATOM      6  C6  UNL d   1       5.561  -3.174  -0.701  0.00  0.00    -0.057 A 
ENDROOT
BRANCH   1   7
ATOM      7  N   UNL d   1       5.601  -5.379   0.258  0.00  0.00    -0.732 N 
ATOM      8  C   UNL d   1       5.922  -5.997   1.526  0.00  0.00     0.284 C 
ATOM      9  H3  UNL d   1       5.185  -6.014  -0.420  0.00  0.00     0.395 HD
ENDBRANCH   1   7
TORSDOF 1
ENDMDL
