MODEL 1
REMARK minimizedAffinity 6.65474892
REMARK minimizedRMSD -1
REMARK  1 active torsions:
REMARK  status: ('A' for Active; 'I' for Inactive)
REMARK    1  A    between atoms: N_2  and  C1_3 
ROOT
ATOM      1  C1  UNL d   1       4.928  -2.892  -1.237  0.00  0.00     0.143 A 
ATOM      2  C2  UNL d   1       4.404  -1.599  -1.125  0.00  0.00    -0.057 A 
ATOM      3  C3  UNL d   1       3.618  -1.227  -0.028  0.00  0.00     0.033 A 
ATOM      4  C4  UNL d   1       3.317  -2.152   0.966  0.00  0.00    -0.042 A 
ATOM      5  C5  UNL d   1       3.806  -3.450   0.863  0.00  0.00     0.033 A 
ATOM      6  C6  UNL d   1       4.596  -3.814  -0.232  0.00  0.00    -0.057 A 
ENDROOT
BRANCH   1   7
ATOM      7  N   UNL d   1       5.633  -3.352  -2.352  0.00  0.00    -0.732 N 
ATOM      8  C   UNL d   1       4.939  -3.972  -3.459  0.00  0.00     0.284 C 
ATOM      9  H3  UNL d   1       6.376  -2.715  -2.631  0.00  0.00     0.395 HD
ENDBRANCH   1   7
TORSDOF 1
ENDMDL
