MODEL 1
REMARK minimizedAffinity 13.1584768
REMARK minimizedRMSD -1
REMARK  0 active torsions:
REMARK  status: ('A' for Active; 'I' for Inactive)
ROOT
ATOM      1  C4' PXY d   1      -0.320  -0.129   5.595  0.00  0.00     0.077 C 
ATOM      2  C1' PXY d   1       0.511  -3.822   1.227  0.00  0.00     0.077 C 
ATOM      3  C1  PXY d   1       0.304  -2.857   2.378  0.00  0.00    -0.082 A 
ATOM      4  C2  PXY d   1      -0.920  -2.468   2.694  0.00  0.00     0.003 A 
ATOM      5  C3  PXY d   1      -1.122  -1.572   3.711  0.00  0.00     0.003 A 
ATOM      6  C4  PXY d   1      -0.065  -1.109   4.447  0.00  0.00    -0.082 A 
ATOM      7  C5  PXY d   1       1.187  -1.509   4.138  0.00  0.00     0.003 A 
ATOM      8  C6  PXY d   1       1.374  -2.388   3.075  0.00  0.00     0.003 A 
ENDROOT
TORSDOF 0
ENDMDL
