MODEL 1
REMARK minimizedAffinity 7.14137602
REMARK minimizedRMSD -1
REMARK  0 active torsions:
REMARK  status: ('A' for Active; 'I' for Inactive)
ROOT
ATOM      1  C4' PXY d   1       0.418  -1.111   3.362  0.00  0.00     0.077 C 
ATOM      2  C1' PXY d   1      -4.275   0.707   0.518  0.00  0.00     0.077 C 
ATOM      3  C1  PXY d   1      -3.042   0.243   1.268  0.00  0.00    -0.082 A 
ATOM      4  C2  PXY d   1      -2.418  -0.858   0.882  0.00  0.00     0.003 A 
ATOM      5  C3  PXY d   1      -1.320  -1.310   1.568  0.00  0.00     0.003 A 
ATOM      6  C4  PXY d   1      -0.825  -0.599   2.629  0.00  0.00    -0.082 A 
ATOM      7  C5  PXY d   1      -1.450   0.531   3.022  0.00  0.00     0.003 A 
ATOM      8  C6  PXY d   1      -2.587   0.950   2.337  0.00  0.00     0.003 A 
ENDROOT
TORSDOF 0
ENDMDL
