MODEL 1
REMARK minimizedAffinity 13.9600925
REMARK minimizedRMSD -1
REMARK  0 active torsions:
REMARK  status: ('A' for Active; 'I' for Inactive)
ROOT
ATOM      1  C4' PXY d   1      -4.903   0.480   0.346  0.00  0.00     0.077 C 
ATOM      2  C1' PXY d   1       0.132  -1.635   2.241  0.00  0.00     0.077 C 
ATOM      3  C1  PXY d   1      -1.188  -1.089   1.734  0.00  0.00    -0.082 A 
ATOM      4  C2  PXY d   1      -1.581   0.120   2.103  0.00  0.00     0.003 A 
ATOM      5  C3  PXY d   1      -2.786   0.617   1.679  0.00  0.00     0.003 A 
ATOM      6  C4  PXY d   1      -3.574  -0.109   0.826  0.00  0.00    -0.082 A 
ATOM      7  C5  PXY d   1      -3.175  -1.338   0.437  0.00  0.00     0.003 A 
ATOM      8  C6  PXY d   1      -1.967  -1.841   0.911  0.00  0.00     0.003 A 
ENDROOT
TORSDOF 0
ENDMDL
