MODEL 1
REMARK minimizedAffinity 4.04105377
REMARK minimizedRMSD -1
REMARK  0 active torsions:
REMARK  status: ('A' for Active; 'I' for Inactive)
ROOT
ATOM      1  C4' PXY d   1      -3.590   1.932   4.846  0.00  0.00     0.077 C 
ATOM      2  C1' PXY d   1      -0.874  -1.790   1.355  0.00  0.00     0.077 C 
ATOM      3  C1  PXY d   1      -1.582  -0.820   2.281  0.00  0.00    -0.082 A 
ATOM      4  C2  PXY d   1      -2.610  -0.119   1.832  0.00  0.00     0.003 A 
ATOM      5  C3  PXY d   1      -3.242   0.785   2.646  0.00  0.00     0.003 A 
ATOM      6  C4  PXY d   1      -2.851   0.935   3.949  0.00  0.00    -0.082 A 
ATOM      7  C5  PXY d   1      -1.809   0.216   4.418  0.00  0.00     0.003 A 
ATOM      8  C6  PXY d   1      -1.155  -0.667   3.564  0.00  0.00     0.003 A 
ENDROOT
TORSDOF 0
ENDMDL
