MODEL 1
REMARK minimizedAffinity 18.8001728
REMARK minimizedRMSD -1
REMARK  0 active torsions:
REMARK  status: ('A' for Active; 'I' for Inactive)
ROOT
ATOM      1  C4' PXY d   1      -1.059  -3.451  -0.192  0.00  0.00     0.077 C 
ATOM      2  C1' PXY d   1      -1.550   0.230   4.238  0.00  0.00     0.077 C 
ATOM      3  C1  PXY d   1      -1.408  -0.736   3.078  0.00  0.00    -0.082 A 
ATOM      4  C2  PXY d   1      -2.350  -0.787   2.150  0.00  0.00     0.003 A 
ATOM      5  C3  PXY d   1      -2.254  -1.676   1.111  0.00  0.00     0.003 A 
ATOM      6  C4  PXY d   1      -1.155  -2.485   0.992  0.00  0.00    -0.082 A 
ATOM      7  C5  PXY d   1      -0.184  -2.431   1.928  0.00  0.00     0.003 A 
ATOM      8  C6  PXY d   1      -0.321  -1.551   2.997  0.00  0.00     0.003 A 
ENDROOT
TORSDOF 0
ENDMDL
