MODEL 1
REMARK minimizedAffinity 12.2050858
REMARK minimizedRMSD -1
REMARK  0 active torsions:
REMARK  status: ('A' for Active; 'I' for Inactive)
ROOT
ATOM      1  C4' PXY d   1      -1.444  -1.679   0.906  0.00  0.00     0.077 C 
ATOM      2  C1' PXY d   1      -3.821   2.112   4.566  0.00  0.00     0.077 C 
ATOM      3  C1  PXY d   1      -3.210   1.116   3.600  0.00  0.00    -0.082 A 
ATOM      4  C2  PXY d   1      -2.096   0.482   3.932  0.00  0.00     0.003 A 
ATOM      5  C3  PXY d   1      -1.512  -0.398   3.058  0.00  0.00     0.003 A 
ATOM      6  C4  PXY d   1      -2.102  -0.672   1.853  0.00  0.00    -0.082 A 
ATOM      7  C5  PXY d   1      -3.244  -0.038   1.512  0.00  0.00     0.003 A 
ATOM      8  C6  PXY d   1      -3.799   0.882   2.396  0.00  0.00     0.003 A 
ENDROOT
TORSDOF 0
ENDMDL
