MODEL 1
REMARK minimizedAffinity 7.81011868
REMARK minimizedRMSD -1
REMARK  0 active torsions:
REMARK  status: ('A' for Active; 'I' for Inactive)
ROOT
ATOM      1  C4' PXY d   1      -5.292  -6.000   6.000  0.00  0.00     0.077 C 
ATOM      2  C1' PXY d   1      -3.240  -2.972   1.524  0.00  0.00     0.077 C 
ATOM      3  C1  PXY d   1      -3.783  -3.775   2.690  0.00  0.00    -0.082 A 
ATOM      4  C2  PXY d   1      -4.019  -3.173   3.844  0.00  0.00     0.003 A 
ATOM      5  C3  PXY d   1      -4.480  -3.891   4.918  0.00  0.00     0.003 A 
ATOM      6  C4  PXY d   1      -4.752  -5.227   4.793  0.00  0.00    -0.082 A 
ATOM      7  C5  PXY d   1      -4.523  -5.845   3.615  0.00  0.00     0.003 A 
ATOM      8  C6  PXY d   1      -4.016  -5.108   2.550  0.00  0.00     0.003 A 
ENDROOT
TORSDOF 0
ENDMDL
