MODEL 1
REMARK minimizedAffinity 13.1118584
REMARK minimizedRMSD -1
REMARK  0 active torsions:
REMARK  status: ('A' for Active; 'I' for Inactive)
ROOT
ATOM      1  C4' PXY d   1       5.999   3.681   1.336  0.00  0.00     0.077 C 
ATOM      2  C1' PXY d   1       0.816   1.322   0.345  0.00  0.00     0.077 C 
ATOM      3  C1  PXY d   1       2.181   1.929   0.603  0.00  0.00    -0.082 A 
ATOM      4  C2  PXY d   1       2.279   3.036   1.321  0.00  0.00     0.003 A 
ATOM      5  C3  PXY d   1       3.503   3.616   1.537  0.00  0.00     0.003 A 
ATOM      6  C4  PXY d   1       4.643   3.028   1.058  0.00  0.00    -0.082 A 
ATOM      7  C5  PXY d   1       4.552   1.892   0.334  0.00  0.00     0.003 A 
ATOM      8  C6  PXY d   1       3.297   1.342   0.091  0.00  0.00     0.003 A 
ENDROOT
TORSDOF 0
ENDMDL
