MODEL 1
REMARK minimizedAffinity 13.8285322
REMARK minimizedRMSD -1
REMARK  0 active torsions:
REMARK  status: ('A' for Active; 'I' for Inactive)
ROOT
ATOM      1  C4' PXY d   1      -3.444   2.539   5.242  0.00  0.00     0.077 C 
ATOM      2  C1' PXY d   1      -0.145  -1.139   2.240  0.00  0.00     0.077 C 
ATOM      3  C1  PXY d   1      -1.009  -0.182   3.038  0.00  0.00    -0.082 A 
ATOM      4  C2  PXY d   1      -1.882   0.589   2.410  0.00  0.00     0.003 A 
ATOM      5  C3  PXY d   1      -2.649   1.483   3.113  0.00  0.00     0.003 A 
ATOM      6  C4  PXY d   1      -2.558   1.551   4.478  0.00  0.00    -0.082 A 
ATOM      7  C5  PXY d   1      -1.676   0.760   5.126  0.00  0.00     0.003 A 
ATOM      8  C6  PXY d   1      -0.878  -0.111   4.390  0.00  0.00     0.003 A 
ENDROOT
TORSDOF 0
ENDMDL
