MODEL 1
REMARK minimizedAffinity 14.0880795
REMARK minimizedRMSD -1
REMARK  0 active torsions:
REMARK  status: ('A' for Active; 'I' for Inactive)
ROOT
ATOM      1  C4' PXY d   1      -1.137   5.269  -6.000  0.00  0.00     0.077 C 
ATOM      2  C1' PXY d   1      -3.902   5.607  -0.935  0.00  0.00     0.077 C 
ATOM      3  C1  PXY d   1      -3.166   5.523  -2.258  0.00  0.00    -0.082 A 
ATOM      4  C2  PXY d   1      -3.850   5.551  -3.390  0.00  0.00     0.003 A 
ATOM      5  C3  PXY d   1      -3.203   5.444  -4.594  0.00  0.00     0.003 A 
ATOM      6  C4  PXY d   1      -1.837   5.360  -4.641  0.00  0.00    -0.082 A 
ATOM      7  C5  PXY d   1      -1.131   5.342  -3.491  0.00  0.00     0.003 A 
ATOM      8  C6  PXY d   1      -1.810   5.410  -2.278  0.00  0.00     0.003 A 
ENDROOT
TORSDOF 0
ENDMDL
