MODEL 1
REMARK minimizedAffinity 15.8778276
REMARK minimizedRMSD -1
REMARK  0 active torsions:
REMARK  status: ('A' for Active; 'I' for Inactive)
ROOT
ATOM      1  C4' PXY d   1      -5.960  -5.988   5.996  0.00  0.00     0.077 C 
ATOM      2  C1' PXY d   1      -2.537  -3.421   2.109  0.00  0.00     0.077 C 
ATOM      3  C1  PXY d   1      -3.439  -4.102   3.119  0.00  0.00    -0.082 A 
ATOM      4  C2  PXY d   1      -3.800  -3.455   4.214  0.00  0.00     0.003 A 
ATOM      5  C3  PXY d   1      -4.590  -4.067   5.154  0.00  0.00     0.003 A 
ATOM      6  C4  PXY d   1      -5.058  -5.336   4.944  0.00  0.00    -0.082 A 
ATOM      7  C5  PXY d   1      -4.703  -6.000   3.823  0.00  0.00     0.003 A 
ATOM      8  C6  PXY d   1      -3.867  -5.376   2.902  0.00  0.00     0.003 A 
ENDROOT
TORSDOF 0
ENDMDL
