MODEL 1
REMARK minimizedAffinity 5.13798571
REMARK minimizedRMSD -1
REMARK  0 active torsions:
REMARK  status: ('A' for Active; 'I' for Inactive)
ROOT
ATOM      1  C4' PXY d   1      -0.000  -1.313   3.439  0.00  0.00     0.077 C 
ATOM      2  C1' PXY d   1      -4.723   0.456   0.612  0.00  0.00     0.077 C 
ATOM      3  C1  PXY d   1      -3.482   0.004   1.357  0.00  0.00    -0.082 A 
ATOM      4  C2  PXY d   1      -2.869  -1.110   0.992  0.00  0.00     0.003 A 
ATOM      5  C3  PXY d   1      -1.764  -1.549   1.675  0.00  0.00     0.003 A 
ATOM      6  C4  PXY d   1      -1.251  -0.814   2.709  0.00  0.00    -0.082 A 
ATOM      7  C5  PXY d   1      -1.865   0.330   3.081  0.00  0.00     0.003 A 
ATOM      8  C6  PXY d   1      -3.009   0.737   2.401  0.00  0.00     0.003 A 
ENDROOT
TORSDOF 0
ENDMDL
