MODEL 1
REMARK minimizedAffinity 9.123703
REMARK minimizedRMSD -1
REMARK  0 active torsions:
REMARK  status: ('A' for Active; 'I' for Inactive)
ROOT
ATOM      1  C4' PXY d   1      -2.952   1.539   4.948  0.00  0.00     0.077 C 
ATOM      2  C1' PXY d   1       0.344  -1.985   1.765  0.00  0.00     0.077 C 
ATOM      3  C1  PXY d   1      -0.518  -1.068   2.610  0.00  0.00    -0.082 A 
ATOM      4  C2  PXY d   1      -1.496  -0.382   2.042  0.00  0.00     0.003 A 
ATOM      5  C3  PXY d   1      -2.265   0.476   2.786  0.00  0.00     0.003 A 
ATOM      6  C4  PXY d   1      -2.063   0.594   4.135  0.00  0.00    -0.082 A 
ATOM      7  C5  PXY d   1      -1.073  -0.110   4.724  0.00  0.00     0.003 A 
ATOM      8  C6  PXY d   1      -0.278  -0.945   3.944  0.00  0.00     0.003 A 
ENDROOT
TORSDOF 0
ENDMDL
