MODEL 1
REMARK minimizedAffinity 12.5087738
REMARK minimizedRMSD -1
REMARK  0 active torsions:
REMARK  status: ('A' for Active; 'I' for Inactive)
ROOT
ATOM      1  C4' PXY d   1       5.949   4.331   1.901  0.00  0.00     0.077 C 
ATOM      2  C1' PXY d   1       6.000   4.582  -3.874  0.00  0.00     0.077 C 
ATOM      3  C1  PXY d   1       5.992   4.528  -2.359  0.00  0.00    -0.082 A 
ATOM      4  C2  PXY d   1       5.973   3.356  -1.746  0.00  0.00     0.003 A 
ATOM      5  C3  PXY d   1       5.933   3.289  -0.377  0.00  0.00     0.003 A 
ATOM      6  C4  PXY d   1       5.967   4.434   0.374  0.00  0.00    -0.082 A 
ATOM      7  C5  PXY d   1       5.997   5.634  -0.244  0.00  0.00     0.003 A 
ATOM      8  C6  PXY d   1       5.995   5.681  -1.635  0.00  0.00     0.003 A 
ENDROOT
TORSDOF 0
ENDMDL
