MODEL 1
REMARK minimizedAffinity 16.7166214
REMARK minimizedRMSD -1
REMARK  0 active torsions:
REMARK  status: ('A' for Active; 'I' for Inactive)
ROOT
ATOM      1  C4' PXY d   1       1.875   0.371  -0.760  0.00  0.00     0.077 C 
ATOM      2  C1' PXY d   1       6.000   3.592   1.695  0.00  0.00     0.077 C 
ATOM      3  C1  PXY d   1       4.925   2.747   1.040  0.00  0.00    -0.082 A 
ATOM      4  C2  PXY d   1       3.674   2.839   1.460  0.00  0.00     0.003 A 
ATOM      5  C3  PXY d   1       2.695   2.058   0.901  0.00  0.00     0.003 A 
ATOM      6  C4  PXY d   1       2.991   1.213  -0.135  0.00  0.00    -0.082 A 
ATOM      7  C5  PXY d   1       4.263   1.121  -0.576  0.00  0.00     0.003 A 
ATOM      8  C6  PXY d   1       5.249   1.892   0.032  0.00  0.00     0.003 A 
ENDROOT
TORSDOF 0
ENDMDL
