MODEL 1
REMARK minimizedAffinity 18.8463898
REMARK minimizedRMSD -1
REMARK  0 active torsions:
REMARK  status: ('A' for Active; 'I' for Inactive)
ROOT
ATOM      1  C4' PXY d   1       3.827   2.462  -5.402  0.00  0.00     0.077 C 
ATOM      2  C1' PXY d   1       5.999   5.852  -1.254  0.00  0.00     0.077 C 
ATOM      3  C1  PXY d   1       5.424   4.955  -2.333  0.00  0.00    -0.082 A 
ATOM      4  C2  PXY d   1       6.000   4.913  -3.524  0.00  0.00     0.003 A 
ATOM      5  C3  PXY d   1       5.474   4.132  -4.521  0.00  0.00     0.003 A 
ATOM      6  C4  PXY d   1       4.379   3.346  -4.280  0.00  0.00    -0.082 A 
ATOM      7  C5  PXY d   1       3.793   3.375  -3.065  0.00  0.00     0.003 A 
ATOM      8  C6  PXY d   1       4.317   4.206  -2.079  0.00  0.00     0.003 A 
ENDROOT
TORSDOF 0
ENDMDL
