MODEL 1
REMARK minimizedAffinity 12.7422228
REMARK minimizedRMSD -1
REMARK  0 active torsions:
REMARK  status: ('A' for Active; 'I' for Inactive)
ROOT
ATOM      1  C4' PXY d   1      -5.921  -5.367  -5.901  0.00  0.00     0.077 C 
ATOM      2  C1' PXY d   1      -0.563  -5.247  -3.734  0.00  0.00     0.077 C 
ATOM      3  C1  PXY d   1      -1.963  -5.281  -4.314  0.00  0.00    -0.082 A 
ATOM      4  C2  PXY d   1      -2.943  -4.640  -3.697  0.00  0.00     0.003 A 
ATOM      5  C3  PXY d   1      -4.221  -4.687  -4.190  0.00  0.00     0.003 A 
ATOM      6  C4  PXY d   1      -4.490  -5.352  -5.357  0.00  0.00    -0.082 A 
ATOM      7  C5  PXY d   1      -3.494  -6.000  -5.998  0.00  0.00     0.003 A 
ATOM      8  C6  PXY d   1      -2.211  -5.975  -5.458  0.00  0.00     0.003 A 
ENDROOT
TORSDOF 0
ENDMDL
