MODEL 1
REMARK minimizedAffinity 13.3534126
REMARK minimizedRMSD -1
REMARK  0 active torsions:
REMARK  status: ('A' for Active; 'I' for Inactive)
ROOT
ATOM      1  C4' PXY d   1      -6.000   1.143  -0.491  0.00  0.00     0.077 C 
ATOM      2  C1' PXY d   1      -1.444  -0.766   2.512  0.00  0.00     0.077 C 
ATOM      3  C1  PXY d   1      -2.646  -0.273   1.732  0.00  0.00    -0.082 A 
ATOM      4  C2  PXY d   1      -2.484   0.194   0.504  0.00  0.00     0.003 A 
ATOM      5  C3  PXY d   1      -3.556   0.673  -0.204  0.00  0.00     0.003 A 
ATOM      6  C4  PXY d   1      -4.816   0.626   0.330  0.00  0.00    -0.082 A 
ATOM      7  C5  PXY d   1      -4.991   0.141   1.578  0.00  0.00     0.003 A 
ATOM      8  C6  PXY d   1      -3.884  -0.303   2.296  0.00  0.00     0.003 A 
ENDROOT
TORSDOF 0
ENDMDL
