MODEL 1
REMARK minimizedAffinity 10.0585537
REMARK minimizedRMSD -1
REMARK  0 active torsions:
REMARK  status: ('A' for Active; 'I' for Inactive)
ROOT
ATOM      1  N1  IND d   1      -3.789   3.129   5.953  0.00  0.00    -0.196 N 
ATOM      2  C2  IND d   1      -5.102   3.508   5.998  0.00  0.00     0.054 A 
ATOM      3  C3  IND d   1      -5.907   2.422   5.966  0.00  0.00    -0.031 A 
ATOM      4  C4  IND d   1      -5.283  -0.075   5.943  0.00  0.00     0.051 A 
ATOM      5  C5  IND d   1      -4.209  -0.917   5.860  0.00  0.00    -0.031 A 
ATOM      6  C6  IND d   1      -2.914  -0.443   5.806  0.00  0.00     0.015 A 
ATOM      7  C7  IND d   1      -2.643   0.896   5.844  0.00  0.00    -0.016 A 
ATOM      8  C8  IND d   1      -3.731   1.753   5.921  0.00  0.00    -0.047 A 
ATOM      9  C9  IND d   1      -5.050   1.280   5.933  0.00  0.00    -0.096 A 
ATOM     10  HN1 IND d   1      -3.114   3.661   5.946  0.00  0.00     0.298 HD
ENDROOT
TORSDOF 0
ENDMDL
