MODEL 1
REMARK minimizedAffinity 7.32463408
REMARK minimizedRMSD -1
REMARK  0 active torsions:
REMARK  status: ('A' for Active; 'I' for Inactive)
ROOT
ATOM      1  N1  IND d   1      -0.522  -5.401   1.621  0.00  0.00    -0.196 N 
ATOM      2  C2  IND d   1      -0.093  -5.518   0.328  0.00  0.00     0.054 A 
ATOM      3  C3  IND d   1      -0.496  -4.452  -0.399  0.00  0.00    -0.031 A 
ATOM      4  C4  IND d   1      -1.782  -2.352   0.351  0.00  0.00     0.051 A 
ATOM      5  C5  IND d   1      -2.420  -1.808   1.429  0.00  0.00    -0.031 A 
ATOM      6  C6  IND d   1      -2.457  -2.445   2.653  0.00  0.00     0.015 A 
ATOM      7  C7  IND d   1      -1.844  -3.651   2.846  0.00  0.00    -0.016 A 
ATOM      8  C8  IND d   1      -1.201  -4.210   1.751  0.00  0.00    -0.047 A 
ATOM      9  C9  IND d   1      -1.196  -3.587   0.496  0.00  0.00    -0.096 A 
ATOM     10  HN1 IND d   1      -0.390  -5.975   2.247  0.00  0.00     0.298 HD
ENDROOT
TORSDOF 0
ENDMDL
