MODEL 1
REMARK minimizedAffinity 20.6881599
REMARK minimizedRMSD -1
REMARK  0 active torsions:
REMARK  status: ('A' for Active; 'I' for Inactive)
ROOT
ATOM      1  N1  IND d   1      -0.724   3.773  -5.663  0.00  0.00    -0.196 N 
ATOM      2  C2  IND d   1       0.490   3.154  -5.782  0.00  0.00     0.054 A 
ATOM      3  C3  IND d   1       0.521   2.032  -5.029  0.00  0.00    -0.031 A 
ATOM      4  C4  IND d   1      -1.338   0.967  -3.602  0.00  0.00     0.051 A 
ATOM      5  C5  IND d   1      -2.611   1.185  -3.154  0.00  0.00    -0.031 A 
ATOM      6  C6  IND d   1      -3.335   2.298  -3.530  0.00  0.00     0.015 A 
ATOM      7  C7  IND d   1      -2.815   3.233  -4.380  0.00  0.00    -0.016 A 
ATOM      8  C8  IND d   1      -1.521   3.018  -4.831  0.00  0.00    -0.047 A 
ATOM      9  C9  IND d   1      -0.765   1.912  -4.420  0.00  0.00    -0.096 A 
ATOM     10  HN1 IND d   1      -0.951   4.509  -6.045  0.00  0.00     0.298 HD
ENDROOT
TORSDOF 0
ENDMDL
