MODEL 1
REMARK minimizedAffinity 16.7303314
REMARK minimizedRMSD -1
REMARK  0 active torsions:
REMARK  status: ('A' for Active; 'I' for Inactive)
ROOT
ATOM      1  N1  IND d   1       5.975   4.844  -0.432  0.00  0.00    -0.196 N 
ATOM      2  C2  IND d   1       5.105   5.146   0.578  0.00  0.00     0.054 A 
ATOM      3  C3  IND d   1       4.053   4.296   0.562  0.00  0.00    -0.031 A 
ATOM      4  C4  IND d   1       3.608   2.273  -0.967  0.00  0.00     0.051 A 
ATOM      5  C5  IND d   1       4.101   1.623  -2.064  0.00  0.00    -0.031 A 
ATOM      6  C6  IND d   1       5.268   2.019  -2.683  0.00  0.00     0.015 A 
ATOM      7  C7  IND d   1       5.996   3.078  -2.220  0.00  0.00    -0.016 A 
ATOM      8  C8  IND d   1       5.495   3.746  -1.111  0.00  0.00    -0.047 A 
ATOM      9  C9  IND d   1       4.288   3.375  -0.504  0.00  0.00    -0.096 A 
ATOM     10  HN1 IND d   1       6.700   5.269  -0.613  0.00  0.00     0.298 HD
ENDROOT
TORSDOF 0
ENDMDL
