MODEL 1
REMARK minimizedAffinity 12.7448006
REMARK minimizedRMSD -1
REMARK  0 active torsions:
REMARK  status: ('A' for Active; 'I' for Inactive)
ROOT
ATOM      1  N1  IND d   1      -3.747   3.124   5.946  0.00  0.00    -0.196 N 
ATOM      2  C2  IND d   1      -4.924   3.820   5.945  0.00  0.00     0.054 A 
ATOM      3  C3  IND d   1      -5.974   2.969   5.919  0.00  0.00    -0.031 A 
ATOM      4  C4  IND d   1      -5.995   0.395   5.977  0.00  0.00     0.051 A 
ATOM      5  C5  IND d   1      -5.164  -0.690   5.945  0.00  0.00    -0.031 A 
ATOM      6  C6  IND d   1      -3.791  -0.556   5.914  0.00  0.00     0.015 A 
ATOM      7  C7  IND d   1      -3.195   0.673   5.925  0.00  0.00    -0.016 A 
ATOM      8  C8  IND d   1      -4.035   1.777   5.950  0.00  0.00    -0.047 A 
ATOM      9  C9  IND d   1      -5.430   1.648   5.939  0.00  0.00    -0.096 A 
ATOM     10  HN1 IND d   1      -2.960   3.470   5.943  0.00  0.00     0.298 HD
ENDROOT
TORSDOF 0
ENDMDL
