MODEL 1
REMARK minimizedAffinity 15.2854462
REMARK minimizedRMSD -1
REMARK  0 active torsions:
REMARK  status: ('A' for Active; 'I' for Inactive)
ROOT
ATOM      1  N1  IND d   1       0.653   3.640  -3.738  0.00  0.00    -0.196 N 
ATOM      2  C2  IND d   1      -0.197   3.476  -4.796  0.00  0.00     0.054 A 
ATOM      3  C3  IND d   1      -0.239   2.177  -5.168  0.00  0.00    -0.031 A 
ATOM      4  C4  IND d   1       0.927   0.136  -4.118  0.00  0.00     0.051 A 
ATOM      5  C5  IND d   1       1.833  -0.210  -3.154  0.00  0.00    -0.031 A 
ATOM      6  C6  IND d   1       2.401   0.729  -2.317  0.00  0.00     0.015 A 
ATOM      7  C7  IND d   1       2.074   2.052  -2.406  0.00  0.00    -0.016 A 
ATOM      8  C8  IND d   1       1.160   2.408  -3.388  0.00  0.00    -0.047 A 
ATOM      9  C9  IND d   1       0.613   1.466  -4.268  0.00  0.00    -0.096 A 
ATOM     10  HN1 IND d   1       0.839   4.387  -3.355  0.00  0.00     0.298 HD
ENDROOT
TORSDOF 0
ENDMDL
