MODEL 1
REMARK minimizedAffinity 16.5339756
REMARK minimizedRMSD -1
REMARK  0 active torsions:
REMARK  status: ('A' for Active; 'I' for Inactive)
ROOT
ATOM      1  N1  IND d   1      -3.396   4.081  -1.705  0.00  0.00    -0.196 N 
ATOM      2  C2  IND d   1      -3.564   5.116  -2.582  0.00  0.00     0.054 A 
ATOM      3  C3  IND d   1      -4.468   5.999  -2.101  0.00  0.00    -0.031 A 
ATOM      4  C4  IND d   1      -5.719   5.997   0.148  0.00  0.00     0.051 A 
ATOM      5  C5  IND d   1      -5.922   5.239   1.268  0.00  0.00    -0.031 A 
ATOM      6  C6  IND d   1      -5.278   4.034   1.459  0.00  0.00     0.015 A 
ATOM      7  C7  IND d   1      -4.395   3.544   0.538  0.00  0.00    -0.016 A 
ATOM      8  C8  IND d   1      -4.192   4.307  -0.603  0.00  0.00    -0.047 A 
ATOM      9  C9  IND d   1      -4.875   5.511  -0.822  0.00  0.00    -0.096 A 
ATOM     10  HN1 IND d   1      -2.881   3.403  -1.821  0.00  0.00     0.298 HD
ENDROOT
TORSDOF 0
ENDMDL
