MODEL 1
REMARK minimizedAffinity 12.6526546
REMARK minimizedRMSD -1
REMARK  0 active torsions:
REMARK  status: ('A' for Active; 'I' for Inactive)
ROOT
ATOM      1  N1  IND d   1      -3.164  -1.806   5.520  0.00  0.00    -0.196 N 
ATOM      2  C2  IND d   1      -1.832  -1.499   5.483  0.00  0.00     0.054 A 
ATOM      3  C3  IND d   1      -1.654  -0.163   5.590  0.00  0.00    -0.031 A 
ATOM      4  C4  IND d   1      -3.400   1.697   5.938  0.00  0.00     0.051 A 
ATOM      5  C5  IND d   1      -4.749   1.910   5.999  0.00  0.00    -0.031 A 
ATOM      6  C6  IND d   1      -5.656   0.875   5.905  0.00  0.00     0.015 A 
ATOM      7  C7  IND d   1      -5.246  -0.420   5.756  0.00  0.00    -0.016 A 
ATOM      8  C8  IND d   1      -3.878  -0.640   5.686  0.00  0.00    -0.047 A 
ATOM      9  C9  IND d   1      -2.954   0.412   5.739  0.00  0.00    -0.096 A 
ATOM     10  HN1 IND d   1      -3.499  -2.595   5.451  0.00  0.00     0.298 HD
ENDROOT
TORSDOF 0
ENDMDL
