MODEL 1
REMARK minimizedAffinity 7.05230093
REMARK minimizedRMSD -1
REMARK  0 active torsions:
REMARK  status: ('A' for Active; 'I' for Inactive)
ROOT
ATOM      1  N1  IND d   1      -1.066  -5.170   2.415  0.00  0.00    -0.196 N 
ATOM      2  C2  IND d   1      -0.484  -5.819   1.362  0.00  0.00     0.054 A 
ATOM      3  C3  IND d   1      -0.552  -5.059   0.246  0.00  0.00    -0.031 A 
ATOM      4  C4  IND d   1      -1.481  -2.678  -0.058  0.00  0.00     0.051 A 
ATOM      5  C5  IND d   1      -2.148  -1.689   0.609  0.00  0.00    -0.031 A 
ATOM      6  C6  IND d   1      -2.493  -1.810   1.939  0.00  0.00     0.015 A 
ATOM      7  C7  IND d   1      -2.172  -2.927   2.659  0.00  0.00    -0.016 A 
ATOM      8  C8  IND d   1      -1.501  -3.936   1.983  0.00  0.00    -0.047 A 
ATOM      9  C9  IND d   1      -1.186  -3.836   0.622  0.00  0.00    -0.096 A 
ATOM     10  HN1 IND d   1      -1.146  -5.480   3.213  0.00  0.00     0.298 HD
ENDROOT
TORSDOF 0
ENDMDL
