MODEL 1
REMARK minimizedAffinity 12.6441011
REMARK minimizedRMSD -1
REMARK  0 active torsions:
REMARK  status: ('A' for Active; 'I' for Inactive)
ROOT
ATOM      1  N1  IND d   1      -0.248  -5.549   1.959  0.00  0.00    -0.196 N 
ATOM      2  C2  IND d   1      -0.100  -5.781   0.620  0.00  0.00     0.054 A 
ATOM      3  C3  IND d   1      -0.698  -4.803  -0.096  0.00  0.00    -0.031 A 
ATOM      4  C4  IND d   1      -1.890  -2.672   0.722  0.00  0.00     0.051 A 
ATOM      5  C5  IND d   1      -2.308  -2.041   1.860  0.00  0.00    -0.031 A 
ATOM      6  C6  IND d   1      -2.053  -2.556   3.115  0.00  0.00     0.015 A 
ATOM      7  C7  IND d   1      -1.357  -3.721   3.279  0.00  0.00    -0.016 A 
ATOM      8  C8  IND d   1      -0.938  -4.368   2.126  0.00  0.00    -0.047 A 
ATOM      9  C9  IND d   1      -1.230  -3.872   0.848  0.00  0.00    -0.096 A 
ATOM     10  HN1 IND d   1       0.041  -6.055   2.591  0.00  0.00     0.298 HD
ENDROOT
TORSDOF 0
ENDMDL
