MODEL 1
REMARK minimizedAffinity 21.7732811
REMARK minimizedRMSD -1
REMARK  0 active torsions:
REMARK  status: ('A' for Active; 'I' for Inactive)
ROOT
ATOM      1  N1  IND d   1       4.772   5.216   1.419  0.00  0.00    -0.196 N 
ATOM      2  C2  IND d   1       5.076   5.999   0.340  0.00  0.00     0.054 A 
ATOM      3  C3  IND d   1       4.760   5.359  -0.809  0.00  0.00    -0.031 A 
ATOM      4  C4  IND d   1       3.644   3.065  -1.150  0.00  0.00     0.051 A 
ATOM      5  C5  IND d   1       3.213   1.964  -0.464  0.00  0.00    -0.031 A 
ATOM      6  C6  IND d   1       3.280   1.890   0.912  0.00  0.00     0.015 A 
ATOM      7  C7  IND d   1       3.770   2.924   1.658  0.00  0.00    -0.016 A 
ATOM      8  C8  IND d   1       4.215   4.041   0.965  0.00  0.00    -0.047 A 
ATOM      9  C9  IND d   1       4.189   4.104  -0.434  0.00  0.00    -0.096 A 
ATOM     10  HN1 IND d   1       4.907   5.423   2.242  0.00  0.00     0.298 HD
ENDROOT
TORSDOF 0
ENDMDL
