MODEL 1
REMARK minimizedAffinity 19.1754837
REMARK minimizedRMSD -1
REMARK  0 active torsions:
REMARK  status: ('A' for Active; 'I' for Inactive)
ROOT
ATOM      1  N1  IND d   1      -3.506   1.384   5.943  0.00  0.00    -0.196 N 
ATOM      2  C2  IND d   1      -4.613   0.583   5.923  0.00  0.00     0.054 A 
ATOM      3  C3  IND d   1      -5.737   1.334   5.921  0.00  0.00    -0.031 A 
ATOM      4  C4  IND d   1      -5.993   3.894   5.845  0.00  0.00     0.051 A 
ATOM      5  C5  IND d   1      -5.267   5.051   5.888  0.00  0.00    -0.031 A 
ATOM      6  C6  IND d   1      -3.888   5.045   5.949  0.00  0.00     0.015 A 
ATOM      7  C7  IND d   1      -3.181   3.876   5.959  0.00  0.00    -0.016 A 
ATOM      8  C8  IND d   1      -3.916   2.699   5.923  0.00  0.00    -0.047 A 
ATOM      9  C9  IND d   1      -5.316   2.699   5.904  0.00  0.00    -0.096 A 
ATOM     10  HN1 IND d   1      -2.690   1.112   5.964  0.00  0.00     0.298 HD
ENDROOT
TORSDOF 0
ENDMDL
