MODEL 1
REMARK minimizedAffinity 18.5623856
REMARK minimizedRMSD -1
REMARK  0 active torsions:
REMARK  status: ('A' for Active; 'I' for Inactive)
ROOT
ATOM      1  N1  IND d   1       4.819   5.108   1.727  0.00  0.00    -0.196 N 
ATOM      2  C2  IND d   1       5.143   6.000   0.743  0.00  0.00     0.054 A 
ATOM      3  C3  IND d   1       4.833   5.493  -0.472  0.00  0.00    -0.031 A 
ATOM      4  C4  IND d   1       3.693   3.264  -1.071  0.00  0.00     0.051 A 
ATOM      5  C5  IND d   1       3.243   2.100  -0.513  0.00  0.00    -0.031 A 
ATOM      6  C6  IND d   1       3.294   1.876   0.848  0.00  0.00     0.015 A 
ATOM      7  C7  IND d   1       3.788   2.817   1.707  0.00  0.00    -0.016 A 
ATOM      8  C8  IND d   1       4.253   3.997   1.143  0.00  0.00    -0.047 A 
ATOM      9  C9  IND d   1       4.243   4.212  -0.241  0.00  0.00    -0.096 A 
ATOM     10  HN1 IND d   1       4.948   5.223   2.569  0.00  0.00     0.298 HD
ENDROOT
TORSDOF 0
ENDMDL
