MODEL 1
REMARK minimizedAffinity 8.71001148
REMARK minimizedRMSD -1
REMARK  0 active torsions:
REMARK  status: ('A' for Active; 'I' for Inactive)
ROOT
ATOM      1  N1  IND d   1       1.609  -0.539  -3.528  0.00  0.00    -0.196 N 
ATOM      2  C2  IND d   1       2.911  -0.129  -3.456  0.00  0.00     0.054 A 
ATOM      3  C3  IND d   1       2.998   1.202  -3.679  0.00  0.00    -0.031 A 
ATOM      4  C4  IND d   1       1.123   2.918  -4.082  0.00  0.00     0.051 A 
ATOM      5  C5  IND d   1      -0.227   3.014  -4.270  0.00  0.00    -0.031 A 
ATOM      6  C6  IND d   1      -1.051   1.909  -4.217  0.00  0.00     0.015 A 
ATOM      7  C7  IND d   1      -0.555   0.662  -3.962  0.00  0.00    -0.016 A 
ATOM      8  C8  IND d   1       0.817   0.560  -3.777  0.00  0.00    -0.047 A 
ATOM      9  C9  IND d   1       1.663   1.672  -3.871  0.00  0.00    -0.096 A 
ATOM     10  HN1 IND d   1       1.332  -1.348  -3.435  0.00  0.00     0.298 HD
ENDROOT
TORSDOF 0
ENDMDL
