MODEL 1
REMARK minimizedAffinity 24.0645561
REMARK minimizedRMSD -1
REMARK  0 active torsions:
REMARK  status: ('A' for Active; 'I' for Inactive)
ROOT
ATOM      1  N1  IND d   1       3.145   5.998   5.996  0.00  0.00    -0.196 N 
ATOM      2  C2  IND d   1       1.778   5.983   5.997  0.00  0.00     0.054 A 
ATOM      3  C3  IND d   1       1.321   4.795   5.542  0.00  0.00    -0.031 A 
ATOM      4  C4  IND d   1       2.637   2.697   4.838  0.00  0.00     0.051 A 
ATOM      5  C5  IND d   1       3.909   2.242   4.633  0.00  0.00    -0.031 A 
ATOM      6  C6  IND d   1       5.014   3.031   4.880  0.00  0.00     0.015 A 
ATOM      7  C7  IND d   1       4.887   4.306   5.353  0.00  0.00    -0.016 A 
ATOM      8  C8  IND d   1       3.597   4.774   5.556  0.00  0.00    -0.047 A 
ATOM      9  C9  IND d   1       2.470   3.993   5.267  0.00  0.00    -0.096 A 
ATOM     10  HN1 IND d   1       3.639   6.661   6.232  0.00  0.00     0.298 HD
ENDROOT
TORSDOF 0
ENDMDL
