MODEL 1
REMARK minimizedAffinity 23.3378563
REMARK minimizedRMSD -1
REMARK  0 active torsions:
REMARK  status: ('A' for Active; 'I' for Inactive)
ROOT
ATOM      1  N1  IND d   1      -0.297  -5.628  -1.505  0.00  0.00    -0.196 N 
ATOM      2  C2  IND d   1      -0.182  -5.999  -0.194  0.00  0.00     0.054 A 
ATOM      3  C3  IND d   1      -0.342  -4.927   0.614  0.00  0.00    -0.031 A 
ATOM      4  C4  IND d   1      -0.901  -2.489   0.005  0.00  0.00     0.051 A 
ATOM      5  C5  IND d   1      -1.066  -1.657  -1.067  0.00  0.00    -0.031 A 
ATOM      6  C6  IND d   1      -0.984  -2.116  -2.365  0.00  0.00     0.015 A 
ATOM      7  C7  IND d   1      -0.745  -3.432  -2.642  0.00  0.00    -0.016 A 
ATOM      8  C8  IND d   1      -0.569  -4.278  -1.556  0.00  0.00    -0.047 A 
ATOM      9  C9  IND d   1      -0.609  -3.810  -0.236  0.00  0.00    -0.096 A 
ATOM     10  HN1 IND d   1      -0.213  -6.150  -2.183  0.00  0.00     0.298 HD
ENDROOT
TORSDOF 0
ENDMDL
