MODEL 1
REMARK minimizedAffinity 22.395792
REMARK minimizedRMSD -1
REMARK  0 active torsions:
REMARK  status: ('A' for Active; 'I' for Inactive)
ROOT
ATOM      1  N1  IND d   1      -5.238   4.773  -6.000  0.00  0.00    -0.196 N 
ATOM      2  C2  IND d   1      -5.203   5.971  -5.342  0.00  0.00     0.054 A 
ATOM      3  C3  IND d   1      -4.169   6.000  -4.472  0.00  0.00    -0.031 A 
ATOM      4  C4  IND d   1      -2.347   4.233  -4.038  0.00  0.00     0.051 A 
ATOM      5  C5  IND d   1      -1.980   2.960  -4.373  0.00  0.00    -0.031 A 
ATOM      6  C6  IND d   1      -2.693   2.212  -5.288  0.00  0.00     0.015 A 
ATOM      7  C7  IND d   1      -3.798   2.716  -5.913  0.00  0.00    -0.016 A 
ATOM      8  C8  IND d   1      -4.178   4.006  -5.570  0.00  0.00    -0.047 A 
ATOM      9  C9  IND d   1      -3.483   4.754  -4.611  0.00  0.00    -0.096 A 
ATOM     10  HN1 IND d   1      -5.824   4.539  -6.584  0.00  0.00     0.298 HD
ENDROOT
TORSDOF 0
ENDMDL
