MODEL 1
REMARK minimizedAffinity 22.2194824
REMARK minimizedRMSD -1
REMARK  0 active torsions:
REMARK  status: ('A' for Active; 'I' for Inactive)
ROOT
ATOM      1  N1  IND d   1       4.844   1.719  -0.448  0.00  0.00    -0.196 N 
ATOM      2  C2  IND d   1       3.881   1.448   0.483  0.00  0.00     0.054 A 
ATOM      3  C3  IND d   1       3.501   2.584   1.111  0.00  0.00    -0.031 A 
ATOM      4  C4  IND d   1       4.253   5.011   0.698  0.00  0.00     0.051 A 
ATOM      5  C5  IND d   1       5.142   5.755  -0.026  0.00  0.00    -0.031 A 
ATOM      6  C6  IND d   1       5.992   5.180  -0.949  0.00  0.00     0.015 A 
ATOM      7  C7  IND d   1       5.976   3.836  -1.191  0.00  0.00    -0.016 A 
ATOM      8  C8  IND d   1       5.080   3.076  -0.452  0.00  0.00    -0.047 A 
ATOM      9  C9  IND d   1       4.245   3.648   0.516  0.00  0.00    -0.096 A 
ATOM     10  HN1 IND d   1       5.235   1.140  -0.948  0.00  0.00     0.298 HD
ENDROOT
TORSDOF 0
ENDMDL
