MODEL 1
REMARK minimizedAffinity -3.48832893
REMARK minimizedRMSD -1
REMARK  0 active torsions:
REMARK  status: ('A' for Active; 'I' for Inactive)
ROOT
ATOM      1  C   UNL d   1      -4.704  -0.327  -0.431  0.00  0.00     0.172 C 
ATOM      2  N   UNL d   1      -3.754  -0.424   0.652  0.00  0.00    -0.070 N 
ATOM      3  C1  UNL d   1      -2.404  -0.605   0.516  0.00  0.00    -0.004 A 
ATOM      4  C2  UNL d   1      -1.853  -0.644   1.779  0.00  0.00    -0.047 A 
ATOM      5  C3  UNL d   1      -2.910  -0.481   2.706  0.00  0.00    -0.047 A 
ATOM      6  C4  UNL d   1      -4.075  -0.347   1.981  0.00  0.00    -0.004 A 
ENDROOT
TORSDOF 0
ENDMDL
