MODEL 1
REMARK minimizedAffinity -2.15887666
REMARK minimizedRMSD -1
REMARK  0 active torsions:
REMARK  status: ('A' for Active; 'I' for Inactive)
ROOT
ATOM      1  C   UNL d   1      -2.625  -0.100   2.450  0.00  0.00     0.172 C 
ATOM      2  N   UNL d   1      -2.320   0.795   1.360  0.00  0.00    -0.070 N 
ATOM      3  C1  UNL d   1      -2.415   2.161   1.398  0.00  0.00    -0.004 A 
ATOM      4  C2  UNL d   1      -2.038   2.645   0.164  0.00  0.00    -0.047 A 
ATOM      5  C3  UNL d   1      -1.706   1.532  -0.644  0.00  0.00    -0.047 A 
ATOM      6  C4  UNL d   1      -1.890   0.399   0.121  0.00  0.00    -0.004 A 
ENDROOT
TORSDOF 0
ENDMDL
