MODEL 1
REMARK minimizedAffinity -2.03239393
REMARK minimizedRMSD -1
REMARK  0 active torsions:
REMARK  status: ('A' for Active; 'I' for Inactive)
ROOT
ATOM      1  C   UNL d   1      -2.669   2.891   0.893  0.00  0.00     0.172 C 
ATOM      2  N   UNL d   1      -2.732   1.495   1.257  0.00  0.00    -0.070 N 
ATOM      3  C1  UNL d   1      -2.552   0.990   2.517  0.00  0.00    -0.004 A 
ATOM      4  C2  UNL d   1      -2.691  -0.379   2.446  0.00  0.00    -0.047 A 
ATOM      5  C3  UNL d   1      -2.963  -0.708   1.097  0.00  0.00    -0.047 A 
ATOM      6  C4  UNL d   1      -2.983   0.471   0.383  0.00  0.00    -0.004 A 
ENDROOT
TORSDOF 0
ENDMDL
