MODEL 1
REMARK minimizedAffinity 0.529706955
REMARK minimizedRMSD -1
REMARK  0 active torsions:
REMARK  status: ('A' for Active; 'I' for Inactive)
ROOT
ATOM      1  C   UNL d   1      -3.736   4.369   0.388  0.00  0.00     0.172 C 
ATOM      2  N   UNL d   1      -3.341   2.996   0.178  0.00  0.00    -0.070 N 
ATOM      3  C1  UNL d   1      -4.035   1.892   0.595  0.00  0.00    -0.004 A 
ATOM      4  C2  UNL d   1      -3.330   0.776   0.201  0.00  0.00    -0.047 A 
ATOM      5  C3  UNL d   1      -2.171   1.225  -0.476  0.00  0.00    -0.047 A 
ATOM      6  C4  UNL d   1      -2.203   2.603  -0.476  0.00  0.00    -0.004 A 
ENDROOT
TORSDOF 0
ENDMDL
