MODEL 1
REMARK minimizedAffinity -1.93700242
REMARK minimizedRMSD -1
REMARK  0 active torsions:
REMARK  status: ('A' for Active; 'I' for Inactive)
ROOT
ATOM      1  C   UNL d   1      -3.189   4.475   0.335  0.00  0.00     0.172 C 
ATOM      2  N   UNL d   1      -3.081   3.062   0.613  0.00  0.00    -0.070 N 
ATOM      3  C1  UNL d   1      -2.676   2.510   1.799  0.00  0.00    -0.004 A 
ATOM      4  C2  UNL d   1      -2.709   1.140   1.661  0.00  0.00    -0.047 A 
ATOM      5  C3  UNL d   1      -3.148   0.858   0.345  0.00  0.00    -0.047 A 
ATOM      6  C4  UNL d   1      -3.371   2.065  -0.281  0.00  0.00    -0.004 A 
ENDROOT
TORSDOF 0
ENDMDL
