MODEL 1
REMARK minimizedAffinity -2.01400375
REMARK minimizedRMSD -1
REMARK  0 active torsions:
REMARK  status: ('A' for Active; 'I' for Inactive)
ROOT
ATOM      1  C   UNL d   1      -5.304  -1.766   2.989  0.00  0.00     0.172 C 
ATOM      2  N   UNL d   1      -4.141  -0.914   2.911  0.00  0.00    -0.070 N 
ATOM      3  C1  UNL d   1      -3.262  -0.667   3.932  0.00  0.00    -0.004 A 
ATOM      4  C2  UNL d   1      -2.294   0.192   3.457  0.00  0.00    -0.047 A 
ATOM      5  C3  UNL d   1      -2.603   0.472   2.105  0.00  0.00    -0.047 A 
ATOM      6  C4  UNL d   1      -3.750  -0.226   1.793  0.00  0.00    -0.004 A 
ENDROOT
TORSDOF 0
ENDMDL
