MODEL 1
REMARK minimizedAffinity 2.32169986
REMARK minimizedRMSD -1
REMARK  0 active torsions:
REMARK  status: ('A' for Active; 'I' for Inactive)
ROOT
ATOM      1  C   UNL d   1       1.153   5.269  -5.720  0.00  0.00     0.172 C 
ATOM      2  N   UNL d   1       1.345   3.858  -5.479  0.00  0.00    -0.070 N 
ATOM      3  C1  UNL d   1       0.543   3.064  -4.704  0.00  0.00    -0.004 A 
ATOM      4  C2  UNL d   1       1.061   1.788  -4.730  0.00  0.00    -0.047 A 
ATOM      5  C3  UNL d   1       2.216   1.816  -5.547  0.00  0.00    -0.047 A 
ATOM      6  C4  UNL d   1       2.369   3.110  -5.998  0.00  0.00    -0.004 A 
ENDROOT
TORSDOF 0
ENDMDL
