MODEL 1
REMARK minimizedAffinity 4.95744514
REMARK minimizedRMSD -1
REMARK  0 active torsions:
REMARK  status: ('A' for Active; 'I' for Inactive)
ROOT
ATOM      1  C   UNL d   1      -4.896  -1.343   3.959  0.00  0.00     0.172 C 
ATOM      2  N   UNL d   1      -3.766  -0.570   3.500  0.00  0.00    -0.070 N 
ATOM      3  C1  UNL d   1      -2.850   0.058   4.301  0.00  0.00    -0.004 A 
ATOM      4  C2  UNL d   1      -1.934   0.684   3.483  0.00  0.00    -0.047 A 
ATOM      5  C3  UNL d   1      -2.313   0.423   2.145  0.00  0.00    -0.047 A 
ATOM      6  C4  UNL d   1      -3.450  -0.355   2.184  0.00  0.00    -0.004 A 
ENDROOT
TORSDOF 0
ENDMDL
