MODEL 1
REMARK minimizedAffinity -2.3290503
REMARK minimizedRMSD -1
REMARK  0 active torsions:
REMARK  status: ('A' for Active; 'I' for Inactive)
ROOT
ATOM      1  C   UNL d   1      -2.596   2.662   0.261  0.00  0.00     0.172 C 
ATOM      2  N   UNL d   1      -2.541   1.332   0.820  0.00  0.00    -0.070 N 
ATOM      3  C1  UNL d   1      -2.555   1.026   2.155  0.00  0.00    -0.004 A 
ATOM      4  C2  UNL d   1      -2.489  -0.346   2.274  0.00  0.00    -0.047 A 
ATOM      5  C3  UNL d   1      -2.432  -0.882   0.966  0.00  0.00    -0.047 A 
ATOM      6  C4  UNL d   1      -2.466   0.178   0.085  0.00  0.00    -0.004 A 
ENDROOT
TORSDOF 0
ENDMDL
