MODEL 1
REMARK minimizedAffinity -0.517977476
REMARK minimizedRMSD -1
REMARK  0 active torsions:
REMARK  status: ('A' for Active; 'I' for Inactive)
ROOT
ATOM      1  C   UNL d   1       6.000   0.817   5.791  0.00  0.00     0.172 C 
ATOM      2  N   UNL d   1       5.210   0.824   4.582  0.00  0.00    -0.070 N 
ATOM      3  C1  UNL d   1       5.028   1.899   3.754  0.00  0.00    -0.004 A 
ATOM      4  C2  UNL d   1       4.214   1.500   2.716  0.00  0.00    -0.047 A 
ATOM      5  C3  UNL d   1       3.895   0.138   2.929  0.00  0.00    -0.047 A 
ATOM      6  C4  UNL d   1       4.524  -0.255   4.091  0.00  0.00    -0.004 A 
ENDROOT
TORSDOF 0
ENDMDL
