MODEL 1
REMARK minimizedAffinity -0.763054788
REMARK minimizedRMSD -1
REMARK  0 active torsions:
REMARK  status: ('A' for Active; 'I' for Inactive)
ROOT
ATOM      1  C   UNL d   1       4.840   3.383   1.677  0.00  0.00     0.172 C 
ATOM      2  N   UNL d   1       5.254   2.232   2.445  0.00  0.00    -0.070 N 
ATOM      3  C1  UNL d   1       5.710   2.255   3.736  0.00  0.00    -0.004 A 
ATOM      4  C2  UNL d   1       6.000   0.959   4.104  0.00  0.00    -0.047 A 
ATOM      5  C3  UNL d   1       5.708   0.129   2.996  0.00  0.00    -0.047 A 
ATOM      6  C4  UNL d   1       5.248   0.942   1.983  0.00  0.00    -0.004 A 
ENDROOT
TORSDOF 0
ENDMDL
