MODEL 1
REMARK minimizedAffinity -3.13669419
REMARK minimizedRMSD -1
REMARK  0 active torsions:
REMARK  status: ('A' for Active; 'I' for Inactive)
ROOT
ATOM      1  C   UNL d   1      -2.732   2.793   0.838  0.00  0.00     0.172 C 
ATOM      2  N   UNL d   1      -2.780   1.433   1.320  0.00  0.00    -0.070 N 
ATOM      3  C1  UNL d   1      -2.700   1.047   2.631  0.00  0.00    -0.004 A 
ATOM      4  C2  UNL d   1      -2.785  -0.328   2.672  0.00  0.00    -0.047 A 
ATOM      5  C3  UNL d   1      -2.920  -0.784   1.340  0.00  0.00    -0.047 A 
ATOM      6  C4  UNL d   1      -2.914   0.327   0.523  0.00  0.00    -0.004 A 
ENDROOT
TORSDOF 0
ENDMDL
