MODEL 1
REMARK minimizedAffinity -3.34180641
REMARK minimizedRMSD -1
REMARK  0 active torsions:
REMARK  status: ('A' for Active; 'I' for Inactive)
ROOT
ATOM      1  C   UNL d   1      -4.056   2.649   4.454  0.00  0.00     0.172 C 
ATOM      2  N   UNL d   1      -3.727   1.364   3.885  0.00  0.00    -0.070 N 
ATOM      3  C1  UNL d   1      -2.577   1.061   3.207  0.00  0.00    -0.004 A 
ATOM      4  C2  UNL d   1      -2.645  -0.262   2.829  0.00  0.00    -0.047 A 
ATOM      5  C3  UNL d   1      -3.880  -0.773   3.295  0.00  0.00    -0.047 A 
ATOM      6  C4  UNL d   1      -4.529   0.255   3.946  0.00  0.00    -0.004 A 
ENDROOT
TORSDOF 0
ENDMDL
