MODEL 1
REMARK minimizedAffinity -2.12950206
REMARK minimizedRMSD -1
REMARK  0 active torsions:
REMARK  status: ('A' for Active; 'I' for Inactive)
ROOT
ATOM      1  C   UNL d   1      -2.487  -0.604   0.721  0.00  0.00     0.172 C 
ATOM      2  N   UNL d   1      -2.682   0.824   0.626  0.00  0.00    -0.070 N 
ATOM      3  C1  UNL d   1      -3.442   1.465  -0.315  0.00  0.00    -0.004 A 
ATOM      4  C2  UNL d   1      -3.372   2.818  -0.063  0.00  0.00    -0.047 A 
ATOM      5  C3  UNL d   1      -2.541   2.996   1.069  0.00  0.00    -0.047 A 
ATOM      6  C4  UNL d   1      -2.128   1.745   1.475  0.00  0.00    -0.004 A 
ENDROOT
TORSDOF 0
ENDMDL
