MODEL 1
REMARK minimizedAffinity -2.86480045
REMARK minimizedRMSD -1
REMARK  0 active torsions:
REMARK  status: ('A' for Active; 'I' for Inactive)
ROOT
ATOM      1  C   UNL d   1      -2.507   2.824   0.930  0.00  0.00     0.172 C 
ATOM      2  N   UNL d   1      -2.573   1.427   1.289  0.00  0.00    -0.070 N 
ATOM      3  C1  UNL d   1      -2.757   0.386   0.418  0.00  0.00    -0.004 A 
ATOM      4  C2  UNL d   1      -2.760  -0.782   1.150  0.00  0.00    -0.047 A 
ATOM      5  C3  UNL d   1      -2.573  -0.431   2.508  0.00  0.00    -0.047 A 
ATOM      6  C4  UNL d   1      -2.460   0.942   2.566  0.00  0.00    -0.004 A 
ENDROOT
TORSDOF 0
ENDMDL
