MODEL 1
REMARK minimizedAffinity -0.988540292
REMARK minimizedRMSD -1
REMARK  0 active torsions:
REMARK  status: ('A' for Active; 'I' for Inactive)
ROOT
ATOM      1  O1  BZF d   1       1.349   2.521  -0.325  0.00  0.00    -0.204 OA
ATOM      2  C2  BZF d   1       0.433   3.527  -0.085  0.00  0.00     0.174 A 
ATOM      3  C3  BZF d   1      -0.665   3.037   0.527  0.00  0.00    -0.012 A 
ATOM      4  C3A BZF d   1      -0.380   1.655   0.762  0.00  0.00    -0.107 A 
ATOM      5  C4  BZF d   1      -1.078   0.639   1.351  0.00  0.00     0.055 A 
ATOM      6  C5  BZF d   1      -0.547  -0.612   1.354  0.00  0.00    -0.016 A 
ATOM      7  C6  BZF d   1       0.674  -0.884   0.773  0.00  0.00     0.022 A 
ATOM      8  C7  BZF d   1       1.405   0.092   0.181  0.00  0.00     0.029 A 
ATOM      9  C7A BZF d   1       0.887   1.363   0.206  0.00  0.00     0.058 A 
ENDROOT
TORSDOF 0
ENDMDL
