MODEL 1
REMARK minimizedAffinity -3.77928424
REMARK minimizedRMSD -1
REMARK  0 active torsions:
REMARK  status: ('A' for Active; 'I' for Inactive)
ROOT
ATOM      1  O1  BZF d   1       0.540  -0.825   0.451  0.00  0.00    -0.204 OA
ATOM      2  C2  BZF d   1      -0.823  -0.667   0.616  0.00  0.00     0.174 A 
ATOM      3  C3  BZF d   1      -1.204   0.584   0.286  0.00  0.00    -0.012 A 
ATOM      4  C3A BZF d   1      -0.018   1.222  -0.198  0.00  0.00    -0.107 A 
ATOM      5  C4  BZF d   1       0.243   2.469  -0.690  0.00  0.00     0.055 A 
ATOM      6  C5  BZF d   1       1.522   2.800  -1.007  0.00  0.00    -0.016 A 
ATOM      7  C6  BZF d   1       2.564   1.912  -0.840  0.00  0.00     0.022 A 
ATOM      8  C7  BZF d   1       2.354   0.662  -0.361  0.00  0.00     0.029 A 
ATOM      9  C7A BZF d   1       1.057   0.313  -0.071  0.00  0.00     0.058 A 
ENDROOT
TORSDOF 0
ENDMDL
