MODEL 1
REMARK minimizedAffinity 2.57293844
REMARK minimizedRMSD -1
REMARK  0 active torsions:
REMARK  status: ('A' for Active; 'I' for Inactive)
ROOT
ATOM      1  O1  BZF d   1      -0.645  -1.285   1.968  0.00  0.00    -0.204 OA
ATOM      2  C2  BZF d   1      -1.760  -1.093   2.761  0.00  0.00     0.174 A 
ATOM      3  C3  BZF d   1      -2.127   0.205   2.764  0.00  0.00    -0.012 A 
ATOM      4  C3A BZF d   1      -1.238   0.849   1.846  0.00  0.00    -0.107 A 
ATOM      5  C4  BZF d   1      -1.112   2.137   1.408  0.00  0.00     0.055 A 
ATOM      6  C5  BZF d   1      -0.093   2.451   0.565  0.00  0.00    -0.016 A 
ATOM      7  C6  BZF d   1       0.819   1.505   0.145  0.00  0.00     0.022 A 
ATOM      8  C7  BZF d   1       0.732   0.214   0.548  0.00  0.00     0.029 A 
ATOM      9  C7A BZF d   1      -0.316  -0.113   1.374  0.00  0.00     0.058 A 
ENDROOT
TORSDOF 0
ENDMDL
