MODEL 1
REMARK minimizedAffinity 3.7764957
REMARK minimizedRMSD -1
REMARK  0 active torsions:
REMARK  status: ('A' for Active; 'I' for Inactive)
ROOT
ATOM      1  O1  BZF d   1       2.590   2.050   2.704  0.00  0.00    -0.204 OA
ATOM      2  C2  BZF d   1       3.618   2.072   1.782  0.00  0.00     0.174 A 
ATOM      3  C3  BZF d   1       3.141   2.282   0.538  0.00  0.00    -0.012 A 
ATOM      4  C3A BZF d   1       1.735   2.490   0.704  0.00  0.00    -0.107 A 
ATOM      5  C4  BZF d   1       0.717   2.761  -0.165  0.00  0.00     0.055 A 
ATOM      6  C5  BZF d   1      -0.554   2.834   0.309  0.00  0.00    -0.016 A 
ATOM      7  C6  BZF d   1      -0.844   2.635   1.643  0.00  0.00     0.022 A 
ATOM      8  C7  BZF d   1       0.133   2.369   2.544  0.00  0.00     0.029 A 
ATOM      9  C7A BZF d   1       1.423   2.327   2.073  0.00  0.00     0.058 A 
ENDROOT
TORSDOF 0
ENDMDL
