MODEL 1
REMARK minimizedAffinity 5.74567127
REMARK minimizedRMSD -1
REMARK  0 active torsions:
REMARK  status: ('A' for Active; 'I' for Inactive)
ROOT
ATOM      1  O1  BZF d   1       0.510   1.042  -0.079  0.00  0.00    -0.204 OA
ATOM      2  C2  BZF d   1      -0.445   2.026   0.093  0.00  0.00     0.174 A 
ATOM      3  C3  BZF d   1       0.112   3.154   0.580  0.00  0.00    -0.012 A 
ATOM      4  C3A BZF d   1       1.517   2.887   0.633  0.00  0.00    -0.107 A 
ATOM      5  C4  BZF d   1       2.599   3.627   1.015  0.00  0.00     0.055 A 
ATOM      6  C5  BZF d   1       3.828   3.048   1.017  0.00  0.00    -0.016 A 
ATOM      7  C6  BZF d   1       4.010   1.731   0.648  0.00  0.00     0.022 A 
ATOM      8  C7  BZF d   1       2.968   0.958   0.257  0.00  0.00     0.029 A 
ATOM      9  C7A BZF d   1       1.729   1.551   0.223  0.00  0.00     0.058 A 
ENDROOT
TORSDOF 0
ENDMDL
