MODEL 1
REMARK minimizedAffinity 6.66650867
REMARK minimizedRMSD -1
REMARK  0 active torsions:
REMARK  status: ('A' for Active; 'I' for Inactive)
ROOT
ATOM      1  O1  BZF d   1      -0.492   0.019   2.084  0.00  0.00    -0.204 OA
ATOM      2  C2  BZF d   1      -1.736   0.145   2.671  0.00  0.00     0.174 A 
ATOM      3  C3  BZF d   1      -2.315   1.311   2.320  0.00  0.00    -0.012 A 
ATOM      4  C3A BZF d   1      -1.413   1.912   1.385  0.00  0.00    -0.107 A 
ATOM      5  C4  BZF d   1      -1.440   3.075   0.670  0.00  0.00     0.055 A 
ATOM      6  C5  BZF d   1      -0.368   3.403  -0.098  0.00  0.00    -0.016 A 
ATOM      7  C6  BZF d   1       0.748   2.595  -0.169  0.00  0.00     0.022 A 
ATOM      8  C7  BZF d   1       0.819   1.430   0.519  0.00  0.00     0.029 A 
ATOM      9  C7A BZF d   1      -0.276   1.080   1.270  0.00  0.00     0.058 A 
ENDROOT
TORSDOF 0
ENDMDL
