MODEL 1
REMARK minimizedAffinity 3.37949657
REMARK minimizedRMSD -1
REMARK  0 active torsions:
REMARK  status: ('A' for Active; 'I' for Inactive)
ROOT
ATOM      1  O1  BZF d   1       1.062  -0.169   0.572  0.00  0.00    -0.204 OA
ATOM      2  C2  BZF d   1       2.393  -0.526   0.671  0.00  0.00     0.174 A 
ATOM      3  C3  BZF d   1       3.187   0.561   0.588  0.00  0.00    -0.012 A 
ATOM      4  C3A BZF d   1       2.293   1.676   0.520  0.00  0.00    -0.107 A 
ATOM      5  C4  BZF d   1       2.481   3.026   0.439  0.00  0.00     0.055 A 
ATOM      6  C5  BZF d   1       1.398   3.838   0.314  0.00  0.00    -0.016 A 
ATOM      7  C6  BZF d   1       0.115   3.333   0.261  0.00  0.00     0.022 A 
ATOM      8  C7  BZF d   1      -0.122   2.001   0.342  0.00  0.00     0.029 A 
ATOM      9  C7A BZF d   1       0.969   1.181   0.502  0.00  0.00     0.058 A 
ENDROOT
TORSDOF 0
ENDMDL
