MODEL 1
REMARK minimizedAffinity 9.02375698
REMARK minimizedRMSD -1
REMARK  0 active torsions:
REMARK  status: ('A' for Active; 'I' for Inactive)
ROOT
ATOM      1  O1  BZF d   1       1.928   3.202  -0.258  0.00  0.00    -0.204 OA
ATOM      2  C2  BZF d   1       2.971   2.795   0.551  0.00  0.00     0.174 A 
ATOM      3  C3  BZF d   1       2.507   2.308   1.720  0.00  0.00    -0.012 A 
ATOM      4  C3A BZF d   1       1.082   2.333   1.599  0.00  0.00    -0.107 A 
ATOM      5  C4  BZF d   1       0.063   1.960   2.428  0.00  0.00     0.055 A 
ATOM      6  C5  BZF d   1      -1.220   2.182   2.039  0.00  0.00    -0.016 A 
ATOM      7  C6  BZF d   1      -1.519   2.780   0.832  0.00  0.00     0.022 A 
ATOM      8  C7  BZF d   1      -0.542   3.162  -0.026  0.00  0.00     0.029 A 
ATOM      9  C7A BZF d   1       0.754   2.909   0.350  0.00  0.00     0.058 A 
ENDROOT
TORSDOF 0
ENDMDL
