MODEL 1
REMARK minimizedAffinity 5.88163519
REMARK minimizedRMSD -1
REMARK  0 active torsions:
REMARK  status: ('A' for Active; 'I' for Inactive)
ROOT
ATOM      1  O1  BZF d   1       1.489  -0.365   1.480  0.00  0.00    -0.204 OA
ATOM      2  C2  BZF d   1       2.298  -0.629   0.391  0.00  0.00     0.174 A 
ATOM      3  C3  BZF d   1       2.166   0.332  -0.546  0.00  0.00    -0.012 A 
ATOM      4  C3A BZF d   1       1.286   1.301   0.029  0.00  0.00    -0.107 A 
ATOM      5  C4  BZF d   1       0.785   2.493  -0.410  0.00  0.00     0.055 A 
ATOM      6  C5  BZF d   1      -0.109   3.161   0.365  0.00  0.00    -0.016 A 
ATOM      7  C6  BZF d   1      -0.528   2.663   1.582  0.00  0.00     0.022 A 
ATOM      8  C7  BZF d   1      -0.056   1.487   2.062  0.00  0.00     0.029 A 
ATOM      9  C7A BZF d   1       0.873   0.827   1.296  0.00  0.00     0.058 A 
ENDROOT
TORSDOF 0
ENDMDL
