MODEL 1
REMARK minimizedAffinity 0.157130152
REMARK minimizedRMSD -1
REMARK  0 active torsions:
REMARK  status: ('A' for Active; 'I' for Inactive)
ROOT
ATOM      1  O1  BZF d   1       1.703   1.679   2.623  0.00  0.00    -0.204 OA
ATOM      2  C2  BZF d   1       2.989   2.166   2.486  0.00  0.00     0.174 A 
ATOM      3  C3  BZF d   1       3.025   3.178   1.595  0.00  0.00    -0.012 A 
ATOM      4  C3A BZF d   1       1.662   3.394   1.217  0.00  0.00    -0.107 A 
ATOM      5  C4  BZF d   1       1.051   4.277   0.373  0.00  0.00     0.055 A 
ATOM      6  C5  BZF d   1      -0.289   4.177   0.170  0.00  0.00    -0.016 A 
ATOM      7  C6  BZF d   1      -1.047   3.205   0.791  0.00  0.00     0.022 A 
ATOM      8  C7  BZF d   1      -0.486   2.311   1.641  0.00  0.00     0.029 A 
ATOM      9  C7A BZF d   1       0.862   2.430   1.873  0.00  0.00     0.058 A 
ENDROOT
TORSDOF 0
ENDMDL
