MODEL 1
REMARK minimizedAffinity 3.56607842
REMARK minimizedRMSD -1
REMARK  0 active torsions:
REMARK  status: ('A' for Active; 'I' for Inactive)
ROOT
ATOM      1  O1  BZF d   1       3.927  -5.921  -3.086  0.00  0.00    -0.204 OA
ATOM      2  C2  BZF d   1       4.814  -5.921  -4.146  0.00  0.00     0.174 A 
ATOM      3  C3  BZF d   1       4.155  -5.999  -5.320  0.00  0.00    -0.012 A 
ATOM      4  C3A BZF d   1       2.767  -5.957  -4.977  0.00  0.00    -0.107 A 
ATOM      5  C4  BZF d   1       1.617  -5.982  -5.713  0.00  0.00     0.055 A 
ATOM      6  C5  BZF d   1       0.421  -6.000  -5.068  0.00  0.00    -0.016 A 
ATOM      7  C6  BZF d   1       0.338  -5.999  -3.691  0.00  0.00     0.022 A 
ATOM      8  C7  BZF d   1       1.451  -5.970  -2.919  0.00  0.00     0.029 A 
ATOM      9  C7A BZF d   1       2.661  -5.918  -3.567  0.00  0.00     0.058 A 
ENDROOT
TORSDOF 0
ENDMDL
