MODEL 1
REMARK minimizedAffinity 11.5192242
REMARK minimizedRMSD -1
REMARK  0 active torsions:
REMARK  status: ('A' for Active; 'I' for Inactive)
ROOT
ATOM      1  O1  BZF d   1       3.360   1.149  -4.529  0.00  0.00    -0.204 OA
ATOM      2  C2  BZF d   1       3.651   0.805  -3.223  0.00  0.00     0.174 A 
ATOM      3  C3  BZF d   1       4.508   1.690  -2.675  0.00  0.00    -0.012 A 
ATOM      4  C3A BZF d   1       4.698   2.698  -3.673  0.00  0.00    -0.107 A 
ATOM      5  C4  BZF d   1       5.429   3.850  -3.716  0.00  0.00     0.055 A 
ATOM      6  C5  BZF d   1       5.457   4.572  -4.867  0.00  0.00    -0.016 A 
ATOM      7  C6  BZF d   1       4.771   4.168  -5.994  0.00  0.00     0.022 A 
ATOM      8  C7  BZF d   1       4.029   3.035  -5.998  0.00  0.00     0.029 A 
ATOM      9  C7A BZF d   1       3.972   2.321  -4.826  0.00  0.00     0.058 A 
ENDROOT
TORSDOF 0
ENDMDL
