MODEL 1
REMARK minimizedAffinity 3.13408852
REMARK minimizedRMSD -1
REMARK  0 active torsions:
REMARK  status: ('A' for Active; 'I' for Inactive)
ROOT
ATOM      1  O1  BZF d   1       1.926   1.403   3.612  0.00  0.00    -0.204 OA
ATOM      2  C2  BZF d   1       0.957   1.209   2.647  0.00  0.00     0.174 A 
ATOM      3  C3  BZF d   1       1.317   1.791   1.484  0.00  0.00    -0.012 A 
ATOM      4  C3A BZF d   1       2.633   2.305   1.713  0.00  0.00    -0.107 A 
ATOM      5  C4  BZF d   1       3.527   2.976   0.929  0.00  0.00     0.055 A 
ATOM      6  C5  BZF d   1       4.696   3.401   1.476  0.00  0.00    -0.016 A 
ATOM      7  C6  BZF d   1       5.000   3.178   2.803  0.00  0.00     0.022 A 
ATOM      8  C7  BZF d   1       4.146   2.513   3.619  0.00  0.00     0.029 A 
ATOM      9  C7A BZF d   1       2.979   2.053   3.060  0.00  0.00     0.058 A 
ENDROOT
TORSDOF 0
ENDMDL
