MODEL 1
REMARK minimizedAffinity 0.646766961
REMARK minimizedRMSD -1
REMARK  0 active torsions:
REMARK  status: ('A' for Active; 'I' for Inactive)
ROOT
ATOM      1  O1  BZF d   1       1.364   4.753   3.175  0.00  0.00    -0.204 OA
ATOM      2  C2  BZF d   1       1.940   6.000   3.327  0.00  0.00     0.174 A 
ATOM      3  C3  BZF d   1       3.215   5.994   2.888  0.00  0.00    -0.012 A 
ATOM      4  C3A BZF d   1       3.422   4.685   2.349  0.00  0.00    -0.107 A 
ATOM      5  C4  BZF d   1       4.486   4.074   1.750  0.00  0.00     0.055 A 
ATOM      6  C5  BZF d   1       4.387   2.764   1.404  0.00  0.00    -0.016 A 
ATOM      7  C6  BZF d   1       3.242   2.034   1.647  0.00  0.00     0.022 A 
ATOM      8  C7  BZF d   1       2.159   2.598   2.235  0.00  0.00     0.029 A 
ATOM      9  C7A BZF d   1       2.244   3.930   2.555  0.00  0.00     0.058 A 
ENDROOT
TORSDOF 0
ENDMDL
