MODEL 1
REMARK minimizedAffinity 4.41128111
REMARK minimizedRMSD -1
REMARK  0 active torsions:
REMARK  status: ('A' for Active; 'I' for Inactive)
ROOT
ATOM      1  O1  BZF d   1      -0.169   1.155   0.372  0.00  0.00    -0.204 OA
ATOM      2  C2  BZF d   1      -0.938   2.286   0.571  0.00  0.00     0.174 A 
ATOM      3  C3  BZF d   1      -0.170   3.325   0.954  0.00  0.00    -0.012 A 
ATOM      4  C3A BZF d   1       1.174   2.837   0.909  0.00  0.00    -0.107 A 
ATOM      5  C4  BZF d   1       2.389   3.405   1.167  0.00  0.00     0.055 A 
ATOM      6  C5  BZF d   1       3.506   2.635   1.099  0.00  0.00    -0.016 A 
ATOM      7  C6  BZF d   1       3.445   1.294   0.783  0.00  0.00     0.022 A 
ATOM      8  C7  BZF d   1       2.264   0.686   0.515  0.00  0.00     0.029 A 
ATOM      9  C7A BZF d   1       1.136   1.470   0.550  0.00  0.00     0.058 A 
ENDROOT
TORSDOF 0
ENDMDL
