MODEL 1
REMARK minimizedAffinity 2.03708839
REMARK minimizedRMSD -1
REMARK  0 active torsions:
REMARK  status: ('A' for Active; 'I' for Inactive)
ROOT
ATOM      1  C1  BNZ d   1      -2.840   1.199  -4.148  0.00  0.00     0.000 A 
ATOM      2  C2  BNZ d   1      -4.020   1.321  -4.831  0.00  0.00     0.000 A 
ATOM      3  C3  BNZ d   1      -5.205   0.961  -4.252  0.00  0.00     0.000 A 
ATOM      4  C4  BNZ d   1      -5.203   0.442  -3.007  0.00  0.00     0.000 A 
ATOM      5  C5  BNZ d   1      -4.020   0.305  -2.308  0.00  0.00     0.000 A 
ATOM      6  C6  BNZ d   1      -2.834   0.704  -2.880  0.00  0.00     0.000 A 
ENDROOT
TORSDOF 0
ENDMDL
