MODEL 1
REMARK minimizedAffinity 4.30482435
REMARK minimizedRMSD -1
REMARK  0 active torsions:
REMARK  status: ('A' for Active; 'I' for Inactive)
ROOT
ATOM      1  C1  BNZ d   1       3.711   0.118  -2.622  0.00  0.00     0.000 A 
ATOM      2  C2  BNZ d   1       2.874  -0.626  -1.834  0.00  0.00     0.000 A 
ATOM      3  C3  BNZ d   1       2.717  -0.332  -0.508  0.00  0.00     0.000 A 
ATOM      4  C4  BNZ d   1       3.426   0.677   0.036  0.00  0.00     0.000 A 
ATOM      5  C5  BNZ d   1       4.281   1.431  -0.743  0.00  0.00     0.000 A 
ATOM      6  C6  BNZ d   1       4.407   1.157  -2.086  0.00  0.00     0.000 A 
ENDROOT
TORSDOF 0
ENDMDL
