MODEL 1
REMARK minimizedAffinity 1.50383759
REMARK minimizedRMSD -1
REMARK  0 active torsions:
REMARK  status: ('A' for Active; 'I' for Inactive)
ROOT
ATOM      1  C1  BNZ d   1       4.050  -0.466  -2.828  0.00  0.00     0.000 A 
ATOM      2  C2  BNZ d   1       5.017   0.316  -2.254  0.00  0.00     0.000 A 
ATOM      3  C3  BNZ d   1       4.853   0.819  -0.993  0.00  0.00     0.000 A 
ATOM      4  C4  BNZ d   1       3.708   0.572  -0.325  0.00  0.00     0.000 A 
ATOM      5  C5  BNZ d   1       2.720  -0.207  -0.894  0.00  0.00     0.000 A 
ATOM      6  C6  BNZ d   1       2.905  -0.743  -2.147  0.00  0.00     0.000 A 
ENDROOT
TORSDOF 0
ENDMDL
