MODEL 1
REMARK minimizedAffinity 5.83248568
REMARK minimizedRMSD -1
REMARK  0 active torsions:
REMARK  status: ('A' for Active; 'I' for Inactive)
ROOT
ATOM      1  C1  BNZ d   1       3.460   4.128   4.831  0.00  0.00     0.000 A 
ATOM      2  C2  BNZ d   1       4.146   4.401   3.678  0.00  0.00     0.000 A 
ATOM      3  C3  BNZ d   1       5.208   5.262   3.682  0.00  0.00     0.000 A 
ATOM      4  C4  BNZ d   1       5.556   5.880   4.830  0.00  0.00     0.000 A 
ATOM      5  C5  BNZ d   1       4.868   5.622   5.999  0.00  0.00     0.000 A 
ATOM      6  C6  BNZ d   1       3.825   4.725   5.999  0.00  0.00     0.000 A 
ENDROOT
TORSDOF 0
ENDMDL
