MODEL 1
REMARK minimizedAffinity 5.80749607
REMARK minimizedRMSD -1
REMARK  0 active torsions:
REMARK  status: ('A' for Active; 'I' for Inactive)
ROOT
ATOM      1  C1  BNZ d   1       5.020   0.685  -3.170  0.00  0.00     0.000 A 
ATOM      2  C2  BNZ d   1       4.062  -0.284  -3.030  0.00  0.00     0.000 A 
ATOM      3  C3  BNZ d   1       3.377  -0.426  -1.856  0.00  0.00     0.000 A 
ATOM      4  C4  BNZ d   1       3.678   0.373  -0.812  0.00  0.00     0.000 A 
ATOM      5  C5  BNZ d   1       4.647   1.348  -0.934  0.00  0.00     0.000 A 
ATOM      6  C6  BNZ d   1       5.308   1.514  -2.130  0.00  0.00     0.000 A 
ENDROOT
TORSDOF 0
ENDMDL
