MODEL 1
REMARK minimizedAffinity 1.61914861
REMARK minimizedRMSD -1
REMARK  0 active torsions:
REMARK  status: ('A' for Active; 'I' for Inactive)
ROOT
ATOM      1  C1  BNZ d   1       1.750  -0.748   0.404  0.00  0.00     0.000 A 
ATOM      2  C2  BNZ d   1       0.394  -0.735   0.214  0.00  0.00     0.000 A 
ATOM      3  C3  BNZ d   1      -0.207  -1.650  -0.604  0.00  0.00     0.000 A 
ATOM      4  C4  BNZ d   1       0.552  -2.550  -1.262  0.00  0.00     0.000 A 
ATOM      5  C5  BNZ d   1       1.921  -2.570  -1.089  0.00  0.00     0.000 A 
ATOM      6  C6  BNZ d   1       2.519  -1.672  -0.234  0.00  0.00     0.000 A 
ENDROOT
TORSDOF 0
ENDMDL
