MODEL 1
REMARK minimizedAffinity -1.51295447
REMARK minimizedRMSD -1
REMARK  0 active torsions:
REMARK  status: ('A' for Active; 'I' for Inactive)
ROOT
ATOM      1  C1  DEN d   1       1.412   2.554  -0.317  0.00  0.00     0.130 A 
ATOM      2  C2  DEN d   1       0.420   3.601  -0.089  0.00  0.00    -0.031 A 
ATOM      3  C3  DEN d   1      -0.735   2.993   0.601  0.00  0.00     0.027 A 
ATOM      4  C4  DEN d   1      -1.079   0.546   1.340  0.00  0.00     0.027 A 
ATOM      5  C5  DEN d   1      -0.518  -0.712   1.354  0.00  0.00    -0.003 A 
ATOM      6  C6  DEN d   1       0.701  -0.974   0.787  0.00  0.00     0.001 A 
ATOM      7  C7  DEN d   1       1.419   0.046   0.221  0.00  0.00     0.017 A 
ATOM      8  C8  DEN d   1       0.857   1.315   0.196  0.00  0.00    -0.094 A 
ATOM      9  C9  DEN d   1      -0.371   1.562   0.786  0.00  0.00    -0.072 A 
ENDROOT
TORSDOF 0
ENDMDL
