MODEL 1
REMARK minimizedAffinity 6.92941761
REMARK minimizedRMSD -1
REMARK  0 active torsions:
REMARK  status: ('A' for Active; 'I' for Inactive)
ROOT
ATOM      1  C1  DEN d   1      -2.336   1.190   2.348  0.00  0.00     0.130 A 
ATOM      2  C2  DEN d   1      -1.992  -0.192   2.671  0.00  0.00    -0.031 A 
ATOM      3  C3  DEN d   1      -0.710  -0.510   2.010  0.00  0.00     0.027 A 
ATOM      4  C4  DEN d   1       0.770   0.997   0.530  0.00  0.00     0.027 A 
ATOM      5  C5  DEN d   1       0.886   2.247  -0.038  0.00  0.00    -0.003 A 
ATOM      6  C6  DEN d   1      -0.071   3.213   0.121  0.00  0.00     0.001 A 
ATOM      7  C7  DEN d   1      -1.168   2.960   0.903  0.00  0.00     0.017 A 
ATOM      8  C8  DEN d   1      -1.296   1.700   1.472  0.00  0.00    -0.094 A 
ATOM      9  C9  DEN d   1      -0.310   0.741   1.310  0.00  0.00    -0.072 A 
ENDROOT
TORSDOF 0
ENDMDL
