MODEL 1
REMARK minimizedAffinity 6.05197859
REMARK minimizedRMSD -1
REMARK  0 active torsions:
REMARK  status: ('A' for Active; 'I' for Inactive)
ROOT
ATOM      1  C1  DEN d   1       0.413   1.051  -0.046  0.00  0.00     0.130 A 
ATOM      2  C2  DEN d   1      -0.541   2.133   0.185  0.00  0.00    -0.031 A 
ATOM      3  C3  DEN d   1       0.214   3.315   0.648  0.00  0.00     0.027 A 
ATOM      4  C4  DEN d   1       2.752   3.576   1.023  0.00  0.00     0.027 A 
ATOM      5  C5  DEN d   1       3.967   2.928   0.971  0.00  0.00    -0.003 A 
ATOM      6  C6  DEN d   1       4.077   1.611   0.613  0.00  0.00     0.001 A 
ATOM      7  C7  DEN d   1       2.958   0.910   0.248  0.00  0.00     0.017 A 
ATOM      8  C8  DEN d   1       1.729   1.555   0.305  0.00  0.00    -0.094 A 
ATOM      9  C9  DEN d   1       1.639   2.890   0.658  0.00  0.00    -0.072 A 
ENDROOT
TORSDOF 0
ENDMDL
