MODEL 1
REMARK minimizedAffinity 4.06017065
REMARK minimizedRMSD -1
REMARK  0 active torsions:
REMARK  status: ('A' for Active; 'I' for Inactive)
ROOT
ATOM      1  C1  DEN d   1       2.978   2.128   2.437  0.00  0.00     0.130 A 
ATOM      2  C2  DEN d   1       3.780   2.046   1.219  0.00  0.00    -0.031 A 
ATOM      3  C3  DEN d   1       2.876   2.221   0.065  0.00  0.00     0.027 A 
ATOM      4  C4  DEN d   1       0.327   2.612   0.045  0.00  0.00     0.027 A 
ATOM      5  C5  DEN d   1      -0.795   2.745   0.834  0.00  0.00    -0.003 A 
ATOM      6  C6  DEN d   1      -0.743   2.648   2.199  0.00  0.00     0.001 A 
ATOM      7  C7  DEN d   1       0.463   2.457   2.820  0.00  0.00     0.017 A 
ATOM      8  C8  DEN d   1       1.597   2.315   2.032  0.00  0.00    -0.094 A 
ATOM      9  C9  DEN d   1       1.525   2.428   0.653  0.00  0.00    -0.072 A 
ENDROOT
TORSDOF 0
ENDMDL
