MODEL 1
REMARK minimizedAffinity 3.32894778
REMARK minimizedRMSD -1
REMARK  0 active torsions:
REMARK  status: ('A' for Active; 'I' for Inactive)
ROOT
ATOM      1  C1  DEN d   1       1.059  -0.278   0.563  0.00  0.00     0.130 A 
ATOM      2  C2  DEN d   1       2.464  -0.662   0.670  0.00  0.00    -0.031 A 
ATOM      3  C3  DEN d   1       3.277   0.571   0.645  0.00  0.00     0.027 A 
ATOM      4  C4  DEN d   1       2.501   3.023   0.455  0.00  0.00     0.027 A 
ATOM      5  C5  DEN d   1       1.404   3.847   0.329  0.00  0.00    -0.003 A 
ATOM      6  C6  DEN d   1       0.129   3.356   0.238  0.00  0.00     0.001 A 
ATOM      7  C7  DEN d   1      -0.086   2.005   0.318  0.00  0.00     0.017 A 
ATOM      8  C8  DEN d   1       1.016   1.168   0.438  0.00  0.00    -0.094 A 
ATOM      9  C9  DEN d   1       2.296   1.684   0.540  0.00  0.00    -0.072 A 
ENDROOT
TORSDOF 0
ENDMDL
