MODEL 1
REMARK minimizedAffinity 15.7967787
REMARK minimizedRMSD -1
REMARK  0 active torsions:
REMARK  status: ('A' for Active; 'I' for Inactive)
ROOT
ATOM      1  C1  DEN d   1       1.169   2.317  -1.293  0.00  0.00     0.130 A 
ATOM      2  C2  DEN d   1       1.517   2.895   0.002  0.00  0.00    -0.031 A 
ATOM      3  C3  DEN d   1       1.787   1.786   0.939  0.00  0.00     0.027 A 
ATOM      4  C4  DEN d   1       1.703  -0.756   0.510  0.00  0.00     0.027 A 
ATOM      5  C5  DEN d   1       1.445  -1.728  -0.431  0.00  0.00    -0.003 A 
ATOM      6  C6  DEN d   1       1.047  -1.423  -1.705  0.00  0.00     0.001 A 
ATOM      7  C7  DEN d   1       0.939  -0.112  -2.087  0.00  0.00     0.017 A 
ATOM      8  C8  DEN d   1       1.191   0.874  -1.141  0.00  0.00    -0.094 A 
ATOM      9  C9  DEN d   1       1.604   0.545   0.138  0.00  0.00    -0.072 A 
ENDROOT
TORSDOF 0
ENDMDL
