MODEL 1
REMARK minimizedAffinity 8.86061001
REMARK minimizedRMSD -1
REMARK  0 active torsions:
REMARK  status: ('A' for Active; 'I' for Inactive)
ROOT
ATOM      1  C1  DEN d   1       0.577   1.684   0.514  0.00  0.00     0.130 A 
ATOM      2  C2  DEN d   1      -0.280   2.593   1.270  0.00  0.00    -0.031 A 
ATOM      3  C3  DEN d   1      -1.232   1.779   2.051  0.00  0.00     0.027 A 
ATOM      4  C4  DEN d   1      -1.460  -0.788   2.166  0.00  0.00     0.027 A 
ATOM      5  C5  DEN d   1      -0.963  -1.981   1.690  0.00  0.00    -0.003 A 
ATOM      6  C6  DEN d   1       0.051  -2.035   0.771  0.00  0.00     0.001 A 
ATOM      7  C7  DEN d   1       0.632  -0.875   0.332  0.00  0.00     0.017 A 
ATOM      8  C8  DEN d   1       0.131   0.332   0.801  0.00  0.00    -0.094 A 
ATOM      9  C9  DEN d   1      -0.886   0.366   1.739  0.00  0.00    -0.072 A 
ENDROOT
TORSDOF 0
ENDMDL
