MODEL 1
REMARK minimizedAffinity 2.20474958
REMARK minimizedRMSD -1
REMARK  0 active torsions:
REMARK  status: ('A' for Active; 'I' for Inactive)
ROOT
ATOM      1  C1  DEN d   1       0.434  -5.391  -3.427  0.00  0.00     0.130 A 
ATOM      2  C2  DEN d   1       0.747  -5.295  -2.003  0.00  0.00    -0.031 A 
ATOM      3  C3  DEN d   1       2.206  -5.452  -1.845  0.00  0.00     0.027 A 
ATOM      4  C4  DEN d   1       4.004  -5.829  -3.656  0.00  0.00     0.027 A 
ATOM      5  C5  DEN d   1       4.220  -5.992  -5.006  0.00  0.00    -0.003 A 
ATOM      6  C6  DEN d   1       3.194  -6.000  -5.914  0.00  0.00     0.001 A 
ATOM      7  C7  DEN d   1       1.908  -5.796  -5.487  0.00  0.00     0.017 A 
ATOM      8  C8  DEN d   1       1.682  -5.639  -4.126  0.00  0.00    -0.094 A 
ATOM      9  C9  DEN d   1       2.733  -5.622  -3.226  0.00  0.00    -0.072 A 
ENDROOT
TORSDOF 0
ENDMDL
