MODEL 1
REMARK minimizedAffinity 11.7664442
REMARK minimizedRMSD -1
REMARK  0 active torsions:
REMARK  status: ('A' for Active; 'I' for Inactive)
ROOT
ATOM      1  C1  DEN d   1       4.671   1.934  -2.706  0.00  0.00     0.130 A 
ATOM      2  C2  DEN d   1       3.752   0.916  -3.207  0.00  0.00    -0.031 A 
ATOM      3  C3  DEN d   1       3.382   1.275  -4.590  0.00  0.00     0.027 A 
ATOM      4  C4  DEN d   1       4.143   3.296  -6.000  0.00  0.00     0.027 A 
ATOM      5  C5  DEN d   1       4.911   4.440  -6.000  0.00  0.00    -0.003 A 
ATOM      6  C6  DEN d   1       5.620   4.843  -4.899  0.00  0.00     0.001 A 
ATOM      7  C7  DEN d   1       5.612   4.072  -3.767  0.00  0.00     0.017 A 
ATOM      8  C8  DEN d   1       4.834   2.922  -3.757  0.00  0.00    -0.094 A 
ATOM      9  C9  DEN d   1       4.134   2.525  -4.884  0.00  0.00    -0.072 A 
ENDROOT
TORSDOF 0
ENDMDL
