MODEL 1
REMARK minimizedAffinity 4.2408762
REMARK minimizedRMSD -1
REMARK  0 active torsions:
REMARK  status: ('A' for Active; 'I' for Inactive)
ROOT
ATOM      1  C1  DEN d   1       3.882  -5.910  -3.257  0.00  0.00     0.130 A 
ATOM      2  C2  DEN d   1       4.647  -5.954  -4.500  0.00  0.00    -0.031 A 
ATOM      3  C3  DEN d   1       3.690  -5.998  -5.624  0.00  0.00     0.027 A 
ATOM      4  C4  DEN d   1       1.112  -5.998  -5.560  0.00  0.00     0.027 A 
ATOM      5  C5  DEN d   1       0.010  -5.981  -4.735  0.00  0.00    -0.003 A 
ATOM      6  C6  DEN d   1       0.119  -5.974  -3.369  0.00  0.00     0.001 A 
ATOM      7  C7  DEN d   1       1.360  -5.938  -2.789  0.00  0.00     0.017 A 
ATOM      8  C8  DEN d   1       2.476  -5.962  -3.614  0.00  0.00    -0.094 A 
ATOM      9  C9  DEN d   1       2.344  -5.957  -4.992  0.00  0.00    -0.072 A 
ENDROOT
TORSDOF 0
ENDMDL
