MODEL 1
REMARK minimizedAffinity 2.74939132
REMARK minimizedRMSD -1
REMARK  0 active torsions:
REMARK  status: ('A' for Active; 'I' for Inactive)
ROOT
ATOM      1  C1  DEN d   1       3.515   3.616  -0.130  0.00  0.00     0.130 A 
ATOM      2  C2  DEN d   1       2.224   3.056  -0.522  0.00  0.00    -0.031 A 
ATOM      3  C3  DEN d   1       1.697   2.282   0.620  0.00  0.00     0.027 A 
ATOM      4  C4  DEN d   1       2.745   1.903   2.946  0.00  0.00     0.027 A 
ATOM      5  C5  DEN d   1       3.838   2.169   3.741  0.00  0.00    -0.003 A 
ATOM      6  C6  DEN d   1       4.905   2.901   3.295  0.00  0.00     0.001 A 
ATOM      7  C7  DEN d   1       4.884   3.431   2.032  0.00  0.00     0.017 A 
ATOM      8  C8  DEN d   1       3.790   3.161   1.221  0.00  0.00    -0.094 A 
ATOM      9  C9  DEN d   1       2.714   2.429   1.695  0.00  0.00    -0.072 A 
ENDROOT
TORSDOF 0
ENDMDL
