MODEL 1
REMARK minimizedAffinity 6.47956038
REMARK minimizedRMSD -1
REMARK  0 active torsions:
REMARK  status: ('A' for Active; 'I' for Inactive)
ROOT
ATOM      1  C1  DEN d   1       1.823  -0.304   1.265  0.00  0.00     0.130 A 
ATOM      2  C2  DEN d   1       2.617  -0.264   0.040  0.00  0.00    -0.031 A 
ATOM      3  C3  DEN d   1       2.225   0.941  -0.719  0.00  0.00     0.027 A 
ATOM      4  C4  DEN d   1       0.479   2.741  -0.117  0.00  0.00     0.027 A 
ATOM      5  C5  DEN d   1      -0.456   3.131   0.817  0.00  0.00    -0.003 A 
ATOM      6  C6  DEN d   1      -0.719   2.391   1.939  0.00  0.00     0.001 A 
ATOM      7  C7  DEN d   1      -0.007   1.246   2.179  0.00  0.00     0.017 A 
ATOM      8  C8  DEN d   1       0.932   0.843   1.239  0.00  0.00    -0.094 A 
ATOM      9  C9  DEN d   1       1.192   1.611   0.117  0.00  0.00    -0.072 A 
ENDROOT
TORSDOF 0
ENDMDL
