MODEL 1
REMARK minimizedAffinity 0.105064027
REMARK minimizedRMSD -1
REMARK  0 active torsions:
REMARK  status: ('A' for Active; 'I' for Inactive)
ROOT
ATOM      1  C1  DEN d   1       1.851   1.744   2.618  0.00  0.00     0.130 A 
ATOM      2  C2  DEN d   1       3.176   2.325   2.423  0.00  0.00    -0.031 A 
ATOM      3  C3  DEN d   1       3.047   3.452   1.478  0.00  0.00     0.027 A 
ATOM      4  C4  DEN d   1       0.932   4.353   0.308  0.00  0.00     0.027 A 
ATOM      5  C5  DEN d   1      -0.425   4.178   0.152  0.00  0.00    -0.003 A 
ATOM      6  C6  DEN d   1      -1.108   3.167   0.775  0.00  0.00     0.001 A 
ATOM      7  C7  DEN d   1      -0.442   2.319   1.620  0.00  0.00     0.017 A 
ATOM      8  C8  DEN d   1       0.928   2.484   1.777  0.00  0.00    -0.094 A 
ATOM      9  C9  DEN d   1       1.598   3.520   1.148  0.00  0.00    -0.072 A 
ENDROOT
TORSDOF 0
ENDMDL
