MODEL 1
REMARK minimizedAffinity 0.640712082
REMARK minimizedRMSD -1
REMARK  0 active torsions:
REMARK  status: ('A' for Active; 'I' for Inactive)
ROOT
ATOM      1  C1  DEN d   1       3.068   6.000   3.004  0.00  0.00     0.130 A 
ATOM      2  C2  DEN d   1       1.693   6.000   3.495  0.00  0.00    -0.031 A 
ATOM      3  C3  DEN d   1       1.124   4.658   3.259  0.00  0.00     0.027 A 
ATOM      4  C4  DEN d   1       2.234   2.590   2.190  0.00  0.00     0.027 A 
ATOM      5  C5  DEN d   1       3.386   2.109   1.608  0.00  0.00    -0.003 A 
ATOM      6  C6  DEN d   1       4.493   2.894   1.422  0.00  0.00     0.001 A 
ATOM      7  C7  DEN d   1       4.486   4.192   1.862  0.00  0.00     0.017 A 
ATOM      8  C8  DEN d   1       3.325   4.686   2.443  0.00  0.00    -0.094 A 
ATOM      9  C9  DEN d   1       2.221   3.872   2.633  0.00  0.00    -0.072 A 
ENDROOT
TORSDOF 0
ENDMDL
