MODEL 1
REMARK minimizedAffinity 4.95538616
REMARK minimizedRMSD -1
REMARK  0 active torsions:
REMARK  status: ('A' for Active; 'I' for Inactive)
ROOT
ATOM      1  C1  DEN d   1      -0.089   3.444   0.964  0.00  0.00     0.130 A 
ATOM      2  C2  DEN d   1      -1.058   2.411   0.611  0.00  0.00    -0.031 A 
ATOM      3  C3  DEN d   1      -0.319   1.154   0.375  0.00  0.00     0.027 A 
ATOM      4  C4  DEN d   1       2.217   0.709   0.528  0.00  0.00     0.027 A 
ATOM      5  C5  DEN d   1       3.443   1.281   0.782  0.00  0.00    -0.003 A 
ATOM      6  C6  DEN d   1       3.581   2.611   1.078  0.00  0.00     0.001 A 
ATOM      7  C7  DEN d   1       2.468   3.404   1.173  0.00  0.00     0.017 A 
ATOM      8  C8  DEN d   1       1.229   2.836   0.911  0.00  0.00    -0.094 A 
ATOM      9  C9  DEN d   1       1.109   1.487   0.624  0.00  0.00    -0.072 A 
ENDROOT
TORSDOF 0
ENDMDL
