MODEL 1
REMARK minimizedAffinity -2.2760458
REMARK minimizedRMSD -1
REMARK  2 active torsions:
REMARK  status: ('A' for Active; 'I' for Inactive)
REMARK    1  A    between atoms: C2'_3  and  C1'_4 
REMARK    2  A    between atoms: C1'_4  and  C1_5 
ROOT
ATOM      1  C1  I4B d   1      -0.913  -0.010  -2.150  0.00  0.00    -0.075 A 
ATOM      2  C2  I4B d   1      -0.917  -0.012  -3.523  0.00  0.00     0.003 A 
ATOM      3  C3  I4B d   1      -2.140   0.057  -4.232  0.00  0.00     0.002 A 
ATOM      4  C4  I4B d   1      -3.331   0.075  -3.534  0.00  0.00    -0.004 A 
ATOM      5  C5  I4B d   1      -3.324   0.100  -2.143  0.00  0.00     0.002 A 
ATOM      6  C6  I4B d   1      -2.107   0.069  -1.446  0.00  0.00     0.003 A 
ENDROOT
BRANCH   1   7
ATOM      7  C1' I4B d   1       0.396  -0.117  -1.433  0.00  0.00     0.060 C 
BRANCH   7   8
ATOM      8  C2' I4B d   1       0.494   1.044  -0.465  0.00  0.00    -0.013 C 
ATOM      9  C4' I4B d   1       0.498   0.565   0.963  0.00  0.00     0.013 C 
ATOM     10  C3' I4B d   1       1.744   1.808  -0.784  0.00  0.00     0.013 C 
ENDBRANCH   7   8
ENDBRANCH   1   7
TORSDOF 2
ENDMDL
