MODEL 1
REMARK minimizedAffinity -3.13601756
REMARK minimizedRMSD -1
REMARK  2 active torsions:
REMARK  status: ('A' for Active; 'I' for Inactive)
REMARK    1  A    between atoms: C2'_3  and  C1'_4 
REMARK    2  A    between atoms: C1'_4  and  C1_5 
ROOT
ATOM      1  C1  I4B d   1      -0.940   0.252  -0.595  0.00  0.00    -0.075 A 
ATOM      2  C2  I4B d   1      -0.154   1.003  -1.433  0.00  0.00     0.003 A 
ATOM      3  C3  I4B d   1       1.162   1.356  -1.049  0.00  0.00     0.002 A 
ATOM      4  C4  I4B d   1       1.631   0.983   0.194  0.00  0.00    -0.004 A 
ATOM      5  C5  I4B d   1       0.841   0.202   1.033  0.00  0.00     0.002 A 
ATOM      6  C6  I4B d   1      -0.449  -0.176   0.632  0.00  0.00     0.003 A 
ENDROOT
BRANCH   1   7
ATOM      7  C1' I4B d   1      -2.337  -0.075  -1.018  0.00  0.00     0.060 C 
BRANCH   7   8
ATOM      8  C2' I4B d   1      -2.272  -0.709  -2.392  0.00  0.00    -0.013 C 
ATOM      9  C4' I4B d   1      -2.773  -2.129  -2.362  0.00  0.00     0.013 C 
ATOM     10  C3' I4B d   1      -3.086   0.133  -3.329  0.00  0.00     0.013 C 
ENDBRANCH   7   8
ENDBRANCH   1   7
TORSDOF 2
ENDMDL
