MODEL 1
REMARK minimizedAffinity -4.43914127
REMARK minimizedRMSD -1
REMARK  2 active torsions:
REMARK  status: ('A' for Active; 'I' for Inactive)
REMARK    1  A    between atoms: C2'_3  and  C1'_4 
REMARK    2  A    between atoms: C1'_4  and  C1_5 
ROOT
ATOM      1  C1  I4B d   1      -0.764  -0.064   0.042  0.00  0.00    -0.075 A 
ATOM      2  C2  I4B d   1       0.224   0.874  -0.129  0.00  0.00     0.003 A 
ATOM      3  C3  I4B d   1       1.462   0.736   0.545  0.00  0.00     0.002 A 
ATOM      4  C4  I4B d   1       1.650  -0.320   1.413  0.00  0.00    -0.004 A 
ATOM      5  C5  I4B d   1       0.656  -1.282   1.568  0.00  0.00     0.002 A 
ATOM      6  C6  I4B d   1      -0.554  -1.160   0.869  0.00  0.00     0.003 A 
ENDROOT
BRANCH   1   7
ATOM      7  C1' I4B d   1      -2.071   0.130  -0.659  0.00  0.00     0.060 C 
BRANCH   7   8
ATOM      8  C2' I4B d   1      -1.834  -0.044  -2.145  0.00  0.00    -0.013 C 
ATOM      9  C4' I4B d   1      -2.611  -1.215  -2.687  0.00  0.00     0.013 C 
ATOM     10  C3' I4B d   1      -2.227   1.231  -2.829  0.00  0.00     0.013 C 
ENDBRANCH   7   8
ENDBRANCH   1   7
TORSDOF 2
ENDMDL
