MODEL 1
REMARK minimizedAffinity -2.32895851
REMARK minimizedRMSD -1
REMARK  2 active torsions:
REMARK  status: ('A' for Active; 'I' for Inactive)
REMARK    1  A    between atoms: C2'_3  and  C1'_4 
REMARK    2  A    between atoms: C1'_4  and  C1_5 
ROOT
ATOM      1  C1  I4B d   1       0.762  -0.003   0.007  0.00  0.00    -0.075 A 
ATOM      2  C2  I4B d   1       0.813  -1.055   0.887  0.00  0.00     0.003 A 
ATOM      3  C3  I4B d   1       1.734  -1.041   1.962  0.00  0.00     0.002 A 
ATOM      4  C4  I4B d   1       2.615   0.014   2.089  0.00  0.00    -0.004 A 
ATOM      5  C5  I4B d   1       2.547   1.090   1.209  0.00  0.00     0.002 A 
ATOM      6  C6  I4B d   1       1.606   1.088   0.168  0.00  0.00     0.003 A 
ENDROOT
BRANCH   1   7
ATOM      7  C1' I4B d   1      -0.201  -0.066  -1.137  0.00  0.00     0.060 C 
BRANCH   7   8
ATOM      8  C2' I4B d   1      -1.510   0.544  -0.678  0.00  0.00    -0.013 C 
ATOM      9  C4' I4B d   1      -2.585   0.374  -1.719  0.00  0.00     0.013 C 
ATOM     10  C3' I4B d   1      -1.898  -0.110   0.614  0.00  0.00     0.013 C 
ENDBRANCH   7   8
ENDBRANCH   1   7
TORSDOF 2
ENDMDL
