MODEL 1
REMARK minimizedAffinity -1.56537342
REMARK minimizedRMSD -1
REMARK  2 active torsions:
REMARK  status: ('A' for Active; 'I' for Inactive)
REMARK    1  A    between atoms: C2'_3  and  C1'_4 
REMARK    2  A    between atoms: C1'_4  and  C1_5 
ROOT
ATOM      1  C1  I4B d   1      -0.164  -0.101   0.171  0.00  0.00    -0.075 A 
ATOM      2  C2  I4B d   1       0.568   1.051   0.023  0.00  0.00     0.003 A 
ATOM      3  C3  I4B d   1       1.941   1.072   0.367  0.00  0.00     0.002 A 
ATOM      4  C4  I4B d   1       2.525  -0.059   0.899  0.00  0.00    -0.004 A 
ATOM      5  C5  I4B d   1       1.787  -1.232   1.028  0.00  0.00     0.002 A 
ATOM      6  C6  I4B d   1       0.437  -1.257   0.650  0.00  0.00     0.003 A 
ENDROOT
BRANCH   1   7
ATOM      7  C1' I4B d   1      -1.620  -0.078  -0.171  0.00  0.00     0.060 C 
BRANCH   7   8
ATOM      8  C2' I4B d   1      -1.745   0.109  -1.669  0.00  0.00    -0.013 C 
ATOM      9  C4' I4B d   1      -2.291  -1.130  -2.329  0.00  0.00     0.013 C 
ATOM     10  C3' I4B d   1      -2.634   1.291  -1.917  0.00  0.00     0.013 C 
ENDBRANCH   7   8
ENDBRANCH   1   7
TORSDOF 2
ENDMDL
