MODEL 1
REMARK minimizedAffinity 1.124367
REMARK minimizedRMSD -1
REMARK  2 active torsions:
REMARK  status: ('A' for Active; 'I' for Inactive)
REMARK    1  A    between atoms: C2'_3  and  C1'_4 
REMARK    2  A    between atoms: C1'_4  and  C1_5 
ROOT
ATOM      1  C1  I4B d   1       1.456  -0.223   1.186  0.00  0.00    -0.075 A 
ATOM      2  C2  I4B d   1       2.141   0.875   0.726  0.00  0.00     0.003 A 
ATOM      3  C3  I4B d   1       1.486   1.838  -0.078  0.00  0.00     0.002 A 
ATOM      4  C4  I4B d   1       0.169   1.641  -0.438  0.00  0.00    -0.004 A 
ATOM      5  C5  I4B d   1      -0.531   0.540   0.048  0.00  0.00     0.002 A 
ATOM      6  C6  I4B d   1       0.113  -0.392   0.875  0.00  0.00     0.003 A 
ENDROOT
BRANCH   1   7
ATOM      7  C1' I4B d   1       2.188  -1.238   2.005  0.00  0.00     0.060 C 
BRANCH   7   8
ATOM      8  C2' I4B d   1       1.163  -2.026   2.795  0.00  0.00    -0.013 C 
ATOM      9  C4' I4B d   1       1.149  -3.473   2.378  0.00  0.00     0.013 C 
ATOM     10  C3' I4B d   1       1.493  -1.886   4.251  0.00  0.00     0.013 C 
ENDBRANCH   7   8
ENDBRANCH   1   7
TORSDOF 2
ENDMDL
