MODEL 1
REMARK minimizedAffinity -4.00249958
REMARK minimizedRMSD -1
REMARK  2 active torsions:
REMARK  status: ('A' for Active; 'I' for Inactive)
REMARK    1  A    between atoms: C2'_3  and  C1'_4 
REMARK    2  A    between atoms: C1'_4  and  C1_5 
ROOT
ATOM      1  C1  I4B d   1      -0.232   0.223  -0.087  0.00  0.00    -0.075 A 
ATOM      2  C2  I4B d   1       0.255   1.325  -0.744  0.00  0.00     0.003 A 
ATOM      3  C3  I4B d   1       1.589   1.750  -0.533  0.00  0.00     0.002 A 
ATOM      4  C4  I4B d   1       2.380   1.078   0.377  0.00  0.00    -0.004 A 
ATOM      5  C5  I4B d   1       1.892  -0.053   1.025  0.00  0.00     0.002 A 
ATOM      6  C6  I4B d   1       0.582  -0.491   0.782  0.00  0.00     0.003 A 
ENDROOT
BRANCH   1   7
ATOM      7  C1' I4B d   1      -1.655  -0.179  -0.309  0.00  0.00     0.060 C 
BRANCH   7   8
ATOM      8  C2' I4B d   1      -2.004   0.119  -1.754  0.00  0.00    -0.013 C 
ATOM      9  C4' I4B d   1      -2.312  -1.146  -2.511  0.00  0.00     0.013 C 
ATOM     10  C3' I4B d   1      -3.176   1.055  -1.764  0.00  0.00     0.013 C 
ENDBRANCH   7   8
ENDBRANCH   1   7
TORSDOF 2
ENDMDL
