MODEL 1
REMARK minimizedAffinity -3.33824968
REMARK minimizedRMSD -1
REMARK  2 active torsions:
REMARK  status: ('A' for Active; 'I' for Inactive)
REMARK    1  A    between atoms: C1_2  and  C2_3 
REMARK    2  A    between atoms: C2_3  and  C3_4 
ROOT
ATOM      1  C3  UNL d   1       1.758  -2.700  -0.110  0.00  0.00    -0.075 A 
ATOM      2  C4  UNL d   1       2.321  -1.421  -0.000  0.00  0.00     0.002 A 
ATOM      3  C5  UNL d   1       1.589  -0.370   0.555  0.00  0.00     0.002 A 
ATOM      4  C6  UNL d   1       0.286  -0.583   0.998  0.00  0.00    -0.004 A 
ATOM      5  C7  UNL d   1      -0.289  -1.847   0.878  0.00  0.00     0.002 A 
ATOM      6  C8  UNL d   1       0.442  -2.900   0.327  0.00  0.00     0.002 A 
ENDROOT
BRANCH   1   7
ATOM      7  C2  UNL d   1       2.554  -3.848  -0.684  0.00  0.00     0.056 C 
BRANCH   7   8
ATOM      8  C1  UNL d   1       4.072  -3.638  -0.639  0.00  0.00     0.007 C 
ATOM      9  C   UNL d   1       4.854  -4.938  -0.515  0.00  0.00     0.009 C 
ENDBRANCH   7   8
ENDBRANCH   1   7
TORSDOF 2
ENDMDL
