MODEL 1
REMARK minimizedAffinity -2.83724999
REMARK minimizedRMSD -1
REMARK  2 active torsions:
REMARK  status: ('A' for Active; 'I' for Inactive)
REMARK    1  A    between atoms: C1_2  and  C2_3 
REMARK    2  A    between atoms: C2_3  and  C3_4 
ROOT
ATOM      1  C3  UNL d   1       1.976  -1.219   0.176  0.00  0.00    -0.075 A 
ATOM      2  C4  UNL d   1       2.426  -0.577   1.339  0.00  0.00     0.002 A 
ATOM      3  C5  UNL d   1       1.543   0.164   2.125  0.00  0.00     0.002 A 
ATOM      4  C6  UNL d   1       0.205   0.280   1.755  0.00  0.00    -0.004 A 
ATOM      5  C7  UNL d   1      -0.249  -0.340   0.593  0.00  0.00     0.002 A 
ATOM      6  C8  UNL d   1       0.631  -1.085  -0.194  0.00  0.00     0.002 A 
ENDROOT
BRANCH   1   7
ATOM      7  C2  UNL d   1       2.920  -2.046  -0.664  0.00  0.00     0.056 C 
BRANCH   7   8
ATOM      8  C1  UNL d   1       2.451  -3.487  -0.894  0.00  0.00     0.007 C 
ATOM      9  C   UNL d   1       1.801  -4.110   0.335  0.00  0.00     0.009 C 
ENDBRANCH   7   8
ENDBRANCH   1   7
TORSDOF 2
ENDMDL
