MODEL 1
REMARK minimizedAffinity -2.96434951
REMARK minimizedRMSD -1
REMARK  2 active torsions:
REMARK  status: ('A' for Active; 'I' for Inactive)
REMARK    1  A    between atoms: C1_2  and  C2_3 
REMARK    2  A    between atoms: C2_3  and  C3_4 
ROOT
ATOM      1  C3  UNL d   1       3.756  -3.757   0.003  0.00  0.00    -0.075 A 
ATOM      2  C4  UNL d   1       4.002  -2.376   0.009  0.00  0.00     0.002 A 
ATOM      3  C5  UNL d   1       3.004  -1.480   0.392  0.00  0.00     0.002 A 
ATOM      4  C6  UNL d   1       1.746  -1.950   0.764  0.00  0.00    -0.004 A 
ATOM      5  C7  UNL d   1       1.485  -3.319   0.746  0.00  0.00     0.002 A 
ATOM      6  C8  UNL d   1       2.484  -4.218   0.367  0.00  0.00     0.002 A 
ENDROOT
BRANCH   1   7
ATOM      7  C2  UNL d   1       4.841  -4.733  -0.382  0.00  0.00     0.056 C 
BRANCH   7   8
ATOM      8  C1  UNL d   1       4.875  -6.000   0.481  0.00  0.00     0.007 C 
ATOM      9  C   UNL d   1       5.998  -5.996   1.509  0.00  0.00     0.009 C 
ENDBRANCH   7   8
ENDBRANCH   1   7
TORSDOF 2
ENDMDL
