MODEL 1
REMARK minimizedAffinity 4.66676712
REMARK minimizedRMSD -1
REMARK  2 active torsions:
REMARK  status: ('A' for Active; 'I' for Inactive)
REMARK    1  A    between atoms: C1_2  and  C2_3 
REMARK    2  A    between atoms: C2_3  and  C3_4 
ROOT
ATOM      1  C3  UNL d   1       1.968  -1.690   0.500  0.00  0.00    -0.075 A 
ATOM      2  C4  UNL d   1       1.315  -1.117   1.600  0.00  0.00     0.002 A 
ATOM      3  C5  UNL d   1      -0.016  -1.433   1.877  0.00  0.00     0.002 A 
ATOM      4  C6  UNL d   1      -0.711  -2.316   1.054  0.00  0.00    -0.004 A 
ATOM      5  C7  UNL d   1      -0.076  -2.879  -0.051  0.00  0.00     0.002 A 
ATOM      6  C8  UNL d   1       1.256  -2.567  -0.328  0.00  0.00     0.002 A 
ENDROOT
BRANCH   1   7
ATOM      7  C2  UNL d   1       3.417  -1.375   0.212  0.00  0.00     0.056 C 
BRANCH   7   8
ATOM      8  C1  UNL d   1       4.254  -1.088   1.463  0.00  0.00     0.007 C 
ATOM      9  C   UNL d   1       5.690  -1.582   1.351  0.00  0.00     0.009 C 
ENDBRANCH   7   8
ENDBRANCH   1   7
TORSDOF 2
ENDMDL
