MODEL 1
REMARK minimizedAffinity 0.906372011
REMARK minimizedRMSD -1
REMARK  2 active torsions:
REMARK  status: ('A' for Active; 'I' for Inactive)
REMARK    1  A    between atoms: C1_2  and  C2_3 
REMARK    2  A    between atoms: C2_3  and  C3_4 
ROOT
ATOM      1  C3  UNL d   1       0.921  -2.036  -0.248  0.00  0.00    -0.075 A 
ATOM      2  C4  UNL d   1       1.812  -1.131   0.347  0.00  0.00     0.002 A 
ATOM      3  C5  UNL d   1       1.374  -0.257   1.342  0.00  0.00     0.002 A 
ATOM      4  C6  UNL d   1       0.041  -0.268   1.747  0.00  0.00    -0.004 A 
ATOM      5  C7  UNL d   1      -0.856  -1.151   1.151  0.00  0.00     0.002 A 
ATOM      6  C8  UNL d   1      -0.420  -2.031   0.158  0.00  0.00     0.002 A 
ENDROOT
BRANCH   1   7
ATOM      7  C2  UNL d   1       1.395  -3.006  -1.304  0.00  0.00     0.056 C 
BRANCH   7   8
ATOM      8  C1  UNL d   1       0.325  -3.373  -2.338  0.00  0.00     0.007 C 
ATOM      9  C   UNL d   1       0.906  -3.740  -3.698  0.00  0.00     0.009 C 
ENDBRANCH   7   8
ENDBRANCH   1   7
TORSDOF 2
ENDMDL
