MODEL 1
REMARK minimizedAffinity 4.35847998
REMARK minimizedRMSD -1
REMARK  2 active torsions:
REMARK  status: ('A' for Active; 'I' for Inactive)
REMARK    1  A    between atoms: C1_2  and  C2_3 
REMARK    2  A    between atoms: C2_3  and  C3_4 
ROOT
ATOM      1  C3  UNL d   1       0.915  -0.898   1.686  0.00  0.00    -0.075 A 
ATOM      2  C4  UNL d   1       0.658  -1.956   0.802  0.00  0.00     0.002 A 
ATOM      3  C5  UNL d   1      -0.653  -2.326   0.502  0.00  0.00     0.002 A 
ATOM      4  C6  UNL d   1      -1.722  -1.651   1.087  0.00  0.00    -0.004 A 
ATOM      5  C7  UNL d   1      -1.479  -0.609   1.979  0.00  0.00     0.002 A 
ATOM      6  C8  UNL d   1      -0.168  -0.234   2.278  0.00  0.00     0.002 A 
ENDROOT
BRANCH   1   7
ATOM      7  C2  UNL d   1       2.331  -0.474   1.992  0.00  0.00     0.056 C 
BRANCH   7   8
ATOM      8  C1  UNL d   1       3.279  -0.548   0.791  0.00  0.00     0.007 C 
ATOM      9  C   UNL d   1       3.031   0.547  -0.238  0.00  0.00     0.009 C 
ENDBRANCH   7   8
ENDBRANCH   1   7
TORSDOF 2
ENDMDL
