MODEL 1
REMARK minimizedAffinity 2.79476118
REMARK minimizedRMSD -1
REMARK  2 active torsions:
REMARK  status: ('A' for Active; 'I' for Inactive)
REMARK    1  A    between atoms: C1_2  and  C2_3 
REMARK    2  A    between atoms: C2_3  and  C3_4 
ROOT
ATOM      1  C3  UNL d   1       2.401  -3.194   0.006  0.00  0.00    -0.075 A 
ATOM      2  C4  UNL d   1       2.257  -1.907   0.546  0.00  0.00     0.002 A 
ATOM      3  C5  UNL d   1       0.990  -1.344   0.704  0.00  0.00     0.002 A 
ATOM      4  C6  UNL d   1      -0.144  -2.052   0.315  0.00  0.00    -0.004 A 
ATOM      5  C7  UNL d   1      -0.011  -3.324  -0.239  0.00  0.00     0.002 A 
ATOM      6  C8  UNL d   1       1.254  -3.892  -0.393  0.00  0.00     0.002 A 
ENDROOT
BRANCH   1   7
ATOM      7  C2  UNL d   1       3.767  -3.821  -0.140  0.00  0.00     0.056 C 
BRANCH   7   8
ATOM      8  C1  UNL d   1       3.742  -5.349  -0.256  0.00  0.00     0.007 C 
ATOM      9  C   UNL d   1       5.073  -6.000   0.098  0.00  0.00     0.009 C 
ENDBRANCH   7   8
ENDBRANCH   1   7
TORSDOF 2
ENDMDL
