MODEL 1
REMARK minimizedAffinity 11.4354324
REMARK minimizedRMSD -1
REMARK  2 active torsions:
REMARK  status: ('A' for Active; 'I' for Inactive)
REMARK    1  A    between atoms: C1_2  and  C2_3 
REMARK    2  A    between atoms: C2_3  and  C3_4 
ROOT
ATOM      1  C3  UNL d   1       4.574  -0.018  -2.162  0.00  0.00    -0.075 A 
ATOM      2  C4  UNL d   1       3.365   0.500  -1.675  0.00  0.00     0.002 A 
ATOM      3  C5  UNL d   1       2.362   0.905  -2.556  0.00  0.00     0.002 A 
ATOM      4  C6  UNL d   1       2.558   0.807  -3.932  0.00  0.00    -0.004 A 
ATOM      5  C7  UNL d   1       3.761   0.309  -4.427  0.00  0.00     0.002 A 
ATOM      6  C8  UNL d   1       4.765  -0.101  -3.548  0.00  0.00     0.002 A 
ENDROOT
BRANCH   1   7
ATOM      7  C2  UNL d   1       5.652  -0.486  -1.214  0.00  0.00     0.056 C 
BRANCH   7   8
ATOM      8  C1  UNL d   1       5.119  -1.047   0.109  0.00  0.00     0.007 C 
ATOM      9  C   UNL d   1       5.997  -0.703   1.305  0.00  0.00     0.009 C 
ENDBRANCH   7   8
ENDBRANCH   1   7
TORSDOF 2
ENDMDL
