MODEL 1
REMARK minimizedAffinity 0.351231247
REMARK minimizedRMSD -1
REMARK  2 active torsions:
REMARK  status: ('A' for Active; 'I' for Inactive)
REMARK    1  A    between atoms: C1_2  and  C2_3 
REMARK    2  A    between atoms: C2_3  and  C3_4 
ROOT
ATOM      1  C3  UNL d   1       3.340  -3.774  -0.127  0.00  0.00    -0.075 A 
ATOM      2  C4  UNL d   1       3.352  -2.458   0.357  0.00  0.00     0.002 A 
ATOM      3  C5  UNL d   1       2.156  -1.771   0.571  0.00  0.00     0.002 A 
ATOM      4  C6  UNL d   1       0.937  -2.386   0.294  0.00  0.00    -0.004 A 
ATOM      5  C7  UNL d   1       0.915  -3.687  -0.203  0.00  0.00     0.002 A 
ATOM      6  C8  UNL d   1       2.109  -4.378  -0.414  0.00  0.00     0.002 A 
ENDROOT
BRANCH   1   7
ATOM      7  C2  UNL d   1       4.630  -4.533  -0.333  0.00  0.00     0.056 C 
BRANCH   7   8
ATOM      8  C1  UNL d   1       4.709  -5.849   0.447  0.00  0.00     0.007 C 
ATOM      9  C   UNL d   1       6.000  -6.000   1.241  0.00  0.00     0.009 C 
ENDBRANCH   7   8
ENDBRANCH   1   7
TORSDOF 2
ENDMDL
