MODEL 1
REMARK minimizedAffinity -0.382426232
REMARK minimizedRMSD -1
REMARK  2 active torsions:
REMARK  status: ('A' for Active; 'I' for Inactive)
REMARK    1  A    between atoms: C1_2  and  C2_3 
REMARK    2  A    between atoms: C2_3  and  C3_4 
ROOT
ATOM      1  C3  UNL d   1       2.541  -2.877   0.084  0.00  0.00    -0.075 A 
ATOM      2  C4  UNL d   1       2.977  -1.618   0.521  0.00  0.00     0.002 A 
ATOM      3  C5  UNL d   1       2.065  -0.682   1.008  0.00  0.00     0.002 A 
ATOM      4  C6  UNL d   1       0.706  -0.988   1.055  0.00  0.00    -0.004 A 
ATOM      5  C7  UNL d   1       0.260  -2.229   0.608  0.00  0.00     0.002 A 
ATOM      6  C8  UNL d   1       1.171  -3.169   0.124  0.00  0.00     0.002 A 
ENDROOT
BRANCH   1   7
ATOM      7  C2  UNL d   1       3.527  -3.905  -0.417  0.00  0.00     0.056 C 
BRANCH   7   8
ATOM      8  C1  UNL d   1       3.592  -5.175   0.438  0.00  0.00     0.007 C 
ATOM      9  C   UNL d   1       4.890  -5.952   0.260  0.00  0.00     0.009 C 
ENDBRANCH   7   8
ENDBRANCH   1   7
TORSDOF 2
ENDMDL
