MODEL 1
REMARK minimizedAffinity -5.97915459
REMARK minimizedRMSD -1
REMARK  1 active torsions:
REMARK  status: ('A' for Active; 'I' for Inactive)
REMARK    1  A    between atoms: C1_2  and  C2_3 
ROOT
ATOM      1  C2  UNL d   1      -0.305   0.571  -0.230  0.00  0.00    -0.081 A 
ATOM      2  C3  UNL d   1      -0.095  -0.767  -0.582  0.00  0.00     0.006 A 
ATOM      3  C4  UNL d   1       1.098  -1.410  -0.243  0.00  0.00     0.002 A 
ATOM      4  C5  UNL d   1       2.097  -0.728   0.460  0.00  0.00    -0.080 A 
ATOM      5  C6  UNL d   1       3.369  -1.415   0.857  0.00  0.00     0.076 C 
ATOM      6  C7  UNL d   1       1.894   0.615   0.797  0.00  0.00     0.002 A 
ATOM      7  C8  UNL d   1       0.702   1.258   0.458  0.00  0.00     0.006 A 
ENDROOT
BRANCH   1   8
ATOM      8  C1  UNL d   1      -1.617   1.248  -0.537  0.00  0.00     0.054 C 
ATOM      9  C   UNL d   1      -2.523   1.279   0.685  0.00  0.00     0.018 C 
ENDBRANCH   1   8
TORSDOF 1
ENDMDL
