MODEL 1
REMARK minimizedAffinity -5.30258083
REMARK minimizedRMSD -1
REMARK  1 active torsions:
REMARK  status: ('A' for Active; 'I' for Inactive)
REMARK    1  A    between atoms: C1_2  and  C2_3 
ROOT
ATOM      1  C2  UNL d   1      -1.393   0.328  -0.037  0.00  0.00    -0.081 A 
ATOM      2  C3  UNL d   1      -1.229  -1.007  -0.425  0.00  0.00     0.006 A 
ATOM      3  C4  UNL d   1       0.024  -1.618  -0.346  0.00  0.00     0.002 A 
ATOM      4  C5  UNL d   1       1.132  -0.908   0.130  0.00  0.00    -0.080 A 
ATOM      5  C6  UNL d   1       2.477  -1.562   0.249  0.00  0.00     0.076 C 
ATOM      6  C7  UNL d   1       0.972   0.431   0.501  0.00  0.00     0.002 A 
ATOM      7  C8  UNL d   1      -0.281   1.043   0.421  0.00  0.00     0.006 A 
ENDROOT
BRANCH   1   8
ATOM      8  C1  UNL d   1      -2.756   0.971  -0.061  0.00  0.00     0.054 C 
ATOM      9  C   UNL d   1      -3.343   1.076   1.340  0.00  0.00     0.018 C 
ENDBRANCH   1   8
TORSDOF 1
ENDMDL
