MODEL 1
REMARK minimizedAffinity -3.11115527
REMARK minimizedRMSD -1
REMARK  1 active torsions:
REMARK  status: ('A' for Active; 'I' for Inactive)
REMARK    1  A    between atoms: C1_2  and  C2_3 
ROOT
ATOM      1  C2  UNL d   1      -0.092   0.389  -0.407  0.00  0.00    -0.081 A 
ATOM      2  C3  UNL d   1       0.818  -0.669  -0.524  0.00  0.00     0.006 A 
ATOM      3  C4  UNL d   1       2.193  -0.421  -0.550  0.00  0.00     0.002 A 
ATOM      4  C5  UNL d   1       2.680   0.886  -0.450  0.00  0.00    -0.080 A 
ATOM      5  C6  UNL d   1       4.154   1.163  -0.446  0.00  0.00     0.076 C 
ATOM      6  C7  UNL d   1       1.771   1.945  -0.351  0.00  0.00     0.002 A 
ATOM      7  C8  UNL d   1       0.397   1.698  -0.326  0.00  0.00     0.006 A 
ENDROOT
BRANCH   1   8
ATOM      8  C1  UNL d   1      -1.572   0.120  -0.314  0.00  0.00     0.054 C 
ATOM      9  C   UNL d   1      -2.204   0.896   0.833  0.00  0.00     0.018 C 
ENDBRANCH   1   8
TORSDOF 1
ENDMDL
