MODEL 1
REMARK minimizedAffinity -2.44098115
REMARK minimizedRMSD -1
REMARK  1 active torsions:
REMARK  status: ('A' for Active; 'I' for Inactive)
REMARK    1  A    between atoms: C1_2  and  C2_3 
ROOT
ATOM      1  C2  UNL d   1      -0.193   0.095  -0.469  0.00  0.00    -0.081 A 
ATOM      2  C3  UNL d   1       0.207  -1.246  -0.498  0.00  0.00     0.006 A 
ATOM      3  C4  UNL d   1       1.563  -1.581  -0.495  0.00  0.00     0.002 A 
ATOM      4  C5  UNL d   1       2.541  -0.581  -0.455  0.00  0.00    -0.080 A 
ATOM      5  C6  UNL d   1       4.000  -0.927  -0.421  0.00  0.00     0.076 C 
ATOM      6  C7  UNL d   1       2.141   0.760  -0.444  0.00  0.00     0.002 A 
ATOM      7  C8  UNL d   1       0.785   1.095  -0.447  0.00  0.00     0.006 A 
ENDROOT
BRANCH   1   8
ATOM      8  C1  UNL d   1      -1.655   0.457  -0.406  0.00  0.00     0.054 C 
ATOM      9  C   UNL d   1      -2.162   0.468   1.029  0.00  0.00     0.018 C 
ENDBRANCH   1   8
TORSDOF 1
ENDMDL
