MODEL 1
REMARK minimizedAffinity -5.79049683
REMARK minimizedRMSD -1
REMARK  1 active torsions:
REMARK  status: ('A' for Active; 'I' for Inactive)
REMARK    1  A    between atoms: C1_2  and  C2_3 
ROOT
ATOM      1  C2  UNL d   1       2.150   0.276   0.610  0.00  0.00    -0.081 A 
ATOM      2  C3  UNL d   1       2.506  -1.076   0.533  0.00  0.00     0.006 A 
ATOM      3  C4  UNL d   1       1.618  -2.013   0.000  0.00  0.00     0.002 A 
ATOM      4  C5  UNL d   1       0.363  -1.613  -0.472  0.00  0.00    -0.080 A 
ATOM      5  C6  UNL d   1      -0.588  -2.604  -1.075  0.00  0.00     0.076 C 
ATOM      6  C7  UNL d   1       0.000  -0.265  -0.379  0.00  0.00     0.002 A 
ATOM      7  C8  UNL d   1       0.887   0.672   0.154  0.00  0.00     0.006 A 
ENDROOT
BRANCH   1   8
ATOM      8  C1  UNL d   1       3.130   1.299   1.125  0.00  0.00     0.054 C 
ATOM      9  C   UNL d   1       3.000   2.617   0.375  0.00  0.00     0.018 C 
ENDBRANCH   1   8
TORSDOF 1
ENDMDL
