MODEL 1
REMARK minimizedAffinity -4.15873432
REMARK minimizedRMSD -1
REMARK  1 active torsions:
REMARK  status: ('A' for Active; 'I' for Inactive)
REMARK    1  A    between atoms: C1_2  and  C2_3 
ROOT
ATOM      1  C2  UNL d   1       3.133   0.381  -0.080  0.00  0.00    -0.081 A 
ATOM      2  C3  UNL d   1       1.890   1.022  -0.152  0.00  0.00     0.006 A 
ATOM      3  C4  UNL d   1       0.713   0.316   0.108  0.00  0.00     0.002 A 
ATOM      4  C5  UNL d   1       0.759  -1.039   0.451  0.00  0.00    -0.080 A 
ATOM      5  C6  UNL d   1      -0.495  -1.801   0.761  0.00  0.00     0.076 C 
ATOM      6  C7  UNL d   1       1.999  -1.684   0.506  0.00  0.00     0.002 A 
ATOM      7  C8  UNL d   1       3.177  -0.979   0.246  0.00  0.00     0.006 A 
ENDROOT
BRANCH   1   8
ATOM      8  C1  UNL d   1       4.409   1.154  -0.296  0.00  0.00     0.054 C 
ATOM      9  C   UNL d   1       5.015   0.853  -1.659  0.00  0.00     0.018 C 
ENDBRANCH   1   8
TORSDOF 1
ENDMDL
