MODEL 1
REMARK minimizedAffinity 14.06215
REMARK minimizedRMSD -1
REMARK  0 active torsions:
REMARK  status: ('A' for Active; 'I' for Inactive)
ROOT
ATOM      1  C   UNL d   1       3.116   1.449  -0.243  0.00  0.00     0.020 A 
ATOM      2  C1  UNL d   1       3.275   1.121   1.103  0.00  0.00     0.020 A 
ATOM      3  C2  UNL d   1       4.170   1.841   1.896  0.00  0.00     0.034 A 
ATOM      4  C3  UNL d   1       4.911   2.893   1.345  0.00  0.00     0.017 A 
ATOM      5  C4  UNL d   1       4.751   3.222  -0.006  0.00  0.00     0.017 A 
ATOM      6  C5  UNL d   1       3.853   2.497  -0.796  0.00  0.00     0.034 A 
ATOM      7 Cl   UNL d   1       5.629   4.506  -0.758  0.00  0.00    -0.070 Cl
ATOM      8 Cl1  UNL d   1       6.000   3.741   2.384  0.00  0.00    -0.070 Cl
ENDROOT
TORSDOF 0
ENDMDL
