MODEL 1
REMARK minimizedAffinity 12.6323433
REMARK minimizedRMSD -1
REMARK  0 active torsions:
REMARK  status: ('A' for Active; 'I' for Inactive)
ROOT
ATOM      1  C   UNL d   1       2.269   1.051  -0.657  0.00  0.00     0.020 A 
ATOM      2  C1  UNL d   1       1.121   1.639  -0.127  0.00  0.00     0.020 A 
ATOM      3  C2  UNL d   1       0.614   2.812  -0.690  0.00  0.00     0.034 A 
ATOM      4  C3  UNL d   1       1.255   3.401  -1.786  0.00  0.00     0.017 A 
ATOM      5  C4  UNL d   1       2.407   2.811  -2.316  0.00  0.00     0.017 A 
ATOM      6  C5  UNL d   1       2.911   1.636  -1.749  0.00  0.00     0.034 A 
ATOM      7 Cl   UNL d   1       3.254   3.479  -3.667  0.00  0.00    -0.070 Cl
ATOM      8 Cl1  UNL d   1       0.573   4.852  -2.431  0.00  0.00    -0.070 Cl
ENDROOT
TORSDOF 0
ENDMDL
