MODEL 1
REMARK minimizedAffinity 14.1376295
REMARK minimizedRMSD -1
REMARK  0 active torsions:
REMARK  status: ('A' for Active; 'I' for Inactive)
ROOT
ATOM      1  C   UNL d   1       5.634   5.999  -0.784  0.00  0.00     0.020 A 
ATOM      2  C1  UNL d   1       4.454   5.481  -0.251  0.00  0.00     0.020 A 
ATOM      3  C2  UNL d   1       3.639   4.656  -1.029  0.00  0.00     0.034 A 
ATOM      4  C3  UNL d   1       4.002   4.348  -2.346  0.00  0.00     0.017 A 
ATOM      5  C4  UNL d   1       5.186   4.868  -2.880  0.00  0.00     0.017 A 
ATOM      6  C5  UNL d   1       5.999   5.693  -2.096  0.00  0.00     0.034 A 
ATOM      7 Cl   UNL d   1       5.700   4.532  -4.495  0.00  0.00    -0.070 Cl
ATOM      8 Cl1  UNL d   1       2.947   3.322  -3.251  0.00  0.00    -0.070 Cl
ENDROOT
TORSDOF 0
ENDMDL
