MODEL 1
REMARK minimizedAffinity 8.52670479
REMARK minimizedRMSD -1
REMARK  0 active torsions:
REMARK  status: ('A' for Active; 'I' for Inactive)
ROOT
ATOM      1  C   UNL d   1       0.096   6.000  -1.666  0.00  0.00     0.020 A 
ATOM      2  C1  UNL d   1       0.755   5.703  -2.858  0.00  0.00     0.020 A 
ATOM      3  C2  UNL d   1       0.022   5.326  -3.986  0.00  0.00     0.034 A 
ATOM      4  C3  UNL d   1      -1.374   5.245  -3.923  0.00  0.00     0.017 A 
ATOM      5  C4  UNL d   1      -2.034   5.544  -2.725  0.00  0.00     0.017 A 
ATOM      6  C5  UNL d   1      -1.295   5.921  -1.600  0.00  0.00     0.034 A 
ATOM      7 Cl   UNL d   1      -3.754   5.467  -2.571  0.00  0.00    -0.070 Cl
ATOM      8 Cl1  UNL d   1      -2.217   4.773  -5.356  0.00  0.00    -0.070 Cl
ENDROOT
TORSDOF 0
ENDMDL
