MODEL 1
REMARK minimizedAffinity 11.6272488
REMARK minimizedRMSD -1
REMARK  0 active torsions:
REMARK  status: ('A' for Active; 'I' for Inactive)
ROOT
ATOM      1  C   UNL d   1      -5.960  -0.514  -2.190  0.00  0.00     0.020 A 
ATOM      2  C1  UNL d   1      -5.815   0.615  -2.997  0.00  0.00     0.020 A 
ATOM      3  C2  UNL d   1      -5.492   1.846  -2.423  0.00  0.00     0.034 A 
ATOM      4  C3  UNL d   1      -5.314   1.953  -1.039  0.00  0.00     0.017 A 
ATOM      5  C4  UNL d   1      -5.459   0.820  -0.230  0.00  0.00     0.017 A 
ATOM      6  C5  UNL d   1      -5.782  -0.411  -0.810  0.00  0.00     0.034 A 
ATOM      7 Cl   UNL d   1      -5.255   0.873   1.485  0.00  0.00    -0.070 Cl
ATOM      8 Cl1  UNL d   1      -4.916   3.507  -0.398  0.00  0.00    -0.070 Cl
ENDROOT
TORSDOF 0
ENDMDL
