MODEL 1
REMARK minimizedAffinity 12.7118549
REMARK minimizedRMSD -1
REMARK  0 active torsions:
REMARK  status: ('A' for Active; 'I' for Inactive)
ROOT
ATOM      1  C   UNL d   1       2.436   2.629  -3.813  0.00  0.00     0.020 A 
ATOM      2  C1  UNL d   1       2.230   2.991  -2.483  0.00  0.00     0.020 A 
ATOM      3  C2  UNL d   1       3.194   3.740  -1.805  0.00  0.00     0.034 A 
ATOM      4  C3  UNL d   1       4.369   4.130  -2.458  0.00  0.00     0.017 A 
ATOM      5  C4  UNL d   1       4.575   3.766  -3.793  0.00  0.00     0.017 A 
ATOM      6  C5  UNL d   1       3.606   3.016  -4.467  0.00  0.00     0.034 A 
ATOM      7 Cl   UNL d   1       6.000   4.210  -4.665  0.00  0.00    -0.070 Cl
ATOM      8 Cl1  UNL d   1       5.518   5.055  -1.559  0.00  0.00    -0.070 Cl
ENDROOT
TORSDOF 0
ENDMDL
