MODEL 1
REMARK minimizedAffinity 19.5426559
REMARK minimizedRMSD -1
REMARK  0 active torsions:
REMARK  status: ('A' for Active; 'I' for Inactive)
ROOT
ATOM      1  C   UNL d   1      -4.204   5.388  -2.130  0.00  0.00     0.020 A 
ATOM      2  C1  UNL d   1      -3.437   5.390  -0.965  0.00  0.00     0.020 A 
ATOM      3  C2  UNL d   1      -2.044   5.443  -1.046  0.00  0.00     0.034 A 
ATOM      4  C3  UNL d   1      -1.413   5.494  -2.294  0.00  0.00     0.017 A 
ATOM      5  C4  UNL d   1      -2.183   5.492  -3.463  0.00  0.00     0.017 A 
ATOM      6  C5  UNL d   1      -3.578   5.438  -3.376  0.00  0.00     0.034 A 
ATOM      7 Cl   UNL d   1      -1.477   5.553  -5.039  0.00  0.00    -0.070 Cl
ATOM      8 Cl1  UNL d   1       0.313   5.559  -2.320  0.00  0.00    -0.070 Cl
ENDROOT
TORSDOF 0
ENDMDL
