MODEL 1
REMARK minimizedAffinity 6.04551411
REMARK minimizedRMSD -1
REMARK  0 active torsions:
REMARK  status: ('A' for Active; 'I' for Inactive)
ROOT
ATOM      1  C   UNL d   1      -3.908  -2.126   3.559  0.00  0.00     0.020 A 
ATOM      2  C1  UNL d   1      -5.093  -2.047   2.828  0.00  0.00     0.020 A 
ATOM      3  C2  UNL d   1      -5.166  -1.224   1.703  0.00  0.00     0.034 A 
ATOM      4  C3  UNL d   1      -4.052  -0.475   1.305  0.00  0.00     0.017 A 
ATOM      5  C4  UNL d   1      -2.863  -0.555   2.039  0.00  0.00     0.017 A 
ATOM      6  C5  UNL d   1      -2.796  -1.381   3.165  0.00  0.00     0.034 A 
ATOM      7 Cl   UNL d   1      -1.447   0.338   1.610  0.00  0.00    -0.070 Cl
ATOM      8 Cl1  UNL d   1      -4.213   0.522  -0.097  0.00  0.00    -0.070 Cl
ENDROOT
TORSDOF 0
ENDMDL
