MODEL 1
REMARK minimizedAffinity 11.9811668
REMARK minimizedRMSD -1
REMARK  0 active torsions:
REMARK  status: ('A' for Active; 'I' for Inactive)
ROOT
ATOM      1  C   UNL d   1       0.982   1.880  -0.799  0.00  0.00     0.020 A 
ATOM      2  C1  UNL d   1       2.328   1.613  -1.049  0.00  0.00     0.020 A 
ATOM      3  C2  UNL d   1       2.928   2.087  -2.217  0.00  0.00     0.034 A 
ATOM      4  C3  UNL d   1       2.183   2.830  -3.140  0.00  0.00     0.017 A 
ATOM      5  C4  UNL d   1       0.833   3.097  -2.889  0.00  0.00     0.017 A 
ATOM      6  C5  UNL d   1       0.236   2.620  -1.717  0.00  0.00     0.034 A 
ATOM      7 Cl   UNL d   1      -0.151   4.007  -3.980  0.00  0.00    -0.070 Cl
ATOM      8 Cl1  UNL d   1       2.991   3.385  -4.563  0.00  0.00    -0.070 Cl
ENDROOT
TORSDOF 0
ENDMDL
