MODEL 1
REMARK minimizedAffinity 14.2045259
REMARK minimizedRMSD -1
REMARK  0 active torsions:
REMARK  status: ('A' for Active; 'I' for Inactive)
ROOT
ATOM      1  C   UNL d   1       5.581   5.279  -2.954  0.00  0.00     0.020 A 
ATOM      2  C1  UNL d   1       5.999   5.219  -4.283  0.00  0.00     0.020 A 
ATOM      3  C2  UNL d   1       5.286   4.449  -5.204  0.00  0.00     0.034 A 
ATOM      4  C3  UNL d   1       4.153   3.735  -4.798  0.00  0.00     0.017 A 
ATOM      5  C4  UNL d   1       3.734   3.796  -3.464  0.00  0.00     0.017 A 
ATOM      6  C5  UNL d   1       4.451   4.569  -2.545  0.00  0.00     0.034 A 
ATOM      7 Cl   UNL d   1       2.346   2.943  -2.889  0.00  0.00    -0.070 Cl
ATOM      8 Cl1  UNL d   1       3.320   2.804  -5.992  0.00  0.00    -0.070 Cl
ENDROOT
TORSDOF 0
ENDMDL
