MODEL 1
REMARK minimizedAffinity 9.85237217
REMARK minimizedRMSD -1
REMARK  0 active torsions:
REMARK  status: ('A' for Active; 'I' for Inactive)
ROOT
ATOM      1  C   UNL d   1       6.000   4.879  -3.400  0.00  0.00     0.020 A 
ATOM      2  C1  UNL d   1       5.368   4.715  -2.168  0.00  0.00     0.020 A 
ATOM      3  C2  UNL d   1       4.102   4.130  -2.104  0.00  0.00     0.034 A 
ATOM      4  C3  UNL d   1       3.463   3.705  -3.275  0.00  0.00     0.017 A 
ATOM      5  C4  UNL d   1       4.098   3.870  -4.512  0.00  0.00     0.017 A 
ATOM      6  C5  UNL d   1       5.366   4.457  -4.569  0.00  0.00     0.034 A 
ATOM      7 Cl   UNL d   1       3.372   3.371  -5.999  0.00  0.00    -0.070 Cl
ATOM      8 Cl1  UNL d   1       1.898   2.989  -3.122  0.00  0.00    -0.070 Cl
ENDROOT
TORSDOF 0
ENDMDL
