MODEL 1
REMARK minimizedAffinity 11.1129656
REMARK minimizedRMSD -1
REMARK  0 active torsions:
REMARK  status: ('A' for Active; 'I' for Inactive)
ROOT
ATOM      1  C   UNL d   1      -1.598   0.251   3.032  0.00  0.00     0.020 A 
ATOM      2  C1  UNL d   1      -1.535  -0.752   2.066  0.00  0.00     0.020 A 
ATOM      3  C2  UNL d   1      -2.645  -1.017   1.261  0.00  0.00     0.034 A 
ATOM      4  C3  UNL d   1      -3.823  -0.278   1.420  0.00  0.00     0.017 A 
ATOM      5  C4  UNL d   1      -3.885   0.729   2.390  0.00  0.00     0.017 A 
ATOM      6  C5  UNL d   1      -2.771   0.990   3.194  0.00  0.00     0.034 A 
ATOM      7 Cl   UNL d   1      -5.303   1.684   2.646  0.00  0.00    -0.070 Cl
ATOM      8 Cl1  UNL d   1      -5.157  -0.659   0.390  0.00  0.00    -0.070 Cl
ENDROOT
TORSDOF 0
ENDMDL
