MODEL 1
REMARK minimizedAffinity -1.18542707
REMARK minimizedRMSD -1
REMARK  0 active torsions:
REMARK  status: ('A' for Active; 'I' for Inactive)
ROOT
ATOM      1  C   UNL d   1      -1.521  -0.574   2.249  0.00  0.00     0.020 A 
ATOM      2  C1  UNL d   1      -1.528   0.225   3.392  0.00  0.00     0.020 A 
ATOM      3  C2  UNL d   1      -2.727   0.770   3.855  0.00  0.00     0.034 A 
ATOM      4  C3  UNL d   1      -3.924   0.518   3.175  0.00  0.00     0.017 A 
ATOM      5  C4  UNL d   1      -3.916  -0.284   2.028  0.00  0.00     0.017 A 
ATOM      6  C5  UNL d   1      -2.712  -0.828   1.569  0.00  0.00     0.034 A 
ATOM      7 Cl   UNL d   1      -5.353  -0.640   1.136  0.00  0.00    -0.070 Cl
ATOM      8 Cl1  UNL d   1      -5.370   1.225   3.804  0.00  0.00    -0.070 Cl
ENDROOT
TORSDOF 0
ENDMDL
