MODEL 1
REMARK minimizedAffinity 16.4237213
REMARK minimizedRMSD -1
REMARK  0 active torsions:
REMARK  status: ('A' for Active; 'I' for Inactive)
ROOT
ATOM      1  C   UNL d   1      -2.134   1.075   3.601  0.00  0.00     0.020 A 
ATOM      2  C1  UNL d   1      -3.300   1.810   3.390  0.00  0.00     0.020 A 
ATOM      3  C2  UNL d   1      -4.268   1.343   2.498  0.00  0.00     0.034 A 
ATOM      4  C3  UNL d   1      -4.071   0.139   1.813  0.00  0.00     0.017 A 
ATOM      5  C4  UNL d   1      -2.900  -0.598   2.025  0.00  0.00     0.017 A 
ATOM      6  C5  UNL d   1      -1.934  -0.126   2.920  0.00  0.00     0.034 A 
ATOM      7 Cl   UNL d   1      -2.586  -2.093   1.217  0.00  0.00    -0.070 Cl
ATOM      8 Cl1  UNL d   1      -5.310  -0.379   0.725  0.00  0.00    -0.070 Cl
ENDROOT
TORSDOF 0
ENDMDL
