MODEL 1
REMARK minimizedAffinity 9.14333725
REMARK minimizedRMSD -1
REMARK  0 active torsions:
REMARK  status: ('A' for Active; 'I' for Inactive)
ROOT
ATOM      1  C   UNL d   1      -0.137  -1.828   2.321  0.00  0.00     0.020 A 
ATOM      2  C1  UNL d   1      -0.979  -2.679   1.605  0.00  0.00     0.020 A 
ATOM      3  C2  UNL d   1      -2.357  -2.454   1.599  0.00  0.00     0.034 A 
ATOM      4  C3  UNL d   1      -2.898  -1.377   2.309  0.00  0.00     0.017 A 
ATOM      5  C4  UNL d   1      -2.053  -0.523   3.028  0.00  0.00     0.017 A 
ATOM      6  C5  UNL d   1      -0.673  -0.753   3.030  0.00  0.00     0.034 A 
ATOM      7 Cl   UNL d   1      -2.646   0.827   3.928  0.00  0.00    -0.070 Cl
ATOM      8 Cl1  UNL d   1      -4.611  -1.159   2.257  0.00  0.00    -0.070 Cl
ENDROOT
TORSDOF 0
ENDMDL
