MODEL 1
REMARK minimizedAffinity 9.02044296
REMARK minimizedRMSD -1
REMARK  0 active torsions:
REMARK  status: ('A' for Active; 'I' for Inactive)
ROOT
ATOM      1  C   UNL d   1       3.004   1.582   1.029  0.00  0.00     0.020 A 
ATOM      2  C1  UNL d   1       3.004   1.882  -0.332  0.00  0.00     0.020 A 
ATOM      3  C2  UNL d   1       3.938   2.784  -0.848  0.00  0.00     0.034 A 
ATOM      4  C3  UNL d   1       4.875   3.388  -0.002  0.00  0.00     0.017 A 
ATOM      5  C4  UNL d   1       4.874   3.085   1.364  0.00  0.00     0.017 A 
ATOM      6  C5  UNL d   1       3.937   2.182   1.875  0.00  0.00     0.034 A 
ATOM      7 Cl   UNL d   1       5.999   3.791   2.470  0.00  0.00    -0.070 Cl
ATOM      8 Cl1  UNL d   1       6.000   4.493  -0.709  0.00  0.00    -0.070 Cl
ENDROOT
TORSDOF 0
ENDMDL
