MODEL 1
REMARK minimizedAffinity 4.18968582
REMARK minimizedRMSD -1
REMARK  0 active torsions:
REMARK  status: ('A' for Active; 'I' for Inactive)
ROOT
ATOM      1  C   UNL d   1       0.260  -1.514   3.537  0.00  0.00     0.020 A 
ATOM      2  C1  UNL d   1      -0.216  -2.450   2.620  0.00  0.00     0.020 A 
ATOM      3  C2  UNL d   1      -1.396  -2.200   1.916  0.00  0.00     0.034 A 
ATOM      4  C3  UNL d   1      -2.104  -1.011   2.129  0.00  0.00     0.017 A 
ATOM      5  C4  UNL d   1      -1.625  -0.072   3.050  0.00  0.00     0.017 A 
ATOM      6  C5  UNL d   1      -0.443  -0.328   3.752  0.00  0.00     0.034 A 
ATOM      7 Cl   UNL d   1      -2.443   1.417   3.366  0.00  0.00    -0.070 Cl
ATOM      8 Cl1  UNL d   1      -3.555  -0.767   1.223  0.00  0.00    -0.070 Cl
ENDROOT
TORSDOF 0
ENDMDL
