MODEL 1
REMARK minimizedAffinity 17.3017349
REMARK minimizedRMSD -1
REMARK  0 active torsions:
REMARK  status: ('A' for Active; 'I' for Inactive)
ROOT
ATOM      1  C   UNL d   1       6.000   3.368   1.054  0.00  0.00     0.020 A 
ATOM      2  C1  UNL d   1       5.056   4.157   1.710  0.00  0.00     0.020 A 
ATOM      3  C2  UNL d   1       3.708   3.793   1.692  0.00  0.00     0.034 A 
ATOM      4  C3  UNL d   1       3.300   2.637   1.017  0.00  0.00     0.017 A 
ATOM      5  C4  UNL d   1       4.248   1.845   0.359  0.00  0.00     0.017 A 
ATOM      6  C5  UNL d   1       5.596   2.214   0.380  0.00  0.00     0.034 A 
ATOM      7 Cl   UNL d   1       3.820   0.405  -0.495  0.00  0.00    -0.070 Cl
ATOM      8 Cl1  UNL d   1       1.616   2.247   1.037  0.00  0.00    -0.070 Cl
ENDROOT
TORSDOF 0
ENDMDL
