MODEL 1
REMARK minimizedAffinity 12.79988
REMARK minimizedRMSD -1
REMARK  0 active torsions:
REMARK  status: ('A' for Active; 'I' for Inactive)
ROOT
ATOM      1  C   UNL d   1       0.344   4.241  -2.945  0.00  0.00     0.020 A 
ATOM      2  C1  UNL d   1       0.070   3.367  -1.894  0.00  0.00     0.020 A 
ATOM      3  C2  UNL d   1       0.983   2.364  -1.563  0.00  0.00     0.034 A 
ATOM      4  C3  UNL d   1       2.176   2.233  -2.284  0.00  0.00     0.017 A 
ATOM      5  C4  UNL d   1       2.451   3.112  -3.338  0.00  0.00     0.017 A 
ATOM      6  C5  UNL d   1       1.533   4.114  -3.665  0.00  0.00     0.034 A 
ATOM      7 Cl   UNL d   1       3.902   3.013  -4.273  0.00  0.00    -0.070 Cl
ATOM      8 Cl1  UNL d   1       3.261   0.971  -1.819  0.00  0.00    -0.070 Cl
ENDROOT
TORSDOF 0
ENDMDL
