MODEL 1
REMARK minimizedAffinity -3.04648876
REMARK minimizedRMSD -1
REMARK  0 active torsions:
REMARK  status: ('A' for Active; 'I' for Inactive)
ROOT
ATOM      1  C   UNL d   1      -1.345   0.571   2.213  0.00  0.00    -0.002 A 
ATOM      2  C1  UNL d   1      -1.397   1.610   1.295  0.00  0.00     0.010 A 
ATOM      3  C2  UNL d   1      -0.733   1.512   0.071  0.00  0.00     0.041 A 
ATOM      4  C3  UNL d   1      -0.010   0.338  -0.219  0.00  0.00    -0.075 A 
ATOM      5  S   UNL d   1       0.880  -0.006  -1.655  0.00  0.00     0.015 SA
ATOM      6  C4  UNL d   1       1.350  -1.542  -1.085  0.00  0.00     0.022 A 
ATOM      7  C5  UNL d   1       0.849  -1.802   0.168  0.00  0.00     0.026 A 
ATOM      8  C6  UNL d   1       0.057  -0.723   0.688  0.00  0.00    -0.082 A 
ATOM      9  C7  UNL d   1      -0.626  -0.592   1.921  0.00  0.00     0.045 A 
ENDROOT
TORSDOF 0
ENDMDL
