MODEL 1
REMARK minimizedAffinity -3.60137534
REMARK minimizedRMSD -1
REMARK  0 active torsions:
REMARK  status: ('A' for Active; 'I' for Inactive)
ROOT
ATOM      1  C   UNL d   1      -1.432   2.918   1.349  0.00  0.00    -0.002 A 
ATOM      2  C1  UNL d   1      -1.192   3.071  -0.009  0.00  0.00     0.010 A 
ATOM      3  C2  UNL d   1      -0.724   2.000  -0.772  0.00  0.00     0.041 A 
ATOM      4  C3  UNL d   1      -0.501   0.760  -0.142  0.00  0.00    -0.075 A 
ATOM      5  S   UNL d   1       0.069  -0.692  -0.876  0.00  0.00     0.015 SA
ATOM      6  C4  UNL d   1       0.007  -1.549   0.596  0.00  0.00     0.022 A 
ATOM      7  C5  UNL d   1      -0.436  -0.762   1.632  0.00  0.00     0.026 A 
ATOM      8  C6  UNL d   1      -0.736   0.581   1.224  0.00  0.00    -0.082 A 
ATOM      9  C7  UNL d   1      -1.210   1.687   1.971  0.00  0.00     0.045 A 
ENDROOT
TORSDOF 0
ENDMDL
