MODEL 1
REMARK minimizedAffinity -2.4116118
REMARK minimizedRMSD -1
REMARK  0 active torsions:
REMARK  status: ('A' for Active; 'I' for Inactive)
ROOT
ATOM      1  C   UNL d   1      -2.386   2.693   1.821  0.00  0.00    -0.002 A 
ATOM      2  C1  UNL d   1      -1.851   3.248   0.667  0.00  0.00     0.010 A 
ATOM      3  C2  UNL d   1      -0.935   2.532  -0.106  0.00  0.00     0.041 A 
ATOM      4  C3  UNL d   1      -0.562   1.237   0.303  0.00  0.00    -0.075 A 
ATOM      5  S   UNL d   1       0.542   0.174  -0.486  0.00  0.00     0.015 SA
ATOM      6  C4  UNL d   1       0.330  -1.041   0.689  0.00  0.00     0.022 A 
ATOM      7  C5  UNL d   1      -0.559  -0.663   1.667  0.00  0.00     0.026 A 
ATOM      8  C6  UNL d   1      -1.088   0.656   1.461  0.00  0.00    -0.082 A 
ATOM      9  C7  UNL d   1      -2.015   1.407   2.224  0.00  0.00     0.045 A 
ENDROOT
TORSDOF 0
ENDMDL
