MODEL 1
REMARK minimizedAffinity -5.46505642
REMARK minimizedRMSD -1
REMARK  0 active torsions:
REMARK  status: ('A' for Active; 'I' for Inactive)
ROOT
ATOM      1  C   UNL d   1      -2.330   2.359   1.176  0.00  0.00    -0.002 A 
ATOM      2  C1  UNL d   1      -1.895   3.252   0.207  0.00  0.00     0.010 A 
ATOM      3  C2  UNL d   1      -0.823   2.929  -0.627  0.00  0.00     0.041 A 
ATOM      4  C3  UNL d   1      -0.190   1.680  -0.470  0.00  0.00    -0.075 A 
ATOM      5  S   UNL d   1       1.142   1.069  -1.378  0.00  0.00     0.015 SA
ATOM      6  C4  UNL d   1       1.165  -0.393  -0.501  0.00  0.00     0.022 A 
ATOM      7  C5  UNL d   1       0.187  -0.430   0.464  0.00  0.00     0.026 A 
ATOM      8  C6  UNL d   1      -0.610   0.764   0.498  0.00  0.00    -0.082 A 
ATOM      9  C7  UNL d   1      -1.699   1.121   1.328  0.00  0.00     0.045 A 
ENDROOT
TORSDOF 0
ENDMDL
