MODEL 1
REMARK minimizedAffinity -3.50985813
REMARK minimizedRMSD -1
REMARK  0 active torsions:
REMARK  status: ('A' for Active; 'I' for Inactive)
ROOT
ATOM      1  C   UNL d   1      -1.848   3.222   1.200  0.00  0.00    -0.002 A 
ATOM      2  C1  UNL d   1      -1.108   3.980   0.304  0.00  0.00     0.010 A 
ATOM      3  C2  UNL d   1      -0.157   3.376  -0.521  0.00  0.00     0.041 A 
ATOM      4  C3  UNL d   1       0.038   1.984  -0.431  0.00  0.00    -0.075 A 
ATOM      5  S   UNL d   1       1.146   1.029  -1.343  0.00  0.00     0.015 SA
ATOM      6  C4  UNL d   1       0.662  -0.409  -0.565  0.00  0.00     0.022 A 
ATOM      7  C5  UNL d   1      -0.320  -0.184   0.370  0.00  0.00     0.026 A 
ATOM      8  C6  UNL d   1      -0.696   1.199   0.463  0.00  0.00    -0.082 A 
ATOM      9  C7  UNL d   1      -1.652   1.841   1.286  0.00  0.00     0.045 A 
ENDROOT
TORSDOF 0
ENDMDL
