MODEL 1
REMARK minimizedAffinity -2.36832929
REMARK minimizedRMSD -1
REMARK  0 active torsions:
REMARK  status: ('A' for Active; 'I' for Inactive)
ROOT
ATOM      1  C   UNL d   1      -0.543  -0.368   0.149  0.00  0.00    -0.002 A 
ATOM      2  C1  UNL d   1       0.711   0.054  -0.269  0.00  0.00     0.010 A 
ATOM      3  C2  UNL d   1       1.477  -0.738  -1.126  0.00  0.00     0.041 A 
ATOM      4  C3  UNL d   1       0.957  -1.973  -1.560  0.00  0.00    -0.075 A 
ATOM      5  S   UNL d   1       1.716  -3.110  -2.611  0.00  0.00     0.015 SA
ATOM      6  C4  UNL d   1       0.393  -4.181  -2.530  0.00  0.00     0.022 A 
ATOM      7  C5  UNL d   1      -0.612  -3.700  -1.725  0.00  0.00     0.026 A 
ATOM      8  C6  UNL d   1      -0.304  -2.419  -1.153  0.00  0.00    -0.082 A 
ATOM      9  C7  UNL d   1      -1.057  -1.593  -0.284  0.00  0.00     0.045 A 
ENDROOT
TORSDOF 0
ENDMDL
