MODEL 1
REMARK minimizedAffinity -3.35589075
REMARK minimizedRMSD -1
REMARK  0 active torsions:
REMARK  status: ('A' for Active; 'I' for Inactive)
ROOT
ATOM      1  C   UNL d   1      -2.283   2.362   1.431  0.00  0.00    -0.002 A 
ATOM      2  C1  UNL d   1      -1.440   2.924   0.483  0.00  0.00     0.010 A 
ATOM      3  C2  UNL d   1      -0.416   2.170  -0.093  0.00  0.00     0.041 A 
ATOM      4  C3  UNL d   1      -0.253   0.827   0.304  0.00  0.00    -0.075 A 
ATOM      5  S   UNL d   1       0.932  -0.288  -0.266  0.00  0.00     0.015 SA
ATOM      6  C4  UNL d   1       0.346  -1.537   0.735  0.00  0.00     0.022 A 
ATOM      7  C5  UNL d   1      -0.727  -1.130   1.493  0.00  0.00     0.026 A 
ATOM      8  C6  UNL d   1      -1.090   0.239   1.256  0.00  0.00    -0.082 A 
ATOM      9  C7  UNL d   1      -2.119   1.031   1.821  0.00  0.00     0.045 A 
ENDROOT
TORSDOF 0
ENDMDL
