MODEL 1
REMARK minimizedAffinity -3.34990835
REMARK minimizedRMSD -1
REMARK  0 active torsions:
REMARK  status: ('A' for Active; 'I' for Inactive)
ROOT
ATOM      1  C   UNL d   1      -0.274  -2.119  -2.582  0.00  0.00    -0.002 A 
ATOM      2  C1  UNL d   1       0.859  -2.597  -1.938  0.00  0.00     0.010 A 
ATOM      3  C2  UNL d   1       1.242  -2.080  -0.699  0.00  0.00     0.041 A 
ATOM      4  C3  UNL d   1       0.459  -1.067  -0.111  0.00  0.00    -0.075 A 
ATOM      5  S   UNL d   1       0.735  -0.286   1.401  0.00  0.00     0.015 SA
ATOM      6  C4  UNL d   1      -0.645   0.700   1.228  0.00  0.00     0.022 A 
ATOM      7  C5  UNL d   1      -1.311   0.452   0.051  0.00  0.00     0.026 A 
ATOM      8  C6  UNL d   1      -0.686  -0.571  -0.740  0.00  0.00    -0.082 A 
ATOM      9  C7  UNL d   1      -1.048  -1.114  -1.996  0.00  0.00     0.045 A 
ENDROOT
TORSDOF 0
ENDMDL
