MODEL 1
REMARK minimizedAffinity -4.6758647
REMARK minimizedRMSD -1
REMARK  0 active torsions:
REMARK  status: ('A' for Active; 'I' for Inactive)
ROOT
ATOM      1  C   UNL d   1      -1.732   3.021   1.222  0.00  0.00    -0.002 A 
ATOM      2  C1  UNL d   1      -1.146   3.299  -0.005  0.00  0.00     0.010 A 
ATOM      3  C2  UNL d   1      -0.339   2.351  -0.637  0.00  0.00     0.041 A 
ATOM      4  C3  UNL d   1      -0.130   1.107  -0.011  0.00  0.00    -0.075 A 
ATOM      5  S   UNL d   1       0.819  -0.207  -0.599  0.00  0.00     0.015 SA
ATOM      6  C4  UNL d   1       0.468  -1.168   0.764  0.00  0.00     0.022 A 
ATOM      7  C5  UNL d   1      -0.352  -0.518   1.657  0.00  0.00     0.026 A 
ATOM      8  C6  UNL d   1      -0.710   0.804   1.224  0.00  0.00    -0.082 A 
ATOM      9  C7  UNL d   1      -1.523   1.786   1.840  0.00  0.00     0.045 A 
ENDROOT
TORSDOF 0
ENDMDL
