MODEL 1
REMARK minimizedAffinity 0.165464371
REMARK minimizedRMSD -1
REMARK  0 active torsions:
REMARK  status: ('A' for Active; 'I' for Inactive)
ROOT
ATOM      1  C   UNL d   1      -0.075  -1.119   1.844  0.00  0.00    -0.002 A 
ATOM      2  C1  UNL d   1      -0.835   0.041   1.798  0.00  0.00     0.010 A 
ATOM      3  C2  UNL d   1      -0.687   0.947   0.745  0.00  0.00     0.041 A 
ATOM      4  C3  UNL d   1       0.246   0.663  -0.272  0.00  0.00    -0.075 A 
ATOM      5  S   UNL d   1       0.596   1.625  -1.658  0.00  0.00     0.015 SA
ATOM      6  C4  UNL d   1       1.763   0.518  -2.224  0.00  0.00     0.022 A 
ATOM      7  C5  UNL d   1       1.895  -0.564  -1.387  0.00  0.00     0.026 A 
ATOM      8  C6  UNL d   1       1.022  -0.499  -0.248  0.00  0.00    -0.082 A 
ATOM      9  C7  UNL d   1       0.849  -1.397   0.833  0.00  0.00     0.045 A 
ENDROOT
TORSDOF 0
ENDMDL
