MODEL 1
REMARK minimizedAffinity -5.04253531
REMARK minimizedRMSD -1
REMARK  0 active torsions:
REMARK  status: ('A' for Active; 'I' for Inactive)
ROOT
ATOM      1  C   UNL d   1      -1.885   3.313   1.071  0.00  0.00    -0.002 A 
ATOM      2  C1  UNL d   1      -1.043   3.932   0.157  0.00  0.00     0.010 A 
ATOM      3  C2  UNL d   1      -0.045   3.206  -0.495  0.00  0.00     0.041 A 
ATOM      4  C3  UNL d   1       0.093   1.833  -0.212  0.00  0.00    -0.075 A 
ATOM      5  S   UNL d   1       1.243   0.742  -0.891  0.00  0.00     0.015 SA
ATOM      6  C4  UNL d   1       0.645  -0.571   0.015  0.00  0.00     0.022 A 
ATOM      7  C5  UNL d   1      -0.407  -0.205   0.821  0.00  0.00     0.026 A 
ATOM      8  C6  UNL d   1      -0.742   1.187   0.703  0.00  0.00    -0.082 A 
ATOM      9  C7  UNL d   1      -1.744   1.951   1.349  0.00  0.00     0.045 A 
ENDROOT
TORSDOF 0
ENDMDL
