MODEL 1
REMARK minimizedAffinity -5.66876316
REMARK minimizedRMSD -1
REMARK  0 active torsions:
REMARK  status: ('A' for Active; 'I' for Inactive)
ROOT
ATOM      1  C   UNL d   1      -1.931   2.711   1.385  0.00  0.00    -0.002 A 
ATOM      2  C1  UNL d   1      -1.375   3.149   0.191  0.00  0.00     0.010 A 
ATOM      3  C2  UNL d   1      -0.578   2.298  -0.576  0.00  0.00     0.041 A 
ATOM      4  C3  UNL d   1      -0.347   0.985  -0.119  0.00  0.00    -0.075 A 
ATOM      5  S   UNL d   1       0.595  -0.234  -0.893  0.00  0.00     0.015 SA
ATOM      6  C4  UNL d   1       0.282  -1.365   0.343  0.00  0.00     0.022 A 
ATOM      7  C5  UNL d   1      -0.520  -0.842   1.330  0.00  0.00     0.026 A 
ATOM      8  C6  UNL d   1      -0.897   0.521   1.079  0.00  0.00    -0.082 A 
ATOM      9  C7  UNL d   1      -1.700   1.409   1.835  0.00  0.00     0.045 A 
ENDROOT
TORSDOF 0
ENDMDL
