MODEL 1
REMARK minimizedAffinity -3.44393778
REMARK minimizedRMSD -1
REMARK  0 active torsions:
REMARK  status: ('A' for Active; 'I' for Inactive)
ROOT
ATOM      1  C   UNL d   1       2.012   1.254  -3.923  0.00  0.00     0.020 A 
ATOM      2  C1  UNL d   1       2.058   0.741  -2.628  0.00  0.00     0.020 A 
ATOM      3  C2  UNL d   1       1.133  -0.225  -2.225  0.00  0.00     0.034 A 
ATOM      4  C3  UNL d   1       0.157  -0.680  -3.120  0.00  0.00     0.017 A 
ATOM      5  C4  UNL d   1       0.111  -0.164  -4.420  0.00  0.00     0.017 A 
ATOM      6  C5  UNL d   1       1.040   0.802  -4.817  0.00  0.00     0.034 A 
ATOM      7 Cl   UNL d   1      -1.064  -0.677  -5.579  0.00  0.00    -0.070 Cl
ATOM      8 Cl1  UNL d   1      -0.955  -1.876  -2.555  0.00  0.00    -0.070 Cl
ENDROOT
TORSDOF 0
ENDMDL
