MODEL 1
REMARK minimizedAffinity -3.24786425
REMARK minimizedRMSD -1
REMARK  0 active torsions:
REMARK  status: ('A' for Active; 'I' for Inactive)
ROOT
ATOM      1  C   UNL d   1      -0.445  -1.485  -0.768  0.00  0.00     0.020 A 
ATOM      2  C1  UNL d   1      -1.630  -0.876  -0.358  0.00  0.00     0.020 A 
ATOM      3  C2  UNL d   1      -1.645  -0.079   0.789  0.00  0.00     0.034 A 
ATOM      4  C3  UNL d   1      -0.473   0.112   1.529  0.00  0.00     0.017 A 
ATOM      5  C4  UNL d   1       0.717  -0.500   1.117  0.00  0.00     0.017 A 
ATOM      6  C5  UNL d   1       0.726  -1.297  -0.032  0.00  0.00     0.034 A 
ATOM      7 Cl   UNL d   1       2.203  -0.311   1.978  0.00  0.00    -0.070 Cl
ATOM      8 Cl1  UNL d   1      -0.565   1.110   2.936  0.00  0.00    -0.070 Cl
ENDROOT
TORSDOF 0
ENDMDL
