MODEL 1
REMARK minimizedAffinity -2.3184247
REMARK minimizedRMSD -1
REMARK  0 active torsions:
REMARK  status: ('A' for Active; 'I' for Inactive)
ROOT
ATOM      1  C   UNL d   1      -0.746  -1.336  -5.031  0.00  0.00     0.020 A 
ATOM      2  C1  UNL d   1      -0.236  -0.473  -6.000  0.00  0.00     0.020 A 
ATOM      3  C2  UNL d   1       0.636   0.554  -5.630  0.00  0.00     0.034 A 
ATOM      4  C3  UNL d   1       0.998   0.721  -4.289  0.00  0.00     0.017 A 
ATOM      5  C4  UNL d   1       0.485  -0.146  -3.317  0.00  0.00     0.017 A 
ATOM      6  C5  UNL d   1      -0.387  -1.172  -3.693  0.00  0.00     0.034 A 
ATOM      7 Cl   UNL d   1       0.887  -0.003  -1.642  0.00  0.00    -0.070 Cl
ATOM      8 Cl1  UNL d   1       2.080   2.012  -3.904  0.00  0.00    -0.070 Cl
ENDROOT
TORSDOF 0
ENDMDL
