MODEL 1
REMARK minimizedAffinity 4.47941017
REMARK minimizedRMSD -1
REMARK  0 active torsions:
REMARK  status: ('A' for Active; 'I' for Inactive)
ROOT
ATOM      1  C   UNL d   1       0.829   0.372   1.621  0.00  0.00     0.020 A 
ATOM      2  C1  UNL d   1       1.728  -0.519   1.034  0.00  0.00     0.020 A 
ATOM      3  C2  UNL d   1       1.740  -0.686  -0.352  0.00  0.00     0.034 A 
ATOM      4  C3  UNL d   1       0.852   0.038  -1.156  0.00  0.00     0.017 A 
ATOM      5  C4  UNL d   1      -0.049   0.931  -0.566  0.00  0.00     0.017 A 
ATOM      6  C5  UNL d   1      -0.057   1.095   0.823  0.00  0.00     0.034 A 
ATOM      7 Cl   UNL d   1      -1.175   1.860  -1.492  0.00  0.00    -0.070 Cl
ATOM      8 Cl1  UNL d   1       0.922  -0.218  -2.863  0.00  0.00    -0.070 Cl
ENDROOT
TORSDOF 0
ENDMDL
