MODEL 1
REMARK minimizedAffinity 3.50001502
REMARK minimizedRMSD -1
REMARK  0 active torsions:
REMARK  status: ('A' for Active; 'I' for Inactive)
ROOT
ATOM      1  C   UNL d   1       0.850  -0.742  -0.675  0.00  0.00     0.020 A 
ATOM      2  C1  UNL d   1      -0.294   0.056  -0.666  0.00  0.00     0.020 A 
ATOM      3  C2  UNL d   1      -0.521   0.938   0.393  0.00  0.00     0.034 A 
ATOM      4  C3  UNL d   1       0.395   1.023   1.447  0.00  0.00     0.017 A 
ATOM      5  C4  UNL d   1       1.543   0.222   1.437  0.00  0.00     0.017 A 
ATOM      6  C5  UNL d   1       1.766  -0.659   0.374  0.00  0.00     0.034 A 
ATOM      7 Cl   UNL d   1       2.719   0.271   2.702  0.00  0.00    -0.070 Cl
ATOM      8 Cl1  UNL d   1       0.050   2.135   2.724  0.00  0.00    -0.070 Cl
ENDROOT
TORSDOF 0
ENDMDL
