MODEL 1
REMARK minimizedAffinity 1.05357981
REMARK minimizedRMSD -1
REMARK  0 active torsions:
REMARK  status: ('A' for Active; 'I' for Inactive)
ROOT
ATOM      1  C   UNL d   1      -0.332  -0.342  -0.712  0.00  0.00     0.020 A 
ATOM      2  C1  UNL d   1       0.867  -1.051  -0.659  0.00  0.00     0.020 A 
ATOM      3  C2  UNL d   1       1.750  -0.852   0.405  0.00  0.00     0.034 A 
ATOM      4  C3  UNL d   1       1.434   0.059   1.420  0.00  0.00     0.017 A 
ATOM      5  C4  UNL d   1       0.229   0.769   1.366  0.00  0.00     0.017 A 
ATOM      6  C5  UNL d   1      -0.650   0.566   0.298  0.00  0.00     0.034 A 
ATOM      7 Cl   UNL d   1      -0.229   1.909   2.582  0.00  0.00    -0.070 Cl
ATOM      8 Cl1  UNL d   1       2.571   0.254   2.706  0.00  0.00    -0.070 Cl
ENDROOT
TORSDOF 0
ENDMDL
