MODEL 1
REMARK minimizedAffinity -0.652606785
REMARK minimizedRMSD -1
REMARK  0 active torsions:
REMARK  status: ('A' for Active; 'I' for Inactive)
ROOT
ATOM      1  C   UNL d   1      -0.308  -1.206  -0.604  0.00  0.00     0.020 A 
ATOM      2  C1  UNL d   1      -1.456  -0.455  -0.355  0.00  0.00     0.020 A 
ATOM      3  C2  UNL d   1      -1.438   0.547   0.618  0.00  0.00     0.034 A 
ATOM      4  C3  UNL d   1      -0.270   0.800   1.346  0.00  0.00     0.017 A 
ATOM      5  C4  UNL d   1       0.882   0.046   1.096  0.00  0.00     0.017 A 
ATOM      6  C5  UNL d   1       0.859  -0.956   0.120  0.00  0.00     0.034 A 
ATOM      7 Cl   UNL d   1       2.361   0.300   1.954  0.00  0.00    -0.070 Cl
ATOM      8 Cl1  UNL d   1      -0.320   2.054   2.534  0.00  0.00    -0.070 Cl
ENDROOT
TORSDOF 0
ENDMDL
