MODEL 1
REMARK minimizedAffinity -1.68718147
REMARK minimizedRMSD -1
REMARK  0 active torsions:
REMARK  status: ('A' for Active; 'I' for Inactive)
ROOT
ATOM      1  C   UNL d   1      -1.125  -1.044  -0.370  0.00  0.00     0.020 A 
ATOM      2  C1  UNL d   1      -2.184  -0.401   0.270  0.00  0.00     0.020 A 
ATOM      3  C2  UNL d   1      -1.931   0.479   1.324  0.00  0.00     0.034 A 
ATOM      4  C3  UNL d   1      -0.617   0.720   1.741  0.00  0.00     0.017 A 
ATOM      5  C4  UNL d   1       0.445   0.075   1.098  0.00  0.00     0.017 A 
ATOM      6  C5  UNL d   1       0.187  -0.806   0.043  0.00  0.00     0.034 A 
ATOM      7 Cl   UNL d   1       2.093   0.321   1.556  0.00  0.00    -0.070 Cl
ATOM      8 Cl1  UNL d   1      -0.379   1.821   3.051  0.00  0.00    -0.070 Cl
ENDROOT
TORSDOF 0
ENDMDL
