MODEL 1
REMARK minimizedAffinity -3.09056807
REMARK minimizedRMSD -1
REMARK  0 active torsions:
REMARK  status: ('A' for Active; 'I' for Inactive)
ROOT
ATOM      1  C   UNL d   1      -0.206   0.762   2.092  0.00  0.00     0.020 A 
ATOM      2  C1  UNL d   1       0.664   1.650   1.461  0.00  0.00     0.020 A 
ATOM      3  C2  UNL d   1       0.917   1.525   0.093  0.00  0.00     0.034 A 
ATOM      4  C3  UNL d   1       0.300   0.511  -0.648  0.00  0.00     0.017 A 
ATOM      5  C4  UNL d   1      -0.573  -0.380  -0.013  0.00  0.00     0.017 A 
ATOM      6  C5  UNL d   1      -0.823  -0.251   1.356  0.00  0.00     0.034 A 
ATOM      7 Cl   UNL d   1      -1.372  -1.657  -0.861  0.00  0.00    -0.070 Cl
ATOM      8 Cl1  UNL d   1       0.660   0.416  -2.335  0.00  0.00    -0.070 Cl
ENDROOT
TORSDOF 0
ENDMDL
