MODEL 1
REMARK minimizedAffinity 1.12346292
REMARK minimizedRMSD -1
REMARK  0 active torsions:
REMARK  status: ('A' for Active; 'I' for Inactive)
ROOT
ATOM      1  C   UNL d   1       1.553  -0.458   1.519  0.00  0.00     0.020 A 
ATOM      2  C1  UNL d   1       1.313   0.915   1.562  0.00  0.00     0.020 A 
ATOM      3  C2  UNL d   1       0.434   1.499   0.647  0.00  0.00     0.034 A 
ATOM      4  C3  UNL d   1      -0.207   0.711  -0.315  0.00  0.00     0.017 A 
ATOM      5  C4  UNL d   1       0.034  -0.667  -0.357  0.00  0.00     0.017 A 
ATOM      6  C5  UNL d   1       0.915  -1.247   0.561  0.00  0.00     0.034 A 
ATOM      7 Cl   UNL d   1      -0.720  -1.705  -1.515  0.00  0.00    -0.070 Cl
ATOM      8 Cl1  UNL d   1      -1.282   1.500  -1.414  0.00  0.00    -0.070 Cl
ENDROOT
TORSDOF 0
ENDMDL
