MODEL 1
REMARK minimizedAffinity -0.65843457
REMARK minimizedRMSD -1
REMARK  0 active torsions:
REMARK  status: ('A' for Active; 'I' for Inactive)
ROOT
ATOM      1  C   UNL d   1       0.555  -1.150  -0.346  0.00  0.00     0.020 A 
ATOM      2  C1  UNL d   1      -0.711  -0.581  -0.219  0.00  0.00     0.020 A 
ATOM      3  C2  UNL d   1      -0.932   0.429   0.719  0.00  0.00     0.034 A 
ATOM      4  C3  UNL d   1       0.115   0.874   1.534  0.00  0.00     0.017 A 
ATOM      5  C4  UNL d   1       1.386   0.302   1.406  0.00  0.00     0.017 A 
ATOM      6  C5  UNL d   1       1.602  -0.710   0.465  0.00  0.00     0.034 A 
ATOM      7 Cl   UNL d   1       2.728   0.798   2.376  0.00  0.00    -0.070 Cl
ATOM      8 Cl1  UNL d   1      -0.229   2.127   2.673  0.00  0.00    -0.070 Cl
ENDROOT
TORSDOF 0
ENDMDL
