MODEL 1
REMARK minimizedAffinity 11.2587633
REMARK minimizedRMSD -1
REMARK  0 active torsions:
REMARK  status: ('A' for Active; 'I' for Inactive)
ROOT
ATOM      1  C   UNL d   1      -0.009  -5.994  -5.268  0.00  0.00     0.078 C 
ATOM      2  C1  UNL d   1       0.826  -5.985  -4.022  0.00  0.00    -0.077 A 
ATOM      3  C2  UNL d   1       2.224  -5.989  -4.092  0.00  0.00    -0.001 A 
ATOM      4  C3  UNL d   1       2.989  -5.991  -2.924  0.00  0.00     0.003 A 
ATOM      5  C4  UNL d   1       2.364  -5.991  -1.678  0.00  0.00    -0.005 A 
ATOM      6  C5  UNL d   1       0.973  -5.989  -1.599  0.00  0.00     0.003 A 
ATOM      7  C6  UNL d   1       0.207  -5.987  -2.766  0.00  0.00    -0.001 A 
ENDROOT
TORSDOF 0
ENDMDL
