MODEL 1
REMARK minimizedAffinity 5.48024845
REMARK minimizedRMSD -1
REMARK  0 active torsions:
REMARK  status: ('A' for Active; 'I' for Inactive)
ROOT
ATOM      1  C   UNL d   1       2.647   3.459   3.837  0.00  0.00     0.078 C 
ATOM      2  C1  UNL d   1       1.865   3.748   2.591  0.00  0.00    -0.077 A 
ATOM      3  C2  UNL d   1       2.363   4.619   1.614  0.00  0.00    -0.001 A 
ATOM      4  C3  UNL d   1       1.620   4.886   0.463  0.00  0.00     0.003 A 
ATOM      5  C4  UNL d   1       0.375   4.289   0.279  0.00  0.00    -0.005 A 
ATOM      6  C5  UNL d   1      -0.130   3.423   1.247  0.00  0.00     0.003 A 
ATOM      7  C6  UNL d   1       0.612   3.154   2.399  0.00  0.00    -0.001 A 
ENDROOT
TORSDOF 0
ENDMDL
