MODEL 1
REMARK minimizedAffinity 0.927866399
REMARK minimizedRMSD -1
REMARK  0 active torsions:
REMARK  status: ('A' for Active; 'I' for Inactive)
ROOT
ATOM      1  C   UNL d   1       0.366   5.218  -1.126  0.00  0.00     0.078 C 
ATOM      2  C1  UNL d   1       0.794   4.544   0.144  0.00  0.00    -0.077 A 
ATOM      3  C2  UNL d   1      -0.044   3.628   0.791  0.00  0.00    -0.001 A 
ATOM      4  C3  UNL d   1       0.364   3.015   1.977  0.00  0.00     0.003 A 
ATOM      5  C4  UNL d   1       1.609   3.313   2.527  0.00  0.00    -0.005 A 
ATOM      6  C5  UNL d   1       2.448   4.226   1.891  0.00  0.00     0.003 A 
ATOM      7  C6  UNL d   1       2.042   4.840   0.705  0.00  0.00    -0.001 A 
ENDROOT
TORSDOF 0
ENDMDL
