MODEL 1
REMARK minimizedAffinity 3.67534471
REMARK minimizedRMSD -1
REMARK  0 active torsions:
REMARK  status: ('A' for Active; 'I' for Inactive)
ROOT
ATOM      1  C   UNL d   1      -0.004   1.779   0.006  0.00  0.00     0.078 C 
ATOM      2  C1  UNL d   1      -0.092   3.248   0.296  0.00  0.00    -0.077 A 
ATOM      3  C2  UNL d   1      -0.696   3.716   1.468  0.00  0.00    -0.001 A 
ATOM      4  C3  UNL d   1      -0.780   5.087   1.721  0.00  0.00     0.003 A 
ATOM      5  C4  UNL d   1      -0.262   6.000   0.804  0.00  0.00    -0.005 A 
ATOM      6  C5  UNL d   1       0.340   5.543  -0.367  0.00  0.00     0.003 A 
ATOM      7  C6  UNL d   1       0.424   4.173  -0.621  0.00  0.00    -0.001 A 
ENDROOT
TORSDOF 0
ENDMDL
