MODEL 1
REMARK minimizedAffinity 5.21021748
REMARK minimizedRMSD -1
REMARK  0 active torsions:
REMARK  status: ('A' for Active; 'I' for Inactive)
ROOT
ATOM      1  C   UNL d   1       5.993  -4.970   0.837  0.00  0.00     0.078 C 
ATOM      2  C1  UNL d   1       5.474  -3.634   0.394  0.00  0.00    -0.077 A 
ATOM      3  C2  UNL d   1       6.000  -2.995  -0.735  0.00  0.00    -0.001 A 
ATOM      4  C3  UNL d   1       5.514  -1.748  -1.131  0.00  0.00     0.003 A 
ATOM      5  C4  UNL d   1       4.502  -1.128  -0.401  0.00  0.00    -0.005 A 
ATOM      6  C5  UNL d   1       3.974  -1.755   0.726  0.00  0.00     0.003 A 
ATOM      7  C6  UNL d   1       4.458  -3.002   1.123  0.00  0.00    -0.001 A 
ENDROOT
TORSDOF 0
ENDMDL
