MODEL 1
REMARK minimizedAffinity 8.84258556
REMARK minimizedRMSD -1
REMARK  0 active torsions:
REMARK  status: ('A' for Active; 'I' for Inactive)
ROOT
ATOM      1  C   UNL d   1      -0.206   2.307   2.767  0.00  0.00     0.078 C 
ATOM      2  C1  UNL d   1      -0.201   3.329   1.670  0.00  0.00    -0.077 A 
ATOM      3  C2  UNL d   1      -0.814   4.576   1.842  0.00  0.00    -0.001 A 
ATOM      4  C3  UNL d   1      -0.810   5.514   0.808  0.00  0.00     0.003 A 
ATOM      5  C4  UNL d   1      -0.194   5.215  -0.405  0.00  0.00    -0.005 A 
ATOM      6  C5  UNL d   1       0.417   3.976  -0.587  0.00  0.00     0.003 A 
ATOM      7  C6  UNL d   1       0.414   3.036   0.445  0.00  0.00    -0.001 A 
ENDROOT
TORSDOF 0
ENDMDL
