MODEL 1
REMARK minimizedAffinity 3.46520853
REMARK minimizedRMSD -1
REMARK  0 active torsions:
REMARK  status: ('A' for Active; 'I' for Inactive)
ROOT
ATOM      1  C   UNL d   1       0.944   2.547   2.731  0.00  0.00     0.078 C 
ATOM      2  C1  UNL d   1       0.800   3.398   1.505  0.00  0.00    -0.077 A 
ATOM      3  C2  UNL d   1       1.692   4.445   1.245  0.00  0.00    -0.001 A 
ATOM      4  C3  UNL d   1       1.541   5.235   0.105  0.00  0.00     0.003 A 
ATOM      5  C4  UNL d   1       0.498   4.987  -0.785  0.00  0.00    -0.005 A 
ATOM      6  C5  UNL d   1      -0.396   3.947  -0.535  0.00  0.00     0.003 A 
ATOM      7  C6  UNL d   1      -0.246   3.156   0.606  0.00  0.00    -0.001 A 
ENDROOT
TORSDOF 0
ENDMDL
