MODEL 1
REMARK minimizedAffinity -5.44900703
REMARK minimizedRMSD -1
REMARK  1 active torsions:
REMARK  status: ('A' for Active; 'I' for Inactive)
REMARK    1  A    between atoms: C1_2  and  C2_3 
ROOT
ATOM      1  C2  UNL d   1      -1.187   0.296   0.009  0.00  0.00    -0.081 A 
ATOM      2  C3  UNL d   1      -0.803  -1.005  -0.337  0.00  0.00     0.006 A 
ATOM      3  C4  UNL d   1       0.477  -1.472  -0.026  0.00  0.00     0.002 A 
ATOM      4  C5  UNL d   1       1.390  -0.649   0.642  0.00  0.00    -0.080 A 
ATOM      5  C6  UNL d   1       2.756  -1.147   1.008  0.00  0.00     0.076 C 
ATOM      6  C7  UNL d   1       1.012   0.657   0.972  0.00  0.00     0.002 A 
ATOM      7  C8  UNL d   1      -0.267   1.125   0.661  0.00  0.00     0.006 A 
ENDROOT
BRANCH   1   8
ATOM      8  C1  UNL d   1      -2.588   0.780  -0.266  0.00  0.00     0.054 C 
ATOM      9  C   UNL d   1      -3.281   1.226   1.013  0.00  0.00     0.018 C 
ENDBRANCH   1   8
TORSDOF 1
ENDMDL
