MODEL 1
REMARK minimizedAffinity -4.4185257
REMARK minimizedRMSD -1
REMARK  1 active torsions:
REMARK  status: ('A' for Active; 'I' for Inactive)
REMARK    1  A    between atoms: C1_2  and  C2_3 
ROOT
ATOM      1  C2  UNL d   1      -0.159   0.120  -0.087  0.00  0.00    -0.081 A 
ATOM      2  C3  UNL d   1       0.067  -1.168   0.412  0.00  0.00     0.006 A 
ATOM      3  C4  UNL d   1       1.334  -1.537   0.872  0.00  0.00     0.002 A 
ATOM      4  C5  UNL d   1       2.392  -0.623   0.848  0.00  0.00    -0.080 A 
ATOM      5  C6  UNL d   1       3.749  -0.996   1.366  0.00  0.00     0.076 C 
ATOM      6  C7  UNL d   1       2.170   0.659   0.333  0.00  0.00     0.002 A 
ATOM      7  C8  UNL d   1       0.905   1.028  -0.128  0.00  0.00     0.006 A 
ENDROOT
BRANCH   1   8
ATOM      8  C1  UNL d   1      -1.539   0.541  -0.524  0.00  0.00     0.054 C 
ATOM      9  C   UNL d   1      -2.375   1.009   0.659  0.00  0.00     0.018 C 
ENDBRANCH   1   8
TORSDOF 1
ENDMDL
