MODEL 1
REMARK minimizedAffinity -2.60564017
REMARK minimizedRMSD -1
REMARK  1 active torsions:
REMARK  status: ('A' for Active; 'I' for Inactive)
REMARK    1  A    between atoms: C1_2  and  C2_3 
ROOT
ATOM      1  C2  UNL d   1      -0.959   0.040   0.164  0.00  0.00    -0.081 A 
ATOM      2  C3  UNL d   1      -0.557  -1.200  -0.346  0.00  0.00     0.006 A 
ATOM      3  C4  UNL d   1       0.741  -1.669  -0.128  0.00  0.00     0.002 A 
ATOM      4  C5  UNL d   1       1.655  -0.909   0.609  0.00  0.00    -0.080 A 
ATOM      5  C6  UNL d   1       3.042  -1.414   0.875  0.00  0.00     0.076 C 
ATOM      6  C7  UNL d   1       1.260   0.338   1.103  0.00  0.00     0.002 A 
ATOM      7  C8  UNL d   1      -0.037   0.807   0.886  0.00  0.00     0.006 A 
ENDROOT
BRANCH   1   8
ATOM      8  C1  UNL d   1      -2.377   0.519  -0.013  0.00  0.00     0.054 C 
ATOM      9  C   UNL d   1      -3.045   0.781   1.330  0.00  0.00     0.018 C 
ENDBRANCH   1   8
TORSDOF 1
ENDMDL
