MODEL 1
REMARK minimizedAffinity -4.93683052
REMARK minimizedRMSD -1
REMARK  1 active torsions:
REMARK  status: ('A' for Active; 'I' for Inactive)
REMARK    1  A    between atoms: C1_2  and  C2_3 
ROOT
ATOM      1  C2  UNL d   1       1.981   0.134  -0.181  0.00  0.00    -0.081 A 
ATOM      2  C3  UNL d   1       1.418   1.410  -0.059  0.00  0.00     0.006 A 
ATOM      3  C4  UNL d   1       0.031   1.577  -0.069  0.00  0.00     0.002 A 
ATOM      4  C5  UNL d   1      -0.816   0.470  -0.193  0.00  0.00    -0.080 A 
ATOM      5  C6  UNL d   1      -2.307   0.632  -0.175  0.00  0.00     0.076 C 
ATOM      6  C7  UNL d   1      -0.253  -0.803  -0.332  0.00  0.00     0.002 A 
ATOM      7  C8  UNL d   1       1.133  -0.971  -0.322  0.00  0.00     0.006 A 
ENDROOT
BRANCH   1   8
ATOM      8  C1  UNL d   1       3.474  -0.056  -0.105  0.00  0.00     0.054 C 
ATOM      9  C   UNL d   1       3.831  -1.397   0.521  0.00  0.00     0.018 C 
ENDBRANCH   1   8
TORSDOF 1
ENDMDL
