MODEL 1
REMARK minimizedAffinity -4.16489792
REMARK minimizedRMSD -1
REMARK  1 active torsions:
REMARK  status: ('A' for Active; 'I' for Inactive)
REMARK    1  A    between atoms: C1_2  and  C2_3 
ROOT
ATOM      1  C2  UNL d   1      -0.673   0.264  -0.150  0.00  0.00    -0.081 A 
ATOM      2  C3  UNL d   1      -0.365  -0.949  -0.779  0.00  0.00     0.006 A 
ATOM      3  C4  UNL d   1       0.872  -1.563  -0.566  0.00  0.00     0.002 A 
ATOM      4  C5  UNL d   1       1.817  -0.979   0.284  0.00  0.00    -0.080 A 
ATOM      5  C6  UNL d   1       3.137  -1.642   0.545  0.00  0.00     0.076 C 
ATOM      6  C7  UNL d   1       1.516   0.242   0.898  0.00  0.00     0.002 A 
ATOM      7  C8  UNL d   1       0.280   0.856   0.685  0.00  0.00     0.006 A 
ENDROOT
BRANCH   1   8
ATOM      8  C1  UNL d   1      -2.030   0.895  -0.327  0.00  0.00     0.054 C 
ATOM      9  C   UNL d   1      -2.825   0.870   0.971  0.00  0.00     0.018 C 
ENDBRANCH   1   8
TORSDOF 1
ENDMDL
