MODEL 1
REMARK minimizedAffinity -5.52887487
REMARK minimizedRMSD -1
REMARK  1 active torsions:
REMARK  status: ('A' for Active; 'I' for Inactive)
REMARK    1  A    between atoms: C1_2  and  C2_3 
ROOT
ATOM      1  C2  UNL d   1      -0.334   0.596  -0.207  0.00  0.00    -0.081 A 
ATOM      2  C3  UNL d   1       0.660   1.472   0.245  0.00  0.00     0.006 A 
ATOM      3  C4  UNL d   1       1.925   0.989   0.591  0.00  0.00     0.002 A 
ATOM      4  C5  UNL d   1       2.218  -0.375   0.484  0.00  0.00    -0.080 A 
ATOM      5  C6  UNL d   1       3.580  -0.901   0.824  0.00  0.00     0.076 C 
ATOM      6  C7  UNL d   1       1.219  -1.252   0.049  0.00  0.00     0.002 A 
ATOM      7  C8  UNL d   1      -0.046  -0.770  -0.297  0.00  0.00     0.006 A 
ENDROOT
BRANCH   1   8
ATOM      8  C1  UNL d   1      -1.678   1.122  -0.643  0.00  0.00     0.054 C 
ATOM      9  C   UNL d   1      -2.696   1.041   0.485  0.00  0.00     0.018 C 
ENDBRANCH   1   8
TORSDOF 1
ENDMDL
