MODEL 1
REMARK minimizedAffinity -3.89764333
REMARK minimizedRMSD -1
REMARK  1 active torsions:
REMARK  status: ('A' for Active; 'I' for Inactive)
REMARK    1  A    between atoms: C1_2  and  C2_3 
ROOT
ATOM      1  C2  UNL d   1      -0.846   0.172  -0.368  0.00  0.00    -0.081 A 
ATOM      2  C3  UNL d   1      -0.466  -1.158  -0.583  0.00  0.00     0.006 A 
ATOM      3  C4  UNL d   1       0.809  -1.598  -0.217  0.00  0.00     0.002 A 
ATOM      4  C5  UNL d   1       1.720  -0.719   0.378  0.00  0.00    -0.080 A 
ATOM      5  C6  UNL d   1       3.080  -1.186   0.803  0.00  0.00     0.076 C 
ATOM      6  C7  UNL d   1       1.346   0.615   0.577  0.00  0.00     0.002 A 
ATOM      7  C8  UNL d   1       0.072   1.056   0.210  0.00  0.00     0.006 A 
ENDROOT
BRANCH   1   8
ATOM      8  C1  UNL d   1      -2.241   0.634  -0.702  0.00  0.00     0.054 C 
ATOM      9  C   UNL d   1      -3.101   0.748   0.548  0.00  0.00     0.018 C 
ENDBRANCH   1   8
TORSDOF 1
ENDMDL
