MODEL 1
REMARK minimizedAffinity -5.33368826
REMARK minimizedRMSD -1
REMARK  2 active torsions:
REMARK  status: ('A' for Active; 'I' for Inactive)
REMARK    1  A    between atoms: C2'_3  and  C1'_4 
REMARK    2  A    between atoms: C1'_4  and  C1_5 
ROOT
ATOM      1  C1  I4B d   1      -3.426   3.008   5.062  0.00  0.00    -0.075 A 
ATOM      2  C2  I4B d   1      -3.425   3.252   3.711  0.00  0.00     0.003 A 
ATOM      3  C3  I4B d   1      -3.490   4.580   3.226  0.00  0.00     0.002 A 
ATOM      4  C4  I4B d   1      -3.605   5.625   4.120  0.00  0.00    -0.004 A 
ATOM      5  C5  I4B d   1      -3.583   5.378   5.490  0.00  0.00     0.002 A 
ATOM      6  C6  I4B d   1      -3.481   4.063   5.965  0.00  0.00     0.003 A 
ENDROOT
BRANCH   1   7
ATOM      7  C1' I4B d   1      -3.390   1.591   5.539  0.00  0.00     0.060 C 
BRANCH   7   8
ATOM      8  C2' I4B d   1      -3.034   0.710   4.359  0.00  0.00    -0.013 C 
ATOM      9  C4' I4B d   1      -1.991  -0.309   4.734  0.00  0.00     0.013 C 
ATOM     10  C3' I4B d   1      -4.291   0.048   3.880  0.00  0.00     0.013 C 
ENDBRANCH   7   8
ENDBRANCH   1   7
TORSDOF 2
ENDMDL
