MODEL 1
REMARK minimizedAffinity 12.2870684
REMARK minimizedRMSD -1
REMARK  2 active torsions:
REMARK  status: ('A' for Active; 'I' for Inactive)
REMARK    1  A    between atoms: C2'_3  and  C1'_4 
REMARK    2  A    between atoms: C1'_4  and  C1_5 
ROOT
ATOM      1  C1  I4B d   1       5.957  -0.186  -3.776  0.00  0.00    -0.075 A 
ATOM      2  C2  I4B d   1       5.930  -0.074  -5.144  0.00  0.00     0.003 A 
ATOM      3  C3  I4B d   1       5.923  -1.235  -5.955  0.00  0.00     0.002 A 
ATOM      4  C4  I4B d   1       5.995  -2.479  -5.361  0.00  0.00    -0.004 A 
ATOM      5  C5  I4B d   1       6.000  -2.591  -3.974  0.00  0.00     0.002 A 
ATOM      6  C6  I4B d   1       5.968  -1.438  -3.176  0.00  0.00     0.003 A 
ENDROOT
BRANCH   1   7
ATOM      7  C1' I4B d   1       5.997   1.061  -2.951  0.00  0.00     0.060 C 
BRANCH   7   8
ATOM      8  C2' I4B d   1       5.412   2.187  -3.779  0.00  0.00    -0.013 C 
ATOM      9  C4' I4B d   1       3.920   2.043  -3.918  0.00  0.00     0.013 C 
ATOM     10  C3' I4B d   1       5.772   3.484  -3.118  0.00  0.00     0.013 C 
ENDBRANCH   7   8
ENDBRANCH   1   7
TORSDOF 2
ENDMDL
