MODEL 1
REMARK minimizedAffinity 0.0441430993
REMARK minimizedRMSD -1
REMARK  2 active torsions:
REMARK  status: ('A' for Active; 'I' for Inactive)
REMARK    1  A    between atoms: C2'_3  and  C1'_4 
REMARK    2  A    between atoms: C1'_4  and  C1_5 
ROOT
ATOM      1  C1  I4B d   1      -3.268   3.185   5.264  0.00  0.00    -0.075 A 
ATOM      2  C2  I4B d   1      -4.357   3.599   5.990  0.00  0.00     0.003 A 
ATOM      3  C3  I4B d   1      -4.729   4.965   6.000  0.00  0.00     0.002 A 
ATOM      4  C4  I4B d   1      -3.961   5.884   5.315  0.00  0.00    -0.004 A 
ATOM      5  C5  I4B d   1      -2.871   5.460   4.561  0.00  0.00     0.002 A 
ATOM      6  C6  I4B d   1      -2.529   4.100   4.525  0.00  0.00     0.003 A 
ENDROOT
BRANCH   1   7
ATOM      7  C1' I4B d   1      -2.883   1.740   5.302  0.00  0.00     0.060 C 
BRANCH   7   8
ATOM      8  C2' I4B d   1      -4.065   0.929   4.812  0.00  0.00    -0.013 C 
ATOM      9  C4' I4B d   1      -3.613  -0.315   4.094  0.00  0.00     0.013 C 
ATOM     10  C3' I4B d   1      -4.917   0.590   5.998  0.00  0.00     0.013 C 
ENDBRANCH   7   8
ENDBRANCH   1   7
TORSDOF 2
ENDMDL
