MODEL 1
REMARK minimizedAffinity 16.3517265
REMARK minimizedRMSD -1
REMARK  2 active torsions:
REMARK  status: ('A' for Active; 'I' for Inactive)
REMARK    1  A    between atoms: C2'_3  and  C1'_4 
REMARK    2  A    between atoms: C1'_4  and  C1_5 
ROOT
ATOM      1  C1  I4B d   1      -0.828  -1.714   2.387  0.00  0.00    -0.075 A 
ATOM      2  C2  I4B d   1      -1.580  -2.337   1.422  0.00  0.00     0.003 A 
ATOM      3  C3  I4B d   1      -1.000  -2.679   0.176  0.00  0.00     0.002 A 
ATOM      4  C4  I4B d   1       0.312  -2.336  -0.079  0.00  0.00    -0.004 A 
ATOM      5  C5  I4B d   1       1.080  -1.725   0.908  0.00  0.00     0.002 A 
ATOM      6  C6  I4B d   1       0.510  -1.423   2.153  0.00  0.00     0.003 A 
ENDROOT
BRANCH   1   7
ATOM      7  C1' I4B d   1      -1.481  -1.337   3.678  0.00  0.00     0.060 C 
BRANCH   7   8
ATOM      8  C2' I4B d   1      -2.869  -1.945   3.694  0.00  0.00    -0.013 C 
ATOM      9  C4' I4B d   1      -2.973  -3.043   4.719  0.00  0.00     0.013 C 
ATOM     10  C3' I4B d   1      -3.852  -0.847   3.976  0.00  0.00     0.013 C 
ENDBRANCH   7   8
ENDBRANCH   1   7
TORSDOF 2
ENDMDL
