MODEL 1
REMARK minimizedAffinity 1.33681524
REMARK minimizedRMSD -1
REMARK  2 active torsions:
REMARK  status: ('A' for Active; 'I' for Inactive)
REMARK    1  A    between atoms: C2'_3  and  C1'_4 
REMARK    2  A    between atoms: C1'_4  and  C1_5 
ROOT
ATOM      1  C1  I4B d   1       5.219   2.475  -4.988  0.00  0.00    -0.075 A 
ATOM      2  C2  I4B d   1       4.416   1.858  -5.913  0.00  0.00     0.003 A 
ATOM      3  C3  I4B d   1       4.384   0.445  -6.000  0.00  0.00     0.002 A 
ATOM      4  C4  I4B d   1       5.203  -0.305  -5.181  0.00  0.00    -0.004 A 
ATOM      5  C5  I4B d   1       6.000   0.322  -4.227  0.00  0.00     0.002 A 
ATOM      6  C6  I4B d   1       5.999   1.720  -4.121  0.00  0.00     0.003 A 
ENDROOT
BRANCH   1   7
ATOM      7  C1' I4B d   1       5.253   3.970  -4.946  0.00  0.00     0.060 C 
BRANCH   7   8
ATOM      8  C2' I4B d   1       4.047   4.443  -4.161  0.00  0.00    -0.013 C 
ATOM      9  C4' I4B d   1       4.458   5.292  -2.987  0.00  0.00     0.013 C 
ATOM     10  C3' I4B d   1       3.156   5.206  -5.096  0.00  0.00     0.013 C 
ENDBRANCH   7   8
ENDBRANCH   1   7
TORSDOF 2
ENDMDL
