MODEL 1
REMARK minimizedAffinity 8.61163998
REMARK minimizedRMSD -1
REMARK  2 active torsions:
REMARK  status: ('A' for Active; 'I' for Inactive)
REMARK    1  A    between atoms: C2'_3  and  C1'_4 
REMARK    2  A    between atoms: C1'_4  and  C1_5 
ROOT
ATOM      1  C1  I4B d   1      -3.712   2.466   5.036  0.00  0.00    -0.075 A 
ATOM      2  C2  I4B d   1      -3.577   2.794   3.710  0.00  0.00     0.003 A 
ATOM      3  C3  I4B d   1      -3.541   4.153   3.312  0.00  0.00     0.002 A 
ATOM      4  C4  I4B d   1      -3.693   5.143   4.261  0.00  0.00    -0.004 A 
ATOM      5  C5  I4B d   1      -3.807   4.808   5.607  0.00  0.00     0.002 A 
ATOM      6  C6  I4B d   1      -3.805   3.462   5.999  0.00  0.00     0.003 A 
ENDROOT
BRANCH   1   7
ATOM      7  C1' I4B d   1      -3.780   1.021   5.417  0.00  0.00     0.060 C 
BRANCH   7   8
ATOM      8  C2' I4B d   1      -3.499   0.197   4.177  0.00  0.00    -0.013 C 
ATOM      9  C4' I4B d   1      -2.587  -0.961   4.486  0.00  0.00     0.013 C 
ATOM     10  C3' I4B d   1      -4.812  -0.279   3.630  0.00  0.00     0.013 C 
ENDBRANCH   7   8
ENDBRANCH   1   7
TORSDOF 2
ENDMDL
