MODEL 1
REMARK minimizedAffinity 2.26057363
REMARK minimizedRMSD -1
REMARK  2 active torsions:
REMARK  status: ('A' for Active; 'I' for Inactive)
REMARK    1  A    between atoms: C2'_3  and  C1'_4 
REMARK    2  A    between atoms: C1'_4  and  C1_5 
ROOT
ATOM      1  C1  I4B d   1       1.623   0.345  -0.421  0.00  0.00    -0.075 A 
ATOM      2  C2  I4B d   1       2.377   1.130   0.415  0.00  0.00     0.003 A 
ATOM      3  C3  I4B d   1       2.329   2.541   0.303  0.00  0.00     0.002 A 
ATOM      4  C4  I4B d   1       1.558   3.119  -0.685  0.00  0.00    -0.004 A 
ATOM      5  C5  I4B d   1       0.777   2.322  -1.517  0.00  0.00     0.002 A 
ATOM      6  C6  I4B d   1       0.799   0.927  -1.377  0.00  0.00     0.003 A 
ENDROOT
BRANCH   1   7
ATOM      7  C1' I4B d   1       1.723  -1.142  -0.298  0.00  0.00     0.060 C 
BRANCH   7   8
ATOM      8  C2' I4B d   1       0.378  -1.663   0.167  0.00  0.00    -0.013 C 
ATOM      9  C4' I4B d   1      -0.479  -2.078  -1.000  0.00  0.00     0.013 C 
ATOM     10  C3' I4B d   1       0.623  -2.816   1.095  0.00  0.00     0.013 C 
ENDBRANCH   7   8
ENDBRANCH   1   7
TORSDOF 2
ENDMDL
