MODEL 1
REMARK minimizedAffinity 11.6806974
REMARK minimizedRMSD -1
REMARK  2 active torsions:
REMARK  status: ('A' for Active; 'I' for Inactive)
REMARK    1  A    between atoms: C2'_3  and  C1'_4 
REMARK    2  A    between atoms: C1'_4  and  C1_5 
ROOT
ATOM      1  C1  I4B d   1       3.878   3.359  -5.838  0.00  0.00    -0.075 A 
ATOM      2  C2  I4B d   1       3.652   4.704  -5.994  0.00  0.00     0.003 A 
ATOM      3  C3  I4B d   1       2.335   5.219  -5.915  0.00  0.00     0.002 A 
ATOM      4  C4  I4B d   1       1.277   4.353  -5.730  0.00  0.00    -0.004 A 
ATOM      5  C5  I4B d   1       1.510   2.993  -5.549  0.00  0.00     0.002 A 
ATOM      6  C6  I4B d   1       2.820   2.494  -5.590  0.00  0.00     0.003 A 
ENDROOT
BRANCH   1   7
ATOM      7  C1' I4B d   1       5.277   2.844  -5.960  0.00  0.00     0.060 C 
BRANCH   7   8
ATOM      8  C2' I4B d   1       5.985   3.101  -4.645  0.00  0.00    -0.013 C 
ATOM      9  C4' I4B d   1       5.310   4.199  -3.867  0.00  0.00     0.013 C 
ATOM     10  C3' I4B d   1       6.000   1.818  -3.869  0.00  0.00     0.013 C 
ENDBRANCH   7   8
ENDBRANCH   1   7
TORSDOF 2
ENDMDL
