MODEL 1
REMARK minimizedAffinity 14.6015778
REMARK minimizedRMSD -1
REMARK  2 active torsions:
REMARK  status: ('A' for Active; 'I' for Inactive)
REMARK    1  A    between atoms: C2'_3  and  C1'_4 
REMARK    2  A    between atoms: C1'_4  and  C1_5 
ROOT
ATOM      1  C1  I4B d   1      -1.024  -0.976  -0.390  0.00  0.00    -0.075 A 
ATOM      2  C2  I4B d   1      -0.217  -1.599   0.528  0.00  0.00     0.003 A 
ATOM      3  C3  I4B d   1      -0.657  -2.775   1.182  0.00  0.00     0.002 A 
ATOM      4  C4  I4B d   1      -1.924  -3.261   0.927  0.00  0.00    -0.004 A 
ATOM      5  C5  I4B d   1      -2.732  -2.640  -0.021  0.00  0.00     0.002 A 
ATOM      6  C6  I4B d   1      -2.275  -1.497  -0.693  0.00  0.00     0.003 A 
ENDROOT
BRANCH   1   7
ATOM      7  C1' I4B d   1      -0.540   0.283  -1.038  0.00  0.00     0.060 C 
BRANCH   7   8
ATOM      8  C2' I4B d   1       0.861   0.032  -1.557  0.00  0.00    -0.013 C 
ATOM      9  C4' I4B d   1       0.920   0.166  -3.056  0.00  0.00     0.013 C 
ATOM     10  C3' I4B d   1       1.784   1.008  -0.889  0.00  0.00     0.013 C 
ENDBRANCH   7   8
ENDBRANCH   1   7
TORSDOF 2
ENDMDL
