MODEL 1
REMARK minimizedAffinity 12.6421614
REMARK minimizedRMSD -1
REMARK  2 active torsions:
REMARK  status: ('A' for Active; 'I' for Inactive)
REMARK    1  A    between atoms: C2'_3  and  C1'_4 
REMARK    2  A    between atoms: C1'_4  and  C1_5 
ROOT
ATOM      1  C1  I4B d   1       3.883   3.385  -5.884  0.00  0.00    -0.075 A 
ATOM      2  C2  I4B d   1       3.625   4.728  -6.000  0.00  0.00     0.003 A 
ATOM      3  C3  I4B d   1       2.295   5.208  -5.927  0.00  0.00     0.002 A 
ATOM      4  C4  I4B d   1       1.255   4.311  -5.790  0.00  0.00    -0.004 A 
ATOM      5  C5  I4B d   1       1.520   2.951  -5.650  0.00  0.00     0.002 A 
ATOM      6  C6  I4B d   1       2.843   2.486  -5.685  0.00  0.00     0.003 A 
ENDROOT
BRANCH   1   7
ATOM      7  C1' I4B d   1       5.296   2.910  -5.999  0.00  0.00     0.060 C 
BRANCH   7   8
ATOM      8  C2' I4B d   1       5.918   2.957  -4.618  0.00  0.00    -0.013 C 
ATOM      9  C4' I4B d   1       5.119   3.835  -3.690  0.00  0.00     0.013 C 
ATOM     10  C3' I4B d   1       6.000   1.553  -4.098  0.00  0.00     0.013 C 
ENDBRANCH   7   8
ENDBRANCH   1   7
TORSDOF 2
ENDMDL
