MODEL 1
REMARK minimizedAffinity 11.657505
REMARK minimizedRMSD -1
REMARK  2 active torsions:
REMARK  status: ('A' for Active; 'I' for Inactive)
REMARK    1  A    between atoms: C2'_3  and  C1'_4 
REMARK    2  A    between atoms: C1'_4  and  C1_5 
ROOT
ATOM      1  C1  I4B d   1      -1.238  -1.755   1.848  0.00  0.00    -0.075 A 
ATOM      2  C2  I4B d   1      -2.439  -1.511   2.466  0.00  0.00     0.003 A 
ATOM      3  C3  I4B d   1      -2.478  -1.163   3.838  0.00  0.00     0.002 A 
ATOM      4  C4  I4B d   1      -1.304  -1.120   4.562  0.00  0.00    -0.004 A 
ATOM      5  C5  I4B d   1      -0.085  -1.345   3.929  0.00  0.00     0.002 A 
ATOM      6  C6  I4B d   1      -0.050  -1.653   2.561  0.00  0.00     0.003 A 
ENDROOT
BRANCH   1   7
ATOM      7  C1' I4B d   1      -1.235  -2.152   0.406  0.00  0.00     0.060 C 
BRANCH   7   8
ATOM      8  C2' I4B d   1       0.083  -1.712  -0.197  0.00  0.00    -0.013 C 
ATOM      9  C4' I4B d   1       0.673  -2.792  -1.065  0.00  0.00     0.013 C 
ATOM     10  C3' I4B d   1      -0.164  -0.459  -0.984  0.00  0.00     0.013 C 
ENDBRANCH   7   8
ENDBRANCH   1   7
TORSDOF 2
ENDMDL
