MODEL 1
REMARK minimizedAffinity 3.32273459
REMARK minimizedRMSD -1
REMARK  1 active torsions:
REMARK  status: ('A' for Active; 'I' for Inactive)
REMARK    1  A    between atoms: C1_2  and  C2_3 
ROOT
ATOM      1  C2  UNL d   1       0.511  -1.203  -2.025  0.00  0.00    -0.073 A 
ATOM      2  C3  UNL d   1       0.601  -1.329  -3.416  0.00  0.00    -0.002 A 
ATOM      3  C4  UNL d   1      -0.555  -1.346  -4.198  0.00  0.00     0.004 A 
ATOM      4  C5  UNL d   1      -1.809  -1.231  -3.599  0.00  0.00    -0.004 A 
ATOM      5  C6  UNL d   1      -1.919  -1.092  -2.212  0.00  0.00    -0.075 A 
ATOM      6  C7  UNL d   1      -3.261  -0.969  -1.552  0.00  0.00     0.076 C 
ATOM      7  C8  UNL d   1      -0.754  -1.079  -1.433  0.00  0.00     0.001 A 
ENDROOT
BRANCH   1   8
ATOM      8  C1  UNL d   1       1.757  -1.178  -1.177  0.00  0.00     0.053 C 
ATOM      9  C   UNL d   1       2.031  -2.525  -0.526  0.00  0.00     0.018 C 
ENDBRANCH   1   8
TORSDOF 1
ENDMDL
