MODEL 1
REMARK minimizedAffinity 0.843043983
REMARK minimizedRMSD -1
REMARK  1 active torsions:
REMARK  status: ('A' for Active; 'I' for Inactive)
REMARK    1  A    between atoms: C1_2  and  C2_3 
ROOT
ATOM      1  C2  UNL d   1       0.567   2.554   1.481  0.00  0.00    -0.073 A 
ATOM      2  C3  UNL d   1       0.450   1.567   0.496  0.00  0.00    -0.002 A 
ATOM      3  C4  UNL d   1       0.060   1.907  -0.800  0.00  0.00     0.004 A 
ATOM      4  C5  UNL d   1      -0.210   3.237  -1.125  0.00  0.00    -0.004 A 
ATOM      5  C6  UNL d   1      -0.088   4.239  -0.158  0.00  0.00    -0.075 A 
ATOM      6  C7  UNL d   1      -0.377   5.673  -0.491  0.00  0.00     0.076 C 
ATOM      7  C8  UNL d   1       0.302   3.888   1.142  0.00  0.00     0.001 A 
ENDROOT
BRANCH   1   8
ATOM      8  C1  UNL d   1       0.993   2.192   2.880  0.00  0.00     0.053 C 
ATOM      9  C   UNL d   1      -0.131   1.539   3.668  0.00  0.00     0.018 C 
ENDBRANCH   1   8
TORSDOF 1
ENDMDL
