MODEL 1
REMARK minimizedAffinity 4.19993591
REMARK minimizedRMSD -1
REMARK  1 active torsions:
REMARK  status: ('A' for Active; 'I' for Inactive)
REMARK    1  A    between atoms: C1_2  and  C2_3 
ROOT
ATOM      1  C2  UNL d   1      -1.002   2.650   1.089  0.00  0.00    -0.073 A 
ATOM      2  C3  UNL d   1      -0.729   1.759   0.045  0.00  0.00    -0.002 A 
ATOM      3  C4  UNL d   1      -0.543   2.232  -1.255  0.00  0.00     0.004 A 
ATOM      4  C5  UNL d   1      -0.620   3.599  -1.523  0.00  0.00    -0.004 A 
ATOM      5  C6  UNL d   1      -0.879   4.506  -0.491  0.00  0.00    -0.075 A 
ATOM      6  C7  UNL d   1      -0.968   5.979  -0.763  0.00  0.00     0.076 C 
ATOM      7  C8  UNL d   1      -1.068   4.023   0.811  0.00  0.00     0.001 A 
ENDROOT
BRANCH   1   8
ATOM      8  C1  UNL d   1      -1.197   2.145   2.495  0.00  0.00     0.053 C 
ATOM      9  C   UNL d   1       0.118   1.749   3.146  0.00  0.00     0.018 C 
ENDBRANCH   1   8
TORSDOF 1
ENDMDL
