MODEL 1
REMARK minimizedAffinity 11.5563688
REMARK minimizedRMSD -1
REMARK  1 active torsions:
REMARK  status: ('A' for Active; 'I' for Inactive)
REMARK    1  A    between atoms: C1_2  and  C2_3 
ROOT
ATOM      1  C2  UNL d   1      -1.231   0.376  -1.270  0.00  0.00    -0.073 A 
ATOM      2  C3  UNL d   1      -1.218  -0.876  -1.894  0.00  0.00    -0.002 A 
ATOM      3  C4  UNL d   1      -2.399  -1.607  -2.036  0.00  0.00     0.004 A 
ATOM      4  C5  UNL d   1      -3.604  -1.090  -1.561  0.00  0.00    -0.004 A 
ATOM      5  C6  UNL d   1      -3.640   0.165  -0.945  0.00  0.00    -0.075 A 
ATOM      6  C7  UNL d   1      -4.929   0.733  -0.427  0.00  0.00     0.076 C 
ATOM      7  C8  UNL d   1      -2.450   0.891  -0.804  0.00  0.00     0.001 A 
ENDROOT
BRANCH   1   8
ATOM      8  C1  UNL d   1       0.040   1.171  -1.121  0.00  0.00     0.053 C 
ATOM      9  C   UNL d   1      -0.186   2.471  -0.366  0.00  0.00     0.018 C 
ENDBRANCH   1   8
TORSDOF 1
ENDMDL
