MODEL 1
REMARK minimizedAffinity 8.96665764
REMARK minimizedRMSD -1
REMARK  1 active torsions:
REMARK  status: ('A' for Active; 'I' for Inactive)
REMARK    1  A    between atoms: C1_2  and  C2_3 
ROOT
ATOM      1  C2  UNL d   1       0.482   0.225   3.328  0.00  0.00    -0.073 A 
ATOM      2  C3  UNL d   1      -0.737   0.572   2.733  0.00  0.00    -0.002 A 
ATOM      3  C4  UNL d   1      -0.974   1.887   2.329  0.00  0.00     0.004 A 
ATOM      4  C5  UNL d   1       0.004   2.864   2.509  0.00  0.00    -0.004 A 
ATOM      5  C6  UNL d   1       1.232   2.535   3.090  0.00  0.00    -0.075 A 
ATOM      6  C7  UNL d   1       2.294   3.575   3.293  0.00  0.00     0.076 C 
ATOM      7  C8  UNL d   1       1.463   1.213   3.496  0.00  0.00     0.001 A 
ENDROOT
BRANCH   1   8
ATOM      8  C1  UNL d   1       0.746  -1.194   3.760  0.00  0.00     0.053 C 
ATOM      9  C   UNL d   1       0.554  -1.379   5.257  0.00  0.00     0.018 C 
ENDBRANCH   1   8
TORSDOF 1
ENDMDL
