MODEL 1
REMARK minimizedAffinity 11.6966715
REMARK minimizedRMSD -1
REMARK  1 active torsions:
REMARK  status: ('A' for Active; 'I' for Inactive)
REMARK    1  A    between atoms: C1_2  and  C2_3 
ROOT
ATOM      1  C2  UNL d   1      -0.960   1.611  -0.484  0.00  0.00    -0.073 A 
ATOM      2  C3  UNL d   1      -2.303   1.268  -0.296  0.00  0.00    -0.002 A 
ATOM      3  C4  UNL d   1      -2.819   0.101  -0.861  0.00  0.00     0.004 A 
ATOM      4  C5  UNL d   1      -1.996  -0.738  -1.613  0.00  0.00    -0.004 A 
ATOM      5  C6  UNL d   1      -0.648  -0.418  -1.803  0.00  0.00    -0.075 A 
ATOM      6  C7  UNL d   1       0.250  -1.308  -2.611  0.00  0.00     0.076 C 
ATOM      7  C8  UNL d   1      -0.138   0.757  -1.234  0.00  0.00     0.001 A 
ENDROOT
BRANCH   1   8
ATOM      8  C1  UNL d   1      -0.397   2.867   0.130  0.00  0.00     0.053 C 
ATOM      9  C   UNL d   1      -0.336   4.012  -0.869  0.00  0.00     0.018 C 
ENDBRANCH   1   8
TORSDOF 1
ENDMDL
