MODEL 1
REMARK minimizedAffinity 14.3808708
REMARK minimizedRMSD -1
REMARK  1 active torsions:
REMARK  status: ('A' for Active; 'I' for Inactive)
REMARK    1  A    between atoms: C1_2  and  C2_3 
ROOT
ATOM      1  C2  UNL d   1       3.739  -2.627   0.069  0.00  0.00    -0.073 A 
ATOM      2  C3  UNL d   1       4.428  -1.856  -0.874  0.00  0.00    -0.002 A 
ATOM      3  C4  UNL d   1       5.554  -2.370  -1.518  0.00  0.00     0.004 A 
ATOM      4  C5  UNL d   1       5.999  -3.660  -1.230  0.00  0.00    -0.004 A 
ATOM      5  C6  UNL d   1       5.318  -4.450  -0.299  0.00  0.00    -0.075 A 
ATOM      6  C7  UNL d   1       5.785  -5.839   0.024  0.00  0.00     0.076 C 
ATOM      7  C8  UNL d   1       4.189  -3.926   0.345  0.00  0.00     0.001 A 
ENDROOT
BRANCH   1   8
ATOM      8  C1  UNL d   1       2.518  -2.078   0.761  0.00  0.00     0.053 C 
ATOM      9  C   UNL d   1       2.268  -2.757   2.099  0.00  0.00     0.018 C 
ENDBRANCH   1   8
TORSDOF 1
ENDMDL
