MODEL 1
REMARK minimizedAffinity 2.64382362
REMARK minimizedRMSD -1
REMARK  1 active torsions:
REMARK  status: ('A' for Active; 'I' for Inactive)
REMARK    1  A    between atoms: C1_2  and  C2_3 
ROOT
ATOM      1  C2  UNL d   1      -0.975   1.565  -0.562  0.00  0.00    -0.073 A 
ATOM      2  C3  UNL d   1      -2.285   1.083  -0.666  0.00  0.00    -0.002 A 
ATOM      3  C4  UNL d   1      -2.526  -0.207  -1.139  0.00  0.00     0.004 A 
ATOM      4  C5  UNL d   1      -1.462  -1.031  -1.506  0.00  0.00    -0.004 A 
ATOM      5  C6  UNL d   1      -0.145  -0.572  -1.398  0.00  0.00    -0.075 A 
ATOM      6  C7  UNL d   1       1.010  -1.445  -1.791  0.00  0.00     0.076 C 
ATOM      7  C8  UNL d   1       0.089   0.726  -0.925  0.00  0.00     0.001 A 
ENDROOT
BRANCH   1   8
ATOM      8  C1  UNL d   1      -0.709   2.955  -0.045  0.00  0.00     0.053 C 
ATOM      9  C   UNL d   1      -0.601   3.971  -1.172  0.00  0.00     0.018 C 
ENDBRANCH   1   8
TORSDOF 1
ENDMDL
