MODEL 1
REMARK minimizedAffinity 9.06609535
REMARK minimizedRMSD -1
REMARK  1 active torsions:
REMARK  status: ('A' for Active; 'I' for Inactive)
REMARK    1  A    between atoms: C1_2  and  C2_3 
ROOT
ATOM      1  C2  UNL d   1      -4.537  -2.651   4.861  0.00  0.00    -0.073 A 
ATOM      2  C3  UNL d   1      -5.280  -2.283   5.989  0.00  0.00    -0.002 A 
ATOM      3  C4  UNL d   1      -6.000  -1.088   6.000  0.00  0.00     0.004 A 
ATOM      4  C5  UNL d   1      -5.991  -0.253   4.883  0.00  0.00    -0.004 A 
ATOM      5  C6  UNL d   1      -5.264  -0.608   3.742  0.00  0.00    -0.075 A 
ATOM      6  C7  UNL d   1      -5.242   0.281   2.533  0.00  0.00     0.076 C 
ATOM      7  C8  UNL d   1      -4.541  -1.809   3.740  0.00  0.00     0.001 A 
ENDROOT
BRANCH   1   8
ATOM      8  C1  UNL d   1      -3.762  -3.943   4.842  0.00  0.00     0.053 C 
ATOM      9  C   UNL d   1      -4.543  -5.084   5.475  0.00  0.00     0.018 C 
ENDBRANCH   1   8
TORSDOF 1
ENDMDL
