MODEL 1
REMARK minimizedAffinity -5.12443161
REMARK minimizedRMSD -1
REMARK  1 active torsions:
REMARK  status: ('A' for Active; 'I' for Inactive)
REMARK    1  A    between atoms: C1_2  and  C2_3 
ROOT
ATOM      1  C2  UNL d   1       1.115   0.267  -0.603  0.00  0.00    -0.076 A 
ATOM      2  C3  UNL d   1       0.234  -0.638   0.014  0.00  0.00     0.004 A 
ATOM      3  C4  UNL d   1      -1.134  -0.376   0.079  0.00  0.00    -0.003 A 
ATOM      4  C5  UNL d   1      -1.643   0.795  -0.472  0.00  0.00     0.000 A 
ATOM      5  C6  UNL d   1      -0.785   1.695  -1.103  0.00  0.00     0.000 A 
ATOM      6  C7  UNL d   1       0.594   1.439  -1.192  0.00  0.00    -0.073 A 
ATOM      7  C8  UNL d   1       1.473   2.448  -1.879  0.00  0.00     0.078 C 
ENDROOT
BRANCH   1   8
ATOM      8  C1  UNL d   1       2.592  -0.057  -0.619  0.00  0.00     0.053 C 
ATOM      9  C   UNL d   1       3.001  -0.847  -1.853  0.00  0.00     0.018 C 
ENDBRANCH   1   8
TORSDOF 1
ENDMDL
