MODEL 1
REMARK minimizedAffinity -5.75149536
REMARK minimizedRMSD -1
REMARK  1 active torsions:
REMARK  status: ('A' for Active; 'I' for Inactive)
REMARK    1  A    between atoms: C1_2  and  C2_3 
ROOT
ATOM      1  C2  UNL d   1       0.550   0.280  -1.043  0.00  0.00    -0.076 A 
ATOM      2  C3  UNL d   1       1.016  -0.895  -0.428  0.00  0.00     0.004 A 
ATOM      3  C4  UNL d   1       2.275  -1.412  -0.729  0.00  0.00    -0.003 A 
ATOM      4  C5  UNL d   1       3.088  -0.762  -1.650  0.00  0.00     0.000 A 
ATOM      5  C6  UNL d   1       2.650   0.414  -2.257  0.00  0.00     0.000 A 
ATOM      6  C7  UNL d   1       1.390   0.958  -1.952  0.00  0.00    -0.073 A 
ATOM      7  C8  UNL d   1       0.965   2.226  -2.640  0.00  0.00     0.078 C 
ENDROOT
BRANCH   1   8
ATOM      8  C1  UNL d   1      -0.835   0.778  -0.696  0.00  0.00     0.053 C 
ATOM      9  C   UNL d   1      -1.065   0.864   0.805  0.00  0.00     0.018 C 
ENDBRANCH   1   8
TORSDOF 1
ENDMDL
