MODEL 1
REMARK minimizedAffinity -3.58786082
REMARK minimizedRMSD -1
REMARK  1 active torsions:
REMARK  status: ('A' for Active; 'I' for Inactive)
REMARK    1  A    between atoms: C1_2  and  C2_3 
ROOT
ATOM      1  C2  UNL d   1       0.181   0.003  -0.131  0.00  0.00    -0.076 A 
ATOM      2  C3  UNL d   1       1.131   1.030   0.011  0.00  0.00     0.004 A 
ATOM      3  C4  UNL d   1       2.489   0.783  -0.184  0.00  0.00    -0.003 A 
ATOM      4  C5  UNL d   1       2.919  -0.494  -0.527  0.00  0.00     0.000 A 
ATOM      5  C6  UNL d   1       1.989  -1.520  -0.690  0.00  0.00     0.000 A 
ATOM      6  C7  UNL d   1       0.615  -1.285  -0.512  0.00  0.00    -0.073 A 
ATOM      7  C8  UNL d   1      -0.344  -2.429  -0.695  0.00  0.00     0.078 C 
ENDROOT
BRANCH   1   8
ATOM      8  C1  UNL d   1      -1.275   0.324   0.120  0.00  0.00     0.053 C 
ATOM      9  C   UNL d   1      -1.544   0.714   1.565  0.00  0.00     0.018 C 
ENDBRANCH   1   8
TORSDOF 1
ENDMDL
