MODEL 1
REMARK minimizedAffinity 0.250389963
REMARK minimizedRMSD -1
REMARK  1 active torsions:
REMARK  status: ('A' for Active; 'I' for Inactive)
REMARK    1  A    between atoms: C1_2  and  C2_3 
ROOT
ATOM      1  C2  UNL d   1       1.025  -1.170  -1.100  0.00  0.00    -0.076 A 
ATOM      2  C3  UNL d   1      -0.331  -1.202  -0.733  0.00  0.00     0.004 A 
ATOM      3  C4  UNL d   1      -0.885  -0.196   0.058  0.00  0.00    -0.003 A 
ATOM      4  C5  UNL d   1      -0.090   0.859   0.494  0.00  0.00     0.000 A 
ATOM      5  C6  UNL d   1       1.253   0.916   0.124  0.00  0.00     0.000 A 
ATOM      6  C7  UNL d   1       1.823  -0.081  -0.686  0.00  0.00    -0.073 A 
ATOM      7  C8  UNL d   1       3.278   0.027  -1.049  0.00  0.00     0.078 C 
ENDROOT
BRANCH   1   8
ATOM      8  C1  UNL d   1       1.576  -2.302  -1.936  0.00  0.00     0.053 C 
ATOM      9  C   UNL d   1       1.260  -2.142  -3.415  0.00  0.00     0.018 C 
ENDBRANCH   1   8
TORSDOF 1
ENDMDL
