MODEL 1
REMARK minimizedAffinity -1.57755411
REMARK minimizedRMSD -1
REMARK  1 active torsions:
REMARK  status: ('A' for Active; 'I' for Inactive)
REMARK    1  A    between atoms: C1_2  and  C2_3 
ROOT
ATOM      1  C2  UNL d   1      -0.991   0.422   1.025  0.00  0.00    -0.076 A 
ATOM      2  C3  UNL d   1       0.240  -0.061   1.501  0.00  0.00     0.004 A 
ATOM      3  C4  UNL d   1       1.256  -0.428   0.621  0.00  0.00    -0.003 A 
ATOM      4  C5  UNL d   1       1.058  -0.317  -0.751  0.00  0.00     0.000 A 
ATOM      5  C6  UNL d   1      -0.151   0.177  -1.241  0.00  0.00     0.000 A 
ATOM      6  C7  UNL d   1      -1.179   0.567  -0.366  0.00  0.00    -0.073 A 
ATOM      7  C8  UNL d   1      -2.465   1.087  -0.950  0.00  0.00     0.078 C 
ENDROOT
BRANCH   1   8
ATOM      8  C1  UNL d   1      -2.066   0.779   2.027  0.00  0.00     0.053 C 
ATOM      9  C   UNL d   1      -1.559   0.751   3.460  0.00  0.00     0.018 C 
ENDBRANCH   1   8
TORSDOF 1
ENDMDL
