MODEL 1
REMARK minimizedAffinity -3.84660625
REMARK minimizedRMSD -1
REMARK  1 active torsions:
REMARK  status: ('A' for Active; 'I' for Inactive)
REMARK    1  A    between atoms: C1_2  and  C2_3 
ROOT
ATOM      1  C2  UNL d   1       1.370   1.086  -0.990  0.00  0.00    -0.076 A 
ATOM      2  C3  UNL d   1       2.356   0.111  -1.222  0.00  0.00     0.004 A 
ATOM      3  C4  UNL d   1       2.964  -0.010  -2.470  0.00  0.00    -0.003 A 
ATOM      4  C5  UNL d   1       2.597   0.843  -3.506  0.00  0.00     0.000 A 
ATOM      5  C6  UNL d   1       1.633   1.826  -3.288  0.00  0.00     0.000 A 
ATOM      6  C7  UNL d   1       1.022   1.972  -2.031  0.00  0.00    -0.073 A 
ATOM      7  C8  UNL d   1      -0.016   3.047  -1.853  0.00  0.00     0.078 C 
ENDROOT
BRANCH   1   8
ATOM      8  C1  UNL d   1       0.725   1.152   0.377  0.00  0.00     0.053 C 
ATOM      9  C   UNL d   1      -0.348   0.091   0.567  0.00  0.00     0.018 C 
ENDBRANCH   1   8
TORSDOF 1
ENDMDL
