MODEL 1
REMARK minimizedAffinity -1.72240162
REMARK minimizedRMSD -1
REMARK  1 active torsions:
REMARK  status: ('A' for Active; 'I' for Inactive)
REMARK    1  A    between atoms: C1_2  and  C2_3 
ROOT
ATOM      1  C2  UNL d   1       0.052  -0.117   0.463  0.00  0.00    -0.076 A 
ATOM      2  C3  UNL d   1       1.093   0.805   0.256  0.00  0.00     0.004 A 
ATOM      3  C4  UNL d   1       2.070   0.579  -0.712  0.00  0.00    -0.003 A 
ATOM      4  C5  UNL d   1       2.022  -0.573  -1.490  0.00  0.00     0.000 A 
ATOM      5  C6  UNL d   1       0.987  -1.490  -1.310  0.00  0.00     0.000 A 
ATOM      6  C7  UNL d   1      -0.015  -1.269  -0.350  0.00  0.00    -0.073 A 
ATOM      7  C8  UNL d   1      -1.105  -2.294  -0.195  0.00  0.00     0.078 C 
ENDROOT
BRANCH   1   8
ATOM      8  C1  UNL d   1      -0.964   0.168   1.546  0.00  0.00     0.053 C 
ATOM      9  C   UNL d   1      -2.292   0.651   0.985  0.00  0.00     0.018 C 
ENDBRANCH   1   8
TORSDOF 1
ENDMDL
