MODEL 1
REMARK minimizedAffinity -3.87630725
REMARK minimizedRMSD -1
REMARK  1 active torsions:
REMARK  status: ('A' for Active; 'I' for Inactive)
REMARK    1  A    between atoms: C1_2  and  C2_3 
ROOT
ATOM      1  C2  UNL d   1       0.515  -0.558   0.333  0.00  0.00    -0.076 A 
ATOM      2  C3  UNL d   1       1.327   0.457  -0.201  0.00  0.00     0.004 A 
ATOM      3  C4  UNL d   1       2.130   0.223  -1.317  0.00  0.00    -0.003 A 
ATOM      4  C5  UNL d   1       2.133  -1.031  -1.917  0.00  0.00     0.000 A 
ATOM      5  C6  UNL d   1       1.320  -2.046  -1.411  0.00  0.00     0.000 A 
ATOM      6  C7  UNL d   1       0.493  -1.821  -0.298  0.00  0.00    -0.073 A 
ATOM      7  C8  UNL d   1      -0.359  -2.953   0.209  0.00  0.00     0.078 C 
ENDROOT
BRANCH   1   8
ATOM      8  C1  UNL d   1      -0.313  -0.254   1.560  0.00  0.00     0.053 C 
ATOM      9  C   UNL d   1      -1.388   0.788   1.293  0.00  0.00     0.018 C 
ENDBRANCH   1   8
TORSDOF 1
ENDMDL
