MODEL 1
REMARK minimizedAffinity -2.57766652
REMARK minimizedRMSD -1
REMARK  1 active torsions:
REMARK  status: ('A' for Active; 'I' for Inactive)
REMARK    1  A    between atoms: C1_2  and  C2_3 
ROOT
ATOM      1  C2  UNL d   1       0.393  -0.209   0.056  0.00  0.00    -0.076 A 
ATOM      2  C3  UNL d   1       1.468   0.591  -0.370  0.00  0.00     0.004 A 
ATOM      3  C4  UNL d   1       2.410   0.105  -1.275  0.00  0.00    -0.003 A 
ATOM      4  C5  UNL d   1       2.292  -1.189  -1.769  0.00  0.00     0.000 A 
ATOM      5  C6  UNL d   1       1.223  -1.991  -1.372  0.00  0.00     0.000 A 
ATOM      6  C7  UNL d   1       0.255  -1.510  -0.473  0.00  0.00    -0.073 A 
ATOM      7  C8  UNL d   1      -0.874  -2.420  -0.073  0.00  0.00     0.078 C 
ENDROOT
BRANCH   1   8
ATOM      8  C1  UNL d   1      -0.583   0.363   1.059  0.00  0.00     0.053 C 
ATOM      9  C   UNL d   1      -1.732   1.106   0.396  0.00  0.00     0.018 C 
ENDBRANCH   1   8
TORSDOF 1
ENDMDL
