MODEL 1
REMARK minimizedAffinity -1.99627018
REMARK minimizedRMSD -1
REMARK  1 active torsions:
REMARK  status: ('A' for Active; 'I' for Inactive)
REMARK    1  A    between atoms: C1_2  and  C2_3 
ROOT
ATOM      1  C2  UNL d   1      -0.075   0.002  -0.389  0.00  0.00    -0.073 A 
ATOM      2  C3  UNL d   1      -0.002   0.414  -1.724  0.00  0.00    -0.002 A 
ATOM      3  C4  UNL d   1      -1.131   0.352  -2.543  0.00  0.00     0.004 A 
ATOM      4  C5  UNL d   1      -2.342  -0.116  -2.035  0.00  0.00    -0.004 A 
ATOM      5  C6  UNL d   1      -2.437  -0.521  -0.700  0.00  0.00    -0.075 A 
ATOM      6  C7  UNL d   1      -3.733  -1.029  -0.138  0.00  0.00     0.076 C 
ATOM      7  C8  UNL d   1      -1.299  -0.458   0.116  0.00  0.00     0.001 A 
ENDROOT
BRANCH   1   8
ATOM      8  C1  UNL d   1       1.139   0.073   0.501  0.00  0.00     0.053 C 
ATOM      9  C   UNL d   1       2.199   1.012  -0.054  0.00  0.00     0.018 C 
ENDBRANCH   1   8
TORSDOF 1
ENDMDL
