MODEL 1
REMARK minimizedAffinity -2.55926847
REMARK minimizedRMSD -1
REMARK  1 active torsions:
REMARK  status: ('A' for Active; 'I' for Inactive)
REMARK    1  A    between atoms: C1_2  and  C2_3 
ROOT
ATOM      1  C2  UNL d   1      -1.266  -0.567  -2.314  0.00  0.00    -0.073 A 
ATOM      2  C3  UNL d   1      -2.249  -1.349  -1.697  0.00  0.00    -0.002 A 
ATOM      3  C4  UNL d   1      -2.207  -1.578  -0.321  0.00  0.00     0.004 A 
ATOM      4  C5  UNL d   1      -1.188  -1.023   0.452  0.00  0.00    -0.004 A 
ATOM      5  C6  UNL d   1      -0.203  -0.229  -0.144  0.00  0.00    -0.075 A 
ATOM      6  C7  UNL d   1       0.902   0.373   0.674  0.00  0.00     0.076 C 
ATOM      7  C8  UNL d   1      -0.250  -0.006  -1.526  0.00  0.00     0.001 A 
ENDROOT
BRANCH   1   8
ATOM      8  C1  UNL d   1      -1.310  -0.311  -3.798  0.00  0.00     0.053 C 
ATOM      9  C   UNL d   1      -0.835   1.089  -4.150  0.00  0.00     0.018 C 
ENDBRANCH   1   8
TORSDOF 1
ENDMDL
