MODEL 1
REMARK minimizedAffinity -3.22832894
REMARK minimizedRMSD -1
REMARK  1 active torsions:
REMARK  status: ('A' for Active; 'I' for Inactive)
REMARK    1  A    between atoms: C1_2  and  C2_3 
ROOT
ATOM      1  C2  UNL d   1      -2.061  -1.043  -0.058  0.00  0.00    -0.073 A 
ATOM      2  C3  UNL d   1      -1.908  -1.138  -1.446  0.00  0.00    -0.002 A 
ATOM      3  C4  UNL d   1      -1.256  -0.127  -2.154  0.00  0.00     0.004 A 
ATOM      4  C5  UNL d   1      -0.746   0.983  -1.482  0.00  0.00    -0.004 A 
ATOM      5  C6  UNL d   1      -0.878   1.090  -0.093  0.00  0.00    -0.075 A 
ATOM      6  C7  UNL d   1      -0.337   2.279   0.644  0.00  0.00     0.076 C 
ATOM      7  C8  UNL d   1      -1.537   0.072   0.610  0.00  0.00     0.001 A 
ENDROOT
BRANCH   1   8
ATOM      8  C1  UNL d   1      -2.759  -2.135   0.711  0.00  0.00     0.053 C 
ATOM      9  C   UNL d   1      -1.774  -3.051   1.421  0.00  0.00     0.018 C 
ENDBRANCH   1   8
TORSDOF 1
ENDMDL
