MODEL 1
REMARK minimizedAffinity -4.74766207
REMARK minimizedRMSD -1
REMARK  1 active torsions:
REMARK  status: ('A' for Active; 'I' for Inactive)
REMARK    1  A    between atoms: C1_2  and  C2_3 
ROOT
ATOM      1  C2  UNL d   1      -1.373  -0.752  -0.951  0.00  0.00    -0.073 A 
ATOM      2  C3  UNL d   1      -0.644   0.376  -1.344  0.00  0.00    -0.002 A 
ATOM      3  C4  UNL d   1       0.562   0.689  -0.716  0.00  0.00     0.004 A 
ATOM      4  C5  UNL d   1       1.055  -0.124   0.304  0.00  0.00    -0.004 A 
ATOM      5  C6  UNL d   1       0.347  -1.263   0.702  0.00  0.00    -0.075 A 
ATOM      6  C7  UNL d   1       0.862  -2.147   1.799  0.00  0.00     0.076 C 
ATOM      7  C8  UNL d   1      -0.865  -1.569   0.069  0.00  0.00     0.001 A 
ENDROOT
BRANCH   1   8
ATOM      8  C1  UNL d   1      -2.673  -1.098  -1.630  0.00  0.00     0.053 C 
ATOM      9  C   UNL d   1      -3.738  -1.531  -0.636  0.00  0.00     0.018 C 
ENDBRANCH   1   8
TORSDOF 1
ENDMDL
