MODEL 1
REMARK minimizedAffinity -4.65636158
REMARK minimizedRMSD -1
REMARK  1 active torsions:
REMARK  status: ('A' for Active; 'I' for Inactive)
REMARK    1  A    between atoms: C1_2  and  C2_3 
ROOT
ATOM      1  C2  UNL d   1      -2.526  -1.652  -0.446  0.00  0.00    -0.073 A 
ATOM      2  C3  UNL d   1      -2.503  -2.947   0.084  0.00  0.00    -0.002 A 
ATOM      3  C4  UNL d   1      -2.445  -4.054  -0.764  0.00  0.00     0.004 A 
ATOM      4  C5  UNL d   1      -2.401  -3.878  -2.147  0.00  0.00    -0.004 A 
ATOM      5  C6  UNL d   1      -2.411  -2.591  -2.695  0.00  0.00    -0.075 A 
ATOM      6  C7  UNL d   1      -2.367  -2.385  -4.180  0.00  0.00     0.076 C 
ATOM      7  C8  UNL d   1      -2.473  -1.484  -1.837  0.00  0.00     0.001 A 
ENDROOT
BRANCH   1   8
ATOM      8  C1  UNL d   1      -2.582  -0.453   0.465  0.00  0.00     0.053 C 
ATOM      9  C   UNL d   1      -1.395  -0.401   1.414  0.00  0.00     0.018 C 
ENDBRANCH   1   8
TORSDOF 1
ENDMDL
