MODEL 1
REMARK minimizedAffinity -2.80947924
REMARK minimizedRMSD -1
REMARK  1 active torsions:
REMARK  status: ('A' for Active; 'I' for Inactive)
REMARK    1  A    between atoms: C1_2  and  C2_3 
ROOT
ATOM      1  C2  UNL d   1      -2.179  -1.864  -1.733  0.00  0.00    -0.073 A 
ATOM      2  C3  UNL d   1      -2.476  -2.746  -0.687  0.00  0.00    -0.002 A 
ATOM      3  C4  UNL d   1      -2.098  -2.441   0.621  0.00  0.00     0.004 A 
ATOM      4  C5  UNL d   1      -1.427  -1.250   0.898  0.00  0.00    -0.004 A 
ATOM      5  C6  UNL d   1      -1.132  -0.350  -0.131  0.00  0.00    -0.075 A 
ATOM      6  C7  UNL d   1      -0.409   0.934   0.150  0.00  0.00     0.076 C 
ATOM      7  C8  UNL d   1      -1.513  -0.665  -1.443  0.00  0.00     0.001 A 
ENDROOT
BRANCH   1   8
ATOM      8  C1  UNL d   1      -2.591  -2.186  -3.146  0.00  0.00     0.053 C 
ATOM      9  C   UNL d   1      -2.066  -3.539  -3.598  0.00  0.00     0.018 C 
ENDBRANCH   1   8
TORSDOF 1
ENDMDL
