MODEL 1
REMARK minimizedAffinity -5.28192759
REMARK minimizedRMSD -1
REMARK  1 active torsions:
REMARK  status: ('A' for Active; 'I' for Inactive)
REMARK    1  A    between atoms: C1_2  and  C2_3 
ROOT
ATOM      1  C2  UNL d   1      -0.839  -0.085  -0.688  0.00  0.00    -0.073 A 
ATOM      2  C3  UNL d   1      -2.054  -0.097  -1.381  0.00  0.00    -0.002 A 
ATOM      3  C4  UNL d   1      -3.060  -0.997  -1.026  0.00  0.00     0.004 A 
ATOM      4  C5  UNL d   1      -2.863  -1.889   0.029  0.00  0.00    -0.004 A 
ATOM      5  C6  UNL d   1      -1.659  -1.885   0.741  0.00  0.00    -0.075 A 
ATOM      6  C7  UNL d   1      -1.431  -2.839   1.876  0.00  0.00     0.076 C 
ATOM      7  C8  UNL d   1      -0.654  -0.979   0.377  0.00  0.00     0.001 A 
ENDROOT
BRANCH   1   8
ATOM      8  C1  UNL d   1       0.247   0.890  -1.063  0.00  0.00     0.053 C 
ATOM      9  C   UNL d   1       1.427   0.825  -0.106  0.00  0.00     0.018 C 
ENDBRANCH   1   8
TORSDOF 1
ENDMDL
