MODEL 1
REMARK minimizedAffinity -6.06658792
REMARK minimizedRMSD -1
REMARK  1 active torsions:
REMARK  status: ('A' for Active; 'I' for Inactive)
REMARK    1  A    between atoms: C1_2  and  C2_3 
ROOT
ATOM      1  C2  UNL d   1      -2.117  -1.207  -0.340  0.00  0.00    -0.073 A 
ATOM      2  C3  UNL d   1      -2.625  -0.677  -1.532  0.00  0.00    -0.002 A 
ATOM      3  C4  UNL d   1      -1.926   0.320  -2.214  0.00  0.00     0.004 A 
ATOM      4  C5  UNL d   1      -0.712   0.792  -1.716  0.00  0.00    -0.004 A 
ATOM      5  C6  UNL d   1      -0.183   0.268  -0.533  0.00  0.00    -0.075 A 
ATOM      6  C7  UNL d   1       1.121   0.767   0.018  0.00  0.00     0.076 C 
ATOM      7  C8  UNL d   1      -0.892  -0.731   0.148  0.00  0.00     0.001 A 
ENDROOT
BRANCH   1   8
ATOM      8  C1  UNL d   1      -2.865  -2.288   0.396  0.00  0.00     0.053 C 
ATOM      9  C   UNL d   1      -1.924  -3.247   1.109  0.00  0.00     0.018 C 
ENDBRANCH   1   8
TORSDOF 1
ENDMDL
