MODEL 1
REMARK minimizedAffinity -1.1027503
REMARK minimizedRMSD -1
REMARK  1 active torsions:
REMARK  status: ('A' for Active; 'I' for Inactive)
REMARK    1  A    between atoms: C1_2  and  C2_3 
ROOT
ATOM      1  C2  UNL d   1       0.203  -0.074   0.039  0.00  0.00    -0.073 A 
ATOM      2  C3  UNL d   1       0.214  -1.305   0.705  0.00  0.00    -0.002 A 
ATOM      3  C4  UNL d   1      -0.762  -1.600   1.657  0.00  0.00     0.004 A 
ATOM      4  C5  UNL d   1      -1.762  -0.672   1.948  0.00  0.00    -0.004 A 
ATOM      5  C6  UNL d   1      -1.797   0.559   1.285  0.00  0.00    -0.075 A 
ATOM      6  C7  UNL d   1      -2.865   1.569   1.588  0.00  0.00     0.076 C 
ATOM      7  C8  UNL d   1      -0.811   0.849   0.332  0.00  0.00     0.001 A 
ENDROOT
BRANCH   1   8
ATOM      8  C1  UNL d   1       1.251   0.247  -0.995  0.00  0.00     0.053 C 
ATOM      9  C   UNL d   1       0.725   0.080  -2.411  0.00  0.00     0.018 C 
ENDBRANCH   1   8
TORSDOF 1
ENDMDL
