MODEL 1
REMARK minimizedAffinity -5.16795731
REMARK minimizedRMSD -1
REMARK  1 active torsions:
REMARK  status: ('A' for Active; 'I' for Inactive)
REMARK    1  A    between atoms: C1_2  and  C2_3 
ROOT
ATOM      1  C2  UNL d   1       0.083  -0.077  -0.391  0.00  0.00    -0.073 A 
ATOM      2  C3  UNL d   1       0.196   0.034  -1.781  0.00  0.00    -0.002 A 
ATOM      3  C4  UNL d   1      -0.938  -0.057  -2.590  0.00  0.00     0.004 A 
ATOM      4  C5  UNL d   1      -2.194  -0.253  -2.018  0.00  0.00    -0.004 A 
ATOM      5  C6  UNL d   1      -2.329  -0.354  -0.629  0.00  0.00    -0.075 A 
ATOM      6  C7  UNL d   1      -3.674  -0.567   0.002  0.00  0.00     0.076 C 
ATOM      7  C8  UNL d   1      -1.186  -0.264   0.176  0.00  0.00     0.001 A 
ENDROOT
BRANCH   1   8
ATOM      8  C1  UNL d   1       1.303   0.027   0.487  0.00  0.00     0.053 C 
ATOM      9  C   UNL d   1       2.159   1.233   0.133  0.00  0.00     0.018 C 
ENDBRANCH   1   8
TORSDOF 1
ENDMDL
