MODEL 1
REMARK minimizedAffinity -1.66319573
REMARK minimizedRMSD -1
REMARK  1 active torsions:
REMARK  status: ('A' for Active; 'I' for Inactive)
REMARK    1  A    between atoms: C1_2  and  C2_3 
ROOT
ATOM      1  C2  UNL d   1       2.247   1.257   0.549  0.00  0.00    -0.073 A 
ATOM      2  C3  UNL d   1       2.079   1.590   1.898  0.00  0.00    -0.002 A 
ATOM      3  C4  UNL d   1       2.523   2.822   2.380  0.00  0.00     0.004 A 
ATOM      4  C5  UNL d   1       3.132   3.735   1.519  0.00  0.00    -0.004 A 
ATOM      5  C6  UNL d   1       3.298   3.425   0.166  0.00  0.00    -0.075 A 
ATOM      6  C7  UNL d   1       3.953   4.395  -0.773  0.00  0.00     0.076 C 
ATOM      7  C8  UNL d   1       2.852   2.184  -0.310  0.00  0.00     0.001 A 
ENDROOT
BRANCH   1   8
ATOM      8  C1  UNL d   1       1.763  -0.070   0.023  0.00  0.00     0.053 C 
ATOM      9  C   UNL d   1       0.370   0.029  -0.578  0.00  0.00     0.018 C 
ENDBRANCH   1   8
TORSDOF 1
ENDMDL
