MODEL 1
REMARK minimizedAffinity -4.84773731
REMARK minimizedRMSD -1
REMARK  1 active torsions:
REMARK  status: ('A' for Active; 'I' for Inactive)
REMARK    1  A    between atoms: C1_2  and  C2_3 
ROOT
ATOM      1  C2  UNL d   1      -0.248   0.639  -1.235  0.00  0.00    -0.073 A 
ATOM      2  C3  UNL d   1       0.716  -0.197  -1.811  0.00  0.00    -0.002 A 
ATOM      3  C4  UNL d   1       1.394  -1.133  -1.029  0.00  0.00     0.004 A 
ATOM      4  C5  UNL d   1       1.112  -1.248   0.332  0.00  0.00    -0.004 A 
ATOM      5  C6  UNL d   1       0.143  -0.430   0.923  0.00  0.00    -0.075 A 
ATOM      6  C7  UNL d   1      -0.170  -0.540   2.386  0.00  0.00     0.076 C 
ATOM      7  C8  UNL d   1      -0.532   0.509   0.132  0.00  0.00     0.001 A 
ENDROOT
BRANCH   1   8
ATOM      8  C1  UNL d   1      -0.988   1.646  -2.076  0.00  0.00     0.053 C 
ATOM      9  C   UNL d   1      -0.044   2.630  -2.749  0.00  0.00     0.018 C 
ENDBRANCH   1   8
TORSDOF 1
ENDMDL
