MODEL 1
REMARK minimizedAffinity -1.89454949
REMARK minimizedRMSD -1
REMARK  1 active torsions:
REMARK  status: ('A' for Active; 'I' for Inactive)
REMARK    1  A    between atoms: C1_2  and  C2_3 
ROOT
ATOM      1  C2  UNL d   1      -0.735   0.794  -1.136  0.00  0.00    -0.073 A 
ATOM      2  C3  UNL d   1      -1.463   0.810   0.059  0.00  0.00    -0.002 A 
ATOM      3  C4  UNL d   1      -0.995   0.122   1.179  0.00  0.00     0.004 A 
ATOM      4  C5  UNL d   1       0.207  -0.583   1.118  0.00  0.00    -0.004 A 
ATOM      5  C6  UNL d   1       0.955  -0.601  -0.064  0.00  0.00    -0.075 A 
ATOM      6  C7  UNL d   1       2.249  -1.356  -0.147  0.00  0.00     0.076 C 
ATOM      7  C8  UNL d   1       0.477   0.091  -1.185  0.00  0.00     0.001 A 
ENDROOT
BRANCH   1   8
ATOM      8  C1  UNL d   1      -1.233   1.542  -2.346  0.00  0.00     0.053 C 
ATOM      9  C   UNL d   1      -0.401   2.781  -2.633  0.00  0.00     0.018 C 
ENDBRANCH   1   8
TORSDOF 1
ENDMDL
