MODEL 1
REMARK minimizedAffinity -3.57899213
REMARK minimizedRMSD -1
REMARK  1 active torsions:
REMARK  status: ('A' for Active; 'I' for Inactive)
REMARK    1  A    between atoms: C1_2  and  C2_3 
ROOT
ATOM      1  C2  UNL d   1       0.048   1.496  -1.038  0.00  0.00    -0.073 A 
ATOM      2  C3  UNL d   1      -1.237   0.970  -0.862  0.00  0.00    -0.002 A 
ATOM      3  C4  UNL d   1      -1.435  -0.155  -0.060  0.00  0.00     0.004 A 
ATOM      4  C5  UNL d   1      -0.354  -0.760   0.579  0.00  0.00    -0.004 A 
ATOM      5  C6  UNL d   1       0.937  -0.242   0.426  0.00  0.00    -0.075 A 
ATOM      6  C7  UNL d   1       2.111  -0.883   1.105  0.00  0.00     0.076 C 
ATOM      7  C8  UNL d   1       1.128   0.886  -0.383  0.00  0.00     0.001 A 
ENDROOT
BRANCH   1   8
ATOM      8  C1  UNL d   1       0.266   2.714  -1.898  0.00  0.00     0.053 C 
ATOM      9  C   UNL d   1      -1.047   3.333  -2.352  0.00  0.00     0.018 C 
ENDBRANCH   1   8
TORSDOF 1
ENDMDL
