MODEL 1
REMARK minimizedAffinity -0.91834718
REMARK minimizedRMSD -1
REMARK  0 active torsions:
REMARK  status: ('A' for Active; 'I' for Inactive)
ROOT
ATOM      1  N1  IND d   1      -0.708  -2.143   1.748  0.00  0.00    -0.196 N 
ATOM      2  C2  IND d   1      -1.194  -2.803   2.842  0.00  0.00     0.054 A 
ATOM      3  C3  IND d   1      -0.345  -3.789   3.212  0.00  0.00    -0.031 A 
ATOM      4  C4  IND d   1       1.946  -4.429   2.228  0.00  0.00     0.051 A 
ATOM      5  C5  IND d   1       2.796  -4.137   1.199  0.00  0.00    -0.031 A 
ATOM      6  C6  IND d   1       2.517  -3.143   0.283  0.00  0.00     0.015 A 
ATOM      7  C7  IND d   1       1.378  -2.394   0.369  0.00  0.00    -0.016 A 
ATOM      8  C8  IND d   1       0.509  -2.692   1.409  0.00  0.00    -0.047 A 
ATOM      9  C9  IND d   1       0.767  -3.728   2.317  0.00  0.00    -0.096 A 
ATOM     10  HN1 IND d   1      -1.097  -1.494   1.340  0.00  0.00     0.298 HD
ENDROOT
TORSDOF 0
ENDMDL
