MODEL 1
REMARK minimizedAffinity -0.144670412
REMARK minimizedRMSD -1
REMARK  0 active torsions:
REMARK  status: ('A' for Active; 'I' for Inactive)
ROOT
ATOM      1  N1  IND d   1       2.251  -2.975   0.519  0.00  0.00    -0.196 N 
ATOM      2  C2  IND d   1       3.012  -4.110   0.540  0.00  0.00     0.054 A 
ATOM      3  C3  IND d   1       2.485  -5.013   1.398  0.00  0.00    -0.031 A 
ATOM      4  C4  IND d   1       0.326  -4.877   2.794  0.00  0.00     0.051 A 
ATOM      5  C5  IND d   1      -0.685  -4.023   3.133  0.00  0.00    -0.031 A 
ATOM      6  C6  IND d   1      -0.772  -2.751   2.606  0.00  0.00     0.015 A 
ATOM      7  C7  IND d   1       0.146  -2.287   1.707  0.00  0.00    -0.016 A 
ATOM      8  C8  IND d   1       1.178  -3.150   1.365  0.00  0.00    -0.047 A 
ATOM      9  C9  IND d   1       1.296  -4.427   1.929  0.00  0.00    -0.096 A 
ATOM     10  HN1 IND d   1       2.415  -2.270   0.055  0.00  0.00     0.298 HD
ENDROOT
TORSDOF 0
ENDMDL
