MODEL 1
REMARK minimizedAffinity 4.65363216
REMARK minimizedRMSD -1
REMARK  0 active torsions:
REMARK  status: ('A' for Active; 'I' for Inactive)
ROOT
ATOM      1  N1  IND d   1       3.094  -0.392  -0.624  0.00  0.00    -0.196 N 
ATOM      2  C2  IND d   1       3.617   0.798  -0.202  0.00  0.00     0.054 A 
ATOM      3  C3  IND d   1       2.835   1.342   0.757  0.00  0.00    -0.031 A 
ATOM      4  C4  IND d   1       0.707   0.403   1.859  0.00  0.00     0.051 A 
ATOM      5  C5  IND d   1      -0.178  -0.636   1.781  0.00  0.00    -0.031 A 
ATOM      6  C6  IND d   1      -0.013  -1.668   0.881  0.00  0.00     0.015 A 
ATOM      7  C7  IND d   1       1.055  -1.707   0.029  0.00  0.00    -0.016 A 
ATOM      8  C8  IND d   1       1.952  -0.650   0.101  0.00  0.00    -0.047 A 
ATOM      9  C9  IND d   1       1.766   0.422   0.983  0.00  0.00    -0.096 A 
ATOM     10  HN1 IND d   1       3.423  -0.895  -1.239  0.00  0.00     0.298 HD
ENDROOT
TORSDOF 0
ENDMDL
