MODEL 1
REMARK minimizedAffinity 3.32223201
REMARK minimizedRMSD -1
REMARK  0 active torsions:
REMARK  status: ('A' for Active; 'I' for Inactive)
ROOT
ATOM      1  N1  IND d   1       2.559  -2.758  -0.024  0.00  0.00    -0.196 N 
ATOM      2  C2  IND d   1       2.395  -4.056   0.375  0.00  0.00     0.054 A 
ATOM      3  C3  IND d   1       1.394  -4.147   1.279  0.00  0.00    -0.031 A 
ATOM      4  C4  IND d   1      -0.175  -2.313   2.173  0.00  0.00     0.051 A 
ATOM      5  C5  IND d   1      -0.389  -0.964   2.130  0.00  0.00    -0.031 A 
ATOM      6  C6  IND d   1       0.382  -0.127   1.349  0.00  0.00     0.015 A 
ATOM      7  C7  IND d   1       1.394  -0.613   0.570  0.00  0.00    -0.016 A 
ATOM      8  C8  IND d   1       1.619  -1.981   0.616  0.00  0.00    -0.047 A 
ATOM      9  C9  IND d   1       0.867  -2.829   1.440  0.00  0.00    -0.096 A 
ATOM     10  HN1 IND d   1       3.150  -2.475  -0.580  0.00  0.00     0.298 HD
ENDROOT
TORSDOF 0
ENDMDL
