MODEL 1
REMARK minimizedAffinity 6.29157925
REMARK minimizedRMSD -1
REMARK  0 active torsions:
REMARK  status: ('A' for Active; 'I' for Inactive)
ROOT
ATOM      1  N1  IND d   1       1.265  -2.832   0.193  0.00  0.00    -0.196 N 
ATOM      2  C2  IND d   1       0.800  -1.884   1.062  0.00  0.00     0.054 A 
ATOM      3  C3  IND d   1       1.292  -2.101   2.302  0.00  0.00    -0.031 A 
ATOM      4  C4  IND d   1       2.957  -3.890   3.112  0.00  0.00     0.051 A 
ATOM      5  C5  IND d   1       3.634  -5.000   2.692  0.00  0.00    -0.031 A 
ATOM      6  C6  IND d   1       3.557  -5.452   1.391  0.00  0.00     0.015 A 
ATOM      7  C7  IND d   1       2.805  -4.801   0.454  0.00  0.00    -0.016 A 
ATOM      8  C8  IND d   1       2.111  -3.677   0.879  0.00  0.00    -0.047 A 
ATOM      9  C9  IND d   1       2.151  -3.238   2.208  0.00  0.00    -0.096 A 
ATOM     10  HN1 IND d   1       1.064  -2.890  -0.641  0.00  0.00     0.298 HD
ENDROOT
TORSDOF 0
ENDMDL
