MODEL 1
REMARK minimizedAffinity 3.13325071
REMARK minimizedRMSD -1
REMARK  0 active torsions:
REMARK  status: ('A' for Active; 'I' for Inactive)
ROOT
ATOM      1  N1  IND d   1      -4.519   4.895   6.000  0.00  0.00    -0.196 N 
ATOM      2  C2  IND d   1      -3.374   5.254   5.346  0.00  0.00     0.054 A 
ATOM      3  C3  IND d   1      -2.950   4.246   4.551  0.00  0.00    -0.031 A 
ATOM      4  C4  IND d   1      -4.035   1.957   4.093  0.00  0.00     0.051 A 
ATOM      5  C5  IND d   1      -5.072   1.159   4.486  0.00  0.00    -0.031 A 
ATOM      6  C6  IND d   1      -5.999   1.574   5.421  0.00  0.00     0.015 A 
ATOM      7  C7  IND d   1      -5.928   2.814   5.992  0.00  0.00    -0.016 A 
ATOM      8  C8  IND d   1      -4.872   3.624   5.600  0.00  0.00    -0.047 A 
ATOM      9  C9  IND d   1      -3.905   3.192   4.683  0.00  0.00    -0.096 A 
ATOM     10  HN1 IND d   1      -4.947   5.380   6.566  0.00  0.00     0.298 HD
ENDROOT
TORSDOF 0
ENDMDL
