MODEL 1
REMARK minimizedAffinity -1.46327698
REMARK minimizedRMSD -1
REMARK  0 active torsions:
REMARK  status: ('A' for Active; 'I' for Inactive)
ROOT
ATOM      1  N1  IND d   1       2.255  -3.596  -0.083  0.00  0.00    -0.196 N 
ATOM      2  C2  IND d   1       2.455  -4.553   0.872  0.00  0.00     0.054 A 
ATOM      3  C3  IND d   1       1.769  -4.247   1.996  0.00  0.00    -0.031 A 
ATOM      4  C4  IND d   1       0.174  -2.278   2.452  0.00  0.00     0.051 A 
ATOM      5  C5  IND d   1      -0.298  -1.123   1.895  0.00  0.00    -0.031 A 
ATOM      6  C6  IND d   1       0.062  -0.726   0.624  0.00  0.00     0.015 A 
ATOM      7  C7  IND d   1       0.902  -1.480  -0.146  0.00  0.00    -0.016 A 
ATOM      8  C8  IND d   1       1.389  -2.650   0.419  0.00  0.00    -0.047 A 
ATOM      9  C9  IND d   1       1.061  -3.036   1.725  0.00  0.00    -0.096 A 
ATOM     10  HN1 IND d   1       2.611  -3.586  -0.866  0.00  0.00     0.298 HD
ENDROOT
TORSDOF 0
ENDMDL
