MODEL 1
REMARK minimizedAffinity 4.69573975
REMARK minimizedRMSD -1
REMARK  0 active torsions:
REMARK  status: ('A' for Active; 'I' for Inactive)
ROOT
ATOM      1  N1  IND d   1       1.192  -4.253   0.608  0.00  0.00    -0.196 N 
ATOM      2  C2  IND d   1       2.244  -3.605   0.023  0.00  0.00     0.054 A 
ATOM      3  C3  IND d   1       2.165  -2.275   0.255  0.00  0.00    -0.031 A 
ATOM      4  C4  IND d   1       0.451  -0.958   1.653  0.00  0.00     0.051 A 
ATOM      5  C5  IND d   1      -0.714  -1.110   2.351  0.00  0.00    -0.031 A 
ATOM      6  C6  IND d   1      -1.314  -2.342   2.510  0.00  0.00     0.015 A 
ATOM      7  C7  IND d   1      -0.762  -3.476   1.983  0.00  0.00    -0.016 A 
ATOM      8  C8  IND d   1       0.417  -3.324   1.267  0.00  0.00    -0.047 A 
ATOM      9  C9  IND d   1       1.007  -2.070   1.067  0.00  0.00    -0.096 A 
ATOM     10  HN1 IND d   1       1.041  -5.098   0.571  0.00  0.00     0.298 HD
ENDROOT
TORSDOF 0
ENDMDL
