MODEL 1
REMARK minimizedAffinity 3.7055068
REMARK minimizedRMSD -1
REMARK  0 active torsions:
REMARK  status: ('A' for Active; 'I' for Inactive)
ROOT
ATOM      1  N1  IND d   1       2.348  -3.489  -0.337  0.00  0.00    -0.196 N 
ATOM      2  C2  IND d   1       1.995  -4.702   0.185  0.00  0.00     0.054 A 
ATOM      3  C3  IND d   1       1.044  -4.547   1.134  0.00  0.00    -0.031 A 
ATOM      4  C4  IND d   1      -0.150  -2.406   1.918  0.00  0.00     0.051 A 
ATOM      5  C5  IND d   1      -0.142  -1.048   1.760  0.00  0.00    -0.031 A 
ATOM      6  C6  IND d   1       0.712  -0.422   0.874  0.00  0.00     0.015 A 
ATOM      7  C7  IND d   1       1.585  -1.135   0.103  0.00  0.00    -0.016 A 
ATOM      8  C8  IND d   1       1.585  -2.513   0.266  0.00  0.00    -0.047 A 
ATOM      9  C9  IND d   1       0.750  -3.150   1.193  0.00  0.00    -0.096 A 
ATOM     10  HN1 IND d   1       2.946  -3.357  -0.941  0.00  0.00     0.298 HD
ENDROOT
TORSDOF 0
ENDMDL
