MODEL 1
REMARK minimizedAffinity 5.64441109
REMARK minimizedRMSD -1
REMARK  0 active torsions:
REMARK  status: ('A' for Active; 'I' for Inactive)
ROOT
ATOM      1  N1  IND d   1       3.580  -3.158   0.352  0.00  0.00    -0.196 N 
ATOM      2  C2  IND d   1       3.196  -4.307   0.984  0.00  0.00     0.054 A 
ATOM      3  C3  IND d   1       2.064  -4.099   1.693  0.00  0.00    -0.031 A 
ATOM      4  C4  IND d   1       0.616  -1.979   1.876  0.00  0.00     0.051 A 
ATOM      5  C5  IND d   1       0.580  -0.664   1.506  0.00  0.00    -0.031 A 
ATOM      6  C6  IND d   1       1.561  -0.102   0.714  0.00  0.00     0.015 A 
ATOM      7  C7  IND d   1       2.612  -0.841   0.251  0.00  0.00    -0.016 A 
ATOM      8  C8  IND d   1       2.656  -2.175   0.631  0.00  0.00    -0.047 A 
ATOM      9  C9  IND d   1       1.686  -2.740   1.469  0.00  0.00    -0.096 A 
ATOM     10  HN1 IND d   1       4.281  -3.064  -0.138  0.00  0.00     0.298 HD
ENDROOT
TORSDOF 0
ENDMDL
