MODEL 1
REMARK minimizedAffinity -3.40352082
REMARK minimizedRMSD -1
REMARK  0 active torsions:
REMARK  status: ('A' for Active; 'I' for Inactive)
ROOT
ATOM      1  C1  DEN d   1      -1.293   1.338  -1.368  0.00  0.00     0.130 A 
ATOM      2  C2  DEN d   1      -2.099   0.123  -1.449  0.00  0.00    -0.031 A 
ATOM      3  C3  DEN d   1      -1.405  -0.937  -0.691  0.00  0.00     0.027 A 
ATOM      4  C4  DEN d   1       0.825  -0.814   0.600  0.00  0.00     0.027 A 
ATOM      5  C5  DEN d   1       1.878   0.003   0.945  0.00  0.00    -0.003 A 
ATOM      6  C6  DEN d   1       1.965   1.302   0.519  0.00  0.00     0.001 A 
ATOM      7  C7  DEN d   1       0.957   1.836  -0.240  0.00  0.00     0.017 A 
ATOM      8  C8  DEN d   1      -0.105   1.016  -0.599  0.00  0.00    -0.094 A 
ATOM      9  C9  DEN d   1      -0.180  -0.291  -0.148  0.00  0.00    -0.072 A 
ENDROOT
TORSDOF 0
ENDMDL
