MODEL 1
REMARK minimizedAffinity -3.1690433
REMARK minimizedRMSD -1
REMARK  0 active torsions:
REMARK  status: ('A' for Active; 'I' for Inactive)
ROOT
ATOM      1  C1  DEN d   1       1.199   1.679  -0.101  0.00  0.00     0.130 A 
ATOM      2  C2  DEN d   1       2.391   1.451   0.712  0.00  0.00    -0.031 A 
ATOM      3  C3  DEN d   1       2.219   0.169   1.424  0.00  0.00     0.027 A 
ATOM      4  C4  DEN d   1       0.237  -1.480   1.343  0.00  0.00     0.027 A 
ATOM      5  C5  DEN d   1      -1.008  -1.712   0.803  0.00  0.00    -0.003 A 
ATOM      6  C6  DEN d   1      -1.615  -0.821  -0.042  0.00  0.00     0.001 A 
ATOM      7  C7  DEN d   1      -0.957   0.323  -0.409  0.00  0.00     0.017 A 
ATOM      8  C8  DEN d   1       0.296   0.568   0.137  0.00  0.00    -0.094 A 
ATOM      9  C9  DEN d   1       0.898  -0.351   0.980  0.00  0.00    -0.072 A 
ENDROOT
TORSDOF 0
ENDMDL
