MODEL 1
REMARK minimizedAffinity -1.15524673
REMARK minimizedRMSD -1
REMARK  0 active torsions:
REMARK  status: ('A' for Active; 'I' for Inactive)
ROOT
ATOM      1  C1  DEN d   1       2.225   0.555   1.095  0.00  0.00     0.130 A 
ATOM      2  C2  DEN d   1       2.169   1.881   0.486  0.00  0.00    -0.031 A 
ATOM      3  C3  DEN d   1       0.797   2.094  -0.019  0.00  0.00     0.027 A 
ATOM      4  C4  DEN d   1      -1.235   0.509   0.087  0.00  0.00     0.027 A 
ATOM      5  C5  DEN d   1      -1.671  -0.731   0.498  0.00  0.00    -0.003 A 
ATOM      6  C6  DEN d   1      -0.838  -1.635   1.102  0.00  0.00     0.001 A 
ATOM      7  C7  DEN d   1       0.465  -1.295   1.352  0.00  0.00     0.017 A 
ATOM      8  C8  DEN d   1       0.914  -0.049   0.934  0.00  0.00    -0.094 A 
ATOM      9  C9  DEN d   1       0.053   0.856   0.336  0.00  0.00    -0.072 A 
ENDROOT
TORSDOF 0
ENDMDL
