MODEL 1
REMARK minimizedAffinity -1.42327929
REMARK minimizedRMSD -1
REMARK  0 active torsions:
REMARK  status: ('A' for Active; 'I' for Inactive)
ROOT
ATOM      1  C1  DEN d   1       2.711  -1.099   2.256  0.00  0.00     0.130 A 
ATOM      2  C2  DEN d   1       3.598   0.062   2.263  0.00  0.00    -0.031 A 
ATOM      3  C3  DEN d   1       2.907   1.168   1.570  0.00  0.00     0.027 A 
ATOM      4  C4  DEN d   1       0.562   1.197   0.497  0.00  0.00     0.027 A 
ATOM      5  C5  DEN d   1      -0.561   0.444   0.231  0.00  0.00    -0.003 A 
ATOM      6  C6  DEN d   1      -0.657  -0.875   0.588  0.00  0.00     0.001 A 
ATOM      7  C7  DEN d   1       0.371  -1.469   1.272  0.00  0.00     0.017 A 
ATOM      8  C8  DEN d   1       1.508  -0.718   1.538  0.00  0.00    -0.094 A 
ATOM      9  C9  DEN d   1       1.581   0.617   1.179  0.00  0.00    -0.072 A 
ENDROOT
TORSDOF 0
ENDMDL
