MODEL 1
REMARK minimizedAffinity -5.49100304
REMARK minimizedRMSD -1
REMARK  0 active torsions:
REMARK  status: ('A' for Active; 'I' for Inactive)
ROOT
ATOM      1  C1  DEN d   1      -0.897  -1.052   0.526  0.00  0.00     0.130 A 
ATOM      2  C2  DEN d   1      -1.210   0.205  -0.149  0.00  0.00    -0.031 A 
ATOM      3  C3  DEN d   1      -0.032   1.089  -0.037  0.00  0.00     0.027 A 
ATOM      4  C4  DEN d   1       2.235   0.634   1.105  0.00  0.00     0.027 A 
ATOM      5  C5  DEN d   1       2.965  -0.286   1.824  0.00  0.00    -0.003 A 
ATOM      6  C6  DEN d   1       2.452  -1.503   2.186  0.00  0.00     0.001 A 
ATOM      7  C7  DEN d   1       1.187  -1.851   1.792  0.00  0.00     0.017 A 
ATOM      8  C8  DEN d   1       0.441  -0.925   1.074  0.00  0.00    -0.094 A 
ATOM      9  C9  DEN d   1       0.983   0.295   0.707  0.00  0.00    -0.072 A 
ENDROOT
TORSDOF 0
ENDMDL
