MODEL 1
REMARK minimizedAffinity 7.09004259
REMARK minimizedRMSD -1
REMARK  2 active torsions:
REMARK  status: ('A' for Active; 'I' for Inactive)
REMARK    1  A    between atoms: C2'_3  and  C1'_4 
REMARK    2  A    between atoms: C1'_4  and  C1_5 
ROOT
ATOM      1  C1  I4B d   1       2.100  -2.122   3.369  0.00  0.00    -0.075 A 
ATOM      2  C2  I4B d   1       1.051  -2.802   2.803  0.00  0.00     0.003 A 
ATOM      3  C3  I4B d   1      -0.212  -2.177   2.663  0.00  0.00     0.002 A 
ATOM      4  C4  I4B d   1      -0.393  -0.897   3.146  0.00  0.00    -0.004 A 
ATOM      5  C5  I4B d   1       0.678  -0.201   3.699  0.00  0.00     0.002 A 
ATOM      6  C6  I4B d   1       1.936  -0.812   3.800  0.00  0.00     0.003 A 
ENDROOT
BRANCH   1   7
ATOM      7  C1' I4B d   1       3.411  -2.824   3.532  0.00  0.00     0.060 C 
BRANCH   7   8
ATOM      8  C2' I4B d   1       3.904  -2.573   4.942  0.00  0.00    -0.013 C 
ATOM      9  C4' I4B d   1       3.815  -3.820   5.782  0.00  0.00     0.013 C 
ATOM     10  C3' I4B d   1       5.317  -2.077   4.857  0.00  0.00     0.013 C 
ENDBRANCH   7   8
ENDBRANCH   1   7
TORSDOF 2
ENDMDL
