MODEL 1
REMARK minimizedAffinity 10.954196
REMARK minimizedRMSD -1
REMARK  2 active torsions:
REMARK  status: ('A' for Active; 'I' for Inactive)
REMARK    1  A    between atoms: C2'_3  and  C1'_4 
REMARK    2  A    between atoms: C1'_4  and  C1_5 
ROOT
ATOM      1  C1  I4B d   1       2.718  -2.241   3.344  0.00  0.00    -0.075 A 
ATOM      2  C2  I4B d   1       1.625  -1.564   2.864  0.00  0.00     0.003 A 
ATOM      3  C3  I4B d   1       1.192  -1.762   1.531  0.00  0.00     0.002 A 
ATOM      4  C4  I4B d   1       1.906  -2.604   0.703  0.00  0.00    -0.004 A 
ATOM      5  C5  I4B d   1       3.000  -3.307   1.197  0.00  0.00     0.002 A 
ATOM      6  C6  I4B d   1       3.402  -3.135   2.530  0.00  0.00     0.003 A 
ENDROOT
BRANCH   1   7
ATOM      7  C1' I4B d   1       3.168  -1.983   4.747  0.00  0.00     0.060 C 
BRANCH   7   8
ATOM      8  C2' I4B d   1       4.343  -2.896   5.036  0.00  0.00    -0.013 C 
ATOM      9  C4' I4B d   1       5.510  -2.124   5.592  0.00  0.00     0.013 C 
ATOM     10  C3' I4B d   1       3.883  -3.950   5.998  0.00  0.00     0.013 C 
ENDBRANCH   7   8
ENDBRANCH   1   7
TORSDOF 2
ENDMDL
