MODEL 1
REMARK minimizedAffinity 9.14326286
REMARK minimizedRMSD -1
REMARK  2 active torsions:
REMARK  status: ('A' for Active; 'I' for Inactive)
REMARK    1  A    between atoms: C2'_3  and  C1'_4 
REMARK    2  A    between atoms: C1'_4  and  C1_5 
ROOT
ATOM      1  C1  I4B d   1       4.213  -3.004   3.505  0.00  0.00    -0.075 A 
ATOM      2  C2  I4B d   1       4.214  -4.375   3.583  0.00  0.00     0.003 A 
ATOM      3  C3  I4B d   1       4.415  -5.017   4.829  0.00  0.00     0.002 A 
ATOM      4  C4  I4B d   1       4.659  -4.257   5.954  0.00  0.00    -0.004 A 
ATOM      5  C5  I4B d   1       4.634  -2.867   5.877  0.00  0.00     0.002 A 
ATOM      6  C6  I4B d   1       4.397  -2.236   4.647  0.00  0.00     0.003 A 
ENDROOT
BRANCH   1   7
ATOM      7  C1' I4B d   1       4.031  -2.359   2.167  0.00  0.00     0.060 C 
BRANCH   7   8
ATOM      8  C2' I4B d   1       2.598  -2.586   1.731  0.00  0.00    -0.013 C 
ATOM      9  C4' I4B d   1       1.787  -1.321   1.844  0.00  0.00     0.013 C 
ATOM     10  C3' I4B d   1       2.618  -3.091   0.319  0.00  0.00     0.013 C 
ENDBRANCH   7   8
ENDBRANCH   1   7
TORSDOF 2
ENDMDL
