MODEL 1
REMARK minimizedAffinity 11.8837614
REMARK minimizedRMSD -1
REMARK  2 active torsions:
REMARK  status: ('A' for Active; 'I' for Inactive)
REMARK    1  A    between atoms: C2'_3  and  C1'_4 
REMARK    2  A    between atoms: C1'_4  and  C1_5 
ROOT
ATOM      1  C1  I4B d   1       0.181   3.076  -4.252  0.00  0.00    -0.075 A 
ATOM      2  C2  I4B d   1      -0.211   2.522  -3.059  0.00  0.00     0.003 A 
ATOM      3  C3  I4B d   1      -1.468   1.879  -2.951  0.00  0.00     0.002 A 
ATOM      4  C4  I4B d   1      -2.316   1.856  -4.039  0.00  0.00    -0.004 A 
ATOM      5  C5  I4B d   1      -1.907   2.397  -5.254  0.00  0.00     0.002 A 
ATOM      6  C6  I4B d   1      -0.646   3.000  -5.366  0.00  0.00     0.003 A 
ENDROOT
BRANCH   1   7
ATOM      7  C1' I4B d   1       1.501   3.777  -4.322  0.00  0.00     0.060 C 
BRANCH   7   8
ATOM      8  C2' I4B d   1       1.671   4.311  -5.730  0.00  0.00    -0.013 C 
ATOM      9  C4' I4B d   1       0.965   5.630  -5.902  0.00  0.00     0.013 C 
ATOM     10  C3' I4B d   1       3.140   4.444  -6.000  0.00  0.00     0.013 C 
ENDBRANCH   7   8
ENDBRANCH   1   7
TORSDOF 2
ENDMDL
