MODEL 1
REMARK minimizedAffinity -5.33969975
REMARK minimizedRMSD -1
REMARK  0 active torsions:
REMARK  status: ('A' for Active; 'I' for Inactive)
ROOT
ATOM      1  C   UNL d   1       3.518  -1.158  -1.566  0.00  0.00     0.020 A 
ATOM      2  C1  UNL d   1       3.856   0.118  -2.016  0.00  0.00     0.020 A 
ATOM      3  C2  UNL d   1       3.148   1.231  -1.556  0.00  0.00     0.034 A 
ATOM      4  C3  UNL d   1       2.099   1.070  -0.644  0.00  0.00     0.017 A 
ATOM      5  C4  UNL d   1       1.761  -0.211  -0.193  0.00  0.00     0.017 A 
ATOM      6  C5  UNL d   1       2.473  -1.322  -0.656  0.00  0.00     0.034 A 
ATOM      7 Cl   UNL d   1       0.479  -0.489   0.932  0.00  0.00    -0.070 Cl
ATOM      8 Cl1  UNL d   1       1.267   2.490  -0.117  0.00  0.00    -0.070 Cl
ENDROOT
TORSDOF 0
ENDMDL
