MODEL 1
REMARK minimizedAffinity -2.25929093
REMARK minimizedRMSD -1
REMARK  0 active torsions:
REMARK  status: ('A' for Active; 'I' for Inactive)
ROOT
ATOM      1  C   UNL d   1       0.383  -0.224   0.613  0.00  0.00     0.020 A 
ATOM      2  C1  UNL d   1       1.248   0.848   0.393  0.00  0.00     0.020 A 
ATOM      3  C2  UNL d   1       2.506   0.625  -0.171  0.00  0.00     0.034 A 
ATOM      4  C3  UNL d   1       2.903  -0.671  -0.517  0.00  0.00     0.017 A 
ATOM      5  C4  UNL d   1       2.034  -1.746  -0.295  0.00  0.00     0.017 A 
ATOM      6  C5  UNL d   1       0.776  -1.518   0.270  0.00  0.00     0.034 A 
ATOM      7 Cl   UNL d   1       2.454  -3.375  -0.696  0.00  0.00    -0.070 Cl
ATOM      8 Cl1  UNL d   1       4.472  -0.873  -1.210  0.00  0.00    -0.070 Cl
ENDROOT
TORSDOF 0
ENDMDL
