MODEL 1
REMARK minimizedAffinity -5.00827932
REMARK minimizedRMSD -1
REMARK  0 active torsions:
REMARK  status: ('A' for Active; 'I' for Inactive)
ROOT
ATOM      1  C   UNL d   1       0.747  -0.630   0.566  0.00  0.00     0.020 A 
ATOM      2  C1  UNL d   1       1.323  -1.859   0.248  0.00  0.00     0.020 A 
ATOM      3  C2  UNL d   1       2.575  -1.905  -0.369  0.00  0.00     0.034 A 
ATOM      4  C3  UNL d   1       3.256  -0.719  -0.668  0.00  0.00     0.017 A 
ATOM      5  C4  UNL d   1       2.677   0.515  -0.348  0.00  0.00     0.017 A 
ATOM      6  C5  UNL d   1       1.423   0.554   0.269  0.00  0.00     0.034 A 
ATOM      7 Cl   UNL d   1       3.457   2.020  -0.686  0.00  0.00    -0.070 Cl
ATOM      8 Cl1  UNL d   1       4.801  -0.850  -1.430  0.00  0.00    -0.070 Cl
ENDROOT
TORSDOF 0
ENDMDL
