MODEL 1
REMARK minimizedAffinity 1.45325208
REMARK minimizedRMSD -1
REMARK  0 active torsions:
REMARK  status: ('A' for Active; 'I' for Inactive)
ROOT
ATOM      1  C   UNL d   1       1.290  -0.253  -0.055  0.00  0.00     0.020 A 
ATOM      2  C1  UNL d   1       1.894  -1.492  -0.264  0.00  0.00     0.020 A 
ATOM      3  C2  UNL d   1       3.000  -1.596  -1.110  0.00  0.00     0.034 A 
ATOM      4  C3  UNL d   1       3.506  -0.458  -1.750  0.00  0.00     0.017 A 
ATOM      5  C4  UNL d   1       2.900   0.785  -1.539  0.00  0.00     0.017 A 
ATOM      6  C5  UNL d   1       1.792   0.883  -0.691  0.00  0.00     0.034 A 
ATOM      7 Cl   UNL d   1       3.467   2.233  -2.293  0.00  0.00    -0.070 Cl
ATOM      8 Cl1  UNL d   1       4.877  -0.660  -2.782  0.00  0.00    -0.070 Cl
ENDROOT
TORSDOF 0
ENDMDL
