MODEL 1
REMARK minimizedAffinity -1.07010353
REMARK minimizedRMSD -1
REMARK  0 active torsions:
REMARK  status: ('A' for Active; 'I' for Inactive)
ROOT
ATOM      1  C   UNL d   1       1.128  -1.327   0.438  0.00  0.00     0.020 A 
ATOM      2  C1  UNL d   1       0.745   0.009   0.554  0.00  0.00     0.020 A 
ATOM      3  C2  UNL d   1       1.507   1.009  -0.053  0.00  0.00     0.034 A 
ATOM      4  C3  UNL d   1       2.656   0.675  -0.779  0.00  0.00     0.017 A 
ATOM      5  C4  UNL d   1       3.040  -0.666  -0.895  0.00  0.00     0.017 A 
ATOM      6  C5  UNL d   1       2.273  -1.664  -0.285  0.00  0.00     0.034 A 
ATOM      7 Cl   UNL d   1       4.445  -1.156  -1.775  0.00  0.00    -0.070 Cl
ATOM      8 Cl1  UNL d   1       3.551   1.963  -1.504  0.00  0.00    -0.070 Cl
ENDROOT
TORSDOF 0
ENDMDL
