MODEL 1
REMARK minimizedAffinity -1.57415378
REMARK minimizedRMSD -1
REMARK  0 active torsions:
REMARK  status: ('A' for Active; 'I' for Inactive)
ROOT
ATOM      1  C   UNL d   1       1.654  -1.376   0.361  0.00  0.00     0.020 A 
ATOM      2  C1  UNL d   1       1.064  -0.125   0.538  0.00  0.00     0.020 A 
ATOM      3  C2  UNL d   1       1.606   0.998  -0.090  0.00  0.00     0.034 A 
ATOM      4  C3  UNL d   1       2.741   0.873  -0.899  0.00  0.00     0.017 A 
ATOM      5  C4  UNL d   1       3.333  -0.383  -1.076  0.00  0.00     0.017 A 
ATOM      6  C5  UNL d   1       2.786  -1.505  -0.444  0.00  0.00     0.034 A 
ATOM      7 Cl   UNL d   1       4.736  -0.617  -2.058  0.00  0.00    -0.070 Cl
ATOM      8 Cl1  UNL d   1       3.358   2.303  -1.646  0.00  0.00    -0.070 Cl
ENDROOT
TORSDOF 0
ENDMDL
