MODEL 1
REMARK minimizedAffinity -0.238617465
REMARK minimizedRMSD -1
REMARK  0 active torsions:
REMARK  status: ('A' for Active; 'I' for Inactive)
ROOT
ATOM      1  C   UNL d   1       1.500  -1.524   0.476  0.00  0.00     0.020 A 
ATOM      2  C1  UNL d   1       1.067  -0.212   0.665  0.00  0.00     0.020 A 
ATOM      3  C2  UNL d   1       1.724   0.840   0.024  0.00  0.00     0.034 A 
ATOM      4  C3  UNL d   1       2.818   0.582  -0.809  0.00  0.00     0.017 A 
ATOM      5  C4  UNL d   1       3.252  -0.735  -0.999  0.00  0.00     0.017 A 
ATOM      6  C5  UNL d   1       2.590  -1.785  -0.355  0.00  0.00     0.034 A 
ATOM      7 Cl   UNL d   1       4.595  -1.132  -2.013  0.00  0.00    -0.070 Cl
ATOM      8 Cl1  UNL d   1       3.584   1.931  -1.571  0.00  0.00    -0.070 Cl
ENDROOT
TORSDOF 0
ENDMDL
