MODEL 1
REMARK minimizedAffinity -0.320880473
REMARK minimizedRMSD -1
REMARK  0 active torsions:
REMARK  status: ('A' for Active; 'I' for Inactive)
ROOT
ATOM      1  C   UNL d   1       0.876  -0.767   1.294  0.00  0.00     0.020 A 
ATOM      2  C1  UNL d   1       1.979  -1.618   1.235  0.00  0.00     0.020 A 
ATOM      3  C2  UNL d   1       2.968  -1.412   0.271  0.00  0.00     0.034 A 
ATOM      4  C3  UNL d   1       2.856  -0.354  -0.638  0.00  0.00     0.017 A 
ATOM      5  C4  UNL d   1       1.748   0.499  -0.578  0.00  0.00     0.017 A 
ATOM      6  C5  UNL d   1       0.761   0.289   0.390  0.00  0.00     0.034 A 
ATOM      7 Cl   UNL d   1       1.540   1.827  -1.665  0.00  0.00    -0.070 Cl
ATOM      8 Cl1  UNL d   1       4.117  -0.159  -1.803  0.00  0.00    -0.070 Cl
ENDROOT
TORSDOF 0
ENDMDL
