MODEL 1
REMARK minimizedAffinity 0.354665756
REMARK minimizedRMSD -1
REMARK  0 active torsions:
REMARK  status: ('A' for Active; 'I' for Inactive)
ROOT
ATOM      1  C   UNL d   1       2.132  -1.214  -0.566  0.00  0.00     0.020 A 
ATOM      2  C1  UNL d   1       1.710  -0.038   0.054  0.00  0.00     0.020 A 
ATOM      3  C2  UNL d   1       2.419   1.149  -0.144  0.00  0.00     0.034 A 
ATOM      4  C3  UNL d   1       3.553   1.163  -0.963  0.00  0.00     0.017 A 
ATOM      5  C4  UNL d   1       3.976  -0.017  -1.585  0.00  0.00     0.017 A 
ATOM      6  C5  UNL d   1       3.263  -1.203  -1.384  0.00  0.00     0.034 A 
ATOM      7 Cl   UNL d   1       5.366  -0.078  -2.610  0.00  0.00    -0.070 Cl
ATOM      8 Cl1  UNL d   1       4.381   2.667  -1.163  0.00  0.00    -0.070 Cl
ENDROOT
TORSDOF 0
ENDMDL
