MODEL 1
REMARK minimizedAffinity -1.56170619
REMARK minimizedRMSD -1
REMARK  0 active torsions:
REMARK  status: ('A' for Active; 'I' for Inactive)
ROOT
ATOM      1  C   UNL d   1       1.161  -0.366   0.314  0.00  0.00     0.020 A 
ATOM      2  C1  UNL d   1       1.791  -1.606   0.222  0.00  0.00     0.020 A 
ATOM      3  C2  UNL d   1       2.963  -1.740  -0.525  0.00  0.00     0.034 A 
ATOM      4  C3  UNL d   1       3.509  -0.631  -1.183  0.00  0.00     0.017 A 
ATOM      5  C4  UNL d   1       2.875   0.614  -1.089  0.00  0.00     0.017 A 
ATOM      6  C5  UNL d   1       1.702   0.742  -0.340  0.00  0.00     0.034 A 
ATOM      7 Cl   UNL d   1       3.489   2.027  -1.873  0.00  0.00    -0.070 Cl
ATOM      8 Cl1  UNL d   1       4.961  -0.869  -2.089  0.00  0.00    -0.070 Cl
ENDROOT
TORSDOF 0
ENDMDL
