MODEL 1
REMARK minimizedAffinity 0.334111512
REMARK minimizedRMSD -1
REMARK  0 active torsions:
REMARK  status: ('A' for Active; 'I' for Inactive)
ROOT
ATOM      1  C   UNL d   1       3.745  -1.692  -2.109  0.00  0.00     0.020 A 
ATOM      2  C1  UNL d   1       4.090  -0.370  -2.386  0.00  0.00     0.020 A 
ATOM      3  C2  UNL d   1       3.506   0.671  -1.660  0.00  0.00     0.034 A 
ATOM      4  C3  UNL d   1       2.574   0.391  -0.654  0.00  0.00     0.017 A 
ATOM      5  C4  UNL d   1       2.228  -0.937  -0.377  0.00  0.00     0.017 A 
ATOM      6  C5  UNL d   1       2.816  -1.975  -1.107  0.00  0.00     0.034 A 
ATOM      7 Cl   UNL d   1       1.086  -1.361   0.849  0.00  0.00    -0.070 Cl
ATOM      8 Cl1  UNL d   1       1.892   1.727   0.204  0.00  0.00    -0.070 Cl
ENDROOT
TORSDOF 0
ENDMDL
