MODEL 1
REMARK minimizedAffinity -2.88933206
REMARK minimizedRMSD -1
REMARK  0 active torsions:
REMARK  status: ('A' for Active; 'I' for Inactive)
ROOT
ATOM      1  C   UNL d   1       3.201   0.441  -1.555  0.00  0.00     0.020 A 
ATOM      2  C1  UNL d   1       3.588  -0.896  -1.644  0.00  0.00     0.020 A 
ATOM      3  C2  UNL d   1       2.960  -1.859  -0.851  0.00  0.00     0.034 A 
ATOM      4  C3  UNL d   1       1.943  -1.487   0.035  0.00  0.00     0.017 A 
ATOM      5  C4  UNL d   1       1.555  -0.145   0.123  0.00  0.00     0.017 A 
ATOM      6  C5  UNL d   1       2.187   0.815  -0.673  0.00  0.00     0.034 A 
ATOM      7 Cl   UNL d   1       0.307   0.391   1.193  0.00  0.00    -0.070 Cl
ATOM      8 Cl1  UNL d   1       1.210  -2.730   0.985  0.00  0.00    -0.070 Cl
ENDROOT
TORSDOF 0
ENDMDL
