MODEL 1
REMARK minimizedAffinity -2.83374739
REMARK minimizedRMSD -1
REMARK  0 active torsions:
REMARK  status: ('A' for Active; 'I' for Inactive)
ROOT
ATOM      1  C   UNL d   1       0.949   0.158   1.157  0.00  0.00     0.020 A 
ATOM      2  C1  UNL d   1       1.000  -1.236   1.145  0.00  0.00     0.020 A 
ATOM      3  C2  UNL d   1       1.721  -1.899   0.150  0.00  0.00     0.034 A 
ATOM      4  C3  UNL d   1       2.394  -1.170  -0.838  0.00  0.00     0.017 A 
ATOM      5  C4  UNL d   1       2.342   0.229  -0.825  0.00  0.00     0.017 A 
ATOM      6  C5  UNL d   1       1.618   0.888   0.174  0.00  0.00     0.034 A 
ATOM      7 Cl   UNL d   1       3.146   1.197  -2.009  0.00  0.00    -0.070 Cl
ATOM      8 Cl1  UNL d   1       3.266  -2.056  -2.037  0.00  0.00    -0.070 Cl
ENDROOT
TORSDOF 0
ENDMDL
