MODEL 1
REMARK minimizedAffinity 0.315753847
REMARK minimizedRMSD -1
REMARK  0 active torsions:
REMARK  status: ('A' for Active; 'I' for Inactive)
ROOT
ATOM      1  C   UNL d   1       0.758  -0.340   1.583  0.00  0.00     0.020 A 
ATOM      2  C1  UNL d   1       0.821   0.923   0.997  0.00  0.00     0.020 A 
ATOM      3  C2  UNL d   1       1.513   1.103  -0.203  0.00  0.00     0.034 A 
ATOM      4  C3  UNL d   1       2.146   0.017  -0.819  0.00  0.00     0.017 A 
ATOM      5  C4  UNL d   1       2.082  -1.250  -0.230  0.00  0.00     0.017 A 
ATOM      6  C5  UNL d   1       1.388  -1.425   0.971  0.00  0.00     0.034 A 
ATOM      7 Cl   UNL d   1       2.838  -2.638  -0.931  0.00  0.00    -0.070 Cl
ATOM      8 Cl1  UNL d   1       2.984   0.312  -2.302  0.00  0.00    -0.070 Cl
ENDROOT
TORSDOF 0
ENDMDL
