MODEL 1
REMARK minimizedAffinity -0.120119818
REMARK minimizedRMSD -1
REMARK  0 active torsions:
REMARK  status: ('A' for Active; 'I' for Inactive)
ROOT
ATOM      1  C   UNL d   1       1.670  -1.785   0.138  0.00  0.00     0.020 A 
ATOM      2  C1  UNL d   1       1.077  -0.564   0.456  0.00  0.00     0.020 A 
ATOM      3  C2  UNL d   1       1.694   0.631   0.081  0.00  0.00     0.034 A 
ATOM      4  C3  UNL d   1       2.909   0.607  -0.615  0.00  0.00     0.017 A 
ATOM      5  C4  UNL d   1       3.503  -0.619  -0.934  0.00  0.00     0.017 A 
ATOM      6  C5  UNL d   1       2.881  -1.812  -0.555  0.00  0.00     0.034 A 
ATOM      7 Cl   UNL d   1       5.001  -0.728  -1.790  0.00  0.00    -0.070 Cl
ATOM      8 Cl1  UNL d   1       3.616   2.123  -1.049  0.00  0.00    -0.070 Cl
ENDROOT
TORSDOF 0
ENDMDL
