MODEL 1
REMARK minimizedAffinity -3.36551189
REMARK minimizedRMSD -1
REMARK  0 active torsions:
REMARK  status: ('A' for Active; 'I' for Inactive)
ROOT
ATOM      1  C   UNL d   1       1.836  -1.591  -0.334  0.00  0.00     0.020 A 
ATOM      2  C1  UNL d   1       1.263  -0.357  -0.027  0.00  0.00     0.020 A 
ATOM      3  C2  UNL d   1       1.904   0.823  -0.407  0.00  0.00     0.034 A 
ATOM      4  C3  UNL d   1       3.122   0.773  -1.097  0.00  0.00     0.017 A 
ATOM      5  C4  UNL d   1       3.695  -0.466  -1.404  0.00  0.00     0.017 A 
ATOM      6  C5  UNL d   1       3.049  -1.645  -1.021  0.00  0.00     0.034 A 
ATOM      7 Cl   UNL d   1       5.195  -0.609  -2.252  0.00  0.00    -0.070 Cl
ATOM      8 Cl1  UNL d   1       3.859   2.272  -1.537  0.00  0.00    -0.070 Cl
ENDROOT
TORSDOF 0
ENDMDL
