MODEL 1
REMARK minimizedAffinity -1.88531184
REMARK minimizedRMSD -1
REMARK  0 active torsions:
REMARK  status: ('A' for Active; 'I' for Inactive)
ROOT
ATOM      1  C   UNL d   1       3.148   0.035  -1.688  0.00  0.00     0.020 A 
ATOM      2  C1  UNL d   1       2.267   1.106  -1.548  0.00  0.00     0.020 A 
ATOM      3  C2  UNL d   1       1.179   1.006  -0.678  0.00  0.00     0.034 A 
ATOM      4  C3  UNL d   1       0.970  -0.168   0.055  0.00  0.00     0.017 A 
ATOM      5  C4  UNL d   1       1.855  -1.243  -0.087  0.00  0.00     0.017 A 
ATOM      6  C5  UNL d   1       2.943  -1.137  -0.959  0.00  0.00     0.034 A 
ATOM      7 Cl   UNL d   1       1.662  -2.724   0.784  0.00  0.00    -0.070 Cl
ATOM      8 Cl1  UNL d   1      -0.396  -0.223   1.112  0.00  0.00    -0.070 Cl
ENDROOT
TORSDOF 0
ENDMDL
