MODEL 1
REMARK minimizedAffinity -3.44684434
REMARK minimizedRMSD -1
REMARK  0 active torsions:
REMARK  status: ('A' for Active; 'I' for Inactive)
ROOT
ATOM      1  C   UNL d   1       0.530  -0.464  -1.493  0.00  0.00     0.077 C 
ATOM      2  C1  UNL d   1       0.298   0.044  -0.102  0.00  0.00    -0.074 A 
ATOM      3  C2  UNL d   1       0.988  -0.499   0.987  0.00  0.00    -0.005 A 
ATOM      4  C3  UNL d   1       0.770  -0.010   2.274  0.00  0.00     0.006 A 
ATOM      5  C4  UNL d   1      -0.140   1.027   2.486  0.00  0.00    -0.005 A 
ATOM      6  C5  UNL d   1      -0.839   1.584   1.410  0.00  0.00    -0.074 A 
ATOM      7  C6  UNL d   1      -1.813   2.705   1.620  0.00  0.00     0.077 C 
ATOM      8  C7  UNL d   1      -0.608   1.091   0.119  0.00  0.00    -0.001 A 
ENDROOT
TORSDOF 0
ENDMDL
