MODEL 1
REMARK minimizedAffinity -3.92244649
REMARK minimizedRMSD -1
REMARK  0 active torsions:
REMARK  status: ('A' for Active; 'I' for Inactive)
ROOT
ATOM      1  C   UNL d   1      -1.586   2.216   1.237  0.00  0.00     0.077 C 
ATOM      2  C1  UNL d   1      -0.950   1.467   0.104  0.00  0.00    -0.074 A 
ATOM      3  C2  UNL d   1      -0.874   2.027  -1.175  0.00  0.00    -0.005 A 
ATOM      4  C3  UNL d   1      -0.271   1.322  -2.217  0.00  0.00     0.006 A 
ATOM      5  C4  UNL d   1       0.261   0.052  -1.990  0.00  0.00    -0.005 A 
ATOM      6  C5  UNL d   1       0.196  -0.523  -0.717  0.00  0.00    -0.074 A 
ATOM      7  C6  UNL d   1       0.772  -1.883  -0.454  0.00  0.00     0.077 C 
ATOM      8  C7  UNL d   1      -0.405   0.194   0.326  0.00  0.00    -0.001 A 
ENDROOT
TORSDOF 0
ENDMDL
