MODEL 1
REMARK minimizedAffinity 5.24076557
REMARK minimizedRMSD -1
REMARK  0 active torsions:
REMARK  status: ('A' for Active; 'I' for Inactive)
ROOT
ATOM      1  C   UNL d   1      -2.261   2.062  -0.293  0.00  0.00     0.077 C 
ATOM      2  C1  UNL d   1      -1.496   1.066  -1.112  0.00  0.00    -0.074 A 
ATOM      3  C2  UNL d   1      -0.325   1.434  -1.783  0.00  0.00    -0.005 A 
ATOM      4  C3  UNL d   1       0.381   0.494  -2.533  0.00  0.00     0.006 A 
ATOM      5  C4  UNL d   1      -0.075  -0.822  -2.620  0.00  0.00    -0.005 A 
ATOM      6  C5  UNL d   1      -1.243  -1.209  -1.955  0.00  0.00    -0.074 A 
ATOM      7  C6  UNL d   1      -1.742  -2.621  -2.030  0.00  0.00     0.077 C 
ATOM      8  C7  UNL d   1      -1.943  -0.260  -1.198  0.00  0.00    -0.001 A 
ENDROOT
TORSDOF 0
ENDMDL
