MODEL 1
REMARK minimizedAffinity -5.02874184
REMARK minimizedRMSD -1
REMARK  0 active torsions:
REMARK  status: ('A' for Active; 'I' for Inactive)
ROOT
ATOM      1  C   UNL d   1      -1.944   2.231   1.552  0.00  0.00     0.077 C 
ATOM      2  C1  UNL d   1      -0.899   1.207   1.222  0.00  0.00    -0.074 A 
ATOM      3  C2  UNL d   1       0.222   1.034   2.041  0.00  0.00    -0.005 A 
ATOM      4  C3  UNL d   1       1.181   0.072   1.726  0.00  0.00     0.006 A 
ATOM      5  C4  UNL d   1       1.030  -0.726   0.591  0.00  0.00    -0.005 A 
ATOM      6  C5  UNL d   1      -0.085  -0.568  -0.239  0.00  0.00    -0.074 A 
ATOM      7  C6  UNL d   1      -0.267  -1.424  -1.457  0.00  0.00     0.077 C 
ATOM      8  C7  UNL d   1      -1.048   0.397   0.088  0.00  0.00    -0.001 A 
ENDROOT
TORSDOF 0
ENDMDL
