MODEL 1
REMARK minimizedAffinity -4.13820505
REMARK minimizedRMSD -1
REMARK  0 active torsions:
REMARK  status: ('A' for Active; 'I' for Inactive)
ROOT
ATOM      1  C   UNL d   1      -0.723   2.933  -1.710  0.00  0.00     0.077 C 
ATOM      2  C1  UNL d   1      -0.514   1.926  -0.618  0.00  0.00    -0.074 A 
ATOM      3  C2  UNL d   1      -0.689   2.275   0.725  0.00  0.00    -0.005 A 
ATOM      4  C3  UNL d   1      -0.501   1.325   1.728  0.00  0.00     0.006 A 
ATOM      5  C4  UNL d   1      -0.136   0.019   1.400  0.00  0.00    -0.005 A 
ATOM      6  C5  UNL d   1       0.043  -0.349   0.063  0.00  0.00    -0.074 A 
ATOM      7  C6  UNL d   1       0.425  -1.751  -0.307  0.00  0.00     0.077 C 
ATOM      8  C7  UNL d   1      -0.155   0.610  -0.940  0.00  0.00    -0.001 A 
ENDROOT
TORSDOF 0
ENDMDL
