MODEL 1
REMARK minimizedAffinity -3.76366067
REMARK minimizedRMSD -1
REMARK  0 active torsions:
REMARK  status: ('A' for Active; 'I' for Inactive)
ROOT
ATOM      1  C   UNL d   1      -1.474   1.984   2.014  0.00  0.00     0.077 C 
ATOM      2  C1  UNL d   1      -0.798   1.102   1.007  0.00  0.00    -0.074 A 
ATOM      3  C2  UNL d   1      -0.382  -0.190   1.347  0.00  0.00    -0.005 A 
ATOM      4  C3  UNL d   1       0.237  -1.002   0.397  0.00  0.00     0.006 A 
ATOM      5  C4  UNL d   1       0.445  -0.532  -0.901  0.00  0.00    -0.005 A 
ATOM      6  C5  UNL d   1       0.035   0.756  -1.259  0.00  0.00    -0.074 A 
ATOM      7  C6  UNL d   1       0.243   1.273  -2.651  0.00  0.00     0.077 C 
ATOM      8  C7  UNL d   1      -0.592   1.564  -0.300  0.00  0.00    -0.001 A 
ENDROOT
TORSDOF 0
ENDMDL
