MODEL 1
REMARK minimizedAffinity -1.74610245
REMARK minimizedRMSD -1
REMARK  0 active torsions:
REMARK  status: ('A' for Active; 'I' for Inactive)
ROOT
ATOM      1  N1  IND d   1       2.592  -4.755   1.119  0.00  0.00    -0.196 N 
ATOM      2  C2  IND d   1       1.574  -5.395   1.769  0.00  0.00     0.054 A 
ATOM      3  C3  IND d   1       2.037  -6.000   2.887  0.00  0.00    -0.031 A 
ATOM      4  C4  IND d   1       4.406  -5.983   3.894  0.00  0.00     0.051 A 
ATOM      5  C5  IND d   1       5.682  -5.562   3.640  0.00  0.00    -0.031 A 
ATOM      6  C6  IND d   1       5.998  -4.834   2.511  0.00  0.00     0.015 A 
ATOM      7  C7  IND d   1       5.045  -4.488   1.596  0.00  0.00    -0.016 A 
ATOM      8  C8  IND d   1       3.750  -4.919   1.847  0.00  0.00    -0.047 A 
ATOM      9  C9  IND d   1       3.430  -5.695   2.969  0.00  0.00    -0.096 A 
ATOM     10  HN1 IND d   1       2.521  -4.322   0.380  0.00  0.00     0.298 HD
ENDROOT
TORSDOF 0
ENDMDL
