MODEL 1
REMARK minimizedAffinity -0.117164187
REMARK minimizedRMSD -1
REMARK  0 active torsions:
REMARK  status: ('A' for Active; 'I' for Inactive)
ROOT
ATOM      1  N1  IND d   1       5.935  -2.230   5.758  0.00  0.00    -0.196 N 
ATOM      2  C2  IND d   1       5.834  -1.360   4.709  0.00  0.00     0.054 A 
ATOM      3  C3  IND d   1       5.766  -2.036   3.540  0.00  0.00    -0.031 A 
ATOM      4  C4  IND d   1       5.701  -4.576   3.123  0.00  0.00     0.051 A 
ATOM      5  C5  IND d   1       5.804  -5.777   3.767  0.00  0.00    -0.031 A 
ATOM      6  C6  IND d   1       5.956  -5.858   5.137  0.00  0.00     0.015 A 
ATOM      7  C7  IND d   1       6.000  -4.737   5.916  0.00  0.00    -0.016 A 
ATOM      8  C8  IND d   1       5.903  -3.516   5.264  0.00  0.00    -0.047 A 
ATOM      9  C9  IND d   1       5.791  -3.426   3.871  0.00  0.00    -0.096 A 
ATOM     10  HN1 IND d   1       6.007  -2.012   6.586  0.00  0.00     0.298 HD
ENDROOT
TORSDOF 0
ENDMDL
