MODEL 1
REMARK minimizedAffinity 4.13143349
REMARK minimizedRMSD -1
REMARK  0 active torsions:
REMARK  status: ('A' for Active; 'I' for Inactive)
ROOT
ATOM      1  N1  IND d   1       3.431  -6.000   3.518  0.00  0.00    -0.196 N 
ATOM      2  C2  IND d   1       4.476  -5.659   2.705  0.00  0.00     0.054 A 
ATOM      3  C3  IND d   1       4.020  -5.096   1.564  0.00  0.00    -0.031 A 
ATOM      4  C4  IND d   1       1.605  -4.541   0.865  0.00  0.00     0.051 A 
ATOM      5  C5  IND d   1       0.306  -4.697   1.261  0.00  0.00    -0.031 A 
ATOM      6  C6  IND d   1      -0.024  -5.304   2.455  0.00  0.00     0.015 A 
ATOM      7  C7  IND d   1       0.937  -5.771   3.307  0.00  0.00    -0.016 A 
ATOM      8  C8  IND d   1       2.257  -5.621   2.904  0.00  0.00    -0.047 A 
ATOM      9  C9  IND d   1       2.596  -5.044   1.674  0.00  0.00    -0.096 A 
ATOM     10  HN1 IND d   1       3.495  -6.386   4.284  0.00  0.00     0.298 HD
ENDROOT
TORSDOF 0
ENDMDL
