MODEL 1
REMARK minimizedAffinity -2.73098016
REMARK minimizedRMSD -1
REMARK  0 active torsions:
REMARK  status: ('A' for Active; 'I' for Inactive)
ROOT
ATOM      1  N1  IND d   1       5.995  -4.463   4.238  0.00  0.00    -0.196 N 
ATOM      2  C2  IND d   1       5.955  -5.052   3.005  0.00  0.00     0.054 A 
ATOM      3  C3  IND d   1       5.890  -4.112   2.036  0.00  0.00    -0.031 A 
ATOM      4  C4  IND d   1       5.939  -1.546   2.241  0.00  0.00     0.051 A 
ATOM      5  C5  IND d   1       5.933  -0.539   3.165  0.00  0.00    -0.031 A 
ATOM      6  C6  IND d   1       5.950  -0.793   4.521  0.00  0.00     0.015 A 
ATOM      7  C7  IND d   1       5.985  -2.070   5.006  0.00  0.00    -0.016 A 
ATOM      8  C8  IND d   1       5.985  -3.095   4.071  0.00  0.00    -0.047 A 
ATOM      9  C9  IND d   1       5.925  -2.844   2.694  0.00  0.00    -0.096 A 
ATOM     10  HN1 IND d   1       6.021  -4.876   4.992  0.00  0.00     0.298 HD
ENDROOT
TORSDOF 0
ENDMDL
