MODEL 1
REMARK minimizedAffinity 7.01913786
REMARK minimizedRMSD -1
REMARK  0 active torsions:
REMARK  status: ('A' for Active; 'I' for Inactive)
ROOT
ATOM      1  N1  IND d   1       5.917  -5.270   3.710  0.00  0.00    -0.196 N 
ATOM      2  C2  IND d   1       5.938  -5.847   4.949  0.00  0.00     0.054 A 
ATOM      3  C3  IND d   1       6.000  -4.898   5.910  0.00  0.00    -0.031 A 
ATOM      4  C4  IND d   1       5.973  -2.334   5.678  0.00  0.00     0.051 A 
ATOM      5  C5  IND d   1       5.998  -1.336   4.745  0.00  0.00    -0.031 A 
ATOM      6  C6  IND d   1       5.994  -1.604   3.391  0.00  0.00     0.015 A 
ATOM      7  C7  IND d   1       5.954  -2.885   2.919  0.00  0.00    -0.016 A 
ATOM      8  C8  IND d   1       5.936  -3.901   3.864  0.00  0.00    -0.047 A 
ATOM      9  C9  IND d   1       5.983  -3.636   5.239  0.00  0.00    -0.096 A 
ATOM     10  HN1 IND d   1       5.896  -5.691   2.961  0.00  0.00     0.298 HD
ENDROOT
TORSDOF 0
ENDMDL
