MODEL 1
REMARK minimizedAffinity 17.9696026
REMARK minimizedRMSD -1
REMARK  0 active torsions:
REMARK  status: ('A' for Active; 'I' for Inactive)
ROOT
ATOM      1  N1  IND d   1       5.698  -2.051   3.950  0.00  0.00    -0.196 N 
ATOM      2  C2  IND d   1       5.687  -2.134   2.586  0.00  0.00     0.054 A 
ATOM      3  C3  IND d   1       5.802  -3.422   2.191  0.00  0.00    -0.031 A 
ATOM      4  C4  IND d   1       5.918  -5.564   3.615  0.00  0.00     0.051 A 
ATOM      5  C5  IND d   1       5.997  -5.993   4.910  0.00  0.00    -0.031 A 
ATOM      6  C6  IND d   1       5.978  -5.113   5.973  0.00  0.00     0.015 A 
ATOM      7  C7  IND d   1       5.867  -3.765   5.780  0.00  0.00    -0.016 A 
ATOM      8  C8  IND d   1       5.793  -3.325   4.466  0.00  0.00    -0.047 A 
ATOM      9  C9  IND d   1       5.854  -4.210   3.382  0.00  0.00    -0.096 A 
ATOM     10  HN1 IND d   1       5.653  -1.325   4.409  0.00  0.00     0.298 HD
ENDROOT
TORSDOF 0
ENDMDL
