MODEL 1
REMARK minimizedAffinity -0.97071588
REMARK minimizedRMSD -1
REMARK  0 active torsions:
REMARK  status: ('A' for Active; 'I' for Inactive)
ROOT
ATOM      1  N1  IND d   1       3.043  -5.559   0.737  0.00  0.00    -0.196 N 
ATOM      2  C2  IND d   1       4.089  -5.823   1.578  0.00  0.00     0.054 A 
ATOM      3  C3  IND d   1       3.643  -5.999   2.842  0.00  0.00    -0.031 A 
ATOM      4  C4  IND d   1       1.230  -5.999   3.740  0.00  0.00     0.051 A 
ATOM      5  C5  IND d   1      -0.061  -5.768   3.358  0.00  0.00    -0.031 A 
ATOM      6  C6  IND d   1      -0.391  -5.451   2.056  0.00  0.00     0.015 A 
ATOM      7  C7  IND d   1       0.562  -5.365   1.081  0.00  0.00    -0.016 A 
ATOM      8  C8  IND d   1       1.875  -5.592   1.466  0.00  0.00    -0.047 A 
ATOM      9  C9  IND d   1       2.221  -5.872   2.795  0.00  0.00    -0.096 A 
ATOM     10  HN1 IND d   1       3.105  -5.399  -0.105  0.00  0.00     0.298 HD
ENDROOT
TORSDOF 0
ENDMDL
