MODEL 1
REMARK minimizedAffinity 2.70395088
REMARK minimizedRMSD -1
REMARK  0 active torsions:
REMARK  status: ('A' for Active; 'I' for Inactive)
ROOT
ATOM      1  N1  IND d   1      -2.994  -5.953   3.079  0.00  0.00    -0.196 N 
ATOM      2  C2  IND d   1      -1.714  -5.962   2.597  0.00  0.00     0.054 A 
ATOM      3  C3  IND d   1      -1.721  -6.000   1.246  0.00  0.00    -0.031 A 
ATOM      4  C4  IND d   1      -3.715  -5.948  -0.382  0.00  0.00     0.051 A 
ATOM      5  C5  IND d   1      -5.081  -5.975  -0.413  0.00  0.00    -0.031 A 
ATOM      6  C6  IND d   1      -5.837  -5.994   0.742  0.00  0.00     0.015 A 
ATOM      7  C7  IND d   1      -5.251  -5.974   1.976  0.00  0.00    -0.016 A 
ATOM      8  C8  IND d   1      -3.864  -5.954   2.012  0.00  0.00    -0.047 A 
ATOM      9  C9  IND d   1      -3.092  -5.978   0.843  0.00  0.00    -0.096 A 
ATOM     10  HN1 IND d   1      -3.217  -5.947   3.910  0.00  0.00     0.298 HD
ENDROOT
TORSDOF 0
ENDMDL
