MODEL 1
REMARK minimizedAffinity 6.09893179
REMARK minimizedRMSD -1
REMARK  0 active torsions:
REMARK  status: ('A' for Active; 'I' for Inactive)
ROOT
ATOM      1  N1  IND d   1       0.516   2.077   2.711  0.00  0.00    -0.196 N 
ATOM      2  C2  IND d   1       0.017   2.866   3.710  0.00  0.00     0.054 A 
ATOM      3  C3  IND d   1      -1.333   2.910   3.644  0.00  0.00    -0.031 A 
ATOM      4  C4  IND d   1      -2.934   1.684   2.044  0.00  0.00     0.051 A 
ATOM      5  C5  IND d   1      -2.945   0.879   0.939  0.00  0.00    -0.031 A 
ATOM      6  C6  IND d   1      -1.780   0.421   0.359  0.00  0.00     0.015 A 
ATOM      7  C7  IND d   1      -0.555   0.742   0.871  0.00  0.00    -0.016 A 
ATOM      8  C8  IND d   1      -0.539   1.566   1.988  0.00  0.00    -0.047 A 
ATOM      9  C9  IND d   1      -1.717   2.069   2.556  0.00  0.00    -0.096 A 
ATOM     10  HN1 IND d   1       1.349   1.926   2.560  0.00  0.00     0.298 HD
ENDROOT
TORSDOF 0
ENDMDL
