MODEL 1
REMARK minimizedAffinity 7.34540462
REMARK minimizedRMSD -1
REMARK  0 active torsions:
REMARK  status: ('A' for Active; 'I' for Inactive)
ROOT
ATOM      1  N1  IND d   1      -5.979  -1.492   4.578  0.00  0.00    -0.196 N 
ATOM      2  C2  IND d   1      -5.978  -1.703   3.227  0.00  0.00     0.054 A 
ATOM      3  C3  IND d   1      -5.997  -0.524   2.566  0.00  0.00    -0.031 A 
ATOM      4  C4  IND d   1      -5.930   1.875   3.499  0.00  0.00     0.051 A 
ATOM      5  C5  IND d   1      -5.960   2.575   4.672  0.00  0.00    -0.031 A 
ATOM      6  C6  IND d   1      -5.996   1.944   5.898  0.00  0.00     0.015 A 
ATOM      7  C7  IND d   1      -5.992   0.581   5.998  0.00  0.00    -0.016 A 
ATOM      8  C8  IND d   1      -5.968  -0.134   4.809  0.00  0.00    -0.047 A 
ATOM      9  C9  IND d   1      -5.974   0.502   3.560  0.00  0.00    -0.096 A 
ATOM     10  HN1 IND d   1      -5.985  -2.104   5.181  0.00  0.00     0.298 HD
ENDROOT
TORSDOF 0
ENDMDL
