MODEL 1
REMARK minimizedAffinity 11.9929438
REMARK minimizedRMSD -1
REMARK  0 active torsions:
REMARK  status: ('A' for Active; 'I' for Inactive)
ROOT
ATOM      1  N1  IND d   1      -0.624   3.218   3.605  0.00  0.00    -0.196 N 
ATOM      2  C2  IND d   1       0.729   3.087   3.465  0.00  0.00     0.054 A 
ATOM      3  C3  IND d   1       1.017   2.177   2.507  0.00  0.00    -0.031 A 
ATOM      4  C4  IND d   1      -0.575   0.858   0.973  0.00  0.00     0.051 A 
ATOM      5  C5  IND d   1      -1.902   0.615   0.751  0.00  0.00    -0.031 A 
ATOM      6  C6  IND d   1      -2.890   1.241   1.482  0.00  0.00     0.015 A 
ATOM      7  C7  IND d   1      -2.588   2.147   2.459  0.00  0.00    -0.016 A 
ATOM      8  C8  IND d   1      -1.242   2.391   2.692  0.00  0.00    -0.047 A 
ATOM      9  C9  IND d   1      -0.233   1.727   1.982  0.00  0.00    -0.096 A 
ATOM     10  HN1 IND d   1      -1.023   3.730   4.169  0.00  0.00     0.298 HD
ENDROOT
TORSDOF 0
ENDMDL
