MODEL 1
REMARK minimizedAffinity 10.6392727
REMARK minimizedRMSD -1
REMARK  0 active torsions:
REMARK  status: ('A' for Active; 'I' for Inactive)
ROOT
ATOM      1  N1  IND d   1       4.558   1.703   0.326  0.00  0.00    -0.196 N 
ATOM      2  C2  IND d   1       3.255   1.623   0.731  0.00  0.00     0.054 A 
ATOM      3  C3  IND d   1       2.670   2.841   0.674  0.00  0.00    -0.031 A 
ATOM      4  C4  IND d   1       3.632   5.082  -0.148  0.00  0.00     0.051 A 
ATOM      5  C5  IND d   1       4.791   5.662  -0.582  0.00  0.00    -0.031 A 
ATOM      6  C6  IND d   1       5.955   4.938  -0.740  0.00  0.00     0.015 A 
ATOM      7  C7  IND d   1       6.000   3.597  -0.481  0.00  0.00    -0.016 A 
ATOM      8  C8  IND d   1       4.826   3.006  -0.034  0.00  0.00    -0.047 A 
ATOM      9  C9  IND d   1       3.654   3.745   0.169  0.00  0.00    -0.096 A 
ATOM     10  HN1 IND d   1       5.117   1.050   0.301  0.00  0.00     0.298 HD
ENDROOT
TORSDOF 0
ENDMDL
