MODEL 1
REMARK minimizedAffinity 15.6675882
REMARK minimizedRMSD -1
REMARK  0 active torsions:
REMARK  status: ('A' for Active; 'I' for Inactive)
ROOT
ATOM      1  N1  IND d   1       2.009  -2.969  -6.000  0.00  0.00    -0.196 N 
ATOM      2  C2  IND d   1       0.686  -2.625  -5.995  0.00  0.00     0.054 A 
ATOM      3  C3  IND d   1       0.511  -1.438  -5.372  0.00  0.00    -0.031 A 
ATOM      4  C4  IND d   1       2.265   0.160  -4.375  0.00  0.00     0.051 A 
ATOM      5  C5  IND d   1       3.602   0.262  -4.108  0.00  0.00    -0.031 A 
ATOM      6  C6  IND d   1       4.494  -0.727  -4.469  0.00  0.00     0.015 A 
ATOM      7  C7  IND d   1       4.083  -1.855  -5.122  0.00  0.00    -0.016 A 
ATOM      8  C8  IND d   1       2.725  -1.964  -5.387  0.00  0.00    -0.047 A 
ATOM      9  C9  IND d   1       1.809  -0.984  -4.986  0.00  0.00    -0.096 A 
ATOM     10  HN1 IND d   1       2.338  -3.692  -6.329  0.00  0.00     0.298 HD
ENDROOT
TORSDOF 0
ENDMDL
