MODEL 1
REMARK minimizedAffinity 0.519512594
REMARK minimizedRMSD -1
REMARK  0 active torsions:
REMARK  status: ('A' for Active; 'I' for Inactive)
ROOT
ATOM      1  C   UNL d   1       0.968  -0.100  -0.907  0.00  0.00    -0.002 A 
ATOM      2  C1  UNL d   1       1.018   0.189   0.449  0.00  0.00     0.010 A 
ATOM      3  C2  UNL d   1       1.298   1.484   0.890  0.00  0.00     0.041 A 
ATOM      4  C3  UNL d   1       1.526   2.494  -0.064  0.00  0.00    -0.075 A 
ATOM      5  S   UNL d   1       1.885   4.152   0.243  0.00  0.00     0.015 SA
ATOM      6  C4  UNL d   1       1.979   4.517  -1.419  0.00  0.00     0.022 A 
ATOM      7  C5  UNL d   1       1.745   3.413  -2.204  0.00  0.00     0.026 A 
ATOM      8  C6  UNL d   1       1.480   2.229  -1.436  0.00  0.00    -0.082 A 
ATOM      9  C7  UNL d   1       1.195   0.906  -1.851  0.00  0.00     0.045 A 
ENDROOT
TORSDOF 0
ENDMDL
