MODEL 1
REMARK minimizedAffinity -2.12151766
REMARK minimizedRMSD -1
REMARK  0 active torsions:
REMARK  status: ('A' for Active; 'I' for Inactive)
ROOT
ATOM      1  C   UNL d   1       1.281   3.726  -1.870  0.00  0.00    -0.002 A 
ATOM      2  C1  UNL d   1       1.254   4.220  -0.573  0.00  0.00     0.010 A 
ATOM      3  C2  UNL d   1       1.134   3.353   0.514  0.00  0.00     0.041 A 
ATOM      4  C3  UNL d   1       1.042   1.967   0.274  0.00  0.00    -0.075 A 
ATOM      5  S   UNL d   1       0.890   0.717   1.451  0.00  0.00     0.015 SA
ATOM      6  C4  UNL d   1       0.857  -0.502   0.260  0.00  0.00     0.022 A 
ATOM      7  C5  UNL d   1       0.959   0.015  -1.009  0.00  0.00     0.026 A 
ATOM      8  C6  UNL d   1       1.068   1.446  -1.022  0.00  0.00    -0.082 A 
ATOM      9  C7  UNL d   1       1.189   2.352  -2.104  0.00  0.00     0.045 A 
ENDROOT
TORSDOF 0
ENDMDL
