MODEL 1
REMARK minimizedAffinity -4.23867035
REMARK minimizedRMSD -1
REMARK  0 active torsions:
REMARK  status: ('A' for Active; 'I' for Inactive)
ROOT
ATOM      1  C   UNL d   1       1.928   4.321  -1.668  0.00  0.00    -0.002 A 
ATOM      2  C1  UNL d   1       1.853   4.761  -0.354  0.00  0.00     0.010 A 
ATOM      3  C2  UNL d   1       1.513   3.878   0.672  0.00  0.00     0.041 A 
ATOM      4  C3  UNL d   1       1.247   2.531   0.352  0.00  0.00    -0.075 A 
ATOM      5  S   UNL d   1       0.812   1.270   1.444  0.00  0.00     0.015 SA
ATOM      6  C4  UNL d   1       0.715   0.118   0.192  0.00  0.00     0.022 A 
ATOM      7  C5  UNL d   1       1.005   0.665  -1.036  0.00  0.00     0.026 A 
ATOM      8  C6  UNL d   1       1.317   2.065  -0.963  0.00  0.00    -0.082 A 
ATOM      9  C7  UNL d   1       1.664   2.985  -1.982  0.00  0.00     0.045 A 
ENDROOT
TORSDOF 0
ENDMDL
