MODEL 1
REMARK minimizedAffinity 4.95135498
REMARK minimizedRMSD -1
REMARK  0 active torsions:
REMARK  status: ('A' for Active; 'I' for Inactive)
ROOT
ATOM      1  C   UNL d   1       1.374  -0.457  -0.424  0.00  0.00    -0.002 A 
ATOM      2  C1  UNL d   1       1.439  -0.011   0.888  0.00  0.00     0.010 A 
ATOM      3  C2  UNL d   1       1.494   1.355   1.172  0.00  0.00     0.041 A 
ATOM      4  C3  UNL d   1       1.480   2.274   0.104  0.00  0.00    -0.075 A 
ATOM      5  S   UNL d   1       1.539   3.994   0.211  0.00  0.00     0.015 SA
ATOM      6  C4  UNL d   1       1.478   4.176  -1.482  0.00  0.00     0.022 A 
ATOM      7  C5  UNL d   1       1.414   2.965  -2.129  0.00  0.00     0.026 A 
ATOM      8  C6  UNL d   1       1.414   1.849  -1.226  0.00  0.00    -0.082 A 
ATOM      9  C7  UNL d   1       1.360   0.457  -1.481  0.00  0.00     0.045 A 
ENDROOT
TORSDOF 0
ENDMDL
