MODEL 1
REMARK minimizedAffinity 12.2940626
REMARK minimizedRMSD -1
REMARK  0 active torsions:
REMARK  status: ('A' for Active; 'I' for Inactive)
ROOT
ATOM      1  C   UNL d   1       1.539  -0.604   0.882  0.00  0.00    -0.002 A 
ATOM      2  C1  UNL d   1       0.812  -1.153  -0.165  0.00  0.00     0.010 A 
ATOM      3  C2  UNL d   1       0.592  -0.425  -1.335  0.00  0.00     0.041 A 
ATOM      4  C3  UNL d   1       1.122   0.876  -1.438  0.00  0.00    -0.075 A 
ATOM      5  S   UNL d   1       0.980   1.954  -2.777  0.00  0.00     0.015 SA
ATOM      6  C4  UNL d   1       1.882   3.168  -1.991  0.00  0.00     0.022 A 
ATOM      7  C5  UNL d   1       2.289   2.778  -0.737  0.00  0.00     0.026 A 
ATOM      8  C6  UNL d   1       1.858   1.450  -0.398  0.00  0.00    -0.082 A 
ATOM      9  C7  UNL d   1       2.063   0.687   0.776  0.00  0.00     0.045 A 
ENDROOT
TORSDOF 0
ENDMDL
