MODEL 1
REMARK minimizedAffinity 0.120975055
REMARK minimizedRMSD -1
REMARK  0 active torsions:
REMARK  status: ('A' for Active; 'I' for Inactive)
ROOT
ATOM      1  C   UNL d   1       0.857   0.232   1.448  0.00  0.00    -0.002 A 
ATOM      2  C1  UNL d   1       1.120   1.458   2.041  0.00  0.00     0.010 A 
ATOM      3  C2  UNL d   1       1.396   2.581   1.259  0.00  0.00     0.041 A 
ATOM      4  C3  UNL d   1       1.403   2.450  -0.144  0.00  0.00    -0.075 A 
ATOM      5  S   UNL d   1       1.715   3.688  -1.302  0.00  0.00     0.015 SA
ATOM      6  C4  UNL d   1       1.507   2.618  -2.612  0.00  0.00     0.022 A 
ATOM      7  C5  UNL d   1       1.207   1.343  -2.194  0.00  0.00     0.026 A 
ATOM      8  C6  UNL d   1       1.141   1.225  -0.765  0.00  0.00    -0.082 A 
ATOM      9  C7  UNL d   1       0.865   0.105   0.056  0.00  0.00     0.045 A 
ENDROOT
TORSDOF 0
ENDMDL
