MODEL 1
REMARK minimizedAffinity 3.83595848
REMARK minimizedRMSD -1
REMARK  0 active torsions:
REMARK  status: ('A' for Active; 'I' for Inactive)
ROOT
ATOM      1  C   UNL d   1      -4.726   1.737   3.685  0.00  0.00    -0.002 A 
ATOM      2  C1  UNL d   1      -5.035   0.489   3.165  0.00  0.00     0.010 A 
ATOM      3  C2  UNL d   1      -4.180  -0.596   3.367  0.00  0.00     0.041 A 
ATOM      4  C3  UNL d   1      -2.998  -0.404   4.109  0.00  0.00    -0.075 A 
ATOM      5  S   UNL d   1      -1.802  -1.587   4.485  0.00  0.00     0.015 SA
ATOM      6  C4  UNL d   1      -0.853  -0.463   5.345  0.00  0.00     0.022 A 
ATOM      7  C5  UNL d   1      -1.420   0.789   5.356  0.00  0.00     0.026 A 
ATOM      8  C6  UNL d   1      -2.666   0.844   4.644  0.00  0.00    -0.082 A 
ATOM      9  C7  UNL d   1      -3.553   1.925   4.421  0.00  0.00     0.045 A 
ENDROOT
TORSDOF 0
ENDMDL
