MODEL 1
REMARK minimizedAffinity 1.57874572
REMARK minimizedRMSD -1
REMARK  0 active torsions:
REMARK  status: ('A' for Active; 'I' for Inactive)
ROOT
ATOM      1  C   UNL d   1       1.863   0.433   0.689  0.00  0.00    -0.002 A 
ATOM      2  C1  UNL d   1       1.137  -0.121  -0.356  0.00  0.00     0.010 A 
ATOM      3  C2  UNL d   1       0.634   0.687  -1.378  0.00  0.00     0.041 A 
ATOM      4  C3  UNL d   1       0.877   2.074  -1.333  0.00  0.00    -0.075 A 
ATOM      5  S   UNL d   1       0.360   3.258  -2.474  0.00  0.00     0.015 SA
ATOM      6  C4  UNL d   1       1.091   4.526  -1.602  0.00  0.00     0.022 A 
ATOM      7  C5  UNL d   1       1.719   4.076  -0.465  0.00  0.00     0.026 A 
ATOM      8  C6  UNL d   1       1.606   2.655  -0.291  0.00  0.00    -0.082 A 
ATOM      9  C7  UNL d   1       2.102   1.809   0.730  0.00  0.00     0.045 A 
ENDROOT
TORSDOF 0
ENDMDL
