MODEL 1
REMARK minimizedAffinity 0.0030486139
REMARK minimizedRMSD -1
REMARK  0 active torsions:
REMARK  status: ('A' for Active; 'I' for Inactive)
ROOT
ATOM      1  C   UNL d   1       1.341  -0.730  -1.152  0.00  0.00    -0.002 A 
ATOM      2  C1  UNL d   1       1.653   0.032  -2.269  0.00  0.00     0.010 A 
ATOM      3  C2  UNL d   1       1.682   1.426  -2.193  0.00  0.00     0.041 A 
ATOM      4  C3  UNL d   1       1.392   2.047  -0.962  0.00  0.00    -0.075 A 
ATOM      5  S   UNL d   1       1.368   3.739  -0.631  0.00  0.00     0.015 SA
ATOM      6  C4  UNL d   1       0.944   3.490   1.001  0.00  0.00     0.022 A 
ATOM      7  C5  UNL d   1       0.820   2.155   1.303  0.00  0.00     0.026 A 
ATOM      8  C6  UNL d   1       1.076   1.301   0.177  0.00  0.00    -0.082 A 
ATOM      9  C7  UNL d   1       1.054  -0.110   0.067  0.00  0.00     0.045 A 
ENDROOT
TORSDOF 0
ENDMDL
