MODEL 1
REMARK minimizedAffinity -0.692014813
REMARK minimizedRMSD -1
REMARK  0 active torsions:
REMARK  status: ('A' for Active; 'I' for Inactive)
ROOT
ATOM      1  C   UNL d   1       1.130  -0.165   0.810  0.00  0.00    -0.002 A 
ATOM      2  C1  UNL d   1       0.906   0.969   1.578  0.00  0.00     0.010 A 
ATOM      3  C2  UNL d   1       0.904   2.236   0.990  0.00  0.00     0.041 A 
ATOM      4  C3  UNL d   1       1.131   2.344  -0.396  0.00  0.00    -0.075 A 
ATOM      5  S   UNL d   1       1.173   3.792  -1.332  0.00  0.00     0.015 SA
ATOM      6  C4  UNL d   1       1.487   2.939  -2.774  0.00  0.00     0.022 A 
ATOM      7  C5  UNL d   1       1.562   1.582  -2.564  0.00  0.00     0.026 A 
ATOM      8  C6  UNL d   1       1.358   1.217  -1.191  0.00  0.00    -0.082 A 
ATOM      9  C7  UNL d   1       1.355  -0.053  -0.565  0.00  0.00     0.045 A 
ENDROOT
TORSDOF 0
ENDMDL
