MODEL 1
REMARK minimizedAffinity -2.81761861
REMARK minimizedRMSD -1
REMARK  0 active torsions:
REMARK  status: ('A' for Active; 'I' for Inactive)
ROOT
ATOM      1  C   UNL d   1      -0.002  -0.232  -0.009  0.00  0.00     0.078 C 
ATOM      2  C1  UNL d   1       0.237   1.175   0.451  0.00  0.00    -0.077 A 
ATOM      3  C2  UNL d   1       0.573   1.452   1.782  0.00  0.00    -0.001 A 
ATOM      4  C3  UNL d   1       0.783   2.767   2.198  0.00  0.00     0.003 A 
ATOM      5  C4  UNL d   1       0.659   3.817   1.289  0.00  0.00    -0.005 A 
ATOM      6  C5  UNL d   1       0.323   3.551  -0.037  0.00  0.00     0.003 A 
ATOM      7  C6  UNL d   1       0.113   2.236  -0.454  0.00  0.00    -0.001 A 
ENDROOT
TORSDOF 0
ENDMDL
