MODEL 1
REMARK minimizedAffinity 0.399461865
REMARK minimizedRMSD -1
REMARK  0 active torsions:
REMARK  status: ('A' for Active; 'I' for Inactive)
ROOT
ATOM      1  C   UNL d   1      -0.037  -0.605  -2.164  0.00  0.00     0.078 C 
ATOM      2  C1  UNL d   1       0.237   0.243  -0.957  0.00  0.00    -0.077 A 
ATOM      3  C2  UNL d   1       1.439   0.122  -0.249  0.00  0.00    -0.001 A 
ATOM      4  C3  UNL d   1       1.677   0.910   0.878  0.00  0.00     0.003 A 
ATOM      5  C4  UNL d   1       0.717   1.824   1.308  0.00  0.00    -0.005 A 
ATOM      6  C5  UNL d   1      -0.484   1.949   0.611  0.00  0.00     0.003 A 
ATOM      7  C6  UNL d   1      -0.723   1.162  -0.516  0.00  0.00    -0.001 A 
ENDROOT
TORSDOF 0
ENDMDL
