MODEL 1
REMARK minimizedAffinity 2.9996016
REMARK minimizedRMSD -1
REMARK  0 active torsions:
REMARK  status: ('A' for Active; 'I' for Inactive)
ROOT
ATOM      1  C   UNL d   1      -0.963   2.008   3.150  0.00  0.00     0.078 C 
ATOM      2  C1  UNL d   1      -1.064   2.646   1.797  0.00  0.00    -0.077 A 
ATOM      3  C2  UNL d   1      -0.360   2.130   0.702  0.00  0.00    -0.001 A 
ATOM      4  C3  UNL d   1      -0.456   2.741  -0.550  0.00  0.00     0.003 A 
ATOM      5  C4  UNL d   1      -1.254   3.871  -0.718  0.00  0.00    -0.005 A 
ATOM      6  C5  UNL d   1      -1.956   4.392   0.367  0.00  0.00     0.003 A 
ATOM      7  C6  UNL d   1      -1.861   3.784   1.619  0.00  0.00    -0.001 A 
ENDROOT
TORSDOF 0
ENDMDL
