MODEL 1
REMARK minimizedAffinity 3.91070628
REMARK minimizedRMSD -1
REMARK  0 active torsions:
REMARK  status: ('A' for Active; 'I' for Inactive)
ROOT
ATOM      1  C   UNL d   1       0.209   0.578  -1.522  0.00  0.00     0.078 C 
ATOM      2  C1  UNL d   1      -0.383   1.869  -1.041  0.00  0.00    -0.077 A 
ATOM      3  C2  UNL d   1      -0.904   1.986   0.253  0.00  0.00    -0.001 A 
ATOM      4  C3  UNL d   1      -1.461   3.191   0.683  0.00  0.00     0.003 A 
ATOM      5  C4  UNL d   1      -1.503   4.289  -0.174  0.00  0.00    -0.005 A 
ATOM      6  C5  UNL d   1      -0.988   4.181  -1.465  0.00  0.00     0.003 A 
ATOM      7  C6  UNL d   1      -0.431   2.977  -1.897  0.00  0.00    -0.001 A 
ENDROOT
TORSDOF 0
ENDMDL
