MODEL 1
REMARK minimizedAffinity 1.78148448
REMARK minimizedRMSD -1
REMARK  0 active torsions:
REMARK  status: ('A' for Active; 'I' for Inactive)
ROOT
ATOM      1  C   UNL d   1      -0.763   1.495   2.403  0.00  0.00     0.078 C 
ATOM      2  C1  UNL d   1      -0.711   2.207   1.085  0.00  0.00    -0.077 A 
ATOM      3  C2  UNL d   1      -0.059   1.639  -0.017  0.00  0.00    -0.001 A 
ATOM      4  C3  UNL d   1      -0.010   2.318  -1.235  0.00  0.00     0.003 A 
ATOM      5  C4  UNL d   1      -0.610   3.569  -1.364  0.00  0.00    -0.005 A 
ATOM      6  C5  UNL d   1      -1.260   4.143  -0.273  0.00  0.00     0.003 A 
ATOM      7  C6  UNL d   1      -1.310   3.466   0.946  0.00  0.00    -0.001 A 
ENDROOT
TORSDOF 0
ENDMDL
