MODEL 1
REMARK minimizedAffinity -2.19726944
REMARK minimizedRMSD -1
REMARK  0 active torsions:
REMARK  status: ('A' for Active; 'I' for Inactive)
ROOT
ATOM      1  C   UNL d   1      -0.386   1.585   2.464  0.00  0.00     0.078 C 
ATOM      2  C1  UNL d   1      -0.699   2.053   1.075  0.00  0.00    -0.077 A 
ATOM      3  C2  UNL d   1      -0.993   3.397   0.816  0.00  0.00    -0.001 A 
ATOM      4  C3  UNL d   1      -1.292   3.817  -0.481  0.00  0.00     0.003 A 
ATOM      5  C4  UNL d   1      -1.301   2.899  -1.529  0.00  0.00    -0.005 A 
ATOM      6  C5  UNL d   1      -1.012   1.559  -1.281  0.00  0.00     0.003 A 
ATOM      7  C6  UNL d   1      -0.713   1.137   0.015  0.00  0.00    -0.001 A 
ENDROOT
TORSDOF 0
ENDMDL
