MODEL 1
REMARK minimizedAffinity -0.839007139
REMARK minimizedRMSD -1
REMARK  0 active torsions:
REMARK  status: ('A' for Active; 'I' for Inactive)
ROOT
ATOM      1  C   UNL d   1      -0.136   0.313   2.852  0.00  0.00     0.078 C 
ATOM      2  C1  UNL d   1      -0.496   1.539   2.067  0.00  0.00    -0.077 A 
ATOM      3  C2  UNL d   1      -0.491   1.526   0.667  0.00  0.00    -0.001 A 
ATOM      4  C3  UNL d   1      -0.819   2.677  -0.051  0.00  0.00     0.003 A 
ATOM      5  C4  UNL d   1      -1.153   3.850   0.622  0.00  0.00    -0.005 A 
ATOM      6  C5  UNL d   1      -1.160   3.874   2.016  0.00  0.00     0.003 A 
ATOM      7  C6  UNL d   1      -0.832   2.723   2.735  0.00  0.00    -0.001 A 
ENDROOT
TORSDOF 0
ENDMDL
