MODEL 1
REMARK minimizedAffinity 1.11132586
REMARK minimizedRMSD -1
REMARK  0 active torsions:
REMARK  status: ('A' for Active; 'I' for Inactive)
ROOT
ATOM      1  C   UNL d   1       2.984  -5.288  -2.330  0.00  0.00     0.078 C 
ATOM      2  C1  UNL d   1       2.897  -3.856  -1.893  0.00  0.00    -0.077 A 
ATOM      3  C2  UNL d   1       1.868  -3.421  -1.049  0.00  0.00    -0.001 A 
ATOM      4  C3  UNL d   1       1.793  -2.084  -0.658  0.00  0.00     0.003 A 
ATOM      5  C4  UNL d   1       2.743  -1.169  -1.108  0.00  0.00    -0.005 A 
ATOM      6  C5  UNL d   1       3.769  -1.592  -1.950  0.00  0.00     0.003 A 
ATOM      7  C6  UNL d   1       3.846  -2.929  -2.342  0.00  0.00    -0.001 A 
ENDROOT
TORSDOF 0
ENDMDL
