MODEL 1
REMARK minimizedAffinity -0.619101942
REMARK minimizedRMSD -1
REMARK  0 active torsions:
REMARK  status: ('A' for Active; 'I' for Inactive)
ROOT
ATOM      1  C   UNL d   1       1.034   3.369   2.624  0.00  0.00     0.078 C 
ATOM      2  C1  UNL d   1      -0.067   3.343   1.606  0.00  0.00    -0.077 A 
ATOM      3  C2  UNL d   1      -1.338   3.849   1.905  0.00  0.00    -0.001 A 
ATOM      4  C3  UNL d   1      -2.356   3.809   0.951  0.00  0.00     0.003 A 
ATOM      5  C4  UNL d   1      -2.113   3.263  -0.308  0.00  0.00    -0.005 A 
ATOM      6  C5  UNL d   1      -0.852   2.756  -0.614  0.00  0.00     0.003 A 
ATOM      7  C6  UNL d   1       0.167   2.794   0.339  0.00  0.00    -0.001 A 
ENDROOT
TORSDOF 0
ENDMDL
