MODEL 1
REMARK minimizedAffinity -1.17580569
REMARK minimizedRMSD -1
REMARK  0 active torsions:
REMARK  status: ('A' for Active; 'I' for Inactive)
ROOT
ATOM      1  C   UNL d   1       2.944   3.552   3.003  0.00  0.00     0.172 C 
ATOM      2  N   UNL d   1       2.338   4.518   3.889  0.00  0.00    -0.070 N 
ATOM      3  C1  UNL d   1       2.969   5.162   4.921  0.00  0.00    -0.004 A 
ATOM      4  C2  UNL d   1       2.052   5.998   5.520  0.00  0.00    -0.047 A 
ATOM      5  C3  UNL d   1       0.828   5.851   4.825  0.00  0.00    -0.047 A 
ATOM      6  C4  UNL d   1       1.033   4.929   3.821  0.00  0.00    -0.004 A 
ENDROOT
TORSDOF 0
ENDMDL
