MODEL 1
REMARK minimizedAffinity -1.82981777
REMARK minimizedRMSD -1
REMARK  0 active torsions:
REMARK  status: ('A' for Active; 'I' for Inactive)
ROOT
ATOM      1  C   UNL d   1       3.293   5.998   5.469  0.00  0.00     0.172 C 
ATOM      2  N   UNL d   1       2.192   5.411   4.741  0.00  0.00    -0.070 N 
ATOM      3  C1  UNL d   1       0.975   6.000   4.523  0.00  0.00    -0.004 A 
ATOM      4  C2  UNL d   1       0.206   5.120   3.792  0.00  0.00    -0.047 A 
ATOM      5  C3  UNL d   1       0.988   3.962   3.564  0.00  0.00    -0.047 A 
ATOM      6  C4  UNL d   1       2.213   4.169   4.163  0.00  0.00    -0.004 A 
ENDROOT
TORSDOF 0
ENDMDL
