MODEL 1
REMARK minimizedAffinity -2.05884504
REMARK minimizedRMSD -1
REMARK  0 active torsions:
REMARK  status: ('A' for Active; 'I' for Inactive)
ROOT
ATOM      1  C   UNL d   1       2.777   3.160   3.136  0.00  0.00     0.172 C 
ATOM      2  N   UNL d   1       2.293   4.253   3.947  0.00  0.00    -0.070 N 
ATOM      3  C1  UNL d   1       2.983   4.861   4.962  0.00  0.00    -0.004 A 
ATOM      4  C2  UNL d   1       2.181   5.853   5.483  0.00  0.00    -0.047 A 
ATOM      5  C3  UNL d   1       0.967   5.840   4.757  0.00  0.00    -0.047 A 
ATOM      6  C4  UNL d   1       1.063   4.840   3.812  0.00  0.00    -0.004 A 
ENDROOT
TORSDOF 0
ENDMDL
