MODEL 1
REMARK minimizedAffinity -1.81313539
REMARK minimizedRMSD -1
REMARK  0 active torsions:
REMARK  status: ('A' for Active; 'I' for Inactive)
ROOT
ATOM      1  C   UNL d   1       3.933   5.999   5.561  0.00  0.00     0.172 C 
ATOM      2  N   UNL d   1       2.599   5.830   5.034  0.00  0.00    -0.070 N 
ATOM      3  C1  UNL d   1       1.436   6.000   5.736  0.00  0.00    -0.004 A 
ATOM      4  C2  UNL d   1       0.385   5.748   4.880  0.00  0.00    -0.047 A 
ATOM      5  C3  UNL d   1       0.936   5.415   3.620  0.00  0.00    -0.047 A 
ATOM      6  C4  UNL d   1       2.308   5.474   3.743  0.00  0.00    -0.004 A 
ENDROOT
TORSDOF 0
ENDMDL
