MODEL 1
REMARK minimizedAffinity -2.3321712
REMARK minimizedRMSD -1
REMARK  0 active torsions:
REMARK  status: ('A' for Active; 'I' for Inactive)
ROOT
ATOM      1  C   UNL d   1       4.226   2.355  -5.996  0.00  0.00     0.172 C 
ATOM      2  N   UNL d   1       3.554   3.634  -5.991  0.00  0.00    -0.070 N 
ATOM      3  C1  UNL d   1       2.198   3.822  -5.977  0.00  0.00    -0.004 A 
ATOM      4  C2  UNL d   1       1.960   5.180  -5.976  0.00  0.00    -0.047 A 
ATOM      5  C3  UNL d   1       3.217   5.829  -5.991  0.00  0.00    -0.047 A 
ATOM      6  C4  UNL d   1       4.187   4.849  -6.000  0.00  0.00    -0.004 A 
ENDROOT
TORSDOF 0
ENDMDL
