MODEL 1
REMARK minimizedAffinity -2.04022479
REMARK minimizedRMSD -1
REMARK  0 active torsions:
REMARK  status: ('A' for Active; 'I' for Inactive)
ROOT
ATOM      1  C   UNL d   1       3.882   5.987   5.710  0.00  0.00     0.172 C 
ATOM      2  N   UNL d   1       2.863   5.389   4.880  0.00  0.00    -0.070 N 
ATOM      3  C1  UNL d   1       2.913   4.134   4.335  0.00  0.00    -0.004 A 
ATOM      4  C2  UNL d   1       1.754   3.940   3.614  0.00  0.00    -0.047 A 
ATOM      5  C3  UNL d   1       0.981   5.120   3.730  0.00  0.00    -0.047 A 
ATOM      6  C4  UNL d   1       1.691   6.000   4.519  0.00  0.00    -0.004 A 
ENDROOT
TORSDOF 0
ENDMDL
