MODEL 1
REMARK minimizedAffinity -1.7984134
REMARK minimizedRMSD -1
REMARK  0 active torsions:
REMARK  status: ('A' for Active; 'I' for Inactive)
ROOT
ATOM      1  C   UNL d   1       3.744   3.577   2.499  0.00  0.00     0.172 C 
ATOM      2  N   UNL d   1       3.282   4.446   3.556  0.00  0.00    -0.070 N 
ATOM      3  C1  UNL d   1       3.957   4.723   4.715  0.00  0.00    -0.004 A 
ATOM      4  C2  UNL d   1       3.184   5.590   5.457  0.00  0.00    -0.047 A 
ATOM      5  C3  UNL d   1       2.003   5.842   4.719  0.00  0.00    -0.047 A 
ATOM      6  C4  UNL d   1       2.090   5.121   3.546  0.00  0.00    -0.004 A 
ENDROOT
TORSDOF 0
ENDMDL
