MODEL 1
REMARK minimizedAffinity -1.1305114
REMARK minimizedRMSD -1
REMARK  0 active torsions:
REMARK  status: ('A' for Active; 'I' for Inactive)
ROOT
ATOM      1  C   UNL d   1       4.809   1.262  -5.973  0.00  0.00     0.172 C 
ATOM      2  N   UNL d   1       3.766   2.261  -5.984  0.00  0.00    -0.070 N 
ATOM      3  C1  UNL d   1       3.959   3.616  -5.990  0.00  0.00    -0.004 A 
ATOM      4  C2  UNL d   1       2.720   4.219  -6.000  0.00  0.00    -0.047 A 
ATOM      5  C3  UNL d   1       1.748   3.190  -5.999  0.00  0.00    -0.047 A 
ATOM      6  C4  UNL d   1       2.423   1.988  -5.989  0.00  0.00    -0.004 A 
ENDROOT
TORSDOF 0
ENDMDL
