MODEL 1
REMARK minimizedAffinity 2.77802825
REMARK minimizedRMSD -1
REMARK  0 active torsions:
REMARK  status: ('A' for Active; 'I' for Inactive)
ROOT
ATOM      1  C   UNL d   1       1.507   3.376   3.746  0.00  0.00     0.172 C 
ATOM      2  N   UNL d   1       2.383   4.237   4.505  0.00  0.00    -0.070 N 
ATOM      3  C1  UNL d   1       2.109   5.525   4.880  0.00  0.00    -0.004 A 
ATOM      4  C2  UNL d   1       3.193   5.999   5.587  0.00  0.00    -0.047 A 
ATOM      5  C3  UNL d   1       4.152   4.960   5.639  0.00  0.00    -0.047 A 
ATOM      6  C4  UNL d   1       3.625   3.881   4.961  0.00  0.00    -0.004 A 
ENDROOT
TORSDOF 0
ENDMDL
