MODEL 1
REMARK minimizedAffinity 9.5173111
REMARK minimizedRMSD -1
REMARK  0 active torsions:
REMARK  status: ('A' for Active; 'I' for Inactive)
ROOT
ATOM      1  C   UNL d   1      -3.408   0.483   3.048  0.00  0.00     0.078 C 
ATOM      2  C1  UNL d   1      -2.771  -0.752   2.485  0.00  0.00    -0.077 A 
ATOM      3  C2  UNL d   1      -3.414  -1.994   2.562  0.00  0.00    -0.001 A 
ATOM      4  C3  UNL d   1      -2.804  -3.137   2.042  0.00  0.00     0.003 A 
ATOM      5  C4  UNL d   1      -1.550  -3.050   1.443  0.00  0.00    -0.005 A 
ATOM      6  C5  UNL d   1      -0.902  -1.819   1.363  0.00  0.00     0.003 A 
ATOM      7  C6  UNL d   1      -1.510  -0.675   1.882  0.00  0.00    -0.001 A 
ENDROOT
TORSDOF 0
ENDMDL
