MODEL 1
REMARK minimizedAffinity 15.7483149
REMARK minimizedRMSD -1
REMARK  0 active torsions:
REMARK  status: ('A' for Active; 'I' for Inactive)
ROOT
ATOM      1  C   UNL d   1       3.241   2.631  -2.710  0.00  0.00     0.078 C 
ATOM      2  C1  UNL d   1       4.185   3.727  -3.105  0.00  0.00    -0.077 A 
ATOM      3  C2  UNL d   1       4.139   4.979  -2.480  0.00  0.00    -0.001 A 
ATOM      4  C3  UNL d   1       5.018   5.993  -2.864  0.00  0.00     0.003 A 
ATOM      5  C4  UNL d   1       5.948   5.766  -3.877  0.00  0.00    -0.005 A 
ATOM      6  C5  UNL d   1       6.000   4.524  -4.507  0.00  0.00     0.003 A 
ATOM      7  C6  UNL d   1       5.122   3.509  -4.123  0.00  0.00    -0.001 A 
ENDROOT
TORSDOF 0
ENDMDL
