MODEL 1
REMARK minimizedAffinity 1.35686588
REMARK minimizedRMSD -1
REMARK  0 active torsions:
REMARK  status: ('A' for Active; 'I' for Inactive)
ROOT
ATOM      1  C   UNL d   1       1.455  -4.918  -3.335  0.00  0.00     0.078 C 
ATOM      2  C1  UNL d   1       0.209  -4.890  -4.168  0.00  0.00    -0.077 A 
ATOM      3  C2  UNL d   1      -0.636  -3.772  -4.165  0.00  0.00    -0.001 A 
ATOM      4  C3  UNL d   1      -1.798  -3.764  -4.938  0.00  0.00     0.003 A 
ATOM      5  C4  UNL d   1      -2.127  -4.871  -5.718  0.00  0.00    -0.005 A 
ATOM      6  C5  UNL d   1      -1.295  -5.988  -5.725  0.00  0.00     0.003 A 
ATOM      7  C6  UNL d   1      -0.132  -5.998  -4.953  0.00  0.00    -0.001 A 
ENDROOT
TORSDOF 0
ENDMDL
