MODEL 1
REMARK minimizedAffinity 3.42819619
REMARK minimizedRMSD -1
REMARK  0 active torsions:
REMARK  status: ('A' for Active; 'I' for Inactive)
ROOT
ATOM      1  C   UNL d   1       0.017   5.992  -1.596  0.00  0.00     0.078 C 
ATOM      2  C1  UNL d   1       0.532   4.793  -2.335  0.00  0.00    -0.077 A 
ATOM      3  C2  UNL d   1      -0.196   4.230  -3.391  0.00  0.00    -0.001 A 
ATOM      4  C3  UNL d   1       0.291   3.108  -4.064  0.00  0.00     0.003 A 
ATOM      5  C4  UNL d   1       1.506   2.539  -3.689  0.00  0.00    -0.005 A 
ATOM      6  C5  UNL d   1       2.236   3.091  -2.638  0.00  0.00     0.003 A 
ATOM      7  C6  UNL d   1       1.751   4.213  -1.964  0.00  0.00    -0.001 A 
ENDROOT
TORSDOF 0
ENDMDL
