MODEL 1
REMARK minimizedAffinity 16.9649105
REMARK minimizedRMSD -1
REMARK  0 active torsions:
REMARK  status: ('A' for Active; 'I' for Inactive)
ROOT
ATOM      1  C   UNL d   1      -3.782  -1.051   0.005  0.00  0.00     0.078 C 
ATOM      2  C1  UNL d   1      -3.343  -2.473   0.190  0.00  0.00    -0.077 A 
ATOM      3  C2  UNL d   1      -2.213  -2.970  -0.469  0.00  0.00    -0.001 A 
ATOM      4  C3  UNL d   1      -1.821  -4.299  -0.295  0.00  0.00     0.003 A 
ATOM      5  C4  UNL d   1      -2.555  -5.141   0.538  0.00  0.00    -0.005 A 
ATOM      6  C5  UNL d   1      -3.683  -4.655   1.197  0.00  0.00     0.003 A 
ATOM      7  C6  UNL d   1      -4.076  -3.327   1.024  0.00  0.00    -0.001 A 
ENDROOT
TORSDOF 0
ENDMDL
