MODEL 1
REMARK minimizedAffinity 10.9262772
REMARK minimizedRMSD -1
REMARK  0 active torsions:
REMARK  status: ('A' for Active; 'I' for Inactive)
ROOT
ATOM      1  C   UNL d   1       5.961   4.479  -1.725  0.00  0.00     0.078 C 
ATOM      2  C1  UNL d   1       4.953   3.963  -2.709  0.00  0.00    -0.077 A 
ATOM      3  C2  UNL d   1       3.636   3.692  -2.317  0.00  0.00    -0.001 A 
ATOM      4  C3  UNL d   1       2.711   3.203  -3.241  0.00  0.00     0.003 A 
ATOM      5  C4  UNL d   1       3.093   2.979  -4.562  0.00  0.00    -0.005 A 
ATOM      6  C5  UNL d   1       4.402   3.244  -4.961  0.00  0.00     0.003 A 
ATOM      7  C6  UNL d   1       5.328   3.733  -4.038  0.00  0.00    -0.001 A 
ENDROOT
TORSDOF 0
ENDMDL
