MODEL 1
REMARK minimizedAffinity 8.14663792
REMARK minimizedRMSD -1
REMARK  0 active torsions:
REMARK  status: ('A' for Active; 'I' for Inactive)
ROOT
ATOM      1  C   UNL d   1       2.028   2.688  -2.711  0.00  0.00     0.078 C 
ATOM      2  C1  UNL d   1       3.145   3.323  -3.484  0.00  0.00    -0.077 A 
ATOM      3  C2  UNL d   1       3.288   3.101  -4.859  0.00  0.00    -0.001 A 
ATOM      4  C3  UNL d   1       4.339   3.690  -5.564  0.00  0.00     0.003 A 
ATOM      5  C4  UNL d   1       5.255   4.505  -4.902  0.00  0.00    -0.005 A 
ATOM      6  C5  UNL d   1       5.122   4.730  -3.533  0.00  0.00     0.003 A 
ATOM      7  C6  UNL d   1       4.072   4.141  -2.827  0.00  0.00    -0.001 A 
ENDROOT
TORSDOF 0
ENDMDL
