MODEL 1
REMARK minimizedAffinity 13.3540487
REMARK minimizedRMSD -1
REMARK  0 active torsions:
REMARK  status: ('A' for Active; 'I' for Inactive)
ROOT
ATOM      1  C   UNL d   1      -5.919  -5.005  -5.945  0.00  0.00     0.078 C 
ATOM      2  C1  UNL d   1      -4.490  -5.021  -5.490  0.00  0.00    -0.077 A 
ATOM      3  C2  UNL d   1      -4.015  -4.079  -4.569  0.00  0.00    -0.001 A 
ATOM      4  C3  UNL d   1      -2.680  -4.101  -4.163  0.00  0.00     0.003 A 
ATOM      5  C4  UNL d   1      -1.809  -5.060  -4.673  0.00  0.00    -0.005 A 
ATOM      6  C5  UNL d   1      -2.271  -6.000  -5.592  0.00  0.00     0.003 A 
ATOM      7  C6  UNL d   1      -3.606  -5.980  -6.000  0.00  0.00    -0.001 A 
ENDROOT
TORSDOF 0
ENDMDL
