MODEL 1
REMARK minimizedAffinity 13.4916124
REMARK minimizedRMSD -1
REMARK  0 active torsions:
REMARK  status: ('A' for Active; 'I' for Inactive)
ROOT
ATOM      1  C   UNL d   1       6.000   4.788  -4.506  0.00  0.00     0.078 C 
ATOM      2  C1  UNL d   1       4.700   4.153  -4.112  0.00  0.00    -0.077 A 
ATOM      3  C2  UNL d   1       3.969   3.382  -5.024  0.00  0.00    -0.001 A 
ATOM      4  C3  UNL d   1       2.755   2.805  -4.647  0.00  0.00     0.003 A 
ATOM      5  C4  UNL d   1       2.261   2.994  -3.358  0.00  0.00    -0.005 A 
ATOM      6  C5  UNL d   1       2.980   3.761  -2.444  0.00  0.00     0.003 A 
ATOM      7  C6  UNL d   1       4.194   4.339  -2.820  0.00  0.00    -0.001 A 
ENDROOT
TORSDOF 0
ENDMDL
