MODEL 1
REMARK minimizedAffinity 9.46166611
REMARK minimizedRMSD -1
REMARK  0 active torsions:
REMARK  status: ('A' for Active; 'I' for Inactive)
ROOT
ATOM      1  C   UNL d   1       4.466  -2.038  -1.484  0.00  0.00     0.078 C 
ATOM      2  C1  UNL d   1       4.614  -3.415  -0.909  0.00  0.00    -0.077 A 
ATOM      3  C2  UNL d   1       5.877  -4.002  -0.759  0.00  0.00    -0.001 A 
ATOM      4  C3  UNL d   1       6.000  -5.288  -0.232  0.00  0.00     0.003 A 
ATOM      5  C4  UNL d   1       4.864  -6.000   0.148  0.00  0.00    -0.005 A 
ATOM      6  C5  UNL d   1       3.603  -5.425   0.000  0.00  0.00     0.003 A 
ATOM      7  C6  UNL d   1       3.478  -4.139  -0.527  0.00  0.00    -0.001 A 
ENDROOT
TORSDOF 0
ENDMDL
