MODEL 1
REMARK minimizedAffinity 6.8666091
REMARK minimizedRMSD -1
REMARK  0 active torsions:
REMARK  status: ('A' for Active; 'I' for Inactive)
ROOT
ATOM      1  C   UNL d   1       5.608   5.056  -2.567  0.00  0.00     0.078 C 
ATOM      2  C1  UNL d   1       4.197   4.553  -2.632  0.00  0.00    -0.077 A 
ATOM      3  C2  UNL d   1       3.900   3.310  -3.203  0.00  0.00    -0.001 A 
ATOM      4  C3  UNL d   1       2.580   2.859  -3.266  0.00  0.00     0.003 A 
ATOM      5  C4  UNL d   1       1.547   3.646  -2.761  0.00  0.00    -0.005 A 
ATOM      6  C5  UNL d   1       1.833   4.886  -2.193  0.00  0.00     0.003 A 
ATOM      7  C6  UNL d   1       3.152   5.339  -2.130  0.00  0.00    -0.001 A 
ENDROOT
TORSDOF 0
ENDMDL
