MODEL 1
REMARK minimizedAffinity 7.97833014
REMARK minimizedRMSD -1
REMARK  0 active torsions:
REMARK  status: ('A' for Active; 'I' for Inactive)
ROOT
ATOM      1  C   UNL d   1      -0.790  -3.783  -2.621  0.00  0.00     0.078 C 
ATOM      2  C1  UNL d   1      -1.357  -4.549  -3.779  0.00  0.00    -0.077 A 
ATOM      3  C2  UNL d   1      -2.713  -4.895  -3.820  0.00  0.00    -0.001 A 
ATOM      4  C3  UNL d   1      -3.225  -5.617  -4.900  0.00  0.00     0.003 A 
ATOM      5  C4  UNL d   1      -2.387  -5.999  -5.946  0.00  0.00    -0.005 A 
ATOM      6  C5  UNL d   1      -1.036  -5.661  -5.913  0.00  0.00     0.003 A 
ATOM      7  C6  UNL d   1      -0.522  -4.940  -4.834  0.00  0.00    -0.001 A 
ENDROOT
TORSDOF 0
ENDMDL
