MODEL 1
REMARK minimizedAffinity 8.87083817
REMARK minimizedRMSD -1
REMARK  0 active torsions:
REMARK  status: ('A' for Active; 'I' for Inactive)
ROOT
ATOM      1  C   UNL d   1      -5.998  -0.751  -2.648  0.00  0.00     0.078 C 
ATOM      2  C1  UNL d   1      -5.828   0.165  -1.474  0.00  0.00    -0.077 A 
ATOM      3  C2  UNL d   1      -5.884   1.556  -1.630  0.00  0.00    -0.001 A 
ATOM      4  C3  UNL d   1      -5.714   2.397  -0.529  0.00  0.00     0.003 A 
ATOM      5  C4  UNL d   1      -5.485   1.858   0.735  0.00  0.00    -0.005 A 
ATOM      6  C5  UNL d   1      -5.425   0.475   0.900  0.00  0.00     0.003 A 
ATOM      7  C6  UNL d   1      -5.595  -0.368  -0.200  0.00  0.00    -0.001 A 
ENDROOT
TORSDOF 0
ENDMDL
