MODEL 1
REMARK minimizedAffinity 0.662333667
REMARK minimizedRMSD -1
REMARK  0 active torsions:
REMARK  status: ('A' for Active; 'I' for Inactive)
ROOT
ATOM      1  C   UNL d   1       5.999   5.062  -2.243  0.00  0.00     0.078 C 
ATOM      2  C1  UNL d   1       5.162   3.850  -2.519  0.00  0.00    -0.077 A 
ATOM      3  C2  UNL d   1       4.982   2.860  -1.545  0.00  0.00    -0.001 A 
ATOM      4  C3  UNL d   1       4.208   1.732  -1.819  0.00  0.00     0.003 A 
ATOM      5  C4  UNL d   1       3.608   1.581  -3.068  0.00  0.00    -0.005 A 
ATOM      6  C5  UNL d   1       3.783   2.560  -4.045  0.00  0.00     0.003 A 
ATOM      7  C6  UNL d   1       4.557   3.689  -3.772  0.00  0.00    -0.001 A 
ENDROOT
TORSDOF 0
ENDMDL
