MODEL 1
REMARK minimizedAffinity -3.64030266
REMARK minimizedRMSD -1
REMARK  0 active torsions:
REMARK  status: ('A' for Active; 'I' for Inactive)
ROOT
ATOM      1  C   UNL d   1       1.776  -2.447  -1.224  0.00  0.00     0.020 A 
ATOM      2  C1  UNL d   1       2.521  -1.509  -1.937  0.00  0.00     0.020 A 
ATOM      3  C2  UNL d   1       2.238  -0.147  -1.805  0.00  0.00     0.034 A 
ATOM      4  C3  UNL d   1       1.208   0.279  -0.959  0.00  0.00     0.017 A 
ATOM      5  C4  UNL d   1       0.461  -0.664  -0.244  0.00  0.00     0.017 A 
ATOM      6  C5  UNL d   1       0.749  -2.026  -0.379  0.00  0.00     0.034 A 
ATOM      7 Cl   UNL d   1      -0.825  -0.215   0.820  0.00  0.00    -0.070 Cl
ATOM      8 Cl1  UNL d   1       0.913   1.978  -0.845  0.00  0.00    -0.070 Cl
ENDROOT
TORSDOF 0
ENDMDL
