MODEL 1
REMARK minimizedAffinity -1.85722601
REMARK minimizedRMSD -1
REMARK  0 active torsions:
REMARK  status: ('A' for Active; 'I' for Inactive)
ROOT
ATOM      1  C   UNL d   1       1.059   1.224  -1.503  0.00  0.00     0.020 A 
ATOM      2  C1  UNL d   1       1.791   0.037  -1.520  0.00  0.00     0.020 A 
ATOM      3  C2  UNL d   1       1.513  -0.968  -0.591  0.00  0.00     0.034 A 
ATOM      4  C3  UNL d   1       0.501  -0.787   0.359  0.00  0.00     0.017 A 
ATOM      5  C4  UNL d   1      -0.232   0.404   0.375  0.00  0.00     0.017 A 
ATOM      6  C5  UNL d   1       0.050   1.407  -0.557  0.00  0.00     0.034 A 
ATOM      7 Cl   UNL d   1      -1.496   0.699   1.517  0.00  0.00    -0.070 Cl
ATOM      8 Cl1  UNL d   1       0.212  -2.072   1.477  0.00  0.00    -0.070 Cl
ENDROOT
TORSDOF 0
ENDMDL
