MODEL 1
REMARK minimizedAffinity -2.53771782
REMARK minimizedRMSD -1
REMARK  0 active torsions:
REMARK  status: ('A' for Active; 'I' for Inactive)
ROOT
ATOM      1  C   UNL d   1       0.152   1.807  -1.162  0.00  0.00     0.020 A 
ATOM      2  C1  UNL d   1       1.201   0.894  -1.058  0.00  0.00     0.020 A 
ATOM      3  C2  UNL d   1       1.132  -0.148  -0.131  0.00  0.00     0.034 A 
ATOM      4  C3  UNL d   1       0.011  -0.279   0.697  0.00  0.00     0.017 A 
ATOM      5  C4  UNL d   1      -1.042   0.637   0.592  0.00  0.00     0.017 A 
ATOM      6  C5  UNL d   1      -0.967   1.678  -0.338  0.00  0.00     0.034 A 
ATOM      7 Cl   UNL d   1      -2.458   0.539   1.579  0.00  0.00    -0.070 Cl
ATOM      8 Cl1  UNL d   1      -0.008  -1.592   1.821  0.00  0.00    -0.070 Cl
ENDROOT
TORSDOF 0
ENDMDL
