MODEL 1
REMARK minimizedAffinity -1.07335877
REMARK minimizedRMSD -1
REMARK  0 active torsions:
REMARK  status: ('A' for Active; 'I' for Inactive)
ROOT
ATOM      1  C   UNL d   1       0.737   1.269  -0.317  0.00  0.00     0.020 A 
ATOM      2  C1  UNL d   1      -0.121   0.474   0.441  0.00  0.00     0.020 A 
ATOM      3  C2  UNL d   1      -0.020  -0.918   0.379  0.00  0.00     0.034 A 
ATOM      4  C3  UNL d   1       0.940  -1.518  -0.444  0.00  0.00     0.017 A 
ATOM      5  C4  UNL d   1       1.800  -0.718  -1.205  0.00  0.00     0.017 A 
ATOM      6  C5  UNL d   1       1.696   0.674  -1.139  0.00  0.00     0.034 A 
ATOM      7 Cl   UNL d   1       3.010  -1.386  -2.243  0.00  0.00    -0.070 Cl
ATOM      8 Cl1  UNL d   1       1.008  -3.244  -0.472  0.00  0.00    -0.070 Cl
ENDROOT
TORSDOF 0
ENDMDL
