MODEL 1
REMARK minimizedAffinity -3.19271564
REMARK minimizedRMSD -1
REMARK  0 active torsions:
REMARK  status: ('A' for Active; 'I' for Inactive)
ROOT
ATOM      1  C   UNL d   1       1.535   1.486  -1.141  0.00  0.00     0.020 A 
ATOM      2  C1  UNL d   1       2.319   0.369  -1.428  0.00  0.00     0.020 A 
ATOM      3  C2  UNL d   1       1.960  -0.884  -0.928  0.00  0.00     0.034 A 
ATOM      4  C3  UNL d   1       0.813  -1.024  -0.138  0.00  0.00     0.017 A 
ATOM      5  C4  UNL d   1       0.026   0.097   0.150  0.00  0.00     0.017 A 
ATOM      6  C5  UNL d   1       0.391   1.350  -0.354  0.00  0.00     0.034 A 
ATOM      7 Cl   UNL d   1      -1.403   0.003   1.117  0.00  0.00    -0.070 Cl
ATOM      8 Cl1  UNL d   1       0.429  -2.604   0.447  0.00  0.00    -0.070 Cl
ENDROOT
TORSDOF 0
ENDMDL
