MODEL 1
REMARK minimizedAffinity -1.40099776
REMARK minimizedRMSD -1
REMARK  0 active torsions:
REMARK  status: ('A' for Active; 'I' for Inactive)
ROOT
ATOM      1  C   UNL d   1      -3.858   1.058   1.441  0.00  0.00     0.020 A 
ATOM      2  C1  UNL d   1      -3.066   0.658   2.516  0.00  0.00     0.020 A 
ATOM      3  C2  UNL d   1      -1.700   0.430   2.330  0.00  0.00     0.034 A 
ATOM      4  C3  UNL d   1      -1.124   0.601   1.066  0.00  0.00     0.017 A 
ATOM      5  C4  UNL d   1      -1.920   1.003  -0.012  0.00  0.00     0.017 A 
ATOM      6  C5  UNL d   1      -3.287   1.230   0.180  0.00  0.00     0.034 A 
ATOM      7 Cl   UNL d   1      -1.281   1.236  -1.601  0.00  0.00    -0.070 Cl
ATOM      8 Cl1  UNL d   1       0.571   0.302   0.909  0.00  0.00    -0.070 Cl
ENDROOT
TORSDOF 0
ENDMDL
