MODEL 1
REMARK minimizedAffinity -2.95934796
REMARK minimizedRMSD -1
REMARK  0 active torsions:
REMARK  status: ('A' for Active; 'I' for Inactive)
ROOT
ATOM      1  C   UNL d   1       2.933  -1.323  -2.255  0.00  0.00     0.020 A 
ATOM      2  C1  UNL d   1       2.568   0.019  -2.159  0.00  0.00     0.020 A 
ATOM      3  C2  UNL d   1       1.509   0.397  -1.330  0.00  0.00     0.034 A 
ATOM      4  C3  UNL d   1       0.812  -0.568  -0.594  0.00  0.00     0.017 A 
ATOM      5  C4  UNL d   1       1.180  -1.915  -0.691  0.00  0.00     0.017 A 
ATOM      6  C5  UNL d   1       2.241  -2.288  -1.522  0.00  0.00     0.034 A 
ATOM      7 Cl   UNL d   1       0.367  -3.163   0.186  0.00  0.00    -0.070 Cl
ATOM      8 Cl1  UNL d   1      -0.486  -0.030   0.411  0.00  0.00    -0.070 Cl
ENDROOT
TORSDOF 0
ENDMDL
