MODEL 1
REMARK minimizedAffinity -3.1439178
REMARK minimizedRMSD -1
REMARK  0 active torsions:
REMARK  status: ('A' for Active; 'I' for Inactive)
ROOT
ATOM      1  C   UNL d   1       0.961   0.623  -0.944  0.00  0.00     0.020 A 
ATOM      2  C1  UNL d   1      -0.044   1.561  -1.180  0.00  0.00     0.020 A 
ATOM      3  C2  UNL d   1      -1.149   1.630  -0.329  0.00  0.00     0.034 A 
ATOM      4  C3  UNL d   1      -1.252   0.760   0.762  0.00  0.00     0.017 A 
ATOM      5  C4  UNL d   1      -0.243  -0.181   0.999  0.00  0.00     0.017 A 
ATOM      6  C5  UNL d   1       0.861  -0.245   0.143  0.00  0.00     0.034 A 
ATOM      7 Cl   UNL d   1      -0.300  -1.287   2.325  0.00  0.00    -0.070 Cl
ATOM      8 Cl1  UNL d   1      -2.645   0.901   1.774  0.00  0.00    -0.070 Cl
ENDROOT
TORSDOF 0
ENDMDL
