MODEL 1
REMARK minimizedAffinity -2.03141141
REMARK minimizedRMSD -1
REMARK  0 active torsions:
REMARK  status: ('A' for Active; 'I' for Inactive)
ROOT
ATOM      1  C   UNL d   1      -3.713   0.988   1.733  0.00  0.00     0.020 A 
ATOM      2  C1  UNL d   1      -3.130  -0.242   2.035  0.00  0.00     0.020 A 
ATOM      3  C2  UNL d   1      -1.919  -0.605   1.441  0.00  0.00     0.034 A 
ATOM      4  C3  UNL d   1      -1.288   0.263   0.542  0.00  0.00     0.017 A 
ATOM      5  C4  UNL d   1      -1.874   1.497   0.240  0.00  0.00     0.017 A 
ATOM      6  C5  UNL d   1      -3.087   1.856   0.838  0.00  0.00     0.034 A 
ATOM      7 Cl   UNL d   1      -1.155   2.621  -0.859  0.00  0.00    -0.070 Cl
ATOM      8 Cl1  UNL d   1       0.207  -0.250  -0.155  0.00  0.00    -0.070 Cl
ENDROOT
TORSDOF 0
ENDMDL
