MODEL 1
REMARK minimizedAffinity -0.788529932
REMARK minimizedRMSD -1
REMARK  0 active torsions:
REMARK  status: ('A' for Active; 'I' for Inactive)
ROOT
ATOM      1  C   UNL d   1      -2.334   1.927   0.618  0.00  0.00     0.020 A 
ATOM      2  C1  UNL d   1      -2.735   0.810   1.349  0.00  0.00     0.020 A 
ATOM      3  C2  UNL d   1      -1.908  -0.314   1.415  0.00  0.00     0.034 A 
ATOM      4  C3  UNL d   1      -0.678  -0.323   0.748  0.00  0.00     0.017 A 
ATOM      5  C4  UNL d   1      -0.277   0.799   0.015  0.00  0.00     0.017 A 
ATOM      6  C5  UNL d   1      -1.108   1.922  -0.048  0.00  0.00     0.034 A 
ATOM      7 Cl   UNL d   1       1.228   0.863  -0.834  0.00  0.00    -0.070 Cl
ATOM      8 Cl1  UNL d   1       0.294  -1.747   0.873  0.00  0.00    -0.070 Cl
ENDROOT
TORSDOF 0
ENDMDL
