MODEL 1
REMARK minimizedAffinity -3.29512811
REMARK minimizedRMSD -1
REMARK  0 active torsions:
REMARK  status: ('A' for Active; 'I' for Inactive)
ROOT
ATOM      1  C   UNL d   1       2.326   0.822  -1.877  0.00  0.00     0.020 A 
ATOM      2  C1  UNL d   1       1.647   1.608  -0.946  0.00  0.00     0.020 A 
ATOM      3  C2  UNL d   1       0.864   1.003   0.039  0.00  0.00     0.034 A 
ATOM      4  C3  UNL d   1       0.759  -0.392   0.096  0.00  0.00     0.017 A 
ATOM      5  C4  UNL d   1       1.441  -1.179  -0.838  0.00  0.00     0.017 A 
ATOM      6  C5  UNL d   1       2.224  -0.568  -1.823  0.00  0.00     0.034 A 
ATOM      7 Cl   UNL d   1       1.359  -2.906  -0.831  0.00  0.00    -0.070 Cl
ATOM      8 Cl1  UNL d   1      -0.227  -1.073   1.342  0.00  0.00    -0.070 Cl
ENDROOT
TORSDOF 0
ENDMDL
