MODEL 1
REMARK minimizedAffinity -1.51958156
REMARK minimizedRMSD -1
REMARK  0 active torsions:
REMARK  status: ('A' for Active; 'I' for Inactive)
ROOT
ATOM      1  C   UNL d   1       0.630   1.500  -0.757  0.00  0.00     0.020 A 
ATOM      2  C1  UNL d   1      -0.566   2.200  -0.907  0.00  0.00     0.020 A 
ATOM      3  C2  UNL d   1      -1.709   1.783  -0.222  0.00  0.00     0.034 A 
ATOM      4  C3  UNL d   1      -1.659   0.664   0.617  0.00  0.00     0.017 A 
ATOM      5  C4  UNL d   1      -0.457  -0.037   0.768  0.00  0.00     0.017 A 
ATOM      6  C5  UNL d   1       0.685   0.384   0.079  0.00  0.00     0.034 A 
ATOM      7 Cl   UNL d   1      -0.317  -1.427   1.785  0.00  0.00    -0.070 Cl
ATOM      8 Cl1  UNL d   1      -3.110   0.206   1.435  0.00  0.00    -0.070 Cl
ENDROOT
TORSDOF 0
ENDMDL
