MODEL 1
REMARK minimizedAffinity -1.0696522
REMARK minimizedRMSD -1
REMARK  0 active torsions:
REMARK  status: ('A' for Active; 'I' for Inactive)
ROOT
ATOM      1  C   UNL d   1      -0.946  -0.124   0.669  0.00  0.00     0.020 A 
ATOM      2  C1  UNL d   1      -1.020   1.159   0.128  0.00  0.00     0.020 A 
ATOM      3  C2  UNL d   1      -0.045   1.593  -0.773  0.00  0.00     0.034 A 
ATOM      4  C3  UNL d   1       1.007   0.744  -1.135  0.00  0.00     0.017 A 
ATOM      5  C4  UNL d   1       1.080  -0.543  -0.591  0.00  0.00     0.017 A 
ATOM      6  C5  UNL d   1       0.101  -0.973   0.310  0.00  0.00     0.034 A 
ATOM      7 Cl   UNL d   1       2.348  -1.647  -0.991  0.00  0.00    -0.070 Cl
ATOM      8 Cl1  UNL d   1       2.177   1.348  -2.255  0.00  0.00    -0.070 Cl
ENDROOT
TORSDOF 0
ENDMDL
