MODEL 1
REMARK minimizedAffinity -1.92376971
REMARK minimizedRMSD -1
REMARK  0 active torsions:
REMARK  status: ('A' for Active; 'I' for Inactive)
ROOT
ATOM      1  C   UNL d   1       0.343  -1.879   0.201  0.00  0.00     0.020 A 
ATOM      2  C1  UNL d   1      -0.030  -0.874   1.094  0.00  0.00     0.020 A 
ATOM      3  C2  UNL d   1       0.262   0.460   0.805  0.00  0.00     0.034 A 
ATOM      4  C3  UNL d   1       0.930   0.794  -0.379  0.00  0.00     0.017 A 
ATOM      5  C4  UNL d   1       1.304  -0.215  -1.274  0.00  0.00     0.017 A 
ATOM      6  C5  UNL d   1       1.008  -1.549  -0.980  0.00  0.00     0.034 A 
ATOM      7 Cl   UNL d   1       2.130   0.119  -2.755  0.00  0.00    -0.070 Cl
ATOM      8 Cl1  UNL d   1       1.259   2.465  -0.672  0.00  0.00    -0.070 Cl
ENDROOT
TORSDOF 0
ENDMDL
