MODEL 1
REMARK minimizedAffinity -3.29206991
REMARK minimizedRMSD -1
REMARK  0 active torsions:
REMARK  status: ('A' for Active; 'I' for Inactive)
ROOT
ATOM      1  C   UNL d   1       0.249   1.264  -2.041  0.00  0.00     0.020 A 
ATOM      2  C1  UNL d   1       1.411   0.718  -1.496  0.00  0.00     0.020 A 
ATOM      3  C2  UNL d   1       1.366   0.075  -0.257  0.00  0.00     0.034 A 
ATOM      4  C3  UNL d   1       0.157  -0.023   0.442  0.00  0.00     0.017 A 
ATOM      5  C4  UNL d   1      -1.008   0.526  -0.105  0.00  0.00     0.017 A 
ATOM      6  C5  UNL d   1      -0.958   1.168  -1.346  0.00  0.00     0.034 A 
ATOM      7 Cl   UNL d   1      -2.536   0.444   0.698  0.00  0.00    -0.070 Cl
ATOM      8 Cl1  UNL d   1       0.176  -0.831   1.969  0.00  0.00    -0.070 Cl
ENDROOT
TORSDOF 0
ENDMDL
