MODEL 1
REMARK minimizedAffinity -0.542209983
REMARK minimizedRMSD -1
REMARK  0 active torsions:
REMARK  status: ('A' for Active; 'I' for Inactive)
ROOT
ATOM      1  C   UNL d   1      -3.459   0.780   2.264  0.00  0.00     0.020 A 
ATOM      2  C1  UNL d   1      -3.070   1.700   1.292  0.00  0.00     0.020 A 
ATOM      3  C2  UNL d   1      -1.849   1.544   0.631  0.00  0.00     0.034 A 
ATOM      4  C3  UNL d   1      -1.014   0.466   0.942  0.00  0.00     0.017 A 
ATOM      5  C4  UNL d   1      -1.405  -0.458   1.918  0.00  0.00     0.017 A 
ATOM      6  C5  UNL d   1      -2.628  -0.297   2.576  0.00  0.00     0.034 A 
ATOM      7 Cl   UNL d   1      -0.427  -1.814   2.355  0.00  0.00    -0.070 Cl
ATOM      8 Cl1  UNL d   1       0.481   0.335   0.085  0.00  0.00    -0.070 Cl
ENDROOT
TORSDOF 0
ENDMDL
