MODEL 1
REMARK minimizedAffinity -2.90560937
REMARK minimizedRMSD -1
REMARK  0 active torsions:
REMARK  status: ('A' for Active; 'I' for Inactive)
ROOT
ATOM      1  C   UNL d   1       0.809   1.628  -0.739  0.00  0.00     0.020 A 
ATOM      2  C1  UNL d   1      -0.423   2.214  -1.024  0.00  0.00     0.020 A 
ATOM      3  C2  UNL d   1      -1.579   1.753  -0.389  0.00  0.00     0.034 A 
ATOM      4  C3  UNL d   1      -1.504   0.704   0.534  0.00  0.00     0.017 A 
ATOM      5  C4  UNL d   1      -0.266   0.116   0.819  0.00  0.00     0.017 A 
ATOM      6  C5  UNL d   1       0.888   0.582   0.181  0.00  0.00     0.034 A 
ATOM      7 Cl   UNL d   1      -0.095  -1.183   1.947  0.00  0.00    -0.070 Cl
ATOM      8 Cl1  UNL d   1      -2.973   0.185   1.282  0.00  0.00    -0.070 Cl
ENDROOT
TORSDOF 0
ENDMDL
