MODEL 1
REMARK minimizedAffinity 16.76647
REMARK minimizedRMSD -1
REMARK  0 active torsions:
REMARK  status: ('A' for Active; 'I' for Inactive)
ROOT
ATOM      1  C2' OXE d   1       2.668   1.120  -3.479  0.00  0.00     0.078 C 
ATOM      2  C1' OXE d   1       0.502   2.693  -2.635  0.00  0.00     0.078 C 
ATOM      3  C1  OXE d   1       1.221   1.870  -1.596  0.00  0.00    -0.078 A 
ATOM      4  C2  OXE d   1       2.250   1.067  -2.026  0.00  0.00    -0.078 A 
ATOM      5  C3  OXE d   1       2.982   0.330  -1.100  0.00  0.00     0.003 A 
ATOM      6  C4  OXE d   1       2.583   0.279   0.241  0.00  0.00    -0.002 A 
ATOM      7  C5  OXE d   1       1.512   1.058   0.693  0.00  0.00    -0.002 A 
ATOM      8  C6  OXE d   1       0.849   1.890  -0.202  0.00  0.00     0.003 A 
ENDROOT
TORSDOF 0
ENDMDL
