MODEL 1
REMARK minimizedAffinity -1.03589797
REMARK minimizedRMSD -1
REMARK  0 active torsions:
REMARK  status: ('A' for Active; 'I' for Inactive)
ROOT
ATOM      1  C2' OXE d   1       1.318   1.348  -1.804  0.00  0.00     0.078 C 
ATOM      2  C1' OXE d   1       1.654   2.752   0.604  0.00  0.00     0.078 C 
ATOM      3  C1  OXE d   1       0.712   1.574   0.602  0.00  0.00    -0.078 A 
ATOM      4  C2  OXE d   1       0.518   0.921  -0.592  0.00  0.00    -0.078 A 
ATOM      5  C3  OXE d   1      -0.298  -0.205  -0.637  0.00  0.00     0.003 A 
ATOM      6  C4  OXE d   1      -1.042  -0.587   0.486  0.00  0.00    -0.002 A 
ATOM      7  C5  OXE d   1      -0.890   0.088   1.701  0.00  0.00    -0.002 A 
ATOM      8  C6  OXE d   1       0.014   1.142   1.787  0.00  0.00     0.003 A 
ENDROOT
TORSDOF 0
ENDMDL
