MODEL 1
REMARK minimizedAffinity 7.89587259
REMARK minimizedRMSD -1
REMARK  0 active torsions:
REMARK  status: ('A' for Active; 'I' for Inactive)
ROOT
ATOM      1  C2' OXE d   1      -0.767   5.639  -3.447  0.00  0.00     0.078 C 
ATOM      2  C1' OXE d   1      -1.345   5.461  -0.706  0.00  0.00     0.078 C 
ATOM      3  C1  OXE d   1      -1.871   4.372  -1.608  0.00  0.00    -0.078 A 
ATOM      4  C2  OXE d   1      -1.623   4.492  -2.954  0.00  0.00    -0.078 A 
ATOM      5  C3  OXE d   1      -2.038   3.488  -3.824  0.00  0.00     0.003 A 
ATOM      6  C4  OXE d   1      -2.838   2.436  -3.362  0.00  0.00    -0.002 A 
ATOM      7  C5  OXE d   1      -3.136   2.316  -2.000  0.00  0.00    -0.002 A 
ATOM      8  C6  OXE d   1      -2.626   3.251  -1.106  0.00  0.00     0.003 A 
ENDROOT
TORSDOF 0
ENDMDL
