MODEL 1
REMARK minimizedAffinity 3.05035281
REMARK minimizedRMSD -1
REMARK  0 active torsions:
REMARK  status: ('A' for Active; 'I' for Inactive)
ROOT
ATOM      1  C2' OXE d   1      -0.197  -1.079   0.334  0.00  0.00     0.078 C 
ATOM      2  C1' OXE d   1      -0.636   0.812   2.362  0.00  0.00     0.078 C 
ATOM      3  C1  OXE d   1       0.214   1.225   1.186  0.00  0.00    -0.078 A 
ATOM      4  C2  OXE d   1       0.462   0.278   0.221  0.00  0.00    -0.078 A 
ATOM      5  C3  OXE d   1       1.194   0.623  -0.911  0.00  0.00     0.003 A 
ATOM      6  C4  OXE d   1       1.808   1.878  -1.003  0.00  0.00    -0.002 A 
ATOM      7  C5  OXE d   1       1.601   2.844  -0.012  0.00  0.00    -0.002 A 
ATOM      8  C6  OXE d   1       0.774   2.549   1.065  0.00  0.00     0.003 A 
ENDROOT
TORSDOF 0
ENDMDL
