MODEL 1
REMARK minimizedAffinity 11.3708334
REMARK minimizedRMSD -1
REMARK  0 active torsions:
REMARK  status: ('A' for Active; 'I' for Inactive)
ROOT
ATOM      1  C2' OXE d   1       0.736   1.578  -0.274  0.00  0.00     0.078 C 
ATOM      2  C1' OXE d   1       3.104   0.120   0.114  0.00  0.00     0.078 C 
ATOM      3  C1  OXE d   1       2.257   0.423   1.325  0.00  0.00    -0.078 A 
ATOM      4  C2  OXE d   1       1.124   1.176   1.132  0.00  0.00    -0.078 A 
ATOM      5  C3  OXE d   1       0.279   1.438   2.207  0.00  0.00     0.003 A 
ATOM      6  C4  OXE d   1       0.651   1.072   3.506  0.00  0.00    -0.002 A 
ATOM      7  C5  OXE d   1       1.821   0.338   3.730  0.00  0.00    -0.002 A 
ATOM      8  C6  OXE d   1       2.612  -0.031   2.647  0.00  0.00     0.003 A 
ENDROOT
TORSDOF 0
ENDMDL
