MODEL 1
REMARK minimizedAffinity -0.0617209226
REMARK minimizedRMSD -1
REMARK  0 active torsions:
REMARK  status: ('A' for Active; 'I' for Inactive)
ROOT
ATOM      1  C2' OXE d   1      -1.968  -3.294   1.142  0.00  0.00     0.078 C 
ATOM      2  C1' OXE d   1      -2.272  -0.863   2.512  0.00  0.00     0.078 C 
ATOM      3  C1  OXE d   1      -1.111  -0.992   1.560  0.00  0.00    -0.078 A 
ATOM      4  C2  OXE d   1      -0.942  -2.201   0.929  0.00  0.00    -0.078 A 
ATOM      5  C3  OXE d   1       0.081  -2.357  -0.002  0.00  0.00     0.003 A 
ATOM      6  C4  OXE d   1       1.032  -1.345  -0.186  0.00  0.00    -0.002 A 
ATOM      7  C5  OXE d   1       0.902  -0.120   0.477  0.00  0.00    -0.002 A 
ATOM      8  C6  OXE d   1      -0.185   0.087   1.319  0.00  0.00     0.003 A 
ENDROOT
TORSDOF 0
ENDMDL
