MODEL 1
REMARK minimizedAffinity 2.69222355
REMARK minimizedRMSD -1
REMARK  0 active torsions:
REMARK  status: ('A' for Active; 'I' for Inactive)
ROOT
ATOM      1  C2' OXE d   1      -2.123  -0.705   3.192  0.00  0.00     0.078 C 
ATOM      2  C1' OXE d   1      -2.060  -2.874   1.411  0.00  0.00     0.078 C 
ATOM      3  C1  OXE d   1      -1.115  -1.728   1.156  0.00  0.00    -0.078 A 
ATOM      4  C2  OXE d   1      -1.185  -0.649   2.005  0.00  0.00    -0.078 A 
ATOM      5  C3  OXE d   1      -0.297   0.411   1.848  0.00  0.00     0.003 A 
ATOM      6  C4  OXE d   1       0.561   0.459   0.743  0.00  0.00    -0.002 A 
ATOM      7  C5  OXE d   1       0.620  -0.611  -0.157  0.00  0.00    -0.002 A 
ATOM      8  C6  OXE d   1      -0.179  -1.728   0.059  0.00  0.00     0.003 A 
ENDROOT
TORSDOF 0
ENDMDL
