MODEL 1
REMARK minimizedAffinity 16.3912086
REMARK minimizedRMSD -1
REMARK  0 active torsions:
REMARK  status: ('A' for Active; 'I' for Inactive)
ROOT
ATOM      1  C2' OXE d   1      -2.516  -0.493   1.996  0.00  0.00     0.078 C 
ATOM      2  C1' OXE d   1      -3.083   1.124  -0.228  0.00  0.00     0.078 C 
ATOM      3  C1  OXE d   1      -1.636   0.817   0.068  0.00  0.00    -0.078 A 
ATOM      4  C2  OXE d   1      -1.366   0.064   1.185  0.00  0.00    -0.078 A 
ATOM      5  C3  OXE d   1      -0.052  -0.294   1.474  0.00  0.00     0.003 A 
ATOM      6  C4  OXE d   1       1.007   0.234   0.726  0.00  0.00    -0.002 A 
ATOM      7  C5  OXE d   1       0.756   1.035  -0.393  0.00  0.00    -0.002 A 
ATOM      8  C6  OXE d   1      -0.559   1.301  -0.759  0.00  0.00     0.003 A 
ENDROOT
TORSDOF 0
ENDMDL
