MODEL 1
REMARK minimizedAffinity 1.19567502
REMARK minimizedRMSD -1
REMARK  0 active torsions:
REMARK  status: ('A' for Active; 'I' for Inactive)
ROOT
ATOM      1  C2' OXE d   1       1.874   2.405  -3.586  0.00  0.00     0.078 C 
ATOM      2  C1' OXE d   1       4.313   3.686  -4.124  0.00  0.00     0.078 C 
ATOM      3  C1  OXE d   1       3.056   4.301  -4.686  0.00  0.00    -0.078 A 
ATOM      4  C2  OXE d   1       1.872   3.643  -4.457  0.00  0.00    -0.078 A 
ATOM      5  C3  OXE d   1       0.677   4.196  -4.907  0.00  0.00     0.003 A 
ATOM      6  C4  OXE d   1       0.686   5.336  -5.721  0.00  0.00    -0.002 A 
ATOM      7  C5  OXE d   1       1.885   6.000  -6.000  0.00  0.00    -0.002 A 
ATOM      8  C6  OXE d   1       3.072   5.521  -5.456  0.00  0.00     0.003 A 
ENDROOT
TORSDOF 0
ENDMDL
