MODEL 1
REMARK minimizedAffinity 2.554878
REMARK minimizedRMSD -1
REMARK  0 active torsions:
REMARK  status: ('A' for Active; 'I' for Inactive)
ROOT
ATOM      1  C2' OXE d   1      -0.960   5.979  -2.155  0.00  0.00     0.078 C 
ATOM      2  C1' OXE d   1      -2.500   5.992  -4.502  0.00  0.00     0.078 C 
ATOM      3  C1  OXE d   1      -0.999   5.958  -4.646  0.00  0.00    -0.078 A 
ATOM      4  C2  OXE d   1      -0.253   5.999  -3.493  0.00  0.00    -0.078 A 
ATOM      5  C3  OXE d   1       1.135   5.914  -3.567  0.00  0.00     0.003 A 
ATOM      6  C4  OXE d   1       1.782   5.942  -4.808  0.00  0.00    -0.002 A 
ATOM      7  C5  OXE d   1       1.041   5.941  -5.995  0.00  0.00    -0.002 A 
ATOM      8  C6  OXE d   1      -0.348   5.905  -5.931  0.00  0.00     0.003 A 
ENDROOT
TORSDOF 0
ENDMDL
