MODEL 1
REMARK minimizedAffinity 5.94488955
REMARK minimizedRMSD -1
REMARK  0 active torsions:
REMARK  status: ('A' for Active; 'I' for Inactive)
ROOT
ATOM      1  C2' OXE d   1       1.470  -0.115  -1.055  0.00  0.00     0.078 C 
ATOM      2  C1' OXE d   1       1.659   2.165   0.571  0.00  0.00     0.078 C 
ATOM      3  C1  OXE d   1       0.700   1.079   0.991  0.00  0.00    -0.078 A 
ATOM      4  C2  OXE d   1       0.580  -0.013   0.164  0.00  0.00    -0.078 A 
ATOM      5  C3  OXE d   1      -0.249  -1.068   0.533  0.00  0.00     0.003 A 
ATOM      6  C4  OXE d   1      -1.076  -0.961   1.657  0.00  0.00    -0.002 A 
ATOM      7  C5  OXE d   1      -0.999   0.160   2.491  0.00  0.00    -0.002 A 
ATOM      8  C6  OXE d   1      -0.087   1.167   2.196  0.00  0.00     0.003 A 
ENDROOT
TORSDOF 0
ENDMDL
