MODEL 1
REMARK minimizedAffinity 4.86444473
REMARK minimizedRMSD -1
REMARK  0 active torsions:
REMARK  status: ('A' for Active; 'I' for Inactive)
ROOT
ATOM      1  C2' OXE d   1      -0.406   1.188   2.580  0.00  0.00     0.078 C 
ATOM      2  C1' OXE d   1       0.496  -0.495   0.522  0.00  0.00     0.078 C 
ATOM      3  C1  OXE d   1       0.836   0.971   0.431  0.00  0.00    -0.078 A 
ATOM      4  C2  OXE d   1       0.351   1.795   1.418  0.00  0.00    -0.078 A 
ATOM      5  C3  OXE d   1       0.681   3.147   1.411  0.00  0.00     0.003 A 
ATOM      6  C4  OXE d   1       1.373   3.703   0.328  0.00  0.00    -0.002 A 
ATOM      7  C5  OXE d   1       1.842   2.888  -0.708  0.00  0.00    -0.002 A 
ATOM      8  C6  OXE d   1       1.619   1.516  -0.650  0.00  0.00     0.003 A 
ENDROOT
TORSDOF 0
ENDMDL
