MODEL 1
REMARK minimizedAffinity 0.458840102
REMARK minimizedRMSD -1
REMARK  0 active torsions:
REMARK  status: ('A' for Active; 'I' for Inactive)
ROOT
ATOM      1  C2' OXE d   1       0.668   1.292   2.468  0.00  0.00     0.078 C 
ATOM      2  C1' OXE d   1       1.635   3.324   0.790  0.00  0.00     0.078 C 
ATOM      3  C1  OXE d   1       1.191   2.034   0.148  0.00  0.00    -0.078 A 
ATOM      4  C2  OXE d   1       0.763   1.028   0.981  0.00  0.00    -0.078 A 
ATOM      5  C3  OXE d   1       0.291  -0.163   0.437  0.00  0.00     0.003 A 
ATOM      6  C4  OXE d   1       0.392  -0.403  -0.939  0.00  0.00    -0.002 A 
ATOM      7  C5  OXE d   1       0.862   0.593  -1.801  0.00  0.00    -0.002 A 
ATOM      8  C6  OXE d   1       1.225   1.830  -1.279  0.00  0.00     0.003 A 
ENDROOT
TORSDOF 0
ENDMDL
