MODEL 1
REMARK minimizedAffinity 3.49753404
REMARK minimizedRMSD -1
REMARK  0 active torsions:
REMARK  status: ('A' for Active; 'I' for Inactive)
ROOT
ATOM      1  C2' OXE d   1      -1.480  -0.387  -3.993  0.00  0.00     0.078 C 
ATOM      2  C1' OXE d   1       1.247  -0.876  -3.540  0.00  0.00     0.078 C 
ATOM      3  C1  OXE d   1       0.385  -0.539  -2.348  0.00  0.00    -0.078 A 
ATOM      4  C2  OXE d   1      -0.938  -0.256  -2.586  0.00  0.00    -0.078 A 
ATOM      5  C3  OXE d   1      -1.789   0.007  -1.516  0.00  0.00     0.003 A 
ATOM      6  C4  OXE d   1      -1.279   0.136  -0.219  0.00  0.00    -0.002 A 
ATOM      7  C5  OXE d   1       0.074  -0.110   0.039  0.00  0.00    -0.002 A 
ATOM      8  C6  OXE d   1       0.909  -0.489  -1.006  0.00  0.00     0.003 A 
ENDROOT
TORSDOF 0
ENDMDL
