MODEL 1
REMARK minimizedAffinity 0.49233678
REMARK minimizedRMSD -1
REMARK  0 active torsions:
REMARK  status: ('A' for Active; 'I' for Inactive)
ROOT
ATOM      1  C2' OXE d   1      -1.825   5.997  -4.607  0.00  0.00     0.078 C 
ATOM      2  C1' OXE d   1      -0.397   5.997  -2.190  0.00  0.00     0.078 C 
ATOM      3  C1  OXE d   1       0.393   5.982  -3.474  0.00  0.00    -0.078 A 
ATOM      4  C2  OXE d   1      -0.314   5.936  -4.652  0.00  0.00    -0.078 A 
ATOM      5  C3  OXE d   1       0.366   5.976  -5.866  0.00  0.00     0.003 A 
ATOM      6  C4  OXE d   1       1.764   5.909  -5.898  0.00  0.00    -0.002 A 
ATOM      7  C5  OXE d   1       2.503   5.916  -4.710  0.00  0.00    -0.002 A 
ATOM      8  C6  OXE d   1       1.835   5.995  -3.493  0.00  0.00     0.003 A 
ENDROOT
TORSDOF 0
ENDMDL
