MODEL 1
REMARK minimizedAffinity 5.35981894
REMARK minimizedRMSD -1
REMARK  0 active torsions:
REMARK  status: ('A' for Active; 'I' for Inactive)
ROOT
ATOM      1  C2' OXE d   1       1.280   0.125  -0.513  0.00  0.00     0.078 C 
ATOM      2  C1' OXE d   1      -0.875  -1.261   0.634  0.00  0.00     0.078 C 
ATOM      3  C1  OXE d   1      -0.401  -0.005   1.321  0.00  0.00    -0.078 A 
ATOM      4  C2  OXE d   1       0.683   0.641   0.778  0.00  0.00    -0.078 A 
ATOM      5  C3  OXE d   1       1.127   1.835   1.341  0.00  0.00     0.003 A 
ATOM      6  C4  OXE d   1       0.576   2.300   2.541  0.00  0.00    -0.002 A 
ATOM      7  C5  OXE d   1      -0.503   1.636   3.132  0.00  0.00    -0.002 A 
ATOM      8  C6  OXE d   1      -1.031   0.508   2.512  0.00  0.00     0.003 A 
ENDROOT
TORSDOF 0
ENDMDL
