MODEL 1
REMARK minimizedAffinity 2.65023875
REMARK minimizedRMSD -1
REMARK  0 active torsions:
REMARK  status: ('A' for Active; 'I' for Inactive)
ROOT
ATOM      1  C2' OXE d   1       0.729   1.409   3.691  0.00  0.00     0.078 C 
ATOM      2  C1' OXE d   1      -1.183  -0.268   2.502  0.00  0.00     0.078 C 
ATOM      3  C1  OXE d   1      -0.157   0.377   1.604  0.00  0.00    -0.078 A 
ATOM      4  C2  OXE d   1       0.746   1.232   2.188  0.00  0.00    -0.078 A 
ATOM      5  C3  OXE d   1       1.748   1.811   1.414  0.00  0.00     0.003 A 
ATOM      6  C4  OXE d   1       1.750   1.651   0.023  0.00  0.00    -0.002 A 
ATOM      7  C5  OXE d   1       0.815   0.815  -0.597  0.00  0.00    -0.002 A 
ATOM      8  C6  OXE d   1      -0.117   0.138   0.183  0.00  0.00     0.003 A 
ENDROOT
TORSDOF 0
ENDMDL
