MODEL 1
REMARK minimizedAffinity 10.2913618
REMARK minimizedRMSD -1
REMARK  0 active torsions:
REMARK  status: ('A' for Active; 'I' for Inactive)
ROOT
ATOM      1  C4' PXY d   1      -5.193   2.807   1.440  0.00  0.00     0.077 C 
ATOM      2  C1' PXY d   1      -2.541  -2.312   1.858  0.00  0.00     0.077 C 
ATOM      3  C1  PXY d   1      -3.229  -0.965   1.758  0.00  0.00    -0.082 A 
ATOM      4  C2  PXY d   1      -4.449  -0.890   1.252  0.00  0.00     0.003 A 
ATOM      5  C3  PXY d   1      -5.073   0.324   1.124  0.00  0.00     0.003 A 
ATOM      6  C4  PXY d   1      -4.464   1.467   1.569  0.00  0.00    -0.082 A 
ATOM      7  C5  PXY d   1      -3.223   1.397   2.097  0.00  0.00     0.003 A 
ATOM      8  C6  PXY d   1      -2.590   0.160   2.179  0.00  0.00     0.003 A 
ENDROOT
TORSDOF 0
ENDMDL
