MODEL 1
REMARK minimizedAffinity 5.12084675
REMARK minimizedRMSD -1
REMARK  0 active torsions:
REMARK  status: ('A' for Active; 'I' for Inactive)
ROOT
ATOM      1  C4' PXY d   1       5.998   0.385  -3.178  0.00  0.00     0.077 C 
ATOM      2  C1' PXY d   1       1.838  -2.167  -0.080  0.00  0.00     0.077 C 
ATOM      3  C1  PXY d   1       2.921  -1.487  -0.894  0.00  0.00    -0.082 A 
ATOM      4  C2  PXY d   1       3.843  -2.220  -1.497  0.00  0.00     0.003 A 
ATOM      5  C3  PXY d   1       4.849  -1.620  -2.210  0.00  0.00     0.003 A 
ATOM      6  C4  PXY d   1       4.880  -0.259  -2.353  0.00  0.00    -0.082 A 
ATOM      7  C5  PXY d   1       3.937   0.495  -1.750  0.00  0.00     0.003 A 
ATOM      8  C6  PXY d   1       2.948  -0.131  -0.996  0.00  0.00     0.003 A 
ENDROOT
TORSDOF 0
ENDMDL
