MODEL 1
REMARK minimizedAffinity 6.96547031
REMARK minimizedRMSD -1
REMARK  0 active torsions:
REMARK  status: ('A' for Active; 'I' for Inactive)
ROOT
ATOM      1  C4' PXY d   1       0.993   4.465  -3.726  0.00  0.00     0.077 C 
ATOM      2  C1' PXY d   1      -4.455   3.109  -2.347  0.00  0.00     0.077 C 
ATOM      3  C1  PXY d   1      -3.029   3.477  -2.706  0.00  0.00    -0.082 A 
ATOM      4  C2  PXY d   1      -2.326   2.680  -3.495  0.00  0.00     0.003 A 
ATOM      5  C3  PXY d   1      -1.025   2.981  -3.804  0.00  0.00     0.003 A 
ATOM      6  C4  PXY d   1      -0.454   4.138  -3.344  0.00  0.00    -0.082 A 
ATOM      7  C5  PXY d   1      -1.167   4.961  -2.547  0.00  0.00     0.003 A 
ATOM      8  C6  PXY d   1      -2.473   4.616  -2.212  0.00  0.00     0.003 A 
ENDROOT
TORSDOF 0
ENDMDL
