MODEL 1
REMARK minimizedAffinity 8.17990494
REMARK minimizedRMSD -1
REMARK  0 active torsions:
REMARK  status: ('A' for Active; 'I' for Inactive)
ROOT
ATOM      1  C4' PXY d   1      -5.715   3.748  -0.136  0.00  0.00     0.077 C 
ATOM      2  C1' PXY d   1      -3.014   0.513   3.820  0.00  0.00     0.077 C 
ATOM      3  C1  PXY d   1      -3.733   1.355   2.785  0.00  0.00    -0.082 A 
ATOM      4  C2  PXY d   1      -3.037   1.962   1.837  0.00  0.00     0.003 A 
ATOM      5  C3  PXY d   1      -3.668   2.753   0.912  0.00  0.00     0.003 A 
ATOM      6  C4  PXY d   1      -5.031   2.880   0.924  0.00  0.00    -0.082 A 
ATOM      7  C5  PXY d   1      -5.750   2.256   1.881  0.00  0.00     0.003 A 
ATOM      8  C6  PXY d   1      -5.086   1.491   2.836  0.00  0.00     0.003 A 
ENDROOT
TORSDOF 0
ENDMDL
