MODEL 1
REMARK minimizedAffinity 2.84699893
REMARK minimizedRMSD -1
REMARK  0 active torsions:
REMARK  status: ('A' for Active; 'I' for Inactive)
ROOT
ATOM      1  C4' PXY d   1      -1.130   5.276  -2.960  0.00  0.00     0.077 C 
ATOM      2  C1' PXY d   1      -2.035   5.998   2.703  0.00  0.00     0.077 C 
ATOM      3  C1  PXY d   1      -1.810   5.806   1.216  0.00  0.00    -0.082 A 
ATOM      4  C2  PXY d   1      -0.612   5.459   0.775  0.00  0.00     0.003 A 
ATOM      5  C3  PXY d   1      -0.383   5.313  -0.569  0.00  0.00     0.003 A 
ATOM      6  C4  PXY d   1      -1.405   5.471  -1.467  0.00  0.00    -0.082 A 
ATOM      7  C5  PXY d   1      -2.633   5.815  -1.024  0.00  0.00     0.003 A 
ATOM      8  C6  PXY d   1      -2.834   5.999   0.341  0.00  0.00     0.003 A 
ENDROOT
TORSDOF 0
ENDMDL
