MODEL 1
REMARK minimizedAffinity 7.30857897
REMARK minimizedRMSD -1
REMARK  0 active torsions:
REMARK  status: ('A' for Active; 'I' for Inactive)
ROOT
ATOM      1  C4' PXY d   1      -3.763  -6.000   1.022  0.00  0.00     0.077 C 
ATOM      2  C1' PXY d   1      -4.008  -0.256   1.624  0.00  0.00     0.077 C 
ATOM      3  C1  PXY d   1      -3.942  -1.761   1.453  0.00  0.00    -0.082 A 
ATOM      4  C2  PXY d   1      -4.509  -2.547   2.355  0.00  0.00     0.003 A 
ATOM      5  C3  PXY d   1      -4.431  -3.910   2.233  0.00  0.00     0.003 A 
ATOM      6  C4  PXY d   1      -3.813  -4.475   1.149  0.00  0.00    -0.082 A 
ATOM      7  C5  PXY d   1      -3.242  -3.680   0.220  0.00  0.00     0.003 A 
ATOM      8  C6  PXY d   1      -3.296  -2.298   0.383  0.00  0.00     0.003 A 
ENDROOT
TORSDOF 0
ENDMDL
