MODEL 1
REMARK minimizedAffinity 7.06054306
REMARK minimizedRMSD -1
REMARK  0 active torsions:
REMARK  status: ('A' for Active; 'I' for Inactive)
ROOT
ATOM      1  C4' PXY d   1      -2.323   5.101   2.258  0.00  0.00     0.077 C 
ATOM      2  C1' PXY d   1      -0.509   5.084  -3.231  0.00  0.00     0.077 C 
ATOM      3  C1  PXY d   1      -0.995   5.082  -1.795  0.00  0.00    -0.082 A 
ATOM      4  C2  PXY d   1      -0.550   6.000  -0.952  0.00  0.00     0.003 A 
ATOM      5  C3  PXY d   1      -0.955   5.993   0.358  0.00  0.00     0.003 A 
ATOM      6  C4  PXY d   1      -1.866   5.070   0.796  0.00  0.00    -0.082 A 
ATOM      7  C5  PXY d   1      -2.333   4.137  -0.060  0.00  0.00     0.003 A 
ATOM      8  C6  PXY d   1      -1.878   4.136  -1.375  0.00  0.00     0.003 A 
ENDROOT
TORSDOF 0
ENDMDL
