MODEL 1
REMARK minimizedAffinity 7.74018192
REMARK minimizedRMSD -1
REMARK  0 active torsions:
REMARK  status: ('A' for Active; 'I' for Inactive)
ROOT
ATOM      1  C4' PXY d   1      -0.203   4.488  -2.892  0.00  0.00     0.077 C 
ATOM      2  C1' PXY d   1      -2.359   5.999   2.254  0.00  0.00     0.077 C 
ATOM      3  C1  PXY d   1      -1.805   5.604   0.899  0.00  0.00    -0.082 A 
ATOM      4  C2  PXY d   1      -0.682   4.908   0.829  0.00  0.00     0.003 A 
ATOM      5  C3  PXY d   1      -0.151   4.570  -0.389  0.00  0.00     0.003 A 
ATOM      6  C4  PXY d   1      -0.803   4.901  -1.546  0.00  0.00    -0.082 A 
ATOM      7  C5  PXY d   1      -1.955   5.602  -1.482  0.00  0.00     0.003 A 
ATOM      8  C6  PXY d   1      -2.457   5.972  -0.238  0.00  0.00     0.003 A 
ENDROOT
TORSDOF 0
ENDMDL
