MODEL 1
REMARK minimizedAffinity 4.02072096
REMARK minimizedRMSD -1
REMARK  0 active torsions:
REMARK  status: ('A' for Active; 'I' for Inactive)
ROOT
ATOM      1  C4' PXY d   1      -0.758   5.996  -2.287  0.00  0.00     0.077 C 
ATOM      2  C1' PXY d   1      -0.954   0.810  -4.833  0.00  0.00     0.077 C 
ATOM      3  C1  PXY d   1      -0.891   2.167  -4.161  0.00  0.00    -0.082 A 
ATOM      4  C2  PXY d   1      -2.012   2.791  -3.840  0.00  0.00     0.003 A 
ATOM      5  C3  PXY d   1      -1.974   4.033  -3.261  0.00  0.00     0.003 A 
ATOM      6  C4  PXY d   1      -0.774   4.620  -2.958  0.00  0.00    -0.082 A 
ATOM      7  C5  PXY d   1       0.375   3.985  -3.273  0.00  0.00     0.003 A 
ATOM      8  C6  PXY d   1       0.314   2.743  -3.898  0.00  0.00     0.003 A 
ENDROOT
TORSDOF 0
ENDMDL
