MODEL 1
REMARK minimizedAffinity 6.73817778
REMARK minimizedRMSD -1
REMARK  0 active torsions:
REMARK  status: ('A' for Active; 'I' for Inactive)
ROOT
ATOM      1  C4' PXY d   1      -5.999   5.627   1.199  0.00  0.00     0.077 C 
ATOM      2  C1' PXY d   1      -3.366   0.520   1.831  0.00  0.00     0.077 C 
ATOM      3  C1  PXY d   1      -4.046   1.865   1.670  0.00  0.00    -0.082 A 
ATOM      4  C2  PXY d   1      -5.367   1.929   1.626  0.00  0.00     0.003 A 
ATOM      5  C3  PXY d   1      -5.997   3.134   1.449  0.00  0.00     0.003 A 
ATOM      6  C4  PXY d   1      -5.270   4.291   1.369  0.00  0.00    -0.082 A 
ATOM      7  C5  PXY d   1      -3.922   4.235   1.424  0.00  0.00     0.003 A 
ATOM      8  C6  PXY d   1      -3.300   2.998   1.562  0.00  0.00     0.003 A 
ENDROOT
TORSDOF 0
ENDMDL
