MODEL 1
REMARK minimizedAffinity 11.0961637
REMARK minimizedRMSD -1
REMARK  0 active torsions:
REMARK  status: ('A' for Active; 'I' for Inactive)
ROOT
ATOM      1  C4' PXY d   1       2.673   3.490  -4.207  0.00  0.00     0.077 C 
ATOM      2  C1' PXY d   1      -2.819   2.010  -3.181  0.00  0.00     0.077 C 
ATOM      3  C1  PXY d   1      -1.376   2.386  -3.454  0.00  0.00    -0.082 A 
ATOM      4  C2  PXY d   1      -0.837   3.414  -2.819  0.00  0.00     0.003 A 
ATOM      5  C3  PXY d   1       0.457   3.787  -3.077  0.00  0.00     0.003 A 
ATOM      6  C4  PXY d   1       1.223   3.069  -3.956  0.00  0.00    -0.082 A 
ATOM      7  C5  PXY d   1       0.683   2.012  -4.600  0.00  0.00     0.003 A 
ATOM      8  C6  PXY d   1      -0.645   1.675  -4.354  0.00  0.00     0.003 A 
ENDROOT
TORSDOF 0
ENDMDL
