MODEL 1
REMARK minimizedAffinity 11.9106636
REMARK minimizedRMSD -1
REMARK  0 active torsions:
REMARK  status: ('A' for Active; 'I' for Inactive)
ROOT
ATOM      1  C4' PXY d   1      -4.207  -2.386   1.774  0.00  0.00     0.077 C 
ATOM      2  C1' PXY d   1      -3.217   3.309   1.831  0.00  0.00     0.077 C 
ATOM      3  C1  PXY d   1      -3.490   1.817   1.815  0.00  0.00    -0.082 A 
ATOM      4  C2  PXY d   1      -2.632   0.989   2.388  0.00  0.00     0.003 A 
ATOM      5  C3  PXY d   1      -2.846  -0.365   2.354  0.00  0.00     0.003 A 
ATOM      6  C4  PXY d   1      -3.978  -0.872   1.774  0.00  0.00    -0.082 A 
ATOM      7  C5  PXY d   1      -4.863  -0.033   1.197  0.00  0.00     0.003 A 
ATOM      8  C6  PXY d   1      -4.607   1.335   1.205  0.00  0.00     0.003 A 
ENDROOT
TORSDOF 0
ENDMDL
