MODEL 1
REMARK minimizedAffinity 4.34156656
REMARK minimizedRMSD -1
REMARK  0 active torsions:
REMARK  status: ('A' for Active; 'I' for Inactive)
ROOT
ATOM      1  C4' PXY d   1       5.999  -0.382  -3.360  0.00  0.00     0.077 C 
ATOM      2  C1' PXY d   1       1.533  -2.613  -0.446  0.00  0.00     0.077 C 
ATOM      3  C1  PXY d   1       2.706  -2.039  -1.217  0.00  0.00    -0.082 A 
ATOM      4  C2  PXY d   1       3.394  -1.031  -0.706  0.00  0.00     0.003 A 
ATOM      5  C3  PXY d   1       4.437  -0.479  -1.404  0.00  0.00     0.003 A 
ATOM      6  C4  PXY d   1       4.814  -0.999  -2.613  0.00  0.00    -0.082 A 
ATOM      7  C5  PXY d   1       4.123  -2.034  -3.136  0.00  0.00     0.003 A 
ATOM      8  C6  PXY d   1       3.041  -2.553  -2.431  0.00  0.00     0.003 A 
ENDROOT
TORSDOF 0
ENDMDL
