MODEL 1
REMARK minimizedAffinity 2.50044513
REMARK minimizedRMSD -1
REMARK  0 active torsions:
REMARK  status: ('A' for Active; 'I' for Inactive)
ROOT
ATOM      1  C4' PXY d   1       6.000   0.378  -3.286  0.00  0.00     0.077 C 
ATOM      2  C1' PXY d   1       1.874  -1.553   0.273  0.00  0.00     0.077 C 
ATOM      3  C1  PXY d   1       2.948  -1.038  -0.665  0.00  0.00    -0.082 A 
ATOM      4  C2  PXY d   1       3.936  -1.838  -1.030  0.00  0.00     0.003 A 
ATOM      5  C3  PXY d   1       4.933  -1.378  -1.852  0.00  0.00     0.003 A 
ATOM      6  C4  PXY d   1       4.889  -0.103  -2.348  0.00  0.00    -0.082 A 
ATOM      7  C5  PXY d   1       3.878   0.716  -1.988  0.00  0.00     0.003 A 
ATOM      8  C6  PXY d   1       2.898   0.244  -1.120  0.00  0.00     0.003 A 
ENDROOT
TORSDOF 0
ENDMDL
