MODEL 1
REMARK minimizedAffinity 5.94905519
REMARK minimizedRMSD -1
REMARK  0 active torsions:
REMARK  status: ('A' for Active; 'I' for Inactive)
ROOT
ATOM      1  C4' PXY d   1      -0.080   0.761  -4.756  0.00  0.00     0.077 C 
ATOM      2  C1' PXY d   1      -0.243   5.068  -0.905  0.00  0.00     0.077 C 
ATOM      3  C1  PXY d   1      -0.210   3.933  -1.909  0.00  0.00    -0.082 A 
ATOM      4  C2  PXY d   1       0.925   3.629  -2.516  0.00  0.00     0.003 A 
ATOM      5  C3  PXY d   1       0.965   2.627  -3.451  0.00  0.00     0.003 A 
ATOM      6  C4  PXY d   1      -0.157   1.893  -3.728  0.00  0.00    -0.082 A 
ATOM      7  C5  PXY d   1      -1.317   2.190  -3.105  0.00  0.00     0.003 A 
ATOM      8  C6  PXY d   1      -1.346   3.238  -2.190  0.00  0.00     0.003 A 
ENDROOT
TORSDOF 0
ENDMDL
