MODEL 1
REMARK minimizedAffinity 13.0305519
REMARK minimizedRMSD -1
REMARK  0 active torsions:
REMARK  status: ('A' for Active; 'I' for Inactive)
ROOT
ATOM      1  C4' PXY d   1       0.062  -0.382  -4.133  0.00  0.00     0.077 C 
ATOM      2  C1' PXY d   1      -1.158   5.004  -2.425  0.00  0.00     0.077 C 
ATOM      3  C1  PXY d   1      -0.828   3.596  -2.880  0.00  0.00    -0.082 A 
ATOM      4  C2  PXY d   1      -1.766   2.663  -2.851  0.00  0.00     0.003 A 
ATOM      5  C3  PXY d   1      -1.476   1.377  -3.229  0.00  0.00     0.003 A 
ATOM      6  C4  PXY d   1      -0.228   1.055  -3.692  0.00  0.00    -0.082 A 
ATOM      7  C5  PXY d   1       0.731   2.004  -3.735  0.00  0.00     0.003 A 
ATOM      8  C6  PXY d   1       0.428   3.294  -3.308  0.00  0.00     0.003 A 
ENDROOT
TORSDOF 0
ENDMDL
