MODEL 1
REMARK minimizedAffinity 7.31438065
REMARK minimizedRMSD -1
REMARK  0 active torsions:
REMARK  status: ('A' for Active; 'I' for Inactive)
ROOT
ATOM      1  C4' PXY d   1      -0.879   5.030  -1.978  0.00  0.00     0.077 C 
ATOM      2  C1' PXY d   1       0.053  -0.274  -4.078  0.00  0.00     0.077 C 
ATOM      3  C1  PXY d   1      -0.204   1.116  -3.532  0.00  0.00    -0.082 A 
ATOM      4  C2  PXY d   1       0.811   1.946  -3.351  0.00  0.00     0.003 A 
ATOM      5  C3  PXY d   1       0.600   3.196  -2.828  0.00  0.00     0.003 A 
ATOM      6  C4  PXY d   1      -0.668   3.620  -2.536  0.00  0.00    -0.082 A 
ATOM      7  C5  PXY d   1      -1.710   2.783  -2.727  0.00  0.00     0.003 A 
ATOM      8  C6  PXY d   1      -1.471   1.504  -3.221  0.00  0.00     0.003 A 
ENDROOT
TORSDOF 0
ENDMDL
