MODEL 1
REMARK minimizedAffinity 9.33443451
REMARK minimizedRMSD -1
REMARK  0 active torsions:
REMARK  status: ('A' for Active; 'I' for Inactive)
ROOT
ATOM      1  C4' PXY d   1       2.451   1.286   0.229  0.00  0.00     0.077 C 
ATOM      2  C1' PXY d   1       6.000  -1.577  -3.323  0.00  0.00     0.077 C 
ATOM      3  C1  PXY d   1       5.061  -0.836  -2.392  0.00  0.00    -0.082 A 
ATOM      4  C2  PXY d   1       5.074   0.486  -2.366  0.00  0.00     0.003 A 
ATOM      5  C3  PXY d   1       4.254   1.171  -1.506  0.00  0.00     0.003 A 
ATOM      6  C4  PXY d   1       3.374   0.497  -0.703  0.00  0.00    -0.082 A 
ATOM      7  C5  PXY d   1       3.348  -0.852  -0.731  0.00  0.00     0.003 A 
ATOM      8  C6  PXY d   1       4.217  -1.530  -1.581  0.00  0.00     0.003 A 
ENDROOT
TORSDOF 0
ENDMDL
