MODEL 1
REMARK minimizedAffinity 2.47927809
REMARK minimizedRMSD -1
REMARK  0 active torsions:
REMARK  status: ('A' for Active; 'I' for Inactive)
ROOT
ATOM      1  C4' PXY d   1       4.926   0.295  -2.723  0.00  0.00     0.077 C 
ATOM      2  C1' PXY d   1       1.899  -3.087   0.857  0.00  0.00     0.077 C 
ATOM      3  C1  PXY d   1       2.692  -2.209  -0.091  0.00  0.00    -0.082 A 
ATOM      4  C2  PXY d   1       3.546  -1.323   0.396  0.00  0.00     0.003 A 
ATOM      5  C3  PXY d   1       4.247  -0.499  -0.446  0.00  0.00     0.003 A 
ATOM      6  C4  PXY d   1       4.112  -0.619  -1.804  0.00  0.00    -0.082 A 
ATOM      7  C5  PXY d   1       3.250  -1.527  -2.309  0.00  0.00     0.003 A 
ATOM      8  C6  PXY d   1       2.517  -2.326  -1.436  0.00  0.00     0.003 A 
ENDROOT
TORSDOF 0
ENDMDL
