MODEL 1
REMARK minimizedAffinity 5.23495007
REMARK minimizedRMSD -1
REMARK  1 active torsions:
REMARK  status: ('A' for Active; 'I' for Inactive)
REMARK    1  A    between atoms: N_2  and  C1_3 
ROOT
ATOM      1  C1  UNL d   1       1.165  -1.125   0.836  0.00  0.00     0.143 A 
ATOM      2  C2  UNL d   1       1.913  -1.226   2.014  0.00  0.00    -0.057 A 
ATOM      3  C3  UNL d   1       1.305  -1.132   3.272  0.00  0.00     0.033 A 
ATOM      4  C4  UNL d   1      -0.064  -0.904   3.373  0.00  0.00    -0.042 A 
ATOM      5  C5  UNL d   1      -0.823  -0.775   2.215  0.00  0.00     0.033 A 
ATOM      6  C6  UNL d   1      -0.211  -0.877   0.963  0.00  0.00    -0.057 A 
ENDROOT
BRANCH   1   7
ATOM      7  N   UNL d   1       1.727  -1.112  -0.443  0.00  0.00    -0.732 N 
ATOM      8  C   UNL d   1       0.950  -0.677  -1.584  0.00  0.00     0.284 C 
ATOM      9  H3  UNL d   1       2.688  -0.777  -0.442  0.00  0.00     0.395 HD
ENDBRANCH   1   7
TORSDOF 1
ENDMDL
