MODEL 1
REMARK minimizedAffinity -0.916183114
REMARK minimizedRMSD -1
REMARK  1 active torsions:
REMARK  status: ('A' for Active; 'I' for Inactive)
REMARK    1  A    between atoms: N_2  and  C1_3 
ROOT
ATOM      1  C1  UNL d   1       2.459  -0.525  -0.038  0.00  0.00     0.143 A 
ATOM      2  C2  UNL d   1       1.817  -0.773  -1.257  0.00  0.00    -0.057 A 
ATOM      3  C3  UNL d   1       1.550   0.263  -2.161  0.00  0.00     0.033 A 
ATOM      4  C4  UNL d   1       1.896   1.573  -1.848  0.00  0.00    -0.042 A 
ATOM      5  C5  UNL d   1       2.512   1.847  -0.632  0.00  0.00     0.033 A 
ATOM      6  C6  UNL d   1       2.782   0.807   0.264  0.00  0.00    -0.057 A 
ENDROOT
BRANCH   1   7
ATOM      7  N   UNL d   1       2.663  -1.496   0.945  0.00  0.00    -0.732 N 
ATOM      8  C   UNL d   1       1.797  -1.568   2.101  0.00  0.00     0.284 C 
ATOM      9  H3  UNL d   1       2.907  -2.402   0.551  0.00  0.00     0.395 HD
ENDBRANCH   1   7
TORSDOF 1
ENDMDL
