MODEL 1
REMARK minimizedAffinity 0.985469639
REMARK minimizedRMSD -1
REMARK  1 active torsions:
REMARK  status: ('A' for Active; 'I' for Inactive)
REMARK    1  A    between atoms: N_2  and  C1_3 
ROOT
ATOM      1  C1  UNL d   1       1.853  -1.864   1.651  0.00  0.00     0.143 A 
ATOM      2  C2  UNL d   1       1.083  -0.759   2.028  0.00  0.00    -0.057 A 
ATOM      3  C3  UNL d   1      -0.085  -0.911   2.785  0.00  0.00     0.033 A 
ATOM      4  C4  UNL d   1      -0.521  -2.179   3.154  0.00  0.00    -0.042 A 
ATOM      5  C5  UNL d   1       0.215  -3.294   2.769  0.00  0.00     0.033 A 
ATOM      6  C6  UNL d   1       1.384  -3.135   2.019  0.00  0.00    -0.057 A 
ENDROOT
BRANCH   1   7
ATOM      7  N   UNL d   1       2.970  -1.786   0.815  0.00  0.00    -0.732 N 
ATOM      8  C   UNL d   1       2.862  -2.110  -0.591  0.00  0.00     0.284 C 
ATOM      9  H3  UNL d   1       3.545  -0.970   1.011  0.00  0.00     0.395 HD
ENDBRANCH   1   7
TORSDOF 1
ENDMDL
