MODEL 1
REMARK minimizedAffinity 3.17169476
REMARK minimizedRMSD -1
REMARK  1 active torsions:
REMARK  status: ('A' for Active; 'I' for Inactive)
REMARK    1  A    between atoms: N_2  and  C1_3 
ROOT
ATOM      1  C1  UNL d   1       1.549  -1.400   1.163  0.00  0.00     0.143 A 
ATOM      2  C2  UNL d   1       2.289  -0.936   2.256  0.00  0.00    -0.057 A 
ATOM      3  C3  UNL d   1       1.665  -0.583   3.458  0.00  0.00     0.033 A 
ATOM      4  C4  UNL d   1       0.281  -0.662   3.580  0.00  0.00    -0.042 A 
ATOM      5  C5  UNL d   1      -0.477  -1.096   2.499  0.00  0.00     0.033 A 
ATOM      6  C6  UNL d   1       0.153  -1.453   1.303  0.00  0.00    -0.057 A 
ENDROOT
BRANCH   1   7
ATOM      7  N   UNL d   1       2.101  -1.672  -0.091  0.00  0.00    -0.732 N 
ATOM      8  C   UNL d   1       1.549  -1.069  -1.286  0.00  0.00     0.284 C 
ATOM      9  H3  UNL d   1       3.117  -1.699  -0.071  0.00  0.00     0.395 HD
ENDBRANCH   1   7
TORSDOF 1
ENDMDL
