MODEL 1
REMARK minimizedAffinity 2.37142038
REMARK minimizedRMSD -1
REMARK  1 active torsions:
REMARK  status: ('A' for Active; 'I' for Inactive)
REMARK    1  A    between atoms: N_2  and  C1_3 
ROOT
ATOM      1  C1  UNL d   1       2.213  -1.738   0.798  0.00  0.00     0.143 A 
ATOM      2  C2  UNL d   1       1.038  -0.983   0.716  0.00  0.00    -0.057 A 
ATOM      3  C3  UNL d   1       0.253  -0.735   1.849  0.00  0.00     0.033 A 
ATOM      4  C4  UNL d   1       0.617  -1.264   3.083  0.00  0.00    -0.042 A 
ATOM      5  C5  UNL d   1       1.767  -2.037   3.184  0.00  0.00     0.033 A 
ATOM      6  C6  UNL d   1       2.550  -2.276   2.050  0.00  0.00    -0.057 A 
ENDROOT
BRANCH   1   7
ATOM      7  N   UNL d   1       2.983  -2.102  -0.309  0.00  0.00    -0.732 N 
ATOM      8  C   UNL d   1       4.428  -2.097  -0.236  0.00  0.00     0.284 C 
ATOM      9  H3  UNL d   1       2.594  -2.900  -0.807  0.00  0.00     0.395 HD
ENDBRANCH   1   7
TORSDOF 1
ENDMDL
