MODEL 1
REMARK minimizedAffinity 8.39166069
REMARK minimizedRMSD -1
REMARK  1 active torsions:
REMARK  status: ('A' for Active; 'I' for Inactive)
REMARK    1  A    between atoms: N_2  and  C1_3 
ROOT
ATOM      1  C1  UNL d   1      -0.119   0.047   3.210  0.00  0.00     0.143 A 
ATOM      2  C2  UNL d   1       1.161  -0.255   3.687  0.00  0.00    -0.057 A 
ATOM      3  C3  UNL d   1       2.044  -1.049   2.944  0.00  0.00     0.033 A 
ATOM      4  C4  UNL d   1       1.650  -1.579   1.720  0.00  0.00    -0.042 A 
ATOM      5  C5  UNL d   1       0.374  -1.313   1.238  0.00  0.00     0.033 A 
ATOM      6  C6  UNL d   1      -0.501  -0.514   1.982  0.00  0.00    -0.057 A 
ENDROOT
BRANCH   1   7
ATOM      7  N   UNL d   1      -1.077   0.748   3.946  0.00  0.00    -0.732 N 
ATOM      8  C   UNL d   1      -2.197   1.382   3.283  0.00  0.00     0.284 C 
ATOM      9  H3  UNL d   1      -1.321   0.277   4.815  0.00  0.00     0.395 HD
ENDBRANCH   1   7
TORSDOF 1
ENDMDL
