MODEL 1
REMARK minimizedAffinity 0.703300178
REMARK minimizedRMSD -1
REMARK  1 active torsions:
REMARK  status: ('A' for Active; 'I' for Inactive)
REMARK    1  A    between atoms: N_2  and  C1_3 
ROOT
ATOM      1  C1  UNL d   1       1.432  -1.459   1.052  0.00  0.00     0.143 A 
ATOM      2  C2  UNL d   1       0.408  -1.187   0.139  0.00  0.00    -0.057 A 
ATOM      3  C3  UNL d   1      -0.825  -0.675   0.562  0.00  0.00     0.033 A 
ATOM      4  C4  UNL d   1      -1.066  -0.453   1.913  0.00  0.00    -0.042 A 
ATOM      5  C5  UNL d   1      -0.071  -0.740   2.842  0.00  0.00     0.033 A 
ATOM      6  C6  UNL d   1       1.160  -1.245   2.413  0.00  0.00    -0.057 A 
ENDROOT
BRANCH   1   7
ATOM      7  N   UNL d   1       2.645  -2.061   0.705  0.00  0.00    -0.732 N 
ATOM      8  C   UNL d   1       3.025  -2.205  -0.684  0.00  0.00     0.284 C 
ATOM      9  H3  UNL d   1       3.407  -1.781   1.318  0.00  0.00     0.395 HD
ENDBRANCH   1   7
TORSDOF 1
ENDMDL
