MODEL 1
REMARK minimizedAffinity 2.31079555
REMARK minimizedRMSD -1
REMARK  0 active torsions:
REMARK  status: ('A' for Active; 'I' for Inactive)
ROOT
ATOM      1  C4' PXY d   1       1.423  -3.000  -0.969  0.00  0.00     0.077 C 
ATOM      2  C1' PXY d   1       4.146   1.501   1.428  0.00  0.00     0.077 C 
ATOM      3  C1  PXY d   1       3.440   0.313   0.805  0.00  0.00    -0.082 A 
ATOM      4  C2  PXY d   1       2.715   0.482  -0.289  0.00  0.00     0.003 A 
ATOM      5  C3  PXY d   1       2.045  -0.576  -0.847  0.00  0.00     0.003 A 
ATOM      6  C4  PXY d   1       2.160  -1.830  -0.311  0.00  0.00    -0.082 A 
ATOM      7  C5  PXY d   1       2.907  -2.013   0.799  0.00  0.00     0.003 A 
ATOM      8  C6  PXY d   1       3.546  -0.919   1.374  0.00  0.00     0.003 A 
ENDROOT
TORSDOF 0
ENDMDL
