MODEL 1
REMARK minimizedAffinity 3.18367767
REMARK minimizedRMSD -1
REMARK  0 active torsions:
REMARK  status: ('A' for Active; 'I' for Inactive)
ROOT
ATOM      1  C4' PXY d   1       3.437  -2.362  -1.904  0.00  0.00     0.077 C 
ATOM      2  C1' PXY d   1       0.123   1.366   1.017  0.00  0.00     0.077 C 
ATOM      3  C1  PXY d   1       0.999   0.398   0.246  0.00  0.00    -0.082 A 
ATOM      4  C2  PXY d   1       0.548  -0.814  -0.031  0.00  0.00     0.003 A 
ATOM      5  C3  PXY d   1       1.339  -1.713  -0.699  0.00  0.00     0.003 A 
ATOM      6  C4  PXY d   1       2.584  -1.348  -1.136  0.00  0.00    -0.082 A 
ATOM      7  C5  PXY d   1       3.047  -0.109  -0.868  0.00  0.00     0.003 A 
ATOM      8  C6  PXY d   1       2.244   0.774  -0.152  0.00  0.00     0.003 A 
ENDROOT
TORSDOF 0
ENDMDL
