MODEL 1
REMARK minimizedAffinity 6.19681263
REMARK minimizedRMSD -1
REMARK  0 active torsions:
REMARK  status: ('A' for Active; 'I' for Inactive)
ROOT
ATOM      1  C4' PXY d   1       0.739   1.888   1.229  0.00  0.00     0.077 C 
ATOM      2  C1' PXY d   1       5.998   2.210  -1.149  0.00  0.00     0.077 C 
ATOM      3  C1  PXY d   1       4.615   2.118  -0.535  0.00  0.00    -0.082 A 
ATOM      4  C2  PXY d   1       4.202   3.064   0.293  0.00  0.00     0.003 A 
ATOM      5  C3  PXY d   1       2.967   2.980   0.882  0.00  0.00     0.003 A 
ATOM      6  C4  PXY d   1       2.124   1.944   0.579  0.00  0.00    -0.082 A 
ATOM      7  C5  PXY d   1       2.533   0.981  -0.274  0.00  0.00     0.003 A 
ATOM      8  C6  PXY d   1       3.807   1.063  -0.829  0.00  0.00     0.003 A 
ENDROOT
TORSDOF 0
ENDMDL
