MODEL 1
REMARK minimizedAffinity -1.54218483
REMARK minimizedRMSD -1
REMARK  0 active torsions:
REMARK  status: ('A' for Active; 'I' for Inactive)
ROOT
ATOM      1  C4' PXY d   1       4.139   1.580  -1.008  0.00  0.00     0.077 C 
ATOM      2  C1' PXY d   1       0.902   3.011   3.563  0.00  0.00     0.077 C 
ATOM      3  C1  PXY d   1       1.743   2.625   2.362  0.00  0.00    -0.082 A 
ATOM      4  C2  PXY d   1       2.995   3.045   2.279  0.00  0.00     0.003 A 
ATOM      5  C3  PXY d   1       3.760   2.733   1.185  0.00  0.00     0.003 A 
ATOM      6  C4  PXY d   1       3.255   1.937   0.191  0.00  0.00    -0.082 A 
ATOM      7  C5  PXY d   1       1.982   1.496   0.274  0.00  0.00     0.003 A 
ATOM      8  C6  PXY d   1       1.209   1.859   1.373  0.00  0.00     0.003 A 
ENDROOT
TORSDOF 0
ENDMDL
