MODEL 1
REMARK minimizedAffinity 3.6276443
REMARK minimizedRMSD -1
REMARK  0 active torsions:
REMARK  status: ('A' for Active; 'I' for Inactive)
ROOT
ATOM      1  C4' PXY d   1       4.288   3.153   3.325  0.00  0.00     0.077 C 
ATOM      2  C1' PXY d   1      -0.776   1.684   0.956  0.00  0.00     0.077 C 
ATOM      3  C1  PXY d   1       0.558   2.064   1.567  0.00  0.00    -0.082 A 
ATOM      4  C2  PXY d   1       0.643   2.279   2.870  0.00  0.00     0.003 A 
ATOM      5  C3  PXY d   1       1.835   2.654   3.435  0.00  0.00     0.003 A 
ATOM      6  C4  PXY d   1       2.963   2.758   2.666  0.00  0.00    -0.082 A 
ATOM      7  C5  PXY d   1       2.887   2.531   1.337  0.00  0.00     0.003 A 
ATOM      8  C6  PXY d   1       1.659   2.191   0.777  0.00  0.00     0.003 A 
ENDROOT
TORSDOF 0
ENDMDL
