MODEL 1
REMARK minimizedAffinity 8.86192417
REMARK minimizedRMSD -1
REMARK  0 active torsions:
REMARK  status: ('A' for Active; 'I' for Inactive)
ROOT
ATOM      1  C4' PXY d   1      -1.129  -5.108  -0.785  0.00  0.00     0.077 C 
ATOM      2  C1' PXY d   1      -4.834  -5.285  -5.218  0.00  0.00     0.077 C 
ATOM      3  C1  PXY d   1      -3.866  -5.226  -4.053  0.00  0.00    -0.082 A 
ATOM      4  C2  PXY d   1      -2.793  -6.000  -4.054  0.00  0.00     0.003 A 
ATOM      5  C3  PXY d   1      -1.924  -5.983  -2.994  0.00  0.00     0.003 A 
ATOM      6  C4  PXY d   1      -2.128  -5.127  -1.945  0.00  0.00    -0.082 A 
ATOM      7  C5  PXY d   1      -3.215  -4.326  -1.941  0.00  0.00     0.003 A 
ATOM      8  C6  PXY d   1      -4.107  -4.388  -3.008  0.00  0.00     0.003 A 
ENDROOT
TORSDOF 0
ENDMDL
