MODEL 1
REMARK minimizedAffinity -2.50925851
REMARK minimizedRMSD -1
REMARK  0 active torsions:
REMARK  status: ('A' for Active; 'I' for Inactive)
ROOT
ATOM      1  C4' PXY d   1       4.282   1.104  -1.068  0.00  0.00     0.077 C 
ATOM      2  C1' PXY d   1      -0.490  -1.941   0.102  0.00  0.00     0.077 C 
ATOM      3  C1  PXY d   1       0.768  -1.153  -0.203  0.00  0.00    -0.082 A 
ATOM      4  C2  PXY d   1       0.773   0.161  -0.042  0.00  0.00     0.003 A 
ATOM      5  C3  PXY d   1       1.893   0.892  -0.343  0.00  0.00     0.003 A 
ATOM      6  C4  PXY d   1       3.036   0.267  -0.763  0.00  0.00    -0.082 A 
ATOM      7  C5  PXY d   1       3.043  -1.073  -0.919  0.00  0.00     0.003 A 
ATOM      8  C6  PXY d   1       1.883  -1.793  -0.647  0.00  0.00     0.003 A 
ENDROOT
TORSDOF 0
ENDMDL
