MODEL 1
REMARK minimizedAffinity 1.05511272
REMARK minimizedRMSD -1
REMARK  0 active torsions:
REMARK  status: ('A' for Active; 'I' for Inactive)
ROOT
ATOM      1  C4' PXY d   1       1.748   1.164   0.390  0.00  0.00     0.077 C 
ATOM      2  C1' PXY d   1       4.059  -3.221  -2.584  0.00  0.00     0.077 C 
ATOM      3  C1  PXY d   1       3.465  -2.066  -1.804  0.00  0.00    -0.082 A 
ATOM      4  C2  PXY d   1       2.367  -2.254  -1.089  0.00  0.00     0.003 A 
ATOM      5  C3  PXY d   1       1.799  -1.212  -0.403  0.00  0.00     0.003 A 
ATOM      6  C4  PXY d   1       2.389   0.023  -0.406  0.00  0.00    -0.082 A 
ATOM      7  C5  PXY d   1       3.514   0.221  -1.124  0.00  0.00     0.003 A 
ATOM      8  C6  PXY d   1       4.053  -0.839  -1.846  0.00  0.00     0.003 A 
ENDROOT
TORSDOF 0
ENDMDL
