MODEL 1
REMARK minimizedAffinity 0.795425355
REMARK minimizedRMSD -1
REMARK  0 active torsions:
REMARK  status: ('A' for Active; 'I' for Inactive)
ROOT
ATOM      1  C4' PXY d   1       1.657   0.995   0.599  0.00  0.00     0.077 C 
ATOM      2  C1' PXY d   1       3.759  -3.124  -2.870  0.00  0.00     0.077 C 
ATOM      3  C1  PXY d   1       3.196  -2.050  -1.960  0.00  0.00    -0.082 A 
ATOM      4  C2  PXY d   1       3.754  -0.850  -1.942  0.00  0.00     0.003 A 
ATOM      5  C3  PXY d   1       3.278   0.123  -1.102  0.00  0.00     0.003 A 
ATOM      6  C4  PXY d   1       2.186  -0.117  -0.311  0.00  0.00    -0.082 A 
ATOM      7  C5  PXY d   1       1.605  -1.336  -0.332  0.00  0.00     0.003 A 
ATOM      8  C6  PXY d   1       2.129  -2.323  -1.162  0.00  0.00     0.003 A 
ENDROOT
TORSDOF 0
ENDMDL
