MODEL 1
REMARK minimizedAffinity 0.19705227
REMARK minimizedRMSD -1
REMARK  0 active torsions:
REMARK  status: ('A' for Active; 'I' for Inactive)
ROOT
ATOM      1  C4' PXY d   1       3.926   0.339  -0.853  0.00  0.00     0.077 C 
ATOM      2  C1' PXY d   1      -0.912  -2.716  -0.034  0.00  0.00     0.077 C 
ATOM      3  C1  PXY d   1       0.364  -1.926  -0.246  0.00  0.00    -0.082 A 
ATOM      4  C2  PXY d   1       0.358  -0.614  -0.070  0.00  0.00     0.003 A 
ATOM      5  C3  PXY d   1       1.495   0.120  -0.289  0.00  0.00     0.003 A 
ATOM      6  C4  PXY d   1       2.664  -0.501  -0.640  0.00  0.00    -0.082 A 
ATOM      7  C5  PXY d   1       2.680  -1.840  -0.812  0.00  0.00     0.003 A 
ATOM      8  C6  PXY d   1       1.505  -2.562  -0.625  0.00  0.00     0.003 A 
ENDROOT
TORSDOF 0
ENDMDL
