MODEL 1
REMARK minimizedAffinity 1.59074497
REMARK minimizedRMSD -1
REMARK  0 active torsions:
REMARK  status: ('A' for Active; 'I' for Inactive)
ROOT
ATOM      1  C4' PXY d   1       1.385   1.364   0.036  0.00  0.00     0.077 C 
ATOM      2  C1' PXY d   1      -1.380  -3.480  -1.481  0.00  0.00     0.077 C 
ATOM      3  C1  PXY d   1      -0.646  -2.217  -1.077  0.00  0.00    -0.082 A 
ATOM      4  C2  PXY d   1      -1.295  -1.064  -1.050  0.00  0.00     0.003 A 
ATOM      5  C3  PXY d   1      -0.639   0.093  -0.717  0.00  0.00     0.003 A 
ATOM      6  C4  PXY d   1       0.682   0.062  -0.357  0.00  0.00    -0.082 A 
ATOM      7  C5  PXY d   1       1.348  -1.112  -0.372  0.00  0.00     0.003 A 
ATOM      8  C6  PXY d   1       0.674  -2.269  -0.752  0.00  0.00     0.003 A 
ENDROOT
TORSDOF 0
ENDMDL
