MODEL 1
REMARK minimizedAffinity -4.42676067
REMARK minimizedRMSD -1
REMARK  0 active torsions:
REMARK  status: ('A' for Active; 'I' for Inactive)
ROOT
ATOM      1  C1  DEN d   1      -0.886   0.542   0.177  0.00  0.00     0.130 A 
ATOM      2  C2  DEN d   1       0.090   1.166  -0.713  0.00  0.00    -0.031 A 
ATOM      3  C3  DEN d   1       1.329   0.364  -0.665  0.00  0.00     0.027 A 
ATOM      4  C4  DEN d   1       1.828  -1.773   0.689  0.00  0.00     0.027 A 
ATOM      5  C5  DEN d   1       1.313  -2.674   1.595  0.00  0.00    -0.003 A 
ATOM      6  C6  DEN d   1       0.052  -2.547   2.114  0.00  0.00     0.001 A 
ATOM      7  C7  DEN d   1      -0.755  -1.522   1.695  0.00  0.00     0.017 A 
ATOM      8  C8  DEN d   1      -0.240  -0.606   0.787  0.00  0.00    -0.094 A 
ATOM      9  C9  DEN d   1       1.033  -0.758   0.266  0.00  0.00    -0.072 A 
ENDROOT
TORSDOF 0
ENDMDL
