MODEL 1
REMARK minimizedAffinity -5.73786545
REMARK minimizedRMSD -1
REMARK  0 active torsions:
REMARK  status: ('A' for Active; 'I' for Inactive)
ROOT
ATOM      1  C1  DEN d   1      -0.044   0.657  -0.918  0.00  0.00     0.130 A 
ATOM      2  C2  DEN d   1      -1.169   1.327  -0.272  0.00  0.00    -0.031 A 
ATOM      3  C3  DEN d   1      -1.477   0.601   0.976  0.00  0.00     0.027 A 
ATOM      4  C4  DEN d   1      -0.325  -1.482   1.969  0.00  0.00     0.027 A 
ATOM      5  C5  DEN d   1       0.670  -2.414   1.774  0.00  0.00    -0.003 A 
ATOM      6  C6  DEN d   1       1.468  -2.408   0.661  0.00  0.00     0.001 A 
ATOM      7  C7  DEN d   1       1.315  -1.424  -0.279  0.00  0.00     0.017 A 
ATOM      8  C8  DEN d   1       0.309  -0.485  -0.093  0.00  0.00    -0.094 A 
ATOM      9  C9  DEN d   1      -0.480  -0.501   1.044  0.00  0.00    -0.072 A 
ENDROOT
TORSDOF 0
ENDMDL
