MODEL 1
REMARK minimizedAffinity -6.20759773
REMARK minimizedRMSD -1
REMARK  0 active torsions:
REMARK  status: ('A' for Active; 'I' for Inactive)
ROOT
ATOM      1  C1  DEN d   1       1.957  -2.283   0.774  0.00  0.00     0.130 A 
ATOM      2  C2  DEN d   1       1.383  -3.187   1.767  0.00  0.00    -0.031 A 
ATOM      3  C3  DEN d   1       0.075  -2.639   2.181  0.00  0.00     0.027 A 
ATOM      4  C4  DEN d   1      -1.112  -0.494   1.379  0.00  0.00     0.027 A 
ATOM      5  C5  DEN d   1      -1.011   0.603   0.553  0.00  0.00    -0.003 A 
ATOM      6  C6  DEN d   1       0.093   0.831  -0.226  0.00  0.00     0.001 A 
ATOM      7  C7  DEN d   1       1.121  -0.075  -0.229  0.00  0.00     0.017 A 
ATOM      8  C8  DEN d   1       1.029  -1.180   0.607  0.00  0.00    -0.094 A 
ATOM      9  C9  DEN d   1      -0.100  -1.399   1.378  0.00  0.00    -0.072 A 
ENDROOT
TORSDOF 0
ENDMDL
