MODEL 1
REMARK minimizedAffinity -6.36849976
REMARK minimizedRMSD -1
REMARK  0 active torsions:
REMARK  status: ('A' for Active; 'I' for Inactive)
ROOT
ATOM      1  C1  DEN d   1       1.102  -0.217  -0.567  0.00  0.00     0.130 A 
ATOM      2  C2  DEN d   1      -0.071   0.651  -0.615  0.00  0.00    -0.031 A 
ATOM      3  C3  DEN d   1      -0.991   0.235   0.461  0.00  0.00     0.027 A 
ATOM      4  C4  DEN d   1      -0.714  -1.656   2.193  0.00  0.00     0.027 A 
ATOM      5  C5  DEN d   1       0.110  -2.673   2.622  0.00  0.00    -0.003 A 
ATOM      6  C6  DEN d   1       1.297  -2.962   2.002  0.00  0.00     0.001 A 
ATOM      7  C7  DEN d   1       1.715  -2.197   0.946  0.00  0.00     0.017 A 
ATOM      8  C8  DEN d   1       0.886  -1.175   0.503  0.00  0.00    -0.094 A 
ATOM      9  C9  DEN d   1      -0.304  -0.890   1.150  0.00  0.00    -0.072 A 
ENDROOT
TORSDOF 0
ENDMDL
