MODEL 1
REMARK minimizedAffinity -3.62335348
REMARK minimizedRMSD -1
REMARK  0 active torsions:
REMARK  status: ('A' for Active; 'I' for Inactive)
ROOT
ATOM      1  C1  DEN d   1      -0.330  -2.414   1.666  0.00  0.00     0.130 A 
ATOM      2  C2  DEN d   1       0.935  -3.141   1.613  0.00  0.00    -0.031 A 
ATOM      3  C3  DEN d   1       1.907  -2.313   0.871  0.00  0.00     0.027 A 
ATOM      4  C4  DEN d   1       1.578   0.015  -0.190  0.00  0.00     0.027 A 
ATOM      5  C5  DEN d   1       0.673   1.029  -0.414  0.00  0.00    -0.003 A 
ATOM      6  C6  DEN d   1      -0.628   0.952   0.006  0.00  0.00     0.001 A 
ATOM      7  C7  DEN d   1      -1.050  -0.144   0.712  0.00  0.00     0.017 A 
ATOM      8  C8  DEN d   1      -0.145  -1.173   0.936  0.00  0.00    -0.094 A 
ATOM      9  C9  DEN d   1       1.170  -1.071   0.514  0.00  0.00    -0.072 A 
ENDROOT
TORSDOF 0
ENDMDL
