MODEL 1
REMARK minimizedAffinity -2.94040942
REMARK minimizedRMSD -1
REMARK  0 active torsions:
REMARK  status: ('A' for Active; 'I' for Inactive)
ROOT
ATOM      1  C1  DEN d   1      -0.309   1.507  -1.041  0.00  0.00     0.130 A 
ATOM      2  C2  DEN d   1      -1.518   1.898  -0.320  0.00  0.00    -0.031 A 
ATOM      3  C3  DEN d   1      -1.597   1.088   0.912  0.00  0.00     0.027 A 
ATOM      4  C4  DEN d   1       0.027  -0.722   1.771  0.00  0.00     0.027 A 
ATOM      5  C5  DEN d   1       1.189  -1.409   1.496  0.00  0.00    -0.003 A 
ATOM      6  C6  DEN d   1       1.908  -1.199   0.350  0.00  0.00     0.001 A 
ATOM      7  C7  DEN d   1       1.498  -0.245  -0.544  0.00  0.00     0.017 A 
ATOM      8  C8  DEN d   1       0.323   0.446  -0.278  0.00  0.00    -0.094 A 
ATOM      9  C9  DEN d   1      -0.383   0.228   0.893  0.00  0.00    -0.072 A 
ENDROOT
TORSDOF 0
ENDMDL
