MODEL 1
REMARK minimizedAffinity -6.77958059
REMARK minimizedRMSD -1
REMARK  0 active torsions:
REMARK  status: ('A' for Active; 'I' for Inactive)
ROOT
ATOM      1  C1  DEN d   1      -0.094  -2.070   2.484  0.00  0.00     0.130 A 
ATOM      2  C2  DEN d   1       1.000  -2.898   1.982  0.00  0.00    -0.031 A 
ATOM      3  C3  DEN d   1       1.585  -2.218   0.809  0.00  0.00     0.027 A 
ATOM      4  C4  DEN d   1       0.911   0.025  -0.270  0.00  0.00     0.027 A 
ATOM      5  C5  DEN d   1       0.032   1.084  -0.203  0.00  0.00    -0.003 A 
ATOM      6  C6  DEN d   1      -0.963   1.148   0.735  0.00  0.00     0.001 A 
ATOM      7  C7  DEN d   1      -1.076   0.157   1.674  0.00  0.00     0.017 A 
ATOM      8  C8  DEN d   1      -0.199  -0.917   1.608  0.00  0.00    -0.094 A 
ATOM      9  C9  DEN d   1       0.809  -0.958   0.659  0.00  0.00    -0.072 A 
ENDROOT
TORSDOF 0
ENDMDL
