MODEL 1
REMARK minimizedAffinity -5.84953499
REMARK minimizedRMSD -1
REMARK  0 active torsions:
REMARK  status: ('A' for Active; 'I' for Inactive)
ROOT
ATOM      1  C1  DEN d   1       1.003   0.118  -0.337  0.00  0.00     0.130 A 
ATOM      2  C2  DEN d   1      -0.077   1.100  -0.385  0.00  0.00    -0.031 A 
ATOM      3  C3  DEN d   1      -1.156   0.634   0.509  0.00  0.00     0.027 A 
ATOM      4  C4  DEN d   1      -1.259  -1.497   1.957  0.00  0.00     0.027 A 
ATOM      5  C5  DEN d   1      -0.584  -2.642   2.318  0.00  0.00    -0.003 A 
ATOM      6  C6  DEN d   1       0.642  -2.962   1.798  0.00  0.00     0.001 A 
ATOM      7  C7  DEN d   1       1.252  -2.104   0.921  0.00  0.00     0.017 A 
ATOM      8  C8  DEN d   1       0.575  -0.951   0.547  0.00  0.00    -0.094 A 
ATOM      9  C9  DEN d   1      -0.658  -0.640   1.093  0.00  0.00    -0.072 A 
ENDROOT
TORSDOF 0
ENDMDL
