MODEL 1
REMARK minimizedAffinity -6.46357346
REMARK minimizedRMSD -1
REMARK  0 active torsions:
REMARK  status: ('A' for Active; 'I' for Inactive)
ROOT
ATOM      1  C1  DEN d   1       0.033  -2.346   1.968  0.00  0.00     0.130 A 
ATOM      2  C2  DEN d   1       1.421  -2.800   1.981  0.00  0.00    -0.031 A 
ATOM      3  C3  DEN d   1       2.183  -1.966   1.028  0.00  0.00     0.027 A 
ATOM      4  C4  DEN d   1       1.353  -0.024  -0.452  0.00  0.00     0.027 A 
ATOM      5  C5  DEN d   1       0.251   0.718  -0.816  0.00  0.00    -0.003 A 
ATOM      6  C6  DEN d   1      -0.996   0.472  -0.307  0.00  0.00     0.001 A 
ATOM      7  C7  DEN d   1      -1.165  -0.514   0.629  0.00  0.00     0.017 A 
ATOM      8  C8  DEN d   1      -0.060  -1.272   0.995  0.00  0.00    -0.094 A 
ATOM      9  C9  DEN d   1       1.195  -0.999   0.479  0.00  0.00    -0.072 A 
ENDROOT
TORSDOF 0
ENDMDL
