MODEL 1
REMARK minimizedAffinity -6.07385445
REMARK minimizedRMSD -1
REMARK  0 active torsions:
REMARK  status: ('A' for Active; 'I' for Inactive)
ROOT
ATOM      1  C1  DEN d   1      -0.107  -2.144   2.185  0.00  0.00     0.130 A 
ATOM      2  C2  DEN d   1       1.141  -2.874   1.977  0.00  0.00    -0.031 A 
ATOM      3  C3  DEN d   1       1.936  -2.141   0.972  0.00  0.00     0.027 A 
ATOM      4  C4  DEN d   1       1.363   0.045  -0.271  0.00  0.00     0.027 A 
ATOM      5  C5  DEN d   1       0.411   1.026  -0.436  0.00  0.00    -0.003 A 
ATOM      6  C6  DEN d   1      -0.786   1.001   0.231  0.00  0.00     0.001 A 
ATOM      7  C7  DEN d   1      -1.042  -0.002   1.128  0.00  0.00     0.017 A 
ATOM      8  C8  DEN d   1      -0.090  -0.999   1.294  0.00  0.00    -0.094 A 
ATOM      9  C9  DEN d   1       1.119  -0.949   0.620  0.00  0.00    -0.072 A 
ENDROOT
TORSDOF 0
ENDMDL
