MODEL 1
REMARK minimizedAffinity -6.73224878
REMARK minimizedRMSD -1
REMARK  0 active torsions:
REMARK  status: ('A' for Active; 'I' for Inactive)
ROOT
ATOM      1  C1  DEN d   1      -0.875   0.825   0.524  0.00  0.00     0.130 A 
ATOM      2  C2  DEN d   1       0.005   1.107  -0.607  0.00  0.00    -0.031 A 
ATOM      3  C3  DEN d   1       1.128   0.149  -0.563  0.00  0.00     0.027 A 
ATOM      4  C4  DEN d   1       1.585  -1.737   1.136  0.00  0.00     0.027 A 
ATOM      5  C5  DEN d   1       1.125  -2.355   2.278  0.00  0.00    -0.003 A 
ATOM      6  C6  DEN d   1      -0.005  -1.938   2.929  0.00  0.00     0.001 A 
ATOM      7  C7  DEN d   1      -0.740  -0.902   2.417  0.00  0.00     0.017 A 
ATOM      8  C8  DEN d   1      -0.279  -0.269   1.270  0.00  0.00    -0.094 A 
ATOM      9  C9  DEN d   1       0.860  -0.713   0.620  0.00  0.00    -0.072 A 
ENDROOT
TORSDOF 0
ENDMDL
