MODEL 1
REMARK minimizedAffinity -6.35484838
REMARK minimizedRMSD -1
REMARK  0 active torsions:
REMARK  status: ('A' for Active; 'I' for Inactive)
ROOT
ATOM      1  C1  DEN d   1       0.235  -1.874   2.441  0.00  0.00     0.130 A 
ATOM      2  C2  DEN d   1       1.506  -2.558   2.214  0.00  0.00    -0.031 A 
ATOM      3  C3  DEN d   1       2.184  -1.897   1.081  0.00  0.00     0.027 A 
ATOM      4  C4  DEN d   1       1.396   0.111  -0.333  0.00  0.00     0.027 A 
ATOM      5  C5  DEN d   1       0.378   1.019  -0.524  0.00  0.00    -0.003 A 
ATOM      6  C6  DEN d   1      -0.764   1.005   0.231  0.00  0.00     0.001 A 
ATOM      7  C7  DEN d   1      -0.897   0.093   1.244  0.00  0.00     0.017 A 
ATOM      8  C8  DEN d   1       0.122  -0.831   1.438  0.00  0.00    -0.094 A 
ATOM      9  C9  DEN d   1       1.274  -0.793   0.671  0.00  0.00    -0.072 A 
ENDROOT
TORSDOF 0
ENDMDL
