MODEL 1
REMARK minimizedAffinity -4.26574039
REMARK minimizedRMSD -1
REMARK  0 active torsions:
REMARK  status: ('A' for Active; 'I' for Inactive)
ROOT
ATOM      1  C   UNL d   1      -0.385  -1.047  -0.066  0.00  0.00     0.078 C 
ATOM      2  C1  UNL d   1       0.133   0.296   0.352  0.00  0.00    -0.077 A 
ATOM      3  C2  UNL d   1      -0.432   0.982   1.435  0.00  0.00    -0.001 A 
ATOM      4  C3  UNL d   1       0.055   2.236   1.807  0.00  0.00     0.003 A 
ATOM      5  C4  UNL d   1       1.107   2.816   1.102  0.00  0.00    -0.005 A 
ATOM      6  C5  UNL d   1       1.674   2.143   0.022  0.00  0.00     0.003 A 
ATOM      7  C6  UNL d   1       1.189   0.888  -0.352  0.00  0.00    -0.001 A 
ENDROOT
TORSDOF 0
ENDMDL
