MODEL 1
REMARK minimizedAffinity -3.77360654
REMARK minimizedRMSD -1
REMARK  0 active torsions:
REMARK  status: ('A' for Active; 'I' for Inactive)
ROOT
ATOM      1  C   UNL d   1      -0.374  -1.383  -1.249  0.00  0.00     0.078 C 
ATOM      2  C1  UNL d   1      -0.758  -1.515   0.195  0.00  0.00    -0.077 A 
ATOM      3  C2  UNL d   1      -0.887  -2.774   0.794  0.00  0.00    -0.001 A 
ATOM      4  C3  UNL d   1      -1.255  -2.882   2.137  0.00  0.00     0.003 A 
ATOM      5  C4  UNL d   1      -1.498  -1.735   2.890  0.00  0.00    -0.005 A 
ATOM      6  C5  UNL d   1      -1.374  -0.478   2.301  0.00  0.00     0.003 A 
ATOM      7  C6  UNL d   1      -1.007  -0.368   0.960  0.00  0.00    -0.001 A 
ENDROOT
TORSDOF 0
ENDMDL
