MODEL 1
REMARK minimizedAffinity -2.39087939
REMARK minimizedRMSD -1
REMARK  0 active torsions:
REMARK  status: ('A' for Active; 'I' for Inactive)
ROOT
ATOM      1  C   UNL d   1       1.373   3.028   1.180  0.00  0.00     0.078 C 
ATOM      2  C1  UNL d   1       1.262   1.782   0.354  0.00  0.00    -0.077 A 
ATOM      3  C2  UNL d   1       0.076   1.037   0.329  0.00  0.00    -0.001 A 
ATOM      4  C3  UNL d   1      -0.010  -0.127  -0.437  0.00  0.00     0.003 A 
ATOM      5  C4  UNL d   1       1.086  -0.558  -1.181  0.00  0.00    -0.005 A 
ATOM      6  C5  UNL d   1       2.271   0.175  -1.160  0.00  0.00     0.003 A 
ATOM      7  C6  UNL d   1       2.359   1.340  -0.395  0.00  0.00    -0.001 A 
ENDROOT
TORSDOF 0
ENDMDL
