MODEL 1
REMARK minimizedAffinity -4.63938379
REMARK minimizedRMSD -1
REMARK  0 active torsions:
REMARK  status: ('A' for Active; 'I' for Inactive)
ROOT
ATOM      1  C   UNL d   1       1.334   2.655   1.266  0.00  0.00     0.078 C 
ATOM      2  C1  UNL d   1       1.060   1.268   0.767  0.00  0.00    -0.077 A 
ATOM      3  C2  UNL d   1       2.046   0.535   0.096  0.00  0.00    -0.001 A 
ATOM      4  C3  UNL d   1       1.774  -0.751  -0.372  0.00  0.00     0.003 A 
ATOM      5  C4  UNL d   1       0.516  -1.316  -0.174  0.00  0.00    -0.005 A 
ATOM      6  C5  UNL d   1      -0.472  -0.594   0.492  0.00  0.00     0.003 A 
ATOM      7  C6  UNL d   1      -0.202   0.693   0.960  0.00  0.00    -0.001 A 
ENDROOT
TORSDOF 0
ENDMDL
