MODEL 1
REMARK minimizedAffinity -3.84491825
REMARK minimizedRMSD -1
REMARK  0 active torsions:
REMARK  status: ('A' for Active; 'I' for Inactive)
ROOT
ATOM      1  C   UNL d   1      -0.377  -1.215   0.151  0.00  0.00     0.078 C 
ATOM      2  C1  UNL d   1       0.149   0.113   0.605  0.00  0.00    -0.077 A 
ATOM      3  C2  UNL d   1      -0.104   0.585   1.898  0.00  0.00    -0.001 A 
ATOM      4  C3  UNL d   1       0.384   1.828   2.304  0.00  0.00     0.003 A 
ATOM      5  C4  UNL d   1       1.127   2.610   1.422  0.00  0.00    -0.005 A 
ATOM      6  C5  UNL d   1       1.382   2.150   0.132  0.00  0.00     0.003 A 
ATOM      7  C6  UNL d   1       0.895   0.907  -0.275  0.00  0.00    -0.001 A 
ENDROOT
TORSDOF 0
ENDMDL
