MODEL 1
REMARK minimizedAffinity -2.20098567
REMARK minimizedRMSD -1
REMARK  0 active torsions:
REMARK  status: ('A' for Active; 'I' for Inactive)
ROOT
ATOM      1  C   UNL d   1       0.416  -1.111  -1.048  0.00  0.00     0.078 C 
ATOM      2  C1  UNL d   1      -0.253  -2.453  -1.038  0.00  0.00    -0.077 A 
ATOM      3  C2  UNL d   1       0.404  -3.583  -0.535  0.00  0.00    -0.001 A 
ATOM      4  C3  UNL d   1      -0.228  -4.827  -0.541  0.00  0.00     0.003 A 
ATOM      5  C4  UNL d   1      -1.519  -4.955  -1.050  0.00  0.00    -0.005 A 
ATOM      6  C5  UNL d   1      -2.179  -3.836  -1.555  0.00  0.00     0.003 A 
ATOM      7  C6  UNL d   1      -1.549  -2.591  -1.550  0.00  0.00    -0.001 A 
ENDROOT
TORSDOF 0
ENDMDL
