MODEL 1
REMARK minimizedAffinity -4.87855148
REMARK minimizedRMSD -1
REMARK  0 active torsions:
REMARK  status: ('A' for Active; 'I' for Inactive)
ROOT
ATOM      1  C   UNL d   1      -0.399  -1.477  -0.238  0.00  0.00     0.078 C 
ATOM      2  C1  UNL d   1       0.088  -0.141   0.239  0.00  0.00    -0.077 A 
ATOM      3  C2  UNL d   1      -0.601   0.564   1.234  0.00  0.00    -0.001 A 
ATOM      4  C3  UNL d   1      -0.142   1.810   1.662  0.00  0.00     0.003 A 
ATOM      5  C4  UNL d   1       1.006   2.364   1.100  0.00  0.00    -0.005 A 
ATOM      6  C5  UNL d   1       1.697   1.671   0.108  0.00  0.00     0.003 A 
ATOM      7  C6  UNL d   1       1.240   0.424  -0.321  0.00  0.00    -0.001 A 
ENDROOT
TORSDOF 0
ENDMDL
