MODEL 1
REMARK minimizedAffinity -4.4682107
REMARK minimizedRMSD -1
REMARK  0 active torsions:
REMARK  status: ('A' for Active; 'I' for Inactive)
ROOT
ATOM      1  C   UNL d   1       1.298   2.983   1.204  0.00  0.00     0.078 C 
ATOM      2  C1  UNL d   1       0.949   1.638   0.641  0.00  0.00    -0.077 A 
ATOM      3  C2  UNL d   1      -0.196   0.953   1.066  0.00  0.00    -0.001 A 
ATOM      4  C3  UNL d   1      -0.504  -0.303   0.541  0.00  0.00     0.003 A 
ATOM      5  C4  UNL d   1       0.329  -0.886  -0.411  0.00  0.00    -0.005 A 
ATOM      6  C5  UNL d   1       1.472  -0.214  -0.839  0.00  0.00     0.003 A 
ATOM      7  C6  UNL d   1       1.782   1.043  -0.315  0.00  0.00    -0.001 A 
ENDROOT
TORSDOF 0
ENDMDL
