MODEL 1
REMARK minimizedAffinity -5.56534624
REMARK minimizedRMSD -1
REMARK  0 active torsions:
REMARK  status: ('A' for Active; 'I' for Inactive)
ROOT
ATOM      1  C   UNL d   1      -0.145  -0.867  -0.557  0.00  0.00     0.078 C 
ATOM      2  C1  UNL d   1       0.718   0.256  -0.065  0.00  0.00    -0.077 A 
ATOM      3  C2  UNL d   1       0.205   1.240   0.788  0.00  0.00    -0.001 A 
ATOM      4  C3  UNL d   1       1.018   2.285   1.230  0.00  0.00     0.003 A 
ATOM      5  C4  UNL d   1       2.349   2.356   0.823  0.00  0.00    -0.005 A 
ATOM      6  C5  UNL d   1       2.868   1.383  -0.027  0.00  0.00     0.003 A 
ATOM      7  C6  UNL d   1       2.056   0.337  -0.470  0.00  0.00    -0.001 A 
ENDROOT
TORSDOF 0
ENDMDL
