MODEL 1
REMARK minimizedAffinity -3.55820346
REMARK minimizedRMSD -1
REMARK  0 active torsions:
REMARK  status: ('A' for Active; 'I' for Inactive)
ROOT
ATOM      1  C   UNL d   1       0.652  -1.230  -0.874  0.00  0.00     0.078 C 
ATOM      2  C1  UNL d   1       0.682   0.107  -0.196  0.00  0.00    -0.077 A 
ATOM      3  C2  UNL d   1      -0.104   0.359   0.935  0.00  0.00    -0.001 A 
ATOM      4  C3  UNL d   1      -0.074   1.611   1.551  0.00  0.00     0.003 A 
ATOM      5  C4  UNL d   1       0.739   2.622   1.042  0.00  0.00    -0.005 A 
ATOM      6  C5  UNL d   1       1.523   2.381  -0.085  0.00  0.00     0.003 A 
ATOM      7  C6  UNL d   1       1.494   1.129  -0.702  0.00  0.00    -0.001 A 
ENDROOT
TORSDOF 0
ENDMDL
