MODEL 1
REMARK minimizedAffinity -1.27548885
REMARK minimizedRMSD -1
REMARK  0 active torsions:
REMARK  status: ('A' for Active; 'I' for Inactive)
ROOT
ATOM      1  C   UNL d   1       3.272   1.084  -0.755  0.00  0.00     0.078 C 
ATOM      2  C1  UNL d   1       1.872   0.547  -0.780  0.00  0.00    -0.077 A 
ATOM      3  C2  UNL d   1       1.607  -0.756  -1.220  0.00  0.00    -0.001 A 
ATOM      4  C3  UNL d   1       0.298  -1.239  -1.248  0.00  0.00     0.003 A 
ATOM      5  C4  UNL d   1      -0.757  -0.425  -0.838  0.00  0.00    -0.005 A 
ATOM      6  C5  UNL d   1      -0.503   0.873  -0.400  0.00  0.00     0.003 A 
ATOM      7  C6  UNL d   1       0.805   1.358  -0.372  0.00  0.00    -0.001 A 
ENDROOT
TORSDOF 0
ENDMDL
