MODEL 1
REMARK minimizedAffinity -4.49618483
REMARK minimizedRMSD -1
REMARK  0 active torsions:
REMARK  status: ('A' for Active; 'I' for Inactive)
ROOT
ATOM      1  C   UNL d   1       1.651   2.958   0.961  0.00  0.00     0.078 C 
ATOM      2  C1  UNL d   1       1.232   1.580   0.543  0.00  0.00    -0.077 A 
ATOM      3  C2  UNL d   1       2.006   0.830  -0.351  0.00  0.00    -0.001 A 
ATOM      4  C3  UNL d   1       1.599  -0.447  -0.738  0.00  0.00     0.003 A 
ATOM      5  C4  UNL d   1       0.415  -0.986  -0.237  0.00  0.00    -0.005 A 
ATOM      6  C5  UNL d   1      -0.363  -0.247   0.651  0.00  0.00     0.003 A 
ATOM      7  C6  UNL d   1       0.043   1.031   1.040  0.00  0.00    -0.001 A 
ENDROOT
TORSDOF 0
ENDMDL
