MODEL 1
REMARK minimizedAffinity -3.60851812
REMARK minimizedRMSD -1
REMARK  0 active torsions:
REMARK  status: ('A' for Active; 'I' for Inactive)
ROOT
ATOM      1  C   UNL d   1       0.003  -1.189  -0.094  0.00  0.00     0.078 C 
ATOM      2  C1  UNL d   1       0.091   0.218   0.418  0.00  0.00    -0.077 A 
ATOM      3  C2  UNL d   1      -0.384   0.552   1.692  0.00  0.00    -0.001 A 
ATOM      4  C3  UNL d   1      -0.305   1.868   2.152  0.00  0.00     0.003 A 
ATOM      5  C4  UNL d   1       0.249   2.859   1.344  0.00  0.00    -0.005 A 
ATOM      6  C5  UNL d   1       0.723   2.536   0.074  0.00  0.00     0.003 A 
ATOM      7  C6  UNL d   1       0.644   1.221  -0.387  0.00  0.00    -0.001 A 
ENDROOT
TORSDOF 0
ENDMDL
