MODEL 1
REMARK minimizedAffinity -2.01019549
REMARK minimizedRMSD -1
REMARK  0 active torsions:
REMARK  status: ('A' for Active; 'I' for Inactive)
ROOT
ATOM      1  C   UNL d   1      -0.325  -0.871  -0.715  0.00  0.00     0.078 C 
ATOM      2  C1  UNL d   1       0.024   0.375   0.043  0.00  0.00    -0.077 A 
ATOM      3  C2  UNL d   1       0.538   1.499  -0.615  0.00  0.00    -0.001 A 
ATOM      4  C3  UNL d   1       0.868   2.648   0.104  0.00  0.00     0.003 A 
ATOM      5  C4  UNL d   1       0.689   2.684   1.486  0.00  0.00    -0.005 A 
ATOM      6  C5  UNL d   1       0.181   1.570   2.149  0.00  0.00     0.003 A 
ATOM      7  C6  UNL d   1      -0.150   0.419   1.431  0.00  0.00    -0.001 A 
ENDROOT
TORSDOF 0
ENDMDL
