MODEL 1
REMARK minimizedAffinity -4.70036888
REMARK minimizedRMSD -1
REMARK  0 active torsions:
REMARK  status: ('A' for Active; 'I' for Inactive)
ROOT
ATOM      1  C   UNL d   1       0.999   2.534   0.797  0.00  0.00     0.078 C 
ATOM      2  C1  UNL d   1       0.923   1.151   0.222  0.00  0.00    -0.077 A 
ATOM      3  C2  UNL d   1      -0.224   0.365   0.382  0.00  0.00    -0.001 A 
ATOM      4  C3  UNL d   1      -0.277  -0.924  -0.151  0.00  0.00     0.003 A 
ATOM      5  C4  UNL d   1       0.815  -1.439  -0.847  0.00  0.00    -0.005 A 
ATOM      6  C5  UNL d   1       1.962  -0.665  -1.009  0.00  0.00     0.003 A 
ATOM      7  C6  UNL d   1       2.017   0.625  -0.477  0.00  0.00    -0.001 A 
ENDROOT
TORSDOF 0
ENDMDL
