MODEL 1
REMARK minimizedAffinity -5.12246752
REMARK minimizedRMSD -1
REMARK  0 active torsions:
REMARK  status: ('A' for Active; 'I' for Inactive)
ROOT
ATOM      1  C   UNL d   1       0.114  -1.134  -0.482  0.00  0.00     0.078 C 
ATOM      2  C1  UNL d   1       0.405   0.199   0.139  0.00  0.00    -0.077 A 
ATOM      3  C2  UNL d   1      -0.304   0.643   1.261  0.00  0.00    -0.001 A 
ATOM      4  C3  UNL d   1      -0.028   1.891   1.823  0.00  0.00     0.003 A 
ATOM      5  C4  UNL d   1       0.956   2.706   1.267  0.00  0.00    -0.005 A 
ATOM      6  C5  UNL d   1       1.665   2.274   0.149  0.00  0.00     0.003 A 
ATOM      7  C6  UNL d   1       1.391   1.027  -0.414  0.00  0.00    -0.001 A 
ENDROOT
TORSDOF 0
ENDMDL
