MODEL 1
REMARK minimizedAffinity 0.578894317
REMARK minimizedRMSD -1
REMARK  0 active torsions:
REMARK  status: ('A' for Active; 'I' for Inactive)
ROOT
ATOM      1  C1  BNZ d   1      -0.730  -2.029   5.725  0.00  0.00     0.000 A 
ATOM      2  C2  BNZ d   1      -1.093  -3.321   6.000  0.00  0.00     0.000 A 
ATOM      3  C3  BNZ d   1      -0.282  -4.365   5.653  0.00  0.00     0.000 A 
ATOM      4  C4  BNZ d   1       0.870  -4.119   4.996  0.00  0.00     0.000 A 
ATOM      5  C5  BNZ d   1       1.246  -2.823   4.703  0.00  0.00     0.000 A 
ATOM      6  C6  BNZ d   1       0.446  -1.772   5.089  0.00  0.00     0.000 A 
ENDROOT
TORSDOF 0
ENDMDL
