MODEL 1
REMARK minimizedAffinity -3.261976
REMARK minimizedRMSD -1
REMARK  0 active torsions:
REMARK  status: ('A' for Active; 'I' for Inactive)
ROOT
ATOM      1  C1  BNZ d   1      -3.668   6.000   3.086  0.00  0.00     0.000 A 
ATOM      2  C2  BNZ d   1      -3.623   5.607   4.397  0.00  0.00     0.000 A 
ATOM      3  C3  BNZ d   1      -4.754   5.197   5.045  0.00  0.00     0.000 A 
ATOM      4  C4  BNZ d   1      -5.935   5.218   4.394  0.00  0.00     0.000 A 
ATOM      5  C5  BNZ d   1      -5.999   5.620   3.075  0.00  0.00     0.000 A 
ATOM      6  C6  BNZ d   1      -4.852   5.995   2.415  0.00  0.00     0.000 A 
ENDROOT
TORSDOF 0
ENDMDL
