MODEL 1
REMARK minimizedAffinity -0.804116249
REMARK minimizedRMSD -1
REMARK  0 active torsions:
REMARK  status: ('A' for Active; 'I' for Inactive)
ROOT
ATOM      1  C1  BNZ d   1      -2.804   5.991   3.623  0.00  0.00     0.000 A 
ATOM      2  C2  BNZ d   1      -3.813   6.000   4.549  0.00  0.00     0.000 A 
ATOM      3  C3  BNZ d   1      -5.122   5.983   4.157  0.00  0.00     0.000 A 
ATOM      4  C4  BNZ d   1      -5.421   5.999   2.842  0.00  0.00     0.000 A 
ATOM      5  C5  BNZ d   1      -4.416   6.000   1.896  0.00  0.00     0.000 A 
ATOM      6  C6  BNZ d   1      -3.098   5.977   2.294  0.00  0.00     0.000 A 
ENDROOT
TORSDOF 0
ENDMDL
