MODEL 1
REMARK minimizedAffinity -1.16081476
REMARK minimizedRMSD -1
REMARK  0 active torsions:
REMARK  status: ('A' for Active; 'I' for Inactive)
ROOT
ATOM      1  C1  BNZ d   1      -4.528   5.996   4.493  0.00  0.00     0.000 A 
ATOM      2  C2  BNZ d   1      -3.725   6.000   3.384  0.00  0.00     0.000 A 
ATOM      3  C3  BNZ d   1      -4.064   5.281   2.272  0.00  0.00     0.000 A 
ATOM      4  C4  BNZ d   1      -5.183   4.529   2.284  0.00  0.00     0.000 A 
ATOM      5  C5  BNZ d   1      -5.999   4.508   3.398  0.00  0.00     0.000 A 
ATOM      6  C6  BNZ d   1      -5.675   5.263   4.502  0.00  0.00     0.000 A 
ENDROOT
TORSDOF 0
ENDMDL
