MODEL 1
REMARK minimizedAffinity -0.024097709
REMARK minimizedRMSD -1
REMARK  0 active torsions:
REMARK  status: ('A' for Active; 'I' for Inactive)
ROOT
ATOM      1  C1  BNZ d   1      -3.428   5.987   3.407  0.00  0.00     0.000 A 
ATOM      2  C2  BNZ d   1      -4.609   5.988   4.100  0.00  0.00     0.000 A 
ATOM      3  C3  BNZ d   1      -5.807   5.964   3.442  0.00  0.00     0.000 A 
ATOM      4  C4  BNZ d   1      -5.823   5.979   2.094  0.00  0.00     0.000 A 
ATOM      5  C5  BNZ d   1      -4.641   5.987   1.381  0.00  0.00     0.000 A 
ATOM      6  C6  BNZ d   1      -3.437   5.973   2.046  0.00  0.00     0.000 A 
ENDROOT
TORSDOF 0
ENDMDL
