MODEL 1
REMARK minimizedAffinity 0.0868116543
REMARK minimizedRMSD -1
REMARK  0 active torsions:
REMARK  status: ('A' for Active; 'I' for Inactive)
ROOT
ATOM      1  C1  BNZ d   1       4.976   0.023   0.827  0.00  0.00     0.000 A 
ATOM      2  C2  BNZ d   1       3.646   0.254   0.595  0.00  0.00     0.000 A 
ATOM      3  C3  BNZ d   1       3.246   1.255  -0.246  0.00  0.00     0.000 A 
ATOM      4  C4  BNZ d   1       4.173   2.048  -0.821  0.00  0.00     0.000 A 
ATOM      5  C5  BNZ d   1       5.517   1.833  -0.590  0.00  0.00     0.000 A 
ATOM      6  C6  BNZ d   1       5.918   0.800   0.226  0.00  0.00     0.000 A 
ENDROOT
TORSDOF 0
ENDMDL
