MODEL 1
REMARK minimizedAffinity -3.39798188
REMARK minimizedRMSD -1
REMARK  0 active torsions:
REMARK  status: ('A' for Active; 'I' for Inactive)
ROOT
ATOM      1  C   UNL d   1      -2.289  -2.101   0.389  0.00  0.00     0.124 A 
ATOM      2  C1  UNL d   1      -1.176  -2.372   1.174  0.00  0.00     0.062 A 
ATOM      3  C2  UNL d   1      -0.081  -1.513   1.156  0.00  0.00     0.162 A 
ATOM      4  C3  UNL d   1      -0.093  -0.374   0.352  0.00  0.00    -0.034 A 
ATOM      5  C4  UNL d   1      -1.215  -0.108  -0.435  0.00  0.00     0.162 A 
ATOM      6  C5  UNL d   1      -2.307  -0.970  -0.414  0.00  0.00     0.062 A 
ATOM      7  F   UNL d   1      -3.381  -0.706  -1.173  0.00  0.00    -0.097 F 
ATOM      8  F1  UNL d   1      -1.260   0.978  -1.220  0.00  0.00    -0.096 F 
ATOM      9  I   UNL d   1       1.543   0.913   0.322  0.00  0.00    -0.060 I 
ATOM     10  F2  UNL d   1       0.980  -1.800   1.924  0.00  0.00    -0.096 F 
ATOM     11  F3  UNL d   1      -1.156  -3.465   1.950  0.00  0.00    -0.097 F 
ATOM     12  F4  UNL d   1      -3.341  -2.929   0.408  0.00  0.00    -0.092 F 
ENDROOT
TORSDOF 0
ENDMDL
