MODEL 1
REMARK minimizedAffinity 1.70963156
REMARK minimizedRMSD -1
REMARK  0 active torsions:
REMARK  status: ('A' for Active; 'I' for Inactive)
ROOT
ATOM      1  C   UNL d   1      -3.021  -2.235  -0.341  0.00  0.00     0.124 A 
ATOM      2  C1  UNL d   1      -2.411  -2.259   0.905  0.00  0.00     0.062 A 
ATOM      3  C2  UNL d   1      -1.238  -1.542   1.124  0.00  0.00     0.162 A 
ATOM      4  C3  UNL d   1      -0.667  -0.795   0.094  0.00  0.00    -0.034 A 
ATOM      5  C4  UNL d   1      -1.286  -0.777  -1.158  0.00  0.00     0.162 A 
ATOM      6  C5  UNL d   1      -2.459  -1.494  -1.371  0.00  0.00     0.062 A 
ATOM      7  F   UNL d   1      -3.047  -1.470  -2.576  0.00  0.00    -0.097 F 
ATOM      8  F1  UNL d   1      -0.765  -0.068  -2.170  0.00  0.00    -0.096 F 
ATOM      9  I   UNL d   1       1.087   0.278   0.417  0.00  0.00    -0.060 I 
ATOM     10  F2  UNL d   1      -0.670  -1.584   2.338  0.00  0.00    -0.096 F 
ATOM     11  F3  UNL d   1      -2.952  -2.975   1.901  0.00  0.00    -0.097 F 
ATOM     12  F4  UNL d   1      -4.150  -2.926  -0.549  0.00  0.00    -0.092 F 
ENDROOT
TORSDOF 0
ENDMDL
