MODEL 1
REMARK minimizedAffinity -0.308469206
REMARK minimizedRMSD -1
REMARK  0 active torsions:
REMARK  status: ('A' for Active; 'I' for Inactive)
ROOT
ATOM      1  C   UNL d   1       2.586   2.255   1.159  0.00  0.00     0.124 A 
ATOM      2  C1  UNL d   1       1.561   2.305   2.094  0.00  0.00     0.062 A 
ATOM      3  C2  UNL d   1       0.431   1.508   1.937  0.00  0.00     0.162 A 
ATOM      4  C3  UNL d   1       0.320   0.652   0.840  0.00  0.00    -0.034 A 
ATOM      5  C4  UNL d   1       1.354   0.608  -0.096  0.00  0.00     0.162 A 
ATOM      6  C5  UNL d   1       2.481   1.407   0.065  0.00  0.00     0.062 A 
ATOM      7  F   UNL d   1       3.470   1.357  -0.839  0.00  0.00    -0.097 F 
ATOM      8  F1  UNL d   1       1.279  -0.203  -1.162  0.00  0.00    -0.096 F 
ATOM      9  I   UNL d   1      -1.369  -0.541   0.602  0.00  0.00    -0.060 I 
ATOM     10  F2  UNL d   1      -0.544   1.576   2.856  0.00  0.00    -0.096 F 
ATOM     11  F3  UNL d   1       1.659   3.124   3.151  0.00  0.00    -0.097 F 
ATOM     12  F4  UNL d   1       3.672   3.023   1.312  0.00  0.00    -0.092 F 
ENDROOT
TORSDOF 0
ENDMDL
