MODEL 1
REMARK minimizedAffinity -3.0263176
REMARK minimizedRMSD -1
REMARK  0 active torsions:
REMARK  status: ('A' for Active; 'I' for Inactive)
ROOT
ATOM      1  C   UNL d   1      -2.465  -2.032   0.634  0.00  0.00     0.124 A 
ATOM      2  C1  UNL d   1      -2.705  -0.668   0.542  0.00  0.00     0.062 A 
ATOM      3  C2  UNL d   1      -1.685   0.242   0.805  0.00  0.00     0.162 A 
ATOM      4  C3  UNL d   1      -0.415  -0.209   1.163  0.00  0.00    -0.034 A 
ATOM      5  C4  UNL d   1      -0.181  -1.583   1.254  0.00  0.00     0.162 A 
ATOM      6  C5  UNL d   1      -1.203  -2.488   0.990  0.00  0.00     0.062 A 
ATOM      7  F   UNL d   1      -0.970  -3.805   1.079  0.00  0.00    -0.097 F 
ATOM      8  F1  UNL d   1       1.029  -2.051   1.595  0.00  0.00    -0.096 F 
ATOM      9  I   UNL d   1       1.113   1.148   1.558  0.00  0.00    -0.060 I 
ATOM     10  F2  UNL d   1      -1.946   1.554   0.709  0.00  0.00    -0.096 F 
ATOM     11  F3  UNL d   1      -3.923  -0.225   0.199  0.00  0.00    -0.097 F 
ATOM     12  F4  UNL d   1      -3.448  -2.905   0.381  0.00  0.00    -0.092 F 
ENDROOT
TORSDOF 0
ENDMDL
