MODEL 1
REMARK minimizedAffinity -0.681678712
REMARK minimizedRMSD -1
REMARK  0 active torsions:
REMARK  status: ('A' for Active; 'I' for Inactive)
ROOT
ATOM      1  C   UNL d   1      -1.635  -0.478  -1.661  0.00  0.00     0.124 A 
ATOM      2  C1  UNL d   1      -0.346  -0.081  -1.989  0.00  0.00     0.062 A 
ATOM      3  C2  UNL d   1       0.556   0.268  -0.988  0.00  0.00     0.162 A 
ATOM      4  C3  UNL d   1       0.172   0.221   0.352  0.00  0.00    -0.034 A 
ATOM      5  C4  UNL d   1      -1.126  -0.178   0.675  0.00  0.00     0.162 A 
ATOM      6  C5  UNL d   1      -2.023  -0.526  -0.329  0.00  0.00     0.062 A 
ATOM      7  F   UNL d   1      -3.268  -0.910  -0.010  0.00  0.00    -0.097 F 
ATOM      8  F1  UNL d   1      -1.528  -0.234   1.953  0.00  0.00    -0.096 F 
ATOM      9  I   UNL d   1       1.517   0.743   1.852  0.00  0.00    -0.060 I 
ATOM     10  F2  UNL d   1       1.795   0.648  -1.335  0.00  0.00    -0.096 F 
ATOM     11  F3  UNL d   1       0.032  -0.033  -3.275  0.00  0.00    -0.097 F 
ATOM     12  F4  UNL d   1      -2.500  -0.813  -2.626  0.00  0.00    -0.092 F 
ENDROOT
TORSDOF 0
ENDMDL
