MODEL 1
REMARK minimizedAffinity -1.40077674
REMARK minimizedRMSD -1
REMARK  0 active torsions:
REMARK  status: ('A' for Active; 'I' for Inactive)
ROOT
ATOM      1  C   UNL d   1      -1.413   0.576  -0.397  0.00  0.00     0.124 A 
ATOM      2  C1  UNL d   1      -1.078   1.902  -0.158  0.00  0.00     0.062 A 
ATOM      3  C2  UNL d   1       0.209   2.235   0.254  0.00  0.00     0.162 A 
ATOM      4  C3  UNL d   1       1.171   1.241   0.429  0.00  0.00    -0.034 A 
ATOM      5  C4  UNL d   1       0.826  -0.090   0.188  0.00  0.00     0.162 A 
ATOM      6  C5  UNL d   1      -0.461  -0.418  -0.224  0.00  0.00     0.062 A 
ATOM      7  F   UNL d   1      -0.783  -1.699  -0.455  0.00  0.00    -0.097 F 
ATOM      8  F1  UNL d   1       1.727  -1.071   0.346  0.00  0.00    -0.096 F 
ATOM      9  I   UNL d   1       3.097   1.735   1.045  0.00  0.00    -0.060 I 
ATOM     10  F2  UNL d   1       0.505   3.524   0.478  0.00  0.00    -0.096 F 
ATOM     11  F3  UNL d   1      -1.997   2.864  -0.324  0.00  0.00    -0.097 F 
ATOM     12  F4  UNL d   1      -2.653   0.258  -0.793  0.00  0.00    -0.092 F 
ENDROOT
TORSDOF 0
ENDMDL
