MODEL 1
REMARK minimizedAffinity -2.62934518
REMARK minimizedRMSD -1
REMARK  0 active torsions:
REMARK  status: ('A' for Active; 'I' for Inactive)
ROOT
ATOM      1  C   UNL d   1      -2.170  -1.599  -0.453  0.00  0.00     0.124 A 
ATOM      2  C1  UNL d   1      -1.197  -2.029   0.439  0.00  0.00     0.062 A 
ATOM      3  C2  UNL d   1      -0.077  -1.241   0.686  0.00  0.00     0.162 A 
ATOM      4  C3  UNL d   1       0.076  -0.013   0.041  0.00  0.00    -0.034 A 
ATOM      5  C4  UNL d   1      -0.906   0.412  -0.855  0.00  0.00     0.162 A 
ATOM      6  C5  UNL d   1      -2.024  -0.380  -1.099  0.00  0.00     0.062 A 
ATOM      7  F   UNL d   1      -2.963   0.037  -1.960  0.00  0.00    -0.097 F 
ATOM      8  F1  UNL d   1      -0.791   1.586  -1.493  0.00  0.00    -0.096 F 
ATOM      9  I   UNL d   1       1.750   1.168   0.407  0.00  0.00    -0.060 I 
ATOM     10  F2  UNL d   1       0.848  -1.681   1.552  0.00  0.00    -0.096 F 
ATOM     11  F3  UNL d   1      -1.335  -3.207   1.064  0.00  0.00    -0.097 F 
ATOM     12  F4  UNL d   1      -3.247  -2.360  -0.689  0.00  0.00    -0.092 F 
ENDROOT
TORSDOF 0
ENDMDL
