MODEL 1
REMARK minimizedAffinity 7.40832138
REMARK minimizedRMSD -1
REMARK  0 active torsions:
REMARK  status: ('A' for Active; 'I' for Inactive)
ROOT
ATOM      1  C   UNL d   1      -1.641  -1.400  -0.663  0.00  0.00     0.124 A 
ATOM      2  C1  UNL d   1      -0.663  -1.838   0.218  0.00  0.00     0.062 A 
ATOM      3  C2  UNL d   1       0.367  -0.984   0.602  0.00  0.00     0.162 A 
ATOM      4  C3  UNL d   1       0.423   0.319   0.106  0.00  0.00    -0.034 A 
ATOM      5  C4  UNL d   1      -0.564   0.752  -0.781  0.00  0.00     0.162 A 
ATOM      6  C5  UNL d   1      -1.591  -0.106  -1.162  0.00  0.00     0.062 A 
ATOM      7  F   UNL d   1      -2.536   0.320  -2.013  0.00  0.00    -0.097 F 
ATOM      8  F1  UNL d   1      -0.541   1.998  -1.278  0.00  0.00    -0.096 F 
ATOM      9  I   UNL d   1       1.961   1.599   0.677  0.00  0.00    -0.060 I 
ATOM     10  F2  UNL d   1       1.299  -1.434   1.455  0.00  0.00    -0.096 F 
ATOM     11  F3  UNL d   1      -0.708  -3.088   0.701  0.00  0.00    -0.097 F 
ATOM     12  F4  UNL d   1      -2.630  -2.224  -1.032  0.00  0.00    -0.092 F 
ENDROOT
TORSDOF 0
ENDMDL
