MODEL 1
REMARK minimizedAffinity 2.29908228
REMARK minimizedRMSD -1
REMARK  0 active torsions:
REMARK  status: ('A' for Active; 'I' for Inactive)
ROOT
ATOM      1  C   UNL d   1      -1.738  -0.746   0.555  0.00  0.00     0.124 A 
ATOM      2  C1  UNL d   1      -1.799   0.489  -0.076  0.00  0.00     0.062 A 
ATOM      3  C2  UNL d   1      -0.668   1.297  -0.143  0.00  0.00     0.162 A 
ATOM      4  C3  UNL d   1       0.535   0.872   0.421  0.00  0.00    -0.034 A 
ATOM      5  C4  UNL d   1       0.588  -0.371   1.055  0.00  0.00     0.162 A 
ATOM      6  C5  UNL d   1      -0.545  -1.175   1.119  0.00  0.00     0.062 A 
ATOM      7  F   UNL d   1      -0.485  -2.367   1.729  0.00  0.00    -0.097 F 
ATOM      8  F1  UNL d   1       1.729  -0.810   1.608  0.00  0.00    -0.096 F 
ATOM      9  I   UNL d   1       2.229   2.077   0.323  0.00  0.00    -0.060 I 
ATOM     10  F2  UNL d   1      -0.755   2.485  -0.759  0.00  0.00    -0.096 F 
ATOM     11  F3  UNL d   1      -2.951   0.906  -0.622  0.00  0.00    -0.097 F 
ATOM     12  F4  UNL d   1      -2.828  -1.521   0.619  0.00  0.00    -0.092 F 
ENDROOT
TORSDOF 0
ENDMDL
