MODEL 1
REMARK minimizedAffinity 0.295341432
REMARK minimizedRMSD -1
REMARK  0 active torsions:
REMARK  status: ('A' for Active; 'I' for Inactive)
ROOT
ATOM      1  C   UNL d   1      -2.385  -0.502  -0.259  0.00  0.00     0.124 A 
ATOM      2  C1  UNL d   1      -1.609  -0.492   0.892  0.00  0.00     0.062 A 
ATOM      3  C2  UNL d   1      -0.292  -0.046   0.844  0.00  0.00     0.162 A 
ATOM      4  C3  UNL d   1       0.259   0.395  -0.359  0.00  0.00    -0.034 A 
ATOM      5  C4  UNL d   1      -0.528   0.382  -1.513  0.00  0.00     0.162 A 
ATOM      6  C5  UNL d   1      -1.844  -0.065  -1.460  0.00  0.00     0.062 A 
ATOM      7  F   UNL d   1      -2.592  -0.074  -2.573  0.00  0.00    -0.097 F 
ATOM      8  F1  UNL d   1      -0.030   0.799  -2.686  0.00  0.00    -0.096 F 
ATOM      9  I   UNL d   1       2.228   1.063  -0.435  0.00  0.00    -0.060 I 
ATOM     10  F2  UNL d   1       0.435  -0.048   1.971  0.00  0.00    -0.096 F 
ATOM     11  F3  UNL d   1      -2.130  -0.915   2.053  0.00  0.00    -0.097 F 
ATOM     12  F4  UNL d   1      -3.652  -0.933  -0.210  0.00  0.00    -0.092 F 
ENDROOT
TORSDOF 0
ENDMDL
