MODEL 1
REMARK minimizedAffinity 1.81350076
REMARK minimizedRMSD -1
REMARK  0 active torsions:
REMARK  status: ('A' for Active; 'I' for Inactive)
ROOT
ATOM      1  C   UNL d   1       1.671   0.583   0.603  0.00  0.00     0.124 A 
ATOM      2  C1  UNL d   1       1.306  -0.717   0.926  0.00  0.00     0.062 A 
ATOM      3  C2  UNL d   1      -0.019  -1.124   0.800  0.00  0.00     0.162 A 
ATOM      4  C3  UNL d   1      -0.990  -0.230   0.348  0.00  0.00    -0.034 A 
ATOM      5  C4  UNL d   1      -0.616   1.076   0.026  0.00  0.00     0.162 A 
ATOM      6  C5  UNL d   1       0.710   1.478   0.154  0.00  0.00     0.062 A 
ATOM      7  F   UNL d   1       1.061   2.734  -0.159  0.00  0.00    -0.097 F 
ATOM      8  F1  UNL d   1      -1.524   1.961  -0.411  0.00  0.00    -0.096 F 
ATOM      9  I   UNL d   1      -2.972  -0.834   0.159  0.00  0.00    -0.060 I 
ATOM     10  F2  UNL d   1      -0.343  -2.386   1.119  0.00  0.00    -0.096 F 
ATOM     11  F3  UNL d   1       2.232  -1.583   1.361  0.00  0.00    -0.097 F 
ATOM     12  F4  UNL d   1       2.946   0.972   0.725  0.00  0.00    -0.092 F 
ENDROOT
TORSDOF 0
ENDMDL
