MODEL 1
REMARK minimizedAffinity -2.85565543
REMARK minimizedRMSD -1
REMARK  0 active torsions:
REMARK  status: ('A' for Active; 'I' for Inactive)
ROOT
ATOM      1  C   UNL d   1      -0.133  -0.647   0.495  0.00  0.00     0.124 A 
ATOM      2  C1  UNL d   1       1.244  -0.580   0.655  0.00  0.00     0.062 A 
ATOM      3  C2  UNL d   1       1.887   0.655   0.675  0.00  0.00     0.162 A 
ATOM      4  C3  UNL d   1       1.153   1.833   0.536  0.00  0.00    -0.034 A 
ATOM      5  C4  UNL d   1      -0.231   1.757   0.374  0.00  0.00     0.162 A 
ATOM      6  C5  UNL d   1      -0.869   0.521   0.354  0.00  0.00     0.062 A 
ATOM      7  F   UNL d   1      -2.200   0.458   0.199  0.00  0.00    -0.097 F 
ATOM      8  F1  UNL d   1      -0.967   2.870   0.237  0.00  0.00    -0.096 F 
ATOM      9  I   UNL d   1       2.111   3.680   0.565  0.00  0.00    -0.060 I 
ATOM     10  F2  UNL d   1       3.219   0.690   0.832  0.00  0.00    -0.096 F 
ATOM     11  F3  UNL d   1       1.958  -1.707   0.790  0.00  0.00    -0.097 F 
ATOM     12  F4  UNL d   1      -0.749  -1.836   0.475  0.00  0.00    -0.092 F 
ENDROOT
TORSDOF 0
ENDMDL
