MODEL 1
REMARK minimizedAffinity -3.06570125
REMARK minimizedRMSD -1
REMARK  0 active torsions:
REMARK  status: ('A' for Active; 'I' for Inactive)
ROOT
ATOM      1  C   UNL d   1      -2.368  -1.268   0.042  0.00  0.00     0.124 A 
ATOM      2  C1  UNL d   1      -1.533  -1.581   1.106  0.00  0.00     0.062 A 
ATOM      3  C2  UNL d   1      -0.200  -1.181   1.091  0.00  0.00     0.162 A 
ATOM      4  C3  UNL d   1       0.307  -0.461   0.009  0.00  0.00    -0.034 A 
ATOM      5  C4  UNL d   1      -0.539  -0.151  -1.058  0.00  0.00     0.162 A 
ATOM      6  C5  UNL d   1      -1.870  -0.553  -1.038  0.00  0.00     0.062 A 
ATOM      7  F   UNL d   1      -2.675  -0.249  -2.066  0.00  0.00    -0.097 F 
ATOM      8  F1  UNL d   1      -0.084   0.540  -2.114  0.00  0.00    -0.096 F 
ATOM      9  I   UNL d   1       2.299   0.139  -0.017  0.00  0.00    -0.060 I 
ATOM     10  F2  UNL d   1       0.584  -1.498   2.132  0.00  0.00    -0.096 F 
ATOM     11  F3  UNL d   1      -2.011  -2.273   2.151  0.00  0.00    -0.097 F 
ATOM     12  F4  UNL d   1      -3.650  -1.655   0.059  0.00  0.00    -0.092 F 
ENDROOT
TORSDOF 0
ENDMDL
