MODEL 1
REMARK minimizedAffinity -2.51002884
REMARK minimizedRMSD -1
REMARK  0 active torsions:
REMARK  status: ('A' for Active; 'I' for Inactive)
ROOT
ATOM      1  C   UNL d   1      -1.764  -1.184  -0.170  0.00  0.00     0.124 A 
ATOM      2  C1  UNL d   1      -0.754  -1.591   0.691  0.00  0.00     0.062 A 
ATOM      3  C2  UNL d   1       0.427  -0.859   0.779  0.00  0.00     0.162 A 
ATOM      4  C3  UNL d   1       0.605   0.287   0.005  0.00  0.00    -0.034 A 
ATOM      5  C4  UNL d   1      -0.415   0.690  -0.859  0.00  0.00     0.162 A 
ATOM      6  C5  UNL d   1      -1.594  -0.045  -0.944  0.00  0.00     0.062 A 
ATOM      7  F   UNL d   1      -2.569   0.350  -1.776  0.00  0.00    -0.097 F 
ATOM      8  F1  UNL d   1      -0.278   1.787  -1.618  0.00  0.00    -0.096 F 
ATOM      9  I   UNL d   1       2.369   1.383   0.134  0.00  0.00    -0.060 I 
ATOM     10  F2  UNL d   1       1.386  -1.276   1.619  0.00  0.00    -0.096 F 
ATOM     11  F3  UNL d   1      -0.915  -2.691   1.439  0.00  0.00    -0.097 F 
ATOM     12  F4  UNL d   1      -2.899  -1.890  -0.254  0.00  0.00    -0.092 F 
ENDROOT
TORSDOF 0
ENDMDL
