MODEL 1
REMARK minimizedAffinity -3.23531628
REMARK minimizedRMSD -1
REMARK  0 active torsions:
REMARK  status: ('A' for Active; 'I' for Inactive)
ROOT
ATOM      1  C   UNL d   1      -2.609  -1.830   0.438  0.00  0.00     0.124 A 
ATOM      2  C1  UNL d   1      -1.437  -2.353   0.967  0.00  0.00     0.062 A 
ATOM      3  C2  UNL d   1      -0.289  -1.569   1.035  0.00  0.00     0.162 A 
ATOM      4  C3  UNL d   1      -0.307  -0.253   0.573  0.00  0.00    -0.034 A 
ATOM      5  C4  UNL d   1      -1.489   0.265   0.041  0.00  0.00     0.162 A 
ATOM      6  C5  UNL d   1      -2.634  -0.522  -0.024  0.00  0.00     0.062 A 
ATOM      7  F   UNL d   1      -3.765  -0.016  -0.536  0.00  0.00    -0.097 F 
ATOM      8  F1  UNL d   1      -1.542   1.527  -0.412  0.00  0.00    -0.096 F 
ATOM      9  I   UNL d   1       1.408   0.923   0.672  0.00  0.00    -0.060 I 
ATOM     10  F2  UNL d   1       0.830  -2.100   1.551  0.00  0.00    -0.096 F 
ATOM     11  F3  UNL d   1      -1.409  -3.617   1.414  0.00  0.00    -0.097 F 
ATOM     12  F4  UNL d   1      -3.712  -2.587   0.373  0.00  0.00    -0.092 F 
ENDROOT
TORSDOF 0
ENDMDL
