MODEL 1
REMARK minimizedAffinity -2.99807096
REMARK minimizedRMSD -1
REMARK  0 active torsions:
REMARK  status: ('A' for Active; 'I' for Inactive)
ROOT
ATOM      1  C   UNL d   1      -2.099  -2.464   1.485  0.00  0.00     0.124 A 
ATOM      2  C1  UNL d   1      -2.932  -1.747   0.638  0.00  0.00     0.062 A 
ATOM      3  C2  UNL d   1      -2.411  -0.739  -0.168  0.00  0.00     0.162 A 
ATOM      4  C3  UNL d   1      -1.048  -0.443  -0.132  0.00  0.00    -0.034 A 
ATOM      5  C4  UNL d   1      -0.217  -1.168   0.723  0.00  0.00     0.162 A 
ATOM      6  C5  UNL d   1      -0.742  -2.174   1.527  0.00  0.00     0.062 A 
ATOM      7  F   UNL d   1       0.064  -2.867   2.344  0.00  0.00    -0.097 F 
ATOM      8  F1  UNL d   1       1.098  -0.910   0.783  0.00  0.00    -0.096 F 
ATOM      9  I   UNL d   1      -0.265   1.063  -1.336  0.00  0.00    -0.060 I 
ATOM     10  F2  UNL d   1      -3.239  -0.062  -0.977  0.00  0.00    -0.096 F 
ATOM     11  F3  UNL d   1      -4.243  -2.024   0.597  0.00  0.00    -0.097 F 
ATOM     12  F4  UNL d   1      -2.603  -3.433   2.260  0.00  0.00    -0.092 F 
ENDROOT
TORSDOF 0
ENDMDL
