MODEL 1
REMARK minimizedAffinity 6.53516245
REMARK minimizedRMSD -1
REMARK  0 active torsions:
REMARK  status: ('A' for Active; 'I' for Inactive)
ROOT
ATOM      1  C   UNL d   1      -1.909  -1.057   1.973  0.00  0.00     0.124 A 
ATOM      2  C1  UNL d   1      -1.352   0.153   2.363  0.00  0.00     0.062 A 
ATOM      3  C2  UNL d   1      -1.194   1.181   1.439  0.00  0.00     0.162 A 
ATOM      4  C3  UNL d   1      -1.595   1.005   0.115  0.00  0.00    -0.034 A 
ATOM      5  C4  UNL d   1      -2.154  -0.215  -0.271  0.00  0.00     0.162 A 
ATOM      6  C5  UNL d   1      -2.309  -1.240   0.657  0.00  0.00     0.062 A 
ATOM      7  F   UNL d   1      -2.847  -2.408   0.278  0.00  0.00    -0.097 F 
ATOM      8  F1  UNL d   1      -2.550  -0.418  -1.536  0.00  0.00    -0.096 F 
ATOM      9  I   UNL d   1      -1.362   2.541  -1.270  0.00  0.00    -0.060 I 
ATOM     10  F2  UNL d   1      -0.654   2.340   1.844  0.00  0.00    -0.096 F 
ATOM     11  F3  UNL d   1      -0.964   0.331   3.634  0.00  0.00    -0.097 F 
ATOM     12  F4  UNL d   1      -2.058  -2.046   2.864  0.00  0.00    -0.092 F 
ENDROOT
TORSDOF 0
ENDMDL
