MODEL 1
REMARK minimizedAffinity -0.026398547
REMARK minimizedRMSD -1
REMARK  0 active torsions:
REMARK  status: ('A' for Active; 'I' for Inactive)
ROOT
ATOM      1  C   UNL d   1       0.052  -0.946   2.141  0.00  0.00     0.124 A 
ATOM      2  C1  UNL d   1      -0.374  -1.705   3.221  0.00  0.00     0.062 A 
ATOM      3  C2  UNL d   1       0.456  -1.882   4.324  0.00  0.00     0.162 A 
ATOM      4  C3  UNL d   1       1.722  -1.298   4.353  0.00  0.00    -0.034 A 
ATOM      5  C4  UNL d   1       2.145  -0.536   3.262  0.00  0.00     0.162 A 
ATOM      6  C5  UNL d   1       1.311  -0.362   2.162  0.00  0.00     0.062 A 
ATOM      7  F   UNL d   1       1.725   0.372   1.119  0.00  0.00    -0.097 F 
ATOM      8  F1  UNL d   1       3.356   0.040   3.256  0.00  0.00    -0.096 F 
ATOM      9  I   UNL d   1       2.967  -1.560   6.000  0.00  0.00    -0.060 I 
ATOM     10  F2  UNL d   1       0.018  -2.621   5.354  0.00  0.00    -0.096 F 
ATOM     11  F3  UNL d   1      -1.590  -2.271   3.203  0.00  0.00    -0.097 F 
ATOM     12  F4  UNL d   1      -0.749  -0.778   1.081  0.00  0.00    -0.092 F 
ENDROOT
TORSDOF 0
ENDMDL
