MODEL 1
REMARK minimizedAffinity 2.15232563
REMARK minimizedRMSD -1
REMARK  0 active torsions:
REMARK  status: ('A' for Active; 'I' for Inactive)
ROOT
ATOM      1  C   UNL d   1      -1.217  -0.673   2.181  0.00  0.00     0.124 A 
ATOM      2  C1  UNL d   1      -1.478  -1.352   3.364  0.00  0.00     0.062 A 
ATOM      3  C2  UNL d   1      -0.432  -1.717   4.207  0.00  0.00     0.162 A 
ATOM      4  C3  UNL d   1       0.885  -1.403   3.871  0.00  0.00    -0.034 A 
ATOM      5  C4  UNL d   1       1.139  -0.721   2.680  0.00  0.00     0.162 A 
ATOM      6  C5  UNL d   1       0.091  -0.358   1.840  0.00  0.00     0.062 A 
ATOM      7  F   UNL d   1       0.344   0.297   0.699  0.00  0.00    -0.097 F 
ATOM      8  F1  UNL d   1       2.393  -0.403   2.326  0.00  0.00    -0.096 F 
ATOM      9  I   UNL d   1       2.451  -1.947   5.129  0.00  0.00    -0.060 I 
ATOM     10  F2  UNL d   1      -0.714  -2.372   5.343  0.00  0.00    -0.096 F 
ATOM     11  F3  UNL d   1      -2.741  -1.658   3.695  0.00  0.00    -0.097 F 
ATOM     12  F4  UNL d   1      -2.225  -0.324   1.372  0.00  0.00    -0.092 F 
ENDROOT
TORSDOF 0
ENDMDL
