MODEL 1
REMARK minimizedAffinity 6.2330327
REMARK minimizedRMSD -1
REMARK  0 active torsions:
REMARK  status: ('A' for Active; 'I' for Inactive)
ROOT
ATOM      1  C   UNL d   1      -1.246  -1.155   3.325  0.00  0.00     0.124 A 
ATOM      2  C1  UNL d   1      -0.027  -1.631   3.788  0.00  0.00     0.062 A 
ATOM      3  C2  UNL d   1       1.160  -1.206   3.199  0.00  0.00     0.162 A 
ATOM      4  C3  UNL d   1       1.134  -0.298   2.140  0.00  0.00    -0.034 A 
ATOM      5  C4  UNL d   1      -0.095   0.176   1.679  0.00  0.00     0.162 A 
ATOM      6  C5  UNL d   1      -1.279  -0.252   2.272  0.00  0.00     0.062 A 
ATOM      7  F   UNL d   1      -2.456   0.209   1.823  0.00  0.00    -0.097 F 
ATOM      8  F1  UNL d   1      -0.156   1.050   0.663  0.00  0.00    -0.096 F 
ATOM      9  I   UNL d   1       2.907   0.340   1.256  0.00  0.00    -0.060 I 
ATOM     10  F2  UNL d   1       2.323  -1.683   3.667  0.00  0.00    -0.096 F 
ATOM     11  F3  UNL d   1       0.007  -2.504   4.805  0.00  0.00    -0.097 F 
ATOM     12  F4  UNL d   1      -2.387  -1.566   3.893  0.00  0.00    -0.092 F 
ENDROOT
TORSDOF 0
ENDMDL
