MODEL 1
REMARK minimizedAffinity 7.81493568
REMARK minimizedRMSD -1
REMARK  0 active torsions:
REMARK  status: ('A' for Active; 'I' for Inactive)
ROOT
ATOM      1  C   UNL d   1      -0.431  -0.926   1.931  0.00  0.00     0.124 A 
ATOM      2  C1  UNL d   1       0.838  -0.414   2.163  0.00  0.00     0.062 A 
ATOM      3  C2  UNL d   1       1.572  -0.835   3.267  0.00  0.00     0.162 A 
ATOM      4  C3  UNL d   1       1.039  -1.775   4.150  0.00  0.00    -0.034 A 
ATOM      5  C4  UNL d   1      -0.238  -2.284   3.912  0.00  0.00     0.162 A 
ATOM      6  C5  UNL d   1      -0.968  -1.860   2.806  0.00  0.00     0.062 A 
ATOM      7  F   UNL d   1      -2.194  -2.356   2.584  0.00  0.00    -0.097 F 
ATOM      8  F1  UNL d   1      -0.781  -3.189   4.740  0.00  0.00    -0.096 F 
ATOM      9  I   UNL d   1       2.134  -2.407   5.803  0.00  0.00    -0.060 I 
ATOM     10  F2  UNL d   1       2.796  -0.323   3.466  0.00  0.00    -0.096 F 
ATOM     11  F3  UNL d   1       1.358   0.490   1.320  0.00  0.00    -0.097 F 
ATOM     12  F4  UNL d   1      -1.136  -0.518   0.868  0.00  0.00    -0.092 F 
ENDROOT
TORSDOF 0
ENDMDL
