MODEL 1
REMARK minimizedAffinity 11.6651535
REMARK minimizedRMSD -1
REMARK  0 active torsions:
REMARK  status: ('A' for Active; 'I' for Inactive)
ROOT
ATOM      1  C   UNL d   1      -0.963  -0.485   2.050  0.00  0.00     0.124 A 
ATOM      2  C1  UNL d   1      -1.286  -1.499   2.940  0.00  0.00     0.062 A 
ATOM      3  C2  UNL d   1      -0.307  -2.046   3.764  0.00  0.00     0.162 A 
ATOM      4  C3  UNL d   1       1.006  -1.579   3.702  0.00  0.00    -0.034 A 
ATOM      5  C4  UNL d   1       1.324  -0.559   2.803  0.00  0.00     0.162 A 
ATOM      6  C5  UNL d   1       0.341  -0.016   1.982  0.00  0.00     0.062 A 
ATOM      7  F   UNL d   1       0.656   0.964   1.122  0.00  0.00    -0.097 F 
ATOM      8  F1  UNL d   1       2.576  -0.087   2.717  0.00  0.00    -0.096 F 
ATOM      9  I   UNL d   1       2.474  -2.394   4.932  0.00  0.00    -0.060 I 
ATOM     10  F2  UNL d   1      -0.648  -3.025   4.615  0.00  0.00    -0.096 F 
ATOM     11  F3  UNL d   1      -2.546  -1.954   3.007  0.00  0.00    -0.097 F 
ATOM     12  F4  UNL d   1      -1.907   0.039   1.258  0.00  0.00    -0.092 F 
ENDROOT
TORSDOF 0
ENDMDL
