MODEL 1
REMARK minimizedAffinity -0.54118365
REMARK minimizedRMSD -1
REMARK  2 active torsions:
REMARK  status: ('A' for Active; 'I' for Inactive)
REMARK    1  A    between atoms: C1_2  and  C2_3 
REMARK    2  A    between atoms: C2_3  and  C3_4 
ROOT
ATOM      1  C3  UNL d   1      -0.244  -0.479   1.156  0.00  0.00    -0.075 A 
ATOM      2  C4  UNL d   1      -1.265  -0.932   0.308  0.00  0.00     0.002 A 
ATOM      3  C5  UNL d   1      -1.471  -0.334  -0.935  0.00  0.00     0.002 A 
ATOM      4  C6  UNL d   1      -0.668   0.730  -1.341  0.00  0.00    -0.004 A 
ATOM      5  C7  UNL d   1       0.338   1.199  -0.500  0.00  0.00     0.002 A 
ATOM      6  C8  UNL d   1       0.549   0.599   0.743  0.00  0.00     0.002 A 
ENDROOT
BRANCH   1   7
ATOM      7  C2  UNL d   1       0.003  -1.142   2.490  0.00  0.00     0.056 C 
BRANCH   7   8
ATOM      8  C1  UNL d   1       0.172  -2.663   2.409  0.00  0.00     0.007 C 
ATOM      9  C   UNL d   1       1.609  -3.094   2.148  0.00  0.00     0.009 C 
ENDBRANCH   7   8
ENDBRANCH   1   7
TORSDOF 2
ENDMDL
