MODEL 1
REMARK minimizedAffinity -4.72341442
REMARK minimizedRMSD -1
REMARK  2 active torsions:
REMARK  status: ('A' for Active; 'I' for Inactive)
REMARK    1  A    between atoms: C1_2  and  C2_3 
REMARK    2  A    between atoms: C2_3  and  C3_4 
ROOT
ATOM      1  C3  UNL d   1      -0.593   0.735  -0.320  0.00  0.00    -0.075 A 
ATOM      2  C4  UNL d   1      -1.187   1.123   0.890  0.00  0.00     0.002 A 
ATOM      3  C5  UNL d   1      -1.024   0.349   2.039  0.00  0.00     0.002 A 
ATOM      4  C6  UNL d   1      -0.275  -0.826   1.991  0.00  0.00    -0.004 A 
ATOM      5  C7  UNL d   1       0.305  -1.229   0.790  0.00  0.00     0.002 A 
ATOM      6  C8  UNL d   1       0.147  -0.454  -0.360  0.00  0.00     0.002 A 
ENDROOT
BRANCH   1   7
ATOM      7  C2  UNL d   1      -0.742   1.584  -1.560  0.00  0.00     0.056 C 
BRANCH   7   8
ATOM      8  C1  UNL d   1      -1.474   2.909  -1.325  0.00  0.00     0.007 C 
ATOM      9  C   UNL d   1      -2.461   3.254  -2.432  0.00  0.00     0.009 C 
ENDBRANCH   7   8
ENDBRANCH   1   7
TORSDOF 2
ENDMDL
