MODEL 1
REMARK minimizedAffinity -1.77044106
REMARK minimizedRMSD -1
REMARK  2 active torsions:
REMARK  status: ('A' for Active; 'I' for Inactive)
REMARK    1  A    between atoms: C1_2  and  C2_3 
REMARK    2  A    between atoms: C2_3  and  C3_4 
ROOT
ATOM      1  C3  UNL d   1       0.490  -0.731   0.184  0.00  0.00    -0.075 A 
ATOM      2  C4  UNL d   1       1.548  -1.280  -0.555  0.00  0.00     0.002 A 
ATOM      3  C5  UNL d   1       2.319  -2.316  -0.026  0.00  0.00     0.002 A 
ATOM      4  C6  UNL d   1       2.050  -2.807   1.250  0.00  0.00    -0.004 A 
ATOM      5  C7  UNL d   1       1.012  -2.257   1.999  0.00  0.00     0.002 A 
ATOM      6  C8  UNL d   1       0.236  -1.224   1.471  0.00  0.00     0.002 A 
ENDROOT
BRANCH   1   7
ATOM      7  C2  UNL d   1      -0.367   0.370  -0.395  0.00  0.00     0.056 C 
BRANCH   7   8
ATOM      8  C1  UNL d   1      -0.063   0.691  -1.862  0.00  0.00     0.007 C 
ATOM      9  C   UNL d   1      -0.844   1.887  -2.389  0.00  0.00     0.009 C 
ENDBRANCH   7   8
ENDBRANCH   1   7
TORSDOF 2
ENDMDL
