MODEL 1
REMARK minimizedAffinity -2.03099227
REMARK minimizedRMSD -1
REMARK  2 active torsions:
REMARK  status: ('A' for Active; 'I' for Inactive)
REMARK    1  A    between atoms: C1_2  and  C2_3 
REMARK    2  A    between atoms: C2_3  and  C3_4 
ROOT
ATOM      1  C3  UNL d   1      -0.137   1.120  -1.848  0.00  0.00    -0.075 A 
ATOM      2  C4  UNL d   1       0.956   1.913  -2.227  0.00  0.00     0.002 A 
ATOM      3  C5  UNL d   1       0.754   3.139  -2.863  0.00  0.00     0.002 A 
ATOM      4  C6  UNL d   1      -0.538   3.581  -3.137  0.00  0.00    -0.004 A 
ATOM      5  C7  UNL d   1      -1.630   2.793  -2.781  0.00  0.00     0.002 A 
ATOM      6  C8  UNL d   1      -1.432   1.568  -2.140  0.00  0.00     0.002 A 
ENDROOT
BRANCH   1   7
ATOM      7  C2  UNL d   1       0.073  -0.194  -1.134  0.00  0.00     0.056 C 
BRANCH   7   8
ATOM      8  C1  UNL d   1      -1.157  -0.691  -0.368  0.00  0.00     0.007 C 
ATOM      9  C   UNL d   1      -1.139  -0.315   1.108  0.00  0.00     0.009 C 
ENDBRANCH   7   8
ENDBRANCH   1   7
TORSDOF 2
ENDMDL
