MODEL 1
REMARK minimizedAffinity -5.24859095
REMARK minimizedRMSD -1
REMARK  2 active torsions:
REMARK  status: ('A' for Active; 'I' for Inactive)
REMARK    1  A    between atoms: C1_2  and  C2_3 
REMARK    2  A    between atoms: C2_3  and  C3_4 
ROOT
ATOM      1  C3  UNL d   1       0.161  -0.439  -0.512  0.00  0.00    -0.075 A 
ATOM      2  C4  UNL d   1       1.252  -1.241  -0.147  0.00  0.00     0.002 A 
ATOM      3  C5  UNL d   1       1.389  -1.696   1.165  0.00  0.00     0.002 A 
ATOM      4  C6  UNL d   1       0.445  -1.348   2.129  0.00  0.00    -0.004 A 
ATOM      5  C7  UNL d   1      -0.633  -0.538   1.781  0.00  0.00     0.002 A 
ATOM      6  C8  UNL d   1      -0.776  -0.085   0.468  0.00  0.00     0.002 A 
ENDROOT
BRANCH   1   7
ATOM      7  C2  UNL d   1      -0.009   0.032  -1.936  0.00  0.00     0.056 C 
BRANCH   7   8
ATOM      8  C1  UNL d   1      -0.874   1.289  -2.078  0.00  0.00     0.007 C 
ATOM      9  C   UNL d   1      -0.126   2.466  -2.691  0.00  0.00     0.009 C 
ENDBRANCH   7   8
ENDBRANCH   1   7
TORSDOF 2
ENDMDL
