MODEL 1
REMARK minimizedAffinity 9.38944721
REMARK minimizedRMSD -1
REMARK  0 active torsions:
REMARK  status: ('A' for Active; 'I' for Inactive)
ROOT
ATOM      1  C2' OXE d   1      -1.267  -2.212  -2.124  0.00  0.00     0.078 C 
ATOM      2  C1' OXE d   1       0.705  -3.228  -0.403  0.00  0.00     0.078 C 
ATOM      3  C1  OXE d   1      -0.497  -2.564   0.219  0.00  0.00    -0.078 A 
ATOM      4  C2  OXE d   1      -1.434  -2.028  -0.631  0.00  0.00    -0.078 A 
ATOM      5  C3  OXE d   1      -2.589  -1.453  -0.109  0.00  0.00     0.003 A 
ATOM      6  C4  OXE d   1      -2.732  -1.277   1.273  0.00  0.00    -0.002 A 
ATOM      7  C5  OXE d   1      -1.770  -1.780   2.155  0.00  0.00    -0.002 A 
ATOM      8  C6  OXE d   1      -0.670  -2.462   1.648  0.00  0.00     0.003 A 
ENDROOT
TORSDOF 0
ENDMDL
