MODEL 1
REMARK minimizedAffinity 7.69575214
REMARK minimizedRMSD -1
REMARK  0 active torsions:
REMARK  status: ('A' for Active; 'I' for Inactive)
ROOT
ATOM      1  C2' OXE d   1      -2.729  -4.891  -2.480  0.00  0.00     0.078 C 
ATOM      2  C1' OXE d   1      -1.158  -2.630  -1.933  0.00  0.00     0.078 C 
ATOM      3  C1  OXE d   1      -1.527  -2.900  -3.371  0.00  0.00    -0.078 A 
ATOM      4  C2  OXE d   1      -2.256  -4.034  -3.634  0.00  0.00    -0.078 A 
ATOM      5  C3  OXE d   1      -2.669  -4.301  -4.936  0.00  0.00     0.003 A 
ATOM      6  C4  OXE d   1      -2.218  -3.509  -5.999  0.00  0.00    -0.002 A 
ATOM      7  C5  OXE d   1      -1.441  -2.371  -5.757  0.00  0.00    -0.002 A 
ATOM      8  C6  OXE d   1      -1.123  -2.030  -4.447  0.00  0.00     0.003 A 
ENDROOT
TORSDOF 0
ENDMDL
