MODEL 1
REMARK minimizedAffinity 5.57333136
REMARK minimizedRMSD -1
REMARK  0 active torsions:
REMARK  status: ('A' for Active; 'I' for Inactive)
ROOT
ATOM      1  C2' OXE d   1      -3.968  -4.114  -3.015  0.00  0.00     0.078 C 
ATOM      2  C1' OXE d   1      -2.244  -2.239  -1.834  0.00  0.00     0.078 C 
ATOM      3  C1  OXE d   1      -2.053  -2.546  -3.298  0.00  0.00    -0.078 A 
ATOM      4  C2  OXE d   1      -2.870  -3.499  -3.856  0.00  0.00    -0.078 A 
ATOM      5  C3  OXE d   1      -2.772  -3.781  -5.216  0.00  0.00     0.003 A 
ATOM      6  C4  OXE d   1      -1.748  -3.215  -5.985  0.00  0.00    -0.002 A 
ATOM      7  C5  OXE d   1      -0.879  -2.272  -5.426  0.00  0.00    -0.002 A 
ATOM      8  C6  OXE d   1      -1.045  -1.895  -4.098  0.00  0.00     0.003 A 
ENDROOT
TORSDOF 0
ENDMDL
