MODEL 1
REMARK minimizedAffinity 2.85991144
REMARK minimizedRMSD -1
REMARK  0 active torsions:
REMARK  status: ('A' for Active; 'I' for Inactive)
ROOT
ATOM      1  C2' OXE d   1       0.847   2.855  -5.934  0.00  0.00     0.078 C 
ATOM      2  C1' OXE d   1       3.416   1.725  -5.967  0.00  0.00     0.078 C 
ATOM      3  C1  OXE d   1       3.309   3.230  -5.959  0.00  0.00    -0.078 A 
ATOM      4  C2  OXE d   1       2.048   3.774  -5.990  0.00  0.00    -0.078 A 
ATOM      5  C3  OXE d   1       1.892   5.156  -5.928  0.00  0.00     0.003 A 
ATOM      6  C4  OXE d   1       3.009   5.999  -5.990  0.00  0.00    -0.002 A 
ATOM      7  C5  OXE d   1       4.301   5.465  -5.999  0.00  0.00    -0.002 A 
ATOM      8  C6  OXE d   1       4.470   4.086  -5.941  0.00  0.00     0.003 A 
ENDROOT
TORSDOF 0
ENDMDL
