MODEL 1
REMARK minimizedAffinity 14.1020002
REMARK minimizedRMSD -1
REMARK  0 active torsions:
REMARK  status: ('A' for Active; 'I' for Inactive)
ROOT
ATOM      1  C2' OXE d   1      -1.179  -1.800  -5.999  0.00  0.00     0.078 C 
ATOM      2  C1' OXE d   1      -2.270  -4.386  -5.999  0.00  0.00     0.078 C 
ATOM      3  C1  OXE d   1      -2.345  -3.591  -4.720  0.00  0.00    -0.078 A 
ATOM      4  C2  OXE d   1      -1.767  -2.345  -4.715  0.00  0.00    -0.078 A 
ATOM      5  C3  OXE d   1      -1.856  -1.548  -3.578  0.00  0.00     0.003 A 
ATOM      6  C4  OXE d   1      -2.392  -2.063  -2.391  0.00  0.00    -0.002 A 
ATOM      7  C5  OXE d   1      -2.950  -3.345  -2.363  0.00  0.00    -0.002 A 
ATOM      8  C6  OXE d   1      -2.973  -4.105  -3.527  0.00  0.00     0.003 A 
ENDROOT
TORSDOF 0
ENDMDL
