MODEL 1
REMARK minimizedAffinity 5.33103037
REMARK minimizedRMSD -1
REMARK  0 active torsions:
REMARK  status: ('A' for Active; 'I' for Inactive)
ROOT
ATOM      1  C2' OXE d   1      -0.821  -2.668   2.167  0.00  0.00     0.078 C 
ATOM      2  C1' OXE d   1       1.050  -3.299   0.172  0.00  0.00     0.078 C 
ATOM      3  C1  OXE d   1      -0.213  -2.591  -0.248  0.00  0.00    -0.078 A 
ATOM      4  C2  OXE d   1      -1.144  -2.327   0.728  0.00  0.00    -0.078 A 
ATOM      5  C3  OXE d   1      -2.303  -1.627   0.404  0.00  0.00     0.003 A 
ATOM      6  C4  OXE d   1      -2.599  -1.324  -0.931  0.00  0.00    -0.002 A 
ATOM      7  C5  OXE d   1      -1.682  -1.619  -1.946  0.00  0.00    -0.002 A 
ATOM      8  C6  OXE d   1      -0.468  -2.213  -1.616  0.00  0.00     0.003 A 
ENDROOT
TORSDOF 0
ENDMDL
