MODEL 1
REMARK minimizedAffinity -2.97531843
REMARK minimizedRMSD -1
REMARK  0 active torsions:
REMARK  status: ('A' for Active; 'I' for Inactive)
ROOT
ATOM      1  C2' OXE d   1       1.653   5.978  -4.536  0.00  0.00     0.078 C 
ATOM      2  C1' OXE d   1       1.544   3.400  -5.642  0.00  0.00     0.078 C 
ATOM      3  C1  OXE d   1       2.891   4.074  -5.559  0.00  0.00    -0.078 A 
ATOM      4  C2  OXE d   1       2.929   5.353  -5.059  0.00  0.00    -0.078 A 
ATOM      5  C3  OXE d   1       4.152   5.999  -4.909  0.00  0.00     0.003 A 
ATOM      6  C4  OXE d   1       5.326   5.418  -5.405  0.00  0.00    -0.002 A 
ATOM      7  C5  OXE d   1       5.304   4.132  -5.954  0.00  0.00    -0.002 A 
ATOM      8  C6  OXE d   1       4.104   3.430  -5.999  0.00  0.00     0.003 A 
ENDROOT
TORSDOF 0
ENDMDL
