MODEL 1
REMARK minimizedAffinity 10.0070181
REMARK minimizedRMSD -1
REMARK  0 active torsions:
REMARK  status: ('A' for Active; 'I' for Inactive)
ROOT
ATOM      1  C2' OXE d   1      -1.394  -1.578  -2.089  0.00  0.00     0.078 C 
ATOM      2  C1' OXE d   1       0.551  -2.845  -0.511  0.00  0.00     0.078 C 
ATOM      3  C1  OXE d   1      -0.669  -2.294   0.184  0.00  0.00    -0.078 A 
ATOM      4  C2  OXE d   1      -1.593  -1.634  -0.590  0.00  0.00    -0.078 A 
ATOM      5  C3  OXE d   1      -2.763  -1.155  -0.008  0.00  0.00     0.003 A 
ATOM      6  C4  OXE d   1      -2.935  -1.202   1.381  0.00  0.00    -0.002 A 
ATOM      7  C5  OXE d   1      -1.987  -1.834   2.192  0.00  0.00    -0.002 A 
ATOM      8  C6  OXE d   1      -0.871  -2.421   1.606  0.00  0.00     0.003 A 
ENDROOT
TORSDOF 0
ENDMDL
