MODEL 1
REMARK minimizedAffinity 9.6089983
REMARK minimizedRMSD -1
REMARK  0 active torsions:
REMARK  status: ('A' for Active; 'I' for Inactive)
ROOT
ATOM      1  C2' OXE d   1      -2.217  -2.220   3.358  0.00  0.00     0.078 C 
ATOM      2  C1' OXE d   1      -0.654  -2.173   1.027  0.00  0.00     0.078 C 
ATOM      3  C1  OXE d   1      -0.361  -1.146   2.091  0.00  0.00    -0.078 A 
ATOM      4  C2  OXE d   1      -1.161  -1.146   3.208  0.00  0.00    -0.078 A 
ATOM      5  C3  OXE d   1      -0.899  -0.254   4.245  0.00  0.00     0.003 A 
ATOM      6  C4  OXE d   1       0.073   0.742   4.094  0.00  0.00    -0.002 A 
ATOM      7  C5  OXE d   1       0.873   0.785   2.947  0.00  0.00    -0.002 A 
ATOM      8  C6  OXE d   1       0.698  -0.176   1.958  0.00  0.00     0.003 A 
ENDROOT
TORSDOF 0
ENDMDL
