MODEL 1
REMARK minimizedAffinity 4.78621721
REMARK minimizedRMSD -1
REMARK  0 active torsions:
REMARK  status: ('A' for Active; 'I' for Inactive)
ROOT
ATOM      1  C2' OXE d   1       3.012   3.354  -2.279  0.00  0.00     0.078 C 
ATOM      2  C1' OXE d   1       3.081   1.874  -4.664  0.00  0.00     0.078 C 
ATOM      3  C1  OXE d   1       2.678   3.325  -4.748  0.00  0.00    -0.078 A 
ATOM      4  C2  OXE d   1       2.602   4.029  -3.570  0.00  0.00    -0.078 A 
ATOM      5  C3  OXE d   1       2.288   5.385  -3.597  0.00  0.00     0.003 A 
ATOM      6  C4  OXE d   1       1.900   5.999  -4.794  0.00  0.00    -0.002 A 
ATOM      7  C5  OXE d   1       1.932   5.289  -5.999  0.00  0.00    -0.002 A 
ATOM      8  C6  OXE d   1       2.359   3.966  -5.999  0.00  0.00     0.003 A 
ENDROOT
TORSDOF 0
ENDMDL
