MODEL 1
REMARK minimizedAffinity 11.1325169
REMARK minimizedRMSD -1
REMARK  0 active torsions:
REMARK  status: ('A' for Active; 'I' for Inactive)
ROOT
ATOM      1  C2' OXE d   1       2.884   2.489  -5.957  0.00  0.00     0.078 C 
ATOM      2  C1' OXE d   1       3.284   2.829  -3.199  0.00  0.00     0.078 C 
ATOM      3  C1  OXE d   1       4.187   1.865  -3.927  0.00  0.00    -0.078 A 
ATOM      4  C2  OXE d   1       3.954   1.670  -5.267  0.00  0.00    -0.078 A 
ATOM      5  C3  OXE d   1       4.792   0.832  -5.998  0.00  0.00     0.003 A 
ATOM      6  C4  OXE d   1       5.772   0.070  -5.350  0.00  0.00    -0.002 A 
ATOM      7  C5  OXE d   1       6.000   0.224  -3.979  0.00  0.00    -0.002 A 
ATOM      8  C6  OXE d   1       5.246   1.147  -3.262  0.00  0.00     0.003 A 
ENDROOT
TORSDOF 0
ENDMDL
