MODEL 1
REMARK minimizedAffinity 2.6045053
REMARK minimizedRMSD -1
REMARK  0 active torsions:
REMARK  status: ('A' for Active; 'I' for Inactive)
ROOT
ATOM      1  C2' OXE d   1       3.249   1.686  -5.980  0.00  0.00     0.078 C 
ATOM      2  C1' OXE d   1       0.922   3.254  -5.960  0.00  0.00     0.078 C 
ATOM      3  C1  OXE d   1       2.251   3.967  -5.944  0.00  0.00    -0.078 A 
ATOM      4  C2  OXE d   1       3.384   3.191  -5.906  0.00  0.00    -0.078 A 
ATOM      5  C3  OXE d   1       4.636   3.798  -5.945  0.00  0.00     0.003 A 
ATOM      6  C4  OXE d   1       4.752   5.191  -5.867  0.00  0.00    -0.002 A 
ATOM      7  C5  OXE d   1       3.610   5.999  -5.864  0.00  0.00    -0.002 A 
ATOM      8  C6  OXE d   1       2.355   5.406  -5.944  0.00  0.00     0.003 A 
ENDROOT
TORSDOF 0
ENDMDL
