MODEL 1
REMARK minimizedAffinity -0.766925514
REMARK minimizedRMSD -1
REMARK  0 active torsions:
REMARK  status: ('A' for Active; 'I' for Inactive)
ROOT
ATOM      1  C2' OXE d   1       4.061   3.437  -2.606  0.00  0.00     0.078 C 
ATOM      2  C1' OXE d   1       5.995   1.497  -1.995  0.00  0.00     0.078 C 
ATOM      3  C1  OXE d   1       5.492   1.566  -3.415  0.00  0.00    -0.078 A 
ATOM      4  C2  OXE d   1       4.512   2.487  -3.695  0.00  0.00    -0.078 A 
ATOM      5  C3  OXE d   1       4.052   2.630  -5.001  0.00  0.00     0.003 A 
ATOM      6  C4  OXE d   1       4.467   1.741  -6.000  0.00  0.00    -0.002 A 
ATOM      7  C5  OXE d   1       5.435   0.769  -5.727  0.00  0.00    -0.002 A 
ATOM      8  C6  OXE d   1       5.988   0.696  -4.453  0.00  0.00     0.003 A 
ENDROOT
TORSDOF 0
ENDMDL
