MODEL 1
REMARK minimizedAffinity 10.6332378
REMARK minimizedRMSD -1
REMARK  0 active torsions:
REMARK  status: ('A' for Active; 'I' for Inactive)
ROOT
ATOM      1  C2' OXE d   1      -3.763  -4.091  -2.557  0.00  0.00     0.078 C 
ATOM      2  C1' OXE d   1      -1.774  -2.221  -1.902  0.00  0.00     0.078 C 
ATOM      3  C1  OXE d   1      -1.926  -2.607  -3.352  0.00  0.00    -0.078 A 
ATOM      4  C2  OXE d   1      -2.871  -3.557  -3.657  0.00  0.00    -0.078 A 
ATOM      5  C3  OXE d   1      -3.090  -3.909  -4.986  0.00  0.00     0.003 A 
ATOM      6  C4  OXE d   1      -2.254  -3.419  -5.996  0.00  0.00    -0.002 A 
ATOM      7  C5  OXE d   1      -1.259  -2.480  -5.702  0.00  0.00    -0.002 A 
ATOM      8  C6  OXE d   1      -1.111  -2.033  -4.393  0.00  0.00     0.003 A 
ENDROOT
TORSDOF 0
ENDMDL
