MODEL 1
REMARK minimizedAffinity -2.60277367
REMARK minimizedRMSD -1
REMARK  0 active torsions:
REMARK  status: ('A' for Active; 'I' for Inactive)
ROOT
ATOM      1  C2' OXE d   1       1.671   0.970   2.042  0.00  0.00     0.078 C 
ATOM      2  C1' OXE d   1       2.973   2.981   0.580  0.00  0.00     0.078 C 
ATOM      3  C1  OXE d   1       3.825   1.913   1.219  0.00  0.00    -0.078 A 
ATOM      4  C2  OXE d   1       3.183   0.959   1.971  0.00  0.00    -0.078 A 
ATOM      5  C3  OXE d   1       3.915  -0.080   2.538  0.00  0.00     0.003 A 
ATOM      6  C4  OXE d   1       5.314  -0.077   2.476  0.00  0.00    -0.002 A 
ATOM      7  C5  OXE d   1       5.990   0.907   1.748  0.00  0.00    -0.002 A 
ATOM      8  C6  OXE d   1       5.260   1.883   1.079  0.00  0.00     0.003 A 
ENDROOT
TORSDOF 0
ENDMDL
