MODEL 1
REMARK minimizedAffinity -0.81293875
REMARK minimizedRMSD -1
REMARK  0 active torsions:
REMARK  status: ('A' for Active; 'I' for Inactive)
ROOT
ATOM      1  C2' OXE d   1       5.345   4.100  -5.999  0.00  0.00     0.078 C 
ATOM      2  C1' OXE d   1       3.678   1.842  -5.982  0.00  0.00     0.078 C 
ATOM      3  C1  OXE d   1       3.022   3.200  -5.982  0.00  0.00    -0.078 A 
ATOM      4  C2  OXE d   1       3.845   4.300  -5.943  0.00  0.00    -0.078 A 
ATOM      5  C3  OXE d   1       3.294   5.576  -5.997  0.00  0.00     0.003 A 
ATOM      6  C4  OXE d   1       1.906   5.752  -5.934  0.00  0.00    -0.002 A 
ATOM      7  C5  OXE d   1       1.050   4.645  -5.933  0.00  0.00    -0.002 A 
ATOM      8  C6  OXE d   1       1.590   3.366  -6.000  0.00  0.00     0.003 A 
ENDROOT
TORSDOF 0
ENDMDL
