MODEL 1
REMARK minimizedAffinity -1.22154391
REMARK minimizedRMSD -1
REMARK  0 active torsions:
REMARK  status: ('A' for Active; 'I' for Inactive)
ROOT
ATOM      1  C2' OXE d   1       3.317  -0.014  -5.999  0.00  0.00     0.078 C 
ATOM      2  C1' OXE d   1       5.999  -0.011  -5.171  0.00  0.00     0.078 C 
ATOM      3  C1  OXE d   1       5.324   1.322  -5.372  0.00  0.00    -0.078 A 
ATOM      4  C2  OXE d   1       4.026   1.312  -5.823  0.00  0.00    -0.078 A 
ATOM      5  C3  OXE d   1       3.338   2.513  -5.972  0.00  0.00     0.003 A 
ATOM      6  C4  OXE d   1       4.004   3.735  -5.816  0.00  0.00    -0.002 A 
ATOM      7  C5  OXE d   1       5.338   3.768  -5.397  0.00  0.00    -0.002 A 
ATOM      8  C6  OXE d   1       5.998   2.574  -5.130  0.00  0.00     0.003 A 
ENDROOT
TORSDOF 0
ENDMDL
