MODEL 1
REMARK minimizedAffinity 0.822340906
REMARK minimizedRMSD -1
REMARK  0 active torsions:
REMARK  status: ('A' for Active; 'I' for Inactive)
ROOT
ATOM      1  C2' OXE d   1       5.933   1.203  -2.336  0.00  0.00     0.078 C 
ATOM      2  C1' OXE d   1       5.912  -0.010  -4.867  0.00  0.00     0.078 C 
ATOM      3  C1  OXE d   1       5.949   1.497  -4.810  0.00  0.00    -0.078 A 
ATOM      4  C2  OXE d   1       5.911   2.083  -3.567  0.00  0.00    -0.078 A 
ATOM      5  C3  OXE d   1       5.998   3.467  -3.455  0.00  0.00     0.003 A 
ATOM      6  C4  OXE d   1       5.968   4.274  -4.599  0.00  0.00    -0.002 A 
ATOM      7  C5  OXE d   1       5.966   3.698  -5.874  0.00  0.00    -0.002 A 
ATOM      8  C6  OXE d   1       5.999   2.314  -5.997  0.00  0.00     0.003 A 
ENDROOT
TORSDOF 0
ENDMDL
