MODEL 1
REMARK minimizedAffinity -1.93907464
REMARK minimizedRMSD -1
REMARK  0 active torsions:
REMARK  status: ('A' for Active; 'I' for Inactive)
ROOT
ATOM      1  C2' OXE d   1       5.999   2.380   1.172  0.00  0.00     0.078 C 
ATOM      2  C1' OXE d   1       5.394  -0.042   2.454  0.00  0.00     0.078 C 
ATOM      3  C1  OXE d   1       4.243   0.814   1.989  0.00  0.00    -0.078 A 
ATOM      4  C2  OXE d   1       4.548   2.019   1.404  0.00  0.00    -0.078 A 
ATOM      5  C3  OXE d   1       3.525   2.823   0.907  0.00  0.00     0.003 A 
ATOM      6  C4  OXE d   1       2.185   2.487   1.135  0.00  0.00    -0.002 A 
ATOM      7  C5  OXE d   1       1.853   1.282   1.764  0.00  0.00    -0.002 A 
ATOM      8  C6  OXE d   1       2.867   0.416   2.158  0.00  0.00     0.003 A 
ENDROOT
TORSDOF 0
ENDMDL
