MODEL 1
REMARK minimizedAffinity 6.60983753
REMARK minimizedRMSD -1
REMARK  2 active torsions:
REMARK  status: ('A' for Active; 'I' for Inactive)
REMARK    1  A    between atoms: C2'_3  and  C1'_4 
REMARK    2  A    between atoms: C1'_4  and  C1_5 
ROOT
ATOM      1  C1  I4B d   1       2.895  -2.568   0.905  0.00  0.00    -0.075 A 
ATOM      2  C2  I4B d   1       1.608  -2.387   1.347  0.00  0.00     0.003 A 
ATOM      3  C3  I4B d   1       1.010  -1.105   1.296  0.00  0.00     0.002 A 
ATOM      4  C4  I4B d   1       1.747  -0.029   0.846  0.00  0.00    -0.004 A 
ATOM      5  C5  I4B d   1       3.043  -0.218   0.376  0.00  0.00     0.002 A 
ATOM      6  C6  I4B d   1       3.617  -1.497   0.394  0.00  0.00     0.003 A 
ENDROOT
BRANCH   1   7
ATOM      7  C1' I4B d   1       3.507  -3.929   1.004  0.00  0.00     0.060 C 
BRANCH   7   8
ATOM      8  C2' I4B d   1       4.756  -3.819   1.854  0.00  0.00    -0.013 C 
ATOM      9  C4' I4B d   1       4.505  -4.302   3.258  0.00  0.00     0.013 C 
ATOM     10  C3' I4B d   1       5.839  -4.618   1.192  0.00  0.00     0.013 C 
ENDBRANCH   7   8
ENDBRANCH   1   7
TORSDOF 2
ENDMDL
