MODEL 1
REMARK minimizedAffinity 6.16923141
REMARK minimizedRMSD -1
REMARK  2 active torsions:
REMARK  status: ('A' for Active; 'I' for Inactive)
REMARK    1  A    between atoms: C2'_3  and  C1'_4 
REMARK    2  A    between atoms: C1'_4  and  C1_5 
ROOT
ATOM      1  C1  I4B d   1       4.752  -4.891   3.637  0.00  0.00    -0.075 A 
ATOM      2  C2  I4B d   1       4.041  -5.319   4.731  0.00  0.00     0.003 A 
ATOM      3  C3  I4B d   1       4.040  -4.555   5.924  0.00  0.00     0.002 A 
ATOM      4  C4  I4B d   1       4.799  -3.405   5.994  0.00  0.00    -0.004 A 
ATOM      5  C5  I4B d   1       5.501  -2.961   4.877  0.00  0.00     0.002 A 
ATOM      6  C6  I4B d   1       5.468  -3.702   3.687  0.00  0.00     0.003 A 
ENDROOT
BRANCH   1   7
ATOM      7  C1' I4B d   1       4.758  -5.739   2.405  0.00  0.00     0.060 C 
BRANCH   7   8
ATOM      8  C2' I4B d   1       4.437  -4.847   1.223  0.00  0.00    -0.013 C 
ATOM      9  C4' I4B d   1       4.854  -5.489  -0.074  0.00  0.00     0.013 C 
ATOM     10  C3' I4B d   1       2.964  -4.568   1.240  0.00  0.00     0.013 C 
ENDBRANCH   7   8
ENDBRANCH   1   7
TORSDOF 2
ENDMDL
