MODEL 1
REMARK minimizedAffinity 7.41673326
REMARK minimizedRMSD -1
REMARK  2 active torsions:
REMARK  status: ('A' for Active; 'I' for Inactive)
REMARK    1  A    between atoms: C2'_3  and  C1'_4 
REMARK    2  A    between atoms: C1'_4  and  C1_5 
ROOT
ATOM      1  C1  I4B d   1       3.340   5.103   4.563  0.00  0.00    -0.075 A 
ATOM      2  C2  I4B d   1       2.570   4.345   5.410  0.00  0.00     0.003 A 
ATOM      3  C3  I4B d   1       1.545   3.518   4.893  0.00  0.00     0.002 A 
ATOM      4  C4  I4B d   1       1.291   3.517   3.536  0.00  0.00    -0.004 A 
ATOM      5  C5  I4B d   1       2.087   4.268   2.676  0.00  0.00     0.002 A 
ATOM      6  C6  I4B d   1       3.126   5.057   3.191  0.00  0.00     0.003 A 
ENDROOT
BRANCH   1   7
ATOM      7  C1' I4B d   1       4.393   5.991   5.146  0.00  0.00     0.060 C 
BRANCH   7   8
ATOM      8  C2' I4B d   1       5.723   5.605   4.531  0.00  0.00    -0.013 C 
ATOM      9  C4' I4B d   1       5.997   4.134   4.704  0.00  0.00     0.013 C 
ATOM     10  C3' I4B d   1       5.688   5.981   3.079  0.00  0.00     0.013 C 
ENDBRANCH   7   8
ENDBRANCH   1   7
TORSDOF 2
ENDMDL
