MODEL 1
REMARK minimizedAffinity 8.14033413
REMARK minimizedRMSD -1
REMARK  2 active torsions:
REMARK  status: ('A' for Active; 'I' for Inactive)
REMARK    1  A    between atoms: C2'_3  and  C1'_4 
REMARK    2  A    between atoms: C1'_4  and  C1_5 
ROOT
ATOM      1  C1  I4B d   1       0.544   3.234  -5.211  0.00  0.00    -0.075 A 
ATOM      2  C2  I4B d   1       1.829   2.757  -5.150  0.00  0.00     0.003 A 
ATOM      3  C3  I4B d   1       2.917   3.593  -5.499  0.00  0.00     0.002 A 
ATOM      4  C4  I4B d   1       2.673   4.875  -5.949  0.00  0.00    -0.004 A 
ATOM      5  C5  I4B d   1       1.370   5.364  -5.988  0.00  0.00     0.002 A 
ATOM      6  C6  I4B d   1       0.300   4.543  -5.605  0.00  0.00     0.003 A 
ENDROOT
BRANCH   1   7
ATOM      7  C1' I4B d   1      -0.584   2.314  -4.867  0.00  0.00     0.060 C 
BRANCH   7   8
ATOM      8  C2' I4B d   1      -1.367   2.939  -3.731  0.00  0.00    -0.013 C 
ATOM      9  C4' I4B d   1      -2.685   3.486  -4.214  0.00  0.00     0.013 C 
ATOM     10  C3' I4B d   1      -1.569   1.892  -2.677  0.00  0.00     0.013 C 
ENDBRANCH   7   8
ENDBRANCH   1   7
TORSDOF 2
ENDMDL
