MODEL 1
REMARK minimizedAffinity -4.59933329
REMARK minimizedRMSD -1
REMARK  2 active torsions:
REMARK  status: ('A' for Active; 'I' for Inactive)
REMARK    1  A    between atoms: C2'_3  and  C1'_4 
REMARK    2  A    between atoms: C1'_4  and  C1_5 
ROOT
ATOM      1  C1  I4B d   1       2.689   5.473   4.023  0.00  0.00    -0.075 A 
ATOM      2  C2  I4B d   1       1.922   6.000   5.032  0.00  0.00     0.003 A 
ATOM      3  C3  I4B d   1       0.542   5.694   5.112  0.00  0.00     0.002 A 
ATOM      4  C4  I4B d   1      -0.037   4.904   4.140  0.00  0.00    -0.004 A 
ATOM      5  C5  I4B d   1       0.747   4.352   3.131  0.00  0.00     0.002 A 
ATOM      6  C6  I4B d   1       2.121   4.628   3.078  0.00  0.00     0.003 A 
ENDROOT
BRANCH   1   7
ATOM      7  C1' I4B d   1       4.136   5.843   3.949  0.00  0.00     0.060 C 
BRANCH   7   8
ATOM      8  C2' I4B d   1       4.901   4.922   4.878  0.00  0.00    -0.013 C 
ATOM      9  C4' I4B d   1       5.999   4.198   4.144  0.00  0.00     0.013 C 
ATOM     10  C3' I4B d   1       5.454   5.749   5.999  0.00  0.00     0.013 C 
ENDBRANCH   7   8
ENDBRANCH   1   7
TORSDOF 2
ENDMDL
