MODEL 1
REMARK minimizedAffinity 11.4418898
REMARK minimizedRMSD -1
REMARK  2 active torsions:
REMARK  status: ('A' for Active; 'I' for Inactive)
REMARK    1  A    between atoms: C2'_3  and  C1'_4 
REMARK    2  A    between atoms: C1'_4  and  C1_5 
ROOT
ATOM      1  C1  I4B d   1      -3.302   3.706  -4.937  0.00  0.00    -0.075 A 
ATOM      2  C2  I4B d   1      -3.596   4.800  -4.160  0.00  0.00     0.003 A 
ATOM      3  C3  I4B d   1      -2.816   5.977  -4.263  0.00  0.00     0.002 A 
ATOM      4  C4  I4B d   1      -1.729   6.000  -5.112  0.00  0.00    -0.004 A 
ATOM      5  C5  I4B d   1      -1.446   4.899  -5.915  0.00  0.00     0.002 A 
ATOM      6  C6  I4B d   1      -2.245   3.749  -5.836  0.00  0.00     0.003 A 
ENDROOT
BRANCH   1   7
ATOM      7  C1' I4B d   1      -4.127   2.468  -4.779  0.00  0.00     0.060 C 
BRANCH   7   8
ATOM      8  C2' I4B d   1      -5.072   2.383  -5.960  0.00  0.00    -0.013 C 
ATOM      9  C4' I4B d   1      -5.963   1.173  -5.859  0.00  0.00     0.013 C 
ATOM     10  C3' I4B d   1      -5.878   3.647  -5.999  0.00  0.00     0.013 C 
ENDBRANCH   7   8
ENDBRANCH   1   7
TORSDOF 2
ENDMDL
