MODEL 1
REMARK minimizedAffinity 18.3301163
REMARK minimizedRMSD -1
REMARK  2 active torsions:
REMARK  status: ('A' for Active; 'I' for Inactive)
REMARK    1  A    between atoms: C2'_3  and  C1'_4 
REMARK    2  A    between atoms: C1'_4  and  C1_5 
ROOT
ATOM      1  C1  I4B d   1      -3.754   2.703  -3.838  0.00  0.00    -0.075 A 
ATOM      2  C2  I4B d   1      -4.669   2.023  -4.603  0.00  0.00     0.003 A 
ATOM      3  C3  I4B d   1      -5.452   2.714  -5.559  0.00  0.00     0.002 A 
ATOM      4  C4  I4B d   1      -5.325   4.083  -5.681  0.00  0.00    -0.004 A 
ATOM      5  C5  I4B d   1      -4.381   4.767  -4.921  0.00  0.00     0.002 A 
ATOM      6  C6  I4B d   1      -3.581   4.071  -4.002  0.00  0.00     0.003 A 
ENDROOT
BRANCH   1   7
ATOM      7  C1' I4B d   1      -2.967   1.947  -2.814  0.00  0.00     0.060 C 
BRANCH   7   8
ATOM      8  C2' I4B d   1      -3.880   0.907  -2.198  0.00  0.00    -0.013 C 
ATOM      9  C4' I4B d   1      -3.345  -0.484  -2.413  0.00  0.00     0.013 C 
ATOM     10  C3' I4B d   1      -4.015   1.216  -0.737  0.00  0.00     0.013 C 
ENDBRANCH   7   8
ENDBRANCH   1   7
TORSDOF 2
ENDMDL
