MODEL 1
REMARK minimizedAffinity 3.84824395
REMARK minimizedRMSD -1
REMARK  2 active torsions:
REMARK  status: ('A' for Active; 'I' for Inactive)
REMARK    1  A    between atoms: C2'_3  and  C1'_4 
REMARK    2  A    between atoms: C1'_4  and  C1_5 
ROOT
ATOM      1  C1  I4B d   1       3.228   5.964   4.553  0.00  0.00    -0.075 A 
ATOM      2  C2  I4B d   1       3.766   5.966   5.816  0.00  0.00     0.003 A 
ATOM      3  C3  I4B d   1       5.170   5.995   5.992  0.00  0.00     0.002 A 
ATOM      4  C4  I4B d   1       5.995   5.970   4.886  0.00  0.00    -0.004 A 
ATOM      5  C5  I4B d   1       5.448   5.990   3.607  0.00  0.00     0.002 A 
ATOM      6  C6  I4B d   1       4.056   6.000   3.438  0.00  0.00     0.003 A 
ENDROOT
BRANCH   1   7
ATOM      7  C1' I4B d   1       1.741   5.900   4.403  0.00  0.00     0.060 C 
BRANCH   7   8
ATOM      8  C2' I4B d   1       1.319   4.453   4.551  0.00  0.00    -0.013 C 
ATOM      9  C4' I4B d   1       1.258   3.763   3.213  0.00  0.00     0.013 C 
ATOM     10  C3' I4B d   1       2.296   3.776   5.465  0.00  0.00     0.013 C 
ENDBRANCH   7   8
ENDBRANCH   1   7
TORSDOF 2
ENDMDL
