MODEL 1
REMARK minimizedAffinity 16.7772331
REMARK minimizedRMSD -1
REMARK  2 active torsions:
REMARK  status: ('A' for Active; 'I' for Inactive)
REMARK    1  A    between atoms: C2'_3  and  C1'_4 
REMARK    2  A    between atoms: C1'_4  and  C1_5 
ROOT
ATOM      1  C1  I4B d   1       1.357  -1.533   3.226  0.00  0.00    -0.075 A 
ATOM      2  C2  I4B d   1       1.966  -1.762   2.018  0.00  0.00     0.003 A 
ATOM      3  C3  I4B d   1       1.236  -2.339   0.950  0.00  0.00     0.002 A 
ATOM      4  C4  I4B d   1      -0.076  -2.715   1.149  0.00  0.00    -0.004 A 
ATOM      5  C5  I4B d   1      -0.699  -2.461   2.368  0.00  0.00     0.002 A 
ATOM      6  C6  I4B d   1       0.018  -1.855   3.409  0.00  0.00     0.003 A 
ENDROOT
BRANCH   1   7
ATOM      7  C1' I4B d   1       2.166  -0.952   4.342  0.00  0.00     0.060 C 
BRANCH   7   8
ATOM      8  C2' I4B d   1       3.412  -1.799   4.505  0.00  0.00    -0.013 C 
ATOM      9  C4' I4B d   1       4.639  -0.940   4.660  0.00  0.00     0.013 C 
ATOM     10  C3' I4B d   1       3.217  -2.685   5.700  0.00  0.00     0.013 C 
ENDBRANCH   7   8
ENDBRANCH   1   7
TORSDOF 2
ENDMDL
