MODEL 1
REMARK minimizedAffinity 0.222358927
REMARK minimizedRMSD -1
REMARK  2 active torsions:
REMARK  status: ('A' for Active; 'I' for Inactive)
REMARK    1  A    between atoms: C2'_3  and  C1'_4 
REMARK    2  A    between atoms: C1'_4  and  C1_5 
ROOT
ATOM      1  C1  I4B d   1       2.811   5.360   4.141  0.00  0.00    -0.075 A 
ATOM      2  C2  I4B d   1       1.913   5.928   5.010  0.00  0.00     0.003 A 
ATOM      3  C3  I4B d   1       0.595   5.419   5.107  0.00  0.00     0.002 A 
ATOM      4  C4  I4B d   1       0.205   4.381   4.286  0.00  0.00    -0.004 A 
ATOM      5  C5  I4B d   1       1.124   3.791   3.422  0.00  0.00     0.002 A 
ATOM      6  C6  I4B d   1       2.438   4.275   3.358  0.00  0.00     0.003 A 
ENDROOT
BRANCH   1   7
ATOM      7  C1' I4B d   1       4.185   5.943   4.040  0.00  0.00     0.060 C 
BRANCH   7   8
ATOM      8  C2' I4B d   1       5.118   5.087   4.873  0.00  0.00    -0.013 C 
ATOM      9  C4' I4B d   1       5.998   4.233   4.000  0.00  0.00     0.013 C 
ATOM     10  C3' I4B d   1       5.934   6.000   5.738  0.00  0.00     0.013 C 
ENDBRANCH   7   8
ENDBRANCH   1   7
TORSDOF 2
ENDMDL
