MODEL 1
REMARK minimizedAffinity 19.3383999
REMARK minimizedRMSD -1
REMARK  2 active torsions:
REMARK  status: ('A' for Active; 'I' for Inactive)
REMARK    1  A    between atoms: C2'_3  and  C1'_4 
REMARK    2  A    between atoms: C1'_4  and  C1_5 
ROOT
ATOM      1  C1  I4B d   1       3.341   2.965  -2.790  0.00  0.00    -0.075 A 
ATOM      2  C2  I4B d   1       4.391   3.054  -3.670  0.00  0.00     0.003 A 
ATOM      3  C3  I4B d   1       4.564   4.219  -4.456  0.00  0.00     0.002 A 
ATOM      4  C4  I4B d   1       3.642   5.242  -4.368  0.00  0.00    -0.004 A 
ATOM      5  C5  I4B d   1       2.591   5.159  -3.459  0.00  0.00     0.002 A 
ATOM      6  C6  I4B d   1       2.446   4.018  -2.656  0.00  0.00     0.003 A 
ENDROOT
BRANCH   1   7
ATOM      7  C1' I4B d   1       3.169   1.707  -1.999  0.00  0.00     0.060 C 
BRANCH   7   8
ATOM      8  C2' I4B d   1       1.766   1.190  -2.243  0.00  0.00    -0.013 C 
ATOM      9  C4' I4B d   1       1.790  -0.138  -2.953  0.00  0.00     0.013 C 
ATOM     10  C3' I4B d   1       1.075   1.081  -0.916  0.00  0.00     0.013 C 
ENDBRANCH   7   8
ENDBRANCH   1   7
TORSDOF 2
ENDMDL
