MODEL 1
REMARK minimizedAffinity 15.5623989
REMARK minimizedRMSD -1
REMARK  2 active torsions:
REMARK  status: ('A' for Active; 'I' for Inactive)
REMARK    1  A    between atoms: C2'_3  and  C1'_4 
REMARK    2  A    between atoms: C1'_4  and  C1_5 
ROOT
ATOM      1  C1  I4B d   1      -4.168  -0.049   0.888  0.00  0.00    -0.075 A 
ATOM      2  C2  I4B d   1      -4.849   0.684   1.828  0.00  0.00     0.003 A 
ATOM      3  C3  I4B d   1      -4.140   1.465   2.773  0.00  0.00     0.002 A 
ATOM      4  C4  I4B d   1      -2.760   1.445   2.773  0.00  0.00    -0.004 A 
ATOM      5  C5  I4B d   1      -2.072   0.720   1.805  0.00  0.00     0.002 A 
ATOM      6  C6  I4B d   1      -2.780  -0.023   0.849  0.00  0.00     0.003 A 
ENDROOT
BRANCH   1   7
ATOM      7  C1' I4B d   1      -4.947  -0.890  -0.073  0.00  0.00     0.060 C 
BRANCH   7   8
ATOM      8  C2' I4B d   1      -4.863  -2.330   0.391  0.00  0.00    -0.013 C 
ATOM      9  C4' I4B d   1      -5.977  -2.660   1.348  0.00  0.00     0.013 C 
ATOM     10  C3' I4B d   1      -4.911  -3.211  -0.822  0.00  0.00     0.013 C 
ENDBRANCH   7   8
ENDBRANCH   1   7
TORSDOF 2
ENDMDL
