MODEL 1
REMARK minimizedAffinity 0.132223204
REMARK minimizedRMSD -1
REMARK  2 active torsions:
REMARK  status: ('A' for Active; 'I' for Inactive)
REMARK    1  A    between atoms: C2'_3  and  C1'_4 
REMARK    2  A    between atoms: C1'_4  and  C1_5 
ROOT
ATOM      1  C1  I4B d   1      -0.527   0.269   2.424  0.00  0.00    -0.075 A 
ATOM      2  C2  I4B d   1      -0.731  -0.072   1.110  0.00  0.00     0.003 A 
ATOM      3  C3  I4B d   1      -1.918   0.323   0.447  0.00  0.00     0.002 A 
ATOM      4  C4  I4B d   1      -2.890   1.010   1.145  0.00  0.00    -0.004 A 
ATOM      5  C5  I4B d   1      -2.672   1.375   2.471  0.00  0.00     0.002 A 
ATOM      6  C6  I4B d   1      -1.478   1.012   3.111  0.00  0.00     0.003 A 
ENDROOT
BRANCH   1   7
ATOM      7  C1' I4B d   1       0.723  -0.194   3.103  0.00  0.00     0.060 C 
BRANCH   7   8
ATOM      8  C2' I4B d   1       1.730   0.937   3.048  0.00  0.00    -0.013 C 
ATOM      9  C4' I4B d   1       2.228   1.156   1.643  0.00  0.00     0.013 C 
ATOM     10  C3' I4B d   1       1.069   2.171   3.586  0.00  0.00     0.013 C 
ENDBRANCH   7   8
ENDBRANCH   1   7
TORSDOF 2
ENDMDL
