MODEL 1
REMARK minimizedAffinity 10.3166389
REMARK minimizedRMSD -1
REMARK  2 active torsions:
REMARK  status: ('A' for Active; 'I' for Inactive)
REMARK    1  A    between atoms: C2'_3  and  C1'_4 
REMARK    2  A    between atoms: C1'_4  and  C1_5 
ROOT
ATOM      1  C1  I4B d   1      -5.419   3.330   4.457  0.00  0.00    -0.075 A 
ATOM      2  C2  I4B d   1      -6.000   4.309   3.691  0.00  0.00     0.003 A 
ATOM      3  C3  I4B d   1      -5.886   5.670   4.067  0.00  0.00     0.002 A 
ATOM      4  C4  I4B d   1      -5.231   5.999   5.236  0.00  0.00    -0.004 A 
ATOM      5  C5  I4B d   1      -4.624   5.006   6.000  0.00  0.00     0.002 A 
ATOM      6  C6  I4B d   1      -4.708   3.664   5.602  0.00  0.00     0.003 A 
ENDROOT
BRANCH   1   7
ATOM      7  C1' I4B d   1      -5.587   1.901   4.048  0.00  0.00     0.060 C 
BRANCH   7   8
ATOM      8  C2' I4B d   1      -4.327   1.154   4.434  0.00  0.00    -0.013 C 
ATOM      9  C4' I4B d   1      -4.627   0.043   5.406  0.00  0.00     0.013 C 
ATOM     10  C3' I4B d   1      -3.701   0.621   3.180  0.00  0.00     0.013 C 
ENDBRANCH   7   8
ENDBRANCH   1   7
TORSDOF 2
ENDMDL
