MODEL 1
REMARK minimizedAffinity 0.659284413
REMARK minimizedRMSD -1
REMARK  2 active torsions:
REMARK  status: ('A' for Active; 'I' for Inactive)
REMARK    1  A    between atoms: C2'_3  and  C1'_4 
REMARK    2  A    between atoms: C1'_4  and  C1_5 
ROOT
ATOM      1  C1  I4B d   1      -2.451   1.052   2.051  0.00  0.00    -0.075 A 
ATOM      2  C2  I4B d   1      -2.931   1.521   3.248  0.00  0.00     0.003 A 
ATOM      3  C3  I4B d   1      -4.317   1.759   3.417  0.00  0.00     0.002 A 
ATOM      4  C4  I4B d   1      -5.175   1.563   2.353  0.00  0.00    -0.004 A 
ATOM      5  C5  I4B d   1      -4.689   1.066   1.147  0.00  0.00     0.002 A 
ATOM      6  C6  I4B d   1      -3.321   0.797   0.998  0.00  0.00     0.003 A 
ENDROOT
BRANCH   1   7
ATOM      7  C1' I4B d   1      -0.978   0.844   1.897  0.00  0.00     0.060 C 
BRANCH   7   8
ATOM      8  C2' I4B d   1      -0.332   1.063   3.249  0.00  0.00    -0.013 C 
ATOM      9  C4' I4B d   1       0.928   0.250   3.390  0.00  0.00     0.013 C 
ATOM     10  C3' I4B d   1      -0.049   2.529   3.395  0.00  0.00     0.013 C 
ENDBRANCH   7   8
ENDBRANCH   1   7
TORSDOF 2
ENDMDL
