MODEL 1
REMARK minimizedAffinity 14.142909
REMARK minimizedRMSD -1
REMARK  2 active torsions:
REMARK  status: ('A' for Active; 'I' for Inactive)
REMARK    1  A    between atoms: C2'_3  and  C1'_4 
REMARK    2  A    between atoms: C1'_4  and  C1_5 
ROOT
ATOM      1  C1  I4B d   1      -3.961   0.629   1.799  0.00  0.00    -0.075 A 
ATOM      2  C2  I4B d   1      -2.844   1.313   2.209  0.00  0.00     0.003 A 
ATOM      3  C3  I4B d   1      -1.558   0.894   1.789  0.00  0.00     0.002 A 
ATOM      4  C4  I4B d   1      -1.433  -0.236   1.006  0.00  0.00    -0.004 A 
ATOM      5  C5  I4B d   1      -2.568  -0.914   0.573  0.00  0.00     0.002 A 
ATOM      6  C6  I4B d   1      -3.841  -0.472   0.961  0.00  0.00     0.003 A 
ENDROOT
BRANCH   1   7
ATOM      7  C1' I4B d   1      -5.301   1.079   2.288  0.00  0.00     0.060 C 
BRANCH   7   8
ATOM      8  C2' I4B d   1      -5.463   0.597   3.716  0.00  0.00    -0.013 C 
ATOM      9  C4' I4B d   1      -4.156   0.098   4.274  0.00  0.00     0.013 C 
ATOM     10  C3' I4B d   1      -6.000   1.736   4.531  0.00  0.00     0.013 C 
ENDBRANCH   7   8
ENDBRANCH   1   7
TORSDOF 2
ENDMDL
