MODEL 1
REMARK minimizedAffinity 6.27104235
REMARK minimizedRMSD -1
REMARK  2 active torsions:
REMARK  status: ('A' for Active; 'I' for Inactive)
REMARK    1  A    between atoms: C2'_3  and  C1'_4 
REMARK    2  A    between atoms: C1'_4  and  C1_5 
ROOT
ATOM      1  C1  I4B d   1      -5.038  -1.238   4.020  0.00  0.00    -0.075 A 
ATOM      2  C2  I4B d   1      -4.091  -1.071   4.999  0.00  0.00     0.003 A 
ATOM      3  C3  I4B d   1      -3.878  -2.084   5.965  0.00  0.00     0.002 A 
ATOM      4  C4  I4B d   1      -4.664  -3.218   5.946  0.00  0.00    -0.004 A 
ATOM      5  C5  I4B d   1      -5.608  -3.396   4.939  0.00  0.00     0.002 A 
ATOM      6  C6  I4B d   1      -5.789  -2.406   3.963  0.00  0.00     0.003 A 
ENDROOT
BRANCH   1   7
ATOM      7  C1' I4B d   1      -5.260  -0.134   3.035  0.00  0.00     0.060 C 
BRANCH   7   8
ATOM      8  C2' I4B d   1      -4.325  -0.359   1.864  0.00  0.00    -0.013 C 
ATOM      9  C4' I4B d   1      -5.039  -1.024   0.717  0.00  0.00     0.013 C 
ATOM     10  C3' I4B d   1      -3.766   0.971   1.456  0.00  0.00     0.013 C 
ENDBRANCH   7   8
ENDBRANCH   1   7
TORSDOF 2
ENDMDL
