MODEL 1
REMARK minimizedAffinity -0.211045265
REMARK minimizedRMSD -1
REMARK  2 active torsions:
REMARK  status: ('A' for Active; 'I' for Inactive)
REMARK    1  A    between atoms: C2'_3  and  C1'_4 
REMARK    2  A    between atoms: C1'_4  and  C1_5 
ROOT
ATOM      1  C1  I4B d   1      -4.543   1.753   2.240  0.00  0.00    -0.075 A 
ATOM      2  C2  I4B d   1      -3.276   1.892   2.748  0.00  0.00     0.003 A 
ATOM      3  C3  I4B d   1      -2.213   1.106   2.241  0.00  0.00     0.002 A 
ATOM      4  C4  I4B d   1      -2.471   0.163   1.266  0.00  0.00    -0.004 A 
ATOM      5  C5  I4B d   1      -3.752   0.040   0.735  0.00  0.00     0.002 A 
ATOM      6  C6  I4B d   1      -4.792   0.848   1.216  0.00  0.00     0.003 A 
ENDROOT
BRANCH   1   7
ATOM      7  C1' I4B d   1      -5.648   2.577   2.822  0.00  0.00     0.060 C 
BRANCH   7   8
ATOM      8  C2' I4B d   1      -5.930   2.058   4.217  0.00  0.00    -0.013 C 
ATOM      9  C4' I4B d   1      -4.874   1.080   4.660  0.00  0.00     0.013 C 
ATOM     10  C3' I4B d   1      -6.000   3.236   5.143  0.00  0.00     0.013 C 
ENDBRANCH   7   8
ENDBRANCH   1   7
TORSDOF 2
ENDMDL
