MODEL 1
REMARK minimizedAffinity -3.78352237
REMARK minimizedRMSD -1
REMARK  0 active torsions:
REMARK  status: ('A' for Active; 'I' for Inactive)
ROOT
ATOM      1  C1  BNZ d   1      -1.288  -1.809   2.197  0.00  0.00     0.000 A 
ATOM      2  C2  BNZ d   1      -0.243  -2.122   1.370  0.00  0.00     0.000 A 
ATOM      3  C3  BNZ d   1       0.306  -1.177   0.549  0.00  0.00     0.000 A 
ATOM      4  C4  BNZ d   1      -0.216   0.066   0.526  0.00  0.00     0.000 A 
ATOM      5  C5  BNZ d   1      -1.276   0.394   1.348  0.00  0.00     0.000 A 
ATOM      6  C6  BNZ d   1      -1.801  -0.549   2.202  0.00  0.00     0.000 A 
ENDROOT
TORSDOF 0
ENDMDL
