MODEL 1
REMARK minimizedAffinity -4.51419258
REMARK minimizedRMSD -1
REMARK  0 active torsions:
REMARK  status: ('A' for Active; 'I' for Inactive)
ROOT
ATOM      1  C1  BNZ d   1       0.538  -1.608   0.358  0.00  0.00     0.000 A 
ATOM      2  C2  BNZ d   1      -0.224  -2.453   1.121  0.00  0.00     0.000 A 
ATOM      3  C3  BNZ d   1      -1.446  -2.063   1.590  0.00  0.00     0.000 A 
ATOM      4  C4  BNZ d   1      -1.888  -0.815   1.331  0.00  0.00     0.000 A 
ATOM      5  C5  BNZ d   1      -1.129   0.052   0.571  0.00  0.00     0.000 A 
ATOM      6  C6  BNZ d   1       0.084  -0.358   0.068  0.00  0.00     0.000 A 
ENDROOT
TORSDOF 0
ENDMDL
