MODEL 1
REMARK minimizedAffinity -3.03222036
REMARK minimizedRMSD -1
REMARK  0 active torsions:
REMARK  status: ('A' for Active; 'I' for Inactive)
ROOT
ATOM      1  C1  BNZ d   1       0.055  -1.956   0.016  0.00  0.00     0.000 A 
ATOM      2  C2  BNZ d   1       0.406  -1.048  -0.948  0.00  0.00     0.000 A 
ATOM      3  C3  BNZ d   1       0.322   0.295  -0.707  0.00  0.00     0.000 A 
ATOM      4  C4  BNZ d   1      -0.150   0.728   0.480  0.00  0.00     0.000 A 
ATOM      5  C5  BNZ d   1      -0.517  -0.175   1.458  0.00  0.00     0.000 A 
ATOM      6  C6  BNZ d   1      -0.394  -1.526   1.226  0.00  0.00     0.000 A 
ENDROOT
TORSDOF 0
ENDMDL
