MODEL 1
REMARK minimizedAffinity -2.02006364
REMARK minimizedRMSD -1
REMARK  0 active torsions:
REMARK  status: ('A' for Active; 'I' for Inactive)
ROOT
ATOM      1  C1  BNZ d   1       0.279   1.001  -0.295  0.00  0.00     0.000 A 
ATOM      2  C2  BNZ d   1      -0.565  -0.056  -0.078  0.00  0.00     0.000 A 
ATOM      3  C3  BNZ d   1      -0.085  -1.251   0.380  0.00  0.00     0.000 A 
ATOM      4  C4  BNZ d   1       1.240  -1.401   0.582  0.00  0.00     0.000 A 
ATOM      5  C5  BNZ d   1       2.104  -0.348   0.359  0.00  0.00     0.000 A 
ATOM      6  C6  BNZ d   1       1.613   0.866  -0.065  0.00  0.00     0.000 A 
ENDROOT
TORSDOF 0
ENDMDL
