MODEL 1
REMARK minimizedAffinity -0.601152003
REMARK minimizedRMSD -1
REMARK  0 active torsions:
REMARK  status: ('A' for Active; 'I' for Inactive)
ROOT
ATOM      1  C1  BNZ d   1      -0.290  -1.399   2.070  0.00  0.00     0.000 A 
ATOM      2  C2  BNZ d   1       0.106  -0.252   1.436  0.00  0.00     0.000 A 
ATOM      3  C3  BNZ d   1       0.815  -0.306   0.268  0.00  0.00     0.000 A 
ATOM      4  C4  BNZ d   1       1.161  -1.506  -0.242  0.00  0.00     0.000 A 
ATOM      5  C5  BNZ d   1       0.778  -2.671   0.391  0.00  0.00     0.000 A 
ATOM      6  C6  BNZ d   1       0.031  -2.613   1.546  0.00  0.00     0.000 A 
ENDROOT
TORSDOF 0
ENDMDL
