MODEL 1
REMARK minimizedAffinity -2.68672609
REMARK minimizedRMSD -1
REMARK  0 active torsions:
REMARK  status: ('A' for Active; 'I' for Inactive)
ROOT
ATOM      1  C1  BNZ d   1       0.104  -2.404   0.852  0.00  0.00     0.000 A 
ATOM      2  C2  BNZ d   1       1.113  -1.855   0.106  0.00  0.00     0.000 A 
ATOM      3  C3  BNZ d   1       1.182  -0.505  -0.092  0.00  0.00     0.000 A 
ATOM      4  C4  BNZ d   1       0.222   0.291   0.422  0.00  0.00     0.000 A 
ATOM      5  C5  BNZ d   1      -0.807  -0.248   1.168  0.00  0.00     0.000 A 
ATOM      6  C6  BNZ d   1      -0.852  -1.604   1.398  0.00  0.00     0.000 A 
ENDROOT
TORSDOF 0
ENDMDL
