MODEL 1
REMARK minimizedAffinity -2.70258617
REMARK minimizedRMSD -1
REMARK  0 active torsions:
REMARK  status: ('A' for Active; 'I' for Inactive)
ROOT
ATOM      1  C1  BNZ d   1       0.937   1.515  -4.257  0.00  0.00     0.000 A 
ATOM      2  C2  BNZ d   1      -0.062   2.197  -3.615  0.00  0.00     0.000 A 
ATOM      3  C3  BNZ d   1      -0.048   2.344  -2.256  0.00  0.00     0.000 A 
ATOM      4  C4  BNZ d   1       0.943   1.776  -1.538  0.00  0.00     0.000 A 
ATOM      5  C5  BNZ d   1       1.952   1.078  -2.170  0.00  0.00     0.000 A 
ATOM      6  C6  BNZ d   1       1.955   0.965  -3.542  0.00  0.00     0.000 A 
ENDROOT
TORSDOF 0
ENDMDL
