MODEL 1
REMARK minimizedAffinity -4.5026865
REMARK minimizedRMSD -1
REMARK  0 active torsions:
REMARK  status: ('A' for Active; 'I' for Inactive)
ROOT
ATOM      1  C1  BNZ d   1      -1.697   0.392   1.411  0.00  0.00     0.000 A 
ATOM      2  C2  BNZ d   1      -0.671  -0.237   0.758  0.00  0.00     0.000 A 
ATOM      3  C3  BNZ d   1      -0.470  -1.581   0.901  0.00  0.00     0.000 A 
ATOM      4  C4  BNZ d   1      -1.269  -2.287   1.727  0.00  0.00     0.000 A 
ATOM      5  C5  BNZ d   1      -2.302  -1.665   2.400  0.00  0.00     0.000 A 
ATOM      6  C6  BNZ d   1      -2.526  -0.319   2.223  0.00  0.00     0.000 A 
ENDROOT
TORSDOF 0
ENDMDL
