MODEL 1
REMARK minimizedAffinity -2.10692859
REMARK minimizedRMSD -1
REMARK  0 active torsions:
REMARK  status: ('A' for Active; 'I' for Inactive)
ROOT
ATOM      1  C1  BNZ d   1      -0.863   0.684   0.678  0.00  0.00     0.000 A 
ATOM      2  C2  BNZ d   1      -0.646  -0.629   1.004  0.00  0.00     0.000 A 
ATOM      3  C3  BNZ d   1       0.489  -1.272   0.598  0.00  0.00     0.000 A 
ATOM      4  C4  BNZ d   1       1.387  -0.616  -0.165  0.00  0.00     0.000 A 
ATOM      5  C5  BNZ d   1       1.178   0.705  -0.510  0.00  0.00     0.000 A 
ATOM      6  C6  BNZ d   1       0.053   1.361  -0.067  0.00  0.00     0.000 A 
ENDROOT
TORSDOF 0
ENDMDL
