MODEL 1
REMARK minimizedAffinity -2.85941195
REMARK minimizedRMSD -1
REMARK  0 active torsions:
REMARK  status: ('A' for Active; 'I' for Inactive)
ROOT
ATOM      1  C1  BNZ d   1       0.356   2.696  -4.119  0.00  0.00     0.000 A 
ATOM      2  C2  BNZ d   1       0.158   1.348  -3.981  0.00  0.00     0.000 A 
ATOM      3  C3  BNZ d   1       0.540   0.698  -2.841  0.00  0.00     0.000 A 
ATOM      4  C4  BNZ d   1       1.154   1.389  -1.858  0.00  0.00     0.000 A 
ATOM      5  C5  BNZ d   1       1.368   2.746  -1.986  0.00  0.00     0.000 A 
ATOM      6  C6  BNZ d   1       0.948   3.404  -3.119  0.00  0.00     0.000 A 
ENDROOT
TORSDOF 0
ENDMDL
