MODEL 1
REMARK minimizedAffinity -1.94965243
REMARK minimizedRMSD -1
REMARK  0 active torsions:
REMARK  status: ('A' for Active; 'I' for Inactive)
ROOT
ATOM      1  C1  BNZ d   1       2.685   1.515  -3.350  0.00  0.00     0.000 A 
ATOM      2  C2  BNZ d   1       1.548   1.677  -4.097  0.00  0.00     0.000 A 
ATOM      3  C3  BNZ d   1       0.372   2.053  -3.509  0.00  0.00     0.000 A 
ATOM      4  C4  BNZ d   1       0.325   2.227  -2.173  0.00  0.00     0.000 A 
ATOM      5  C5  BNZ d   1       1.460   2.058  -1.405  0.00  0.00     0.000 A 
ATOM      6  C6  BNZ d   1       2.651   1.718  -2.005  0.00  0.00     0.000 A 
ENDROOT
TORSDOF 0
ENDMDL
