MODEL 1
REMARK minimizedAffinity -2.25080848
REMARK minimizedRMSD -1
REMARK  0 active torsions:
REMARK  status: ('A' for Active; 'I' for Inactive)
ROOT
ATOM      1  C1  BNZ d   1       2.457   2.032  -3.192  0.00  0.00     0.000 A 
ATOM      2  C2  BNZ d   1       2.746   1.927  -1.858  0.00  0.00     0.000 A 
ATOM      3  C3  BNZ d   1       1.747   1.850  -0.929  0.00  0.00     0.000 A 
ATOM      4  C4  BNZ d   1       0.461   1.919  -1.331  0.00  0.00     0.000 A 
ATOM      5  C5  BNZ d   1       0.153   2.034  -2.672  0.00  0.00     0.000 A 
ATOM      6  C6  BNZ d   1       1.162   2.072  -3.607  0.00  0.00     0.000 A 
ENDROOT
TORSDOF 0
ENDMDL
