MODEL 1
REMARK minimizedAffinity -3.51003885
REMARK minimizedRMSD -1
REMARK  0 active torsions:
REMARK  status: ('A' for Active; 'I' for Inactive)
ROOT
ATOM      1  C1  BNZ d   1      -0.271   0.141   0.126  0.00  0.00     0.000 A 
ATOM      2  C2  BNZ d   1      -0.985  -0.434   1.144  0.00  0.00     0.000 A 
ATOM      3  C3  BNZ d   1      -0.905  -1.778   1.382  0.00  0.00     0.000 A 
ATOM      4  C4  BNZ d   1      -0.146  -2.550   0.578  0.00  0.00     0.000 A 
ATOM      5  C5  BNZ d   1       0.572  -1.986  -0.458  0.00  0.00     0.000 A 
ATOM      6  C6  BNZ d   1       0.521  -0.627  -0.670  0.00  0.00     0.000 A 
ENDROOT
TORSDOF 0
ENDMDL
