MODEL 1
REMARK minimizedAffinity -3.95659757
REMARK minimizedRMSD -1
REMARK  0 active torsions:
REMARK  status: ('A' for Active; 'I' for Inactive)
ROOT
ATOM      1  C1  BNZ d   1       0.192   3.030  -1.994  0.00  0.00     0.000 A 
ATOM      2  C2  BNZ d   1      -0.181   2.599  -3.239  0.00  0.00     0.000 A 
ATOM      3  C3  BNZ d   1       0.473   1.564  -3.847  0.00  0.00     0.000 A 
ATOM      4  C4  BNZ d   1       1.523   0.989  -3.227  0.00  0.00     0.000 A 
ATOM      5  C5  BNZ d   1       1.918   1.418  -1.976  0.00  0.00     0.000 A 
ATOM      6  C6  BNZ d   1       1.232   2.434  -1.350  0.00  0.00     0.000 A 
ENDROOT
TORSDOF 0
ENDMDL
