MODEL 1
REMARK minimizedAffinity -3.91877174
REMARK minimizedRMSD -1
REMARK  0 active torsions:
REMARK  status: ('A' for Active; 'I' for Inactive)
ROOT
ATOM      1  C1  BNZ d   1       1.756   2.552  -1.849  0.00  0.00     0.000 A 
ATOM      2  C2  BNZ d   1       0.623   2.659  -2.612  0.00  0.00     0.000 A 
ATOM      3  C3  BNZ d   1       0.482   1.930  -3.760  0.00  0.00     0.000 A 
ATOM      4  C4  BNZ d   1       1.487   1.128  -4.164  0.00  0.00     0.000 A 
ATOM      5  C5  BNZ d   1       2.639   1.017  -3.411  0.00  0.00     0.000 A 
ATOM      6  C6  BNZ d   1       2.762   1.722  -2.235  0.00  0.00     0.000 A 
ENDROOT
TORSDOF 0
ENDMDL
