MODEL 1
REMARK minimizedAffinity -3.53877497
REMARK minimizedRMSD -1
REMARK  0 active torsions:
REMARK  status: ('A' for Active; 'I' for Inactive)
ROOT
ATOM      1  C1  BNZ d   1       0.013  -1.612   0.858  0.00  0.00     0.000 A 
ATOM      2  C2  BNZ d   1       0.939  -0.837   0.212  0.00  0.00     0.000 A 
ATOM      3  C3  BNZ d   1       0.741   0.506   0.054  0.00  0.00     0.000 A 
ATOM      4  C4  BNZ d   1      -0.400   1.065   0.507  0.00  0.00     0.000 A 
ATOM      5  C5  BNZ d   1      -1.348   0.296   1.152  0.00  0.00     0.000 A 
ATOM      6  C6  BNZ d   1      -1.127  -1.049   1.343  0.00  0.00     0.000 A 
ENDROOT
TORSDOF 0
ENDMDL
