MODEL 1
REMARK minimizedAffinity -0.931962669
REMARK minimizedRMSD -1
REMARK  1 active torsions:
REMARK  status: ('A' for Active; 'I' for Inactive)
REMARK    1  A    between atoms: C1_2  and  C2_3 
ROOT
ATOM      1  C2  UNL d   1      -0.567   0.037   0.483  0.00  0.00    -0.073 A 
ATOM      2  C3  UNL d   1      -0.124  -0.369  -0.781  0.00  0.00    -0.002 A 
ATOM      3  C4  UNL d   1       0.826   0.386  -1.470  0.00  0.00     0.004 A 
ATOM      4  C5  UNL d   1       1.347   1.548  -0.902  0.00  0.00    -0.004 A 
ATOM      5  C6  UNL d   1       0.925   1.964   0.365  0.00  0.00    -0.075 A 
ATOM      6  C7  UNL d   1       1.474   3.213   0.990  0.00  0.00     0.076 C 
ATOM      7  C8  UNL d   1      -0.031   1.202   1.051  0.00  0.00     0.001 A 
ENDROOT
BRANCH   1   8
ATOM      8  C1  UNL d   1      -1.588  -0.778   1.235  0.00  0.00     0.053 C 
ATOM      9  C   UNL d   1      -2.274   0.031   2.324  0.00  0.00     0.018 C 
ENDBRANCH   1   8
TORSDOF 1
ENDMDL
