MODEL 1
REMARK minimizedAffinity 16.2386341
REMARK minimizedRMSD -1
REMARK  1 active torsions:
REMARK  status: ('A' for Active; 'I' for Inactive)
REMARK    1  A    between atoms: C1_2  and  C2_3 
ROOT
ATOM      1  C2  UNL d   1      -0.616   0.467   1.016  0.00  0.00    -0.073 A 
ATOM      2  C3  UNL d   1       0.361  -0.535   1.044  0.00  0.00    -0.002 A 
ATOM      3  C4  UNL d   1       1.400  -0.534   0.112  0.00  0.00     0.004 A 
ATOM      4  C5  UNL d   1       1.477   0.472  -0.851  0.00  0.00    -0.004 A 
ATOM      5  C6  UNL d   1       0.518   1.489  -0.888  0.00  0.00    -0.075 A 
ATOM      6  C7  UNL d   1       0.586   2.577  -1.919  0.00  0.00     0.076 C 
ATOM      7  C8  UNL d   1      -0.524   1.479   0.049  0.00  0.00     0.001 A 
ENDROOT
BRANCH   1   8
ATOM      8  C1  UNL d   1      -1.736   0.474   2.024  0.00  0.00     0.053 C 
ATOM      9  C   UNL d   1      -2.503  -0.839   2.032  0.00  0.00     0.018 C 
ENDBRANCH   1   8
TORSDOF 1
ENDMDL
