MODEL 1
REMARK minimizedAffinity 6.77194405
REMARK minimizedRMSD -1
REMARK  1 active torsions:
REMARK  status: ('A' for Active; 'I' for Inactive)
REMARK    1  A    between atoms: C1_2  and  C2_3 
ROOT
ATOM      1  C2  UNL d   1      -1.272   4.898  -3.383  0.00  0.00    -0.073 A 
ATOM      2  C3  UNL d   1      -1.096   5.253  -2.040  0.00  0.00    -0.002 A 
ATOM      3  C4  UNL d   1      -1.634   4.461  -1.025  0.00  0.00     0.004 A 
ATOM      4  C5  UNL d   1      -2.346   3.303  -1.341  0.00  0.00    -0.004 A 
ATOM      5  C6  UNL d   1      -2.522   2.925  -2.676  0.00  0.00    -0.075 A 
ATOM      6  C7  UNL d   1      -3.287   1.685  -3.032  0.00  0.00     0.076 C 
ATOM      7  C8  UNL d   1      -1.981   3.728  -3.690  0.00  0.00     0.001 A 
ENDROOT
BRANCH   1   8
ATOM      8  C1  UNL d   1      -0.687   5.747  -4.482  0.00  0.00     0.053 C 
ATOM      9  C   UNL d   1       0.833   5.707  -4.486  0.00  0.00     0.018 C 
ENDBRANCH   1   8
TORSDOF 1
ENDMDL
