MODEL 1
REMARK minimizedAffinity 15.6422853
REMARK minimizedRMSD -1
REMARK  1 active torsions:
REMARK  status: ('A' for Active; 'I' for Inactive)
REMARK    1  A    between atoms: C1_2  and  C2_3 
ROOT
ATOM      1  C2  UNL d   1       3.658   0.572  -0.186  0.00  0.00    -0.073 A 
ATOM      2  C3  UNL d   1       3.291   1.308  -1.318  0.00  0.00    -0.002 A 
ATOM      3  C4  UNL d   1       1.961   1.679  -1.516  0.00  0.00     0.004 A 
ATOM      4  C5  UNL d   1       0.986   1.324  -0.584  0.00  0.00    -0.004 A 
ATOM      5  C6  UNL d   1       1.335   0.599   0.560  0.00  0.00    -0.075 A 
ATOM      6  C7  UNL d   1       0.299   0.207   1.572  0.00  0.00     0.076 C 
ATOM      7  C8  UNL d   1       2.673   0.228   0.751  0.00  0.00     0.001 A 
ENDROOT
BRANCH   1   8
ATOM      8  C1  UNL d   1       5.095   0.175   0.037  0.00  0.00     0.053 C 
ATOM      9  C   UNL d   1       6.000   1.383   0.215  0.00  0.00     0.018 C 
ENDBRANCH   1   8
TORSDOF 1
ENDMDL
