MODEL 1
REMARK minimizedAffinity 2.21915889
REMARK minimizedRMSD -1
REMARK  1 active torsions:
REMARK  status: ('A' for Active; 'I' for Inactive)
REMARK    1  A    between atoms: C1_2  and  C2_3 
ROOT
ATOM      1  C2  UNL d   1       0.009  -1.158   0.589  0.00  0.00    -0.073 A 
ATOM      2  C3  UNL d   1      -0.252  -2.429   0.066  0.00  0.00    -0.002 A 
ATOM      3  C4  UNL d   1      -1.299  -3.199   0.573  0.00  0.00     0.004 A 
ATOM      4  C5  UNL d   1      -2.101  -2.703   1.601  0.00  0.00    -0.004 A 
ATOM      5  C6  UNL d   1      -1.864  -1.430   2.129  0.00  0.00    -0.075 A 
ATOM      6  C7  UNL d   1      -2.715  -0.883   3.237  0.00  0.00     0.076 C 
ATOM      7  C8  UNL d   1      -0.808  -0.664   1.616  0.00  0.00     0.001 A 
ENDROOT
BRANCH   1   8
ATOM      8  C1  UNL d   1       1.135  -0.320   0.040  0.00  0.00     0.053 C 
ATOM      9  C   UNL d   1       1.323   0.968   0.825  0.00  0.00     0.018 C 
ENDBRANCH   1   8
TORSDOF 1
ENDMDL
