MODEL 1
REMARK minimizedAffinity 9.77574062
REMARK minimizedRMSD -1
REMARK  1 active torsions:
REMARK  status: ('A' for Active; 'I' for Inactive)
REMARK    1  A    between atoms: C1_2  and  C2_3 
ROOT
ATOM      1  C2  UNL d   1       2.613   0.352   0.496  0.00  0.00    -0.073 A 
ATOM      2  C3  UNL d   1       1.599   1.059  -0.161  0.00  0.00    -0.002 A 
ATOM      3  C4  UNL d   1       0.510   1.557   0.554  0.00  0.00     0.004 A 
ATOM      4  C5  UNL d   1       0.425   1.360   1.932  0.00  0.00    -0.004 A 
ATOM      5  C6  UNL d   1       1.434   0.667   2.609  0.00  0.00    -0.075 A 
ATOM      6  C7  UNL d   1       1.357   0.444   4.091  0.00  0.00     0.076 C 
ATOM      7  C8  UNL d   1       2.524   0.167   1.883  0.00  0.00     0.001 A 
ENDROOT
BRANCH   1   8
ATOM      8  C1  UNL d   1       3.795  -0.182  -0.271  0.00  0.00     0.053 C 
ATOM      9  C   UNL d   1       5.112   0.364   0.258  0.00  0.00     0.018 C 
ENDBRANCH   1   8
TORSDOF 1
ENDMDL
