MODEL 1
REMARK minimizedAffinity 5.46356916
REMARK minimizedRMSD -1
REMARK  1 active torsions:
REMARK  status: ('A' for Active; 'I' for Inactive)
REMARK    1  A    between atoms: C1_2  and  C2_3 
ROOT
ATOM      1  C2  UNL d   1      -1.008   0.019   1.932  0.00  0.00    -0.073 A 
ATOM      2  C3  UNL d   1      -0.760  -1.145   1.196  0.00  0.00    -0.002 A 
ATOM      3  C4  UNL d   1       0.265  -1.176   0.250  0.00  0.00     0.004 A 
ATOM      4  C5  UNL d   1       1.056  -0.048   0.034  0.00  0.00    -0.004 A 
ATOM      5  C6  UNL d   1       0.831   1.122   0.767  0.00  0.00    -0.075 A 
ATOM      6  C7  UNL d   1       1.671   2.345   0.545  0.00  0.00     0.076 C 
ATOM      7  C8  UNL d   1      -0.202   1.146   1.714  0.00  0.00     0.001 A 
ENDROOT
BRANCH   1   8
ATOM      8  C1  UNL d   1      -2.109   0.056   2.959  0.00  0.00     0.053 C 
ATOM      9  C   UNL d   1      -2.275  -1.281   3.665  0.00  0.00     0.018 C 
ENDBRANCH   1   8
TORSDOF 1
ENDMDL
