MODEL 1
REMARK minimizedAffinity 1.04630578
REMARK minimizedRMSD -1
REMARK  1 active torsions:
REMARK  status: ('A' for Active; 'I' for Inactive)
REMARK    1  A    between atoms: C1_2  and  C2_3 
ROOT
ATOM      1  C2  UNL d   1       0.248   0.119   0.708  0.00  0.00    -0.073 A 
ATOM      2  C3  UNL d   1       0.852  -0.426  -0.430  0.00  0.00    -0.002 A 
ATOM      3  C4  UNL d   1       1.665   0.364  -1.244  0.00  0.00     0.004 A 
ATOM      4  C5  UNL d   1       1.888   1.704  -0.924  0.00  0.00    -0.004 A 
ATOM      5  C6  UNL d   1       1.303   2.263   0.216  0.00  0.00    -0.075 A 
ATOM      6  C7  UNL d   1       1.531   3.703   0.573  0.00  0.00     0.076 C 
ATOM      7  C8  UNL d   1       0.485   1.464   1.027  0.00  0.00     0.001 A 
ENDROOT
BRANCH   1   8
ATOM      8  C1  UNL d   1      -0.626  -0.732   1.593  0.00  0.00     0.053 C 
ATOM      9  C   UNL d   1      -1.755   0.070   2.220  0.00  0.00     0.018 C 
ENDBRANCH   1   8
TORSDOF 1
ENDMDL
