MODEL 1
REMARK minimizedAffinity 3.47512007
REMARK minimizedRMSD -1
REMARK  1 active torsions:
REMARK  status: ('A' for Active; 'I' for Inactive)
REMARK    1  A    between atoms: C1_2  and  C2_3 
ROOT
ATOM      1  C2  UNL d   1      -0.397  -0.237  -1.414  0.00  0.00    -0.073 A 
ATOM      2  C3  UNL d   1      -1.570  -0.052  -2.154  0.00  0.00    -0.002 A 
ATOM      3  C4  UNL d   1      -1.586  -0.312  -3.525  0.00  0.00     0.004 A 
ATOM      4  C5  UNL d   1      -0.435  -0.766  -4.168  0.00  0.00    -0.004 A 
ATOM      5  C6  UNL d   1       0.744  -0.969  -3.442  0.00  0.00    -0.075 A 
ATOM      6  C7  UNL d   1       1.992  -1.455  -4.119  0.00  0.00     0.076 C 
ATOM      7  C8  UNL d   1       0.754  -0.703  -2.067  0.00  0.00     0.001 A 
ENDROOT
BRANCH   1   8
ATOM      8  C1  UNL d   1      -0.376   0.036   0.068  0.00  0.00     0.053 C 
ATOM      9  C   UNL d   1       0.922   0.694   0.508  0.00  0.00     0.018 C 
ENDBRANCH   1   8
TORSDOF 1
ENDMDL
