MODEL 1
REMARK minimizedAffinity 7.78388214
REMARK minimizedRMSD -1
REMARK  1 active torsions:
REMARK  status: ('A' for Active; 'I' for Inactive)
REMARK    1  A    between atoms: C1_2  and  C2_3 
ROOT
ATOM      1  C2  UNL d   1       0.072   1.240   2.305  0.00  0.00    -0.073 A 
ATOM      2  C3  UNL d   1       1.375   1.265   1.796  0.00  0.00    -0.002 A 
ATOM      3  C4  UNL d   1       1.640   0.778   0.515  0.00  0.00     0.004 A 
ATOM      4  C5  UNL d   1       0.607   0.268  -0.270  0.00  0.00    -0.004 A 
ATOM      5  C6  UNL d   1      -0.704   0.246   0.217  0.00  0.00    -0.075 A 
ATOM      6  C7  UNL d   1      -1.827  -0.302  -0.615  0.00  0.00     0.076 C 
ATOM      7  C8  UNL d   1      -0.962   0.734   1.505  0.00  0.00     0.001 A 
ENDROOT
BRANCH   1   8
ATOM      8  C1  UNL d   1      -0.221   1.771   3.685  0.00  0.00     0.053 C 
ATOM      9  C   UNL d   1       0.599   1.065   4.753  0.00  0.00     0.018 C 
ENDBRANCH   1   8
TORSDOF 1
ENDMDL
