MODEL 1
REMARK minimizedAffinity -1.26553977
REMARK minimizedRMSD -1
REMARK  0 active torsions:
REMARK  status: ('A' for Active; 'I' for Inactive)
ROOT
ATOM      1  C   UNL d   1       2.402  -1.459  -2.832  0.00  0.00    -0.002 A 
ATOM      2  C1  UNL d   1       2.071  -0.258  -3.444  0.00  0.00     0.010 A 
ATOM      3  C2  UNL d   1       1.210   0.644  -2.817  0.00  0.00     0.041 A 
ATOM      4  C3  UNL d   1       0.684   0.318  -1.552  0.00  0.00    -0.075 A 
ATOM      5  S   UNL d   1      -0.389   1.270  -0.595  0.00  0.00     0.015 SA
ATOM      6  C4  UNL d   1      -0.432   0.105   0.649  0.00  0.00     0.022 A 
ATOM      7  C5  UNL d   1       0.347  -0.989   0.358  0.00  0.00     0.026 A 
ATOM      8  C6  UNL d   1       1.004  -0.885  -0.915  0.00  0.00    -0.082 A 
ATOM      9  C7  UNL d   1       1.879  -1.779  -1.577  0.00  0.00     0.045 A 
ENDROOT
TORSDOF 0
ENDMDL
