MODEL 1
REMARK minimizedAffinity -2.29741597
REMARK minimizedRMSD -1
REMARK  0 active torsions:
REMARK  status: ('A' for Active; 'I' for Inactive)
ROOT
ATOM      1  C   UNL d   1       1.929  -1.626  -0.237  0.00  0.00    -0.002 A 
ATOM      2  C1  UNL d   1       1.800  -0.799  -1.344  0.00  0.00     0.010 A 
ATOM      3  C2  UNL d   1       0.761   0.131  -1.418  0.00  0.00     0.041 A 
ATOM      4  C3  UNL d   1      -0.152   0.219  -0.349  0.00  0.00    -0.075 A 
ATOM      5  S   UNL d   1      -1.502   1.285  -0.219  0.00  0.00     0.015 SA
ATOM      6  C4  UNL d   1      -1.937   0.668   1.309  0.00  0.00     0.022 A 
ATOM      7  C5  UNL d   1      -1.085  -0.328   1.725  0.00  0.00     0.026 A 
ATOM      8  C6  UNL d   1      -0.042  -0.602   0.777  0.00  0.00    -0.082 A 
ATOM      9  C7  UNL d   1       1.021  -1.536   0.821  0.00  0.00     0.045 A 
ENDROOT
TORSDOF 0
ENDMDL
