MODEL 1
REMARK minimizedAffinity -3.82641339
REMARK minimizedRMSD -1
REMARK  0 active torsions:
REMARK  status: ('A' for Active; 'I' for Inactive)
ROOT
ATOM      1  C   UNL d   1       2.442   0.838  -3.072  0.00  0.00    -0.002 A 
ATOM      2  C1  UNL d   1       1.510   1.817  -2.758  0.00  0.00     0.010 A 
ATOM      3  C2  UNL d   1       0.578   1.610  -1.740  0.00  0.00     0.041 A 
ATOM      4  C3  UNL d   1       0.599   0.391  -1.034  0.00  0.00    -0.075 A 
ATOM      5  S   UNL d   1      -0.445  -0.083   0.253  0.00  0.00     0.015 SA
ATOM      6  C4  UNL d   1       0.321  -1.597   0.417  0.00  0.00     0.022 A 
ATOM      7  C5  UNL d   1       1.351  -1.753  -0.480  0.00  0.00     0.026 A 
ATOM      8  C6  UNL d   1       1.529  -0.610  -1.331  0.00  0.00    -0.082 A 
ATOM      9  C7  UNL d   1       2.460  -0.370  -2.370  0.00  0.00     0.045 A 
ENDROOT
TORSDOF 0
ENDMDL
