MODEL 1
REMARK minimizedAffinity 1.68202364
REMARK minimizedRMSD -1
REMARK  0 active torsions:
REMARK  status: ('A' for Active; 'I' for Inactive)
ROOT
ATOM      1  C   UNL d   1       1.632  -1.969  -0.460  0.00  0.00    -0.002 A 
ATOM      2  C1  UNL d   1       1.857  -0.950  -1.374  0.00  0.00     0.010 A 
ATOM      3  C2  UNL d   1       1.018   0.165  -1.417  0.00  0.00     0.041 A 
ATOM      4  C3  UNL d   1      -0.061   0.240  -0.514  0.00  0.00    -0.075 A 
ATOM      5  S   UNL d   1      -1.219   1.511  -0.382  0.00  0.00     0.015 SA
ATOM      6  C4  UNL d   1      -2.039   0.731   0.893  0.00  0.00     0.022 A 
ATOM      7  C5  UNL d   1      -1.458  -0.470   1.222  0.00  0.00     0.026 A 
ATOM      8  C6  UNL d   1      -0.308  -0.773   0.417  0.00  0.00    -0.082 A 
ATOM      9  C7  UNL d   1       0.561  -1.891   0.435  0.00  0.00     0.045 A 
ENDROOT
TORSDOF 0
ENDMDL
