MODEL 1
REMARK minimizedAffinity -3.0844965
REMARK minimizedRMSD -1
REMARK  0 active torsions:
REMARK  status: ('A' for Active; 'I' for Inactive)
ROOT
ATOM      1  C   UNL d   1       2.425  -1.727  -0.013  0.00  0.00    -0.002 A 
ATOM      2  C1  UNL d   1       1.600  -2.046  -1.082  0.00  0.00     0.010 A 
ATOM      3  C2  UNL d   1       0.312  -1.513  -1.169  0.00  0.00     0.041 A 
ATOM      4  C3  UNL d   1      -0.136  -0.644  -0.155  0.00  0.00    -0.075 A 
ATOM      5  S   UNL d   1      -1.674   0.129  -0.053  0.00  0.00     0.015 SA
ATOM      6  C4  UNL d   1      -1.272   0.901   1.412  0.00  0.00     0.022 A 
ATOM      7  C5  UNL d   1       0.001   0.588   1.828  0.00  0.00     0.026 A 
ATOM      8  C6  UNL d   1       0.677  -0.307   0.931  0.00  0.00    -0.082 A 
ATOM      9  C7  UNL d   1       1.976  -0.865   0.992  0.00  0.00     0.045 A 
ENDROOT
TORSDOF 0
ENDMDL
