MODEL 1
REMARK minimizedAffinity -2.95678687
REMARK minimizedRMSD -1
REMARK  0 active torsions:
REMARK  status: ('A' for Active; 'I' for Inactive)
ROOT
ATOM      1  C   UNL d   1       2.688  -0.631  -2.285  0.00  0.00    -0.002 A 
ATOM      2  C1  UNL d   1       2.283   0.571  -2.849  0.00  0.00     0.010 A 
ATOM      3  C2  UNL d   1       1.190   1.267  -2.329  0.00  0.00     0.041 A 
ATOM      4  C3  UNL d   1       0.506   0.732  -1.220  0.00  0.00    -0.075 A 
ATOM      5  S   UNL d   1      -0.859   1.410  -0.414  0.00  0.00     0.015 SA
ATOM      6  C4  UNL d   1      -0.936   0.121   0.699  0.00  0.00     0.022 A 
ATOM      7  C5  UNL d   1       0.047  -0.813   0.475  0.00  0.00     0.026 A 
ATOM      8  C6  UNL d   1       0.895  -0.476  -0.634  0.00  0.00    -0.082 A 
ATOM      9  C7  UNL d   1       2.006  -1.159  -1.185  0.00  0.00     0.045 A 
ENDROOT
TORSDOF 0
ENDMDL
