MODEL 1
REMARK minimizedAffinity 2.140486
REMARK minimizedRMSD -1
REMARK  0 active torsions:
REMARK  status: ('A' for Active; 'I' for Inactive)
ROOT
ATOM      1  C   UNL d   1       1.960  -1.606  -0.952  0.00  0.00    -0.002 A 
ATOM      2  C1  UNL d   1       1.948  -0.580  -1.887  0.00  0.00     0.010 A 
ATOM      3  C2  UNL d   1       0.973   0.418  -1.834  0.00  0.00     0.041 A 
ATOM      4  C3  UNL d   1       0.000   0.368  -0.816  0.00  0.00    -0.075 A 
ATOM      5  S   UNL d   1      -1.290   1.481  -0.554  0.00  0.00     0.015 SA
ATOM      6  C4  UNL d   1      -1.855   0.622   0.804  0.00  0.00     0.022 A 
ATOM      7  C5  UNL d   1      -1.091  -0.490   1.066  0.00  0.00     0.026 A 
ATOM      8  C6  UNL d   1      -0.008  -0.655   0.137  0.00  0.00    -0.082 A 
ATOM      9  C7  UNL d   1       0.994  -1.652   0.057  0.00  0.00     0.045 A 
ENDROOT
TORSDOF 0
ENDMDL
