MODEL 1
REMARK minimizedAffinity -3.0524261
REMARK minimizedRMSD -1
REMARK  0 active torsions:
REMARK  status: ('A' for Active; 'I' for Inactive)
ROOT
ATOM      1  C   UNL d   1      -0.303  -0.496  -0.381  0.00  0.00    -0.002 A 
ATOM      2  C1  UNL d   1       0.505  -1.061   0.596  0.00  0.00     0.010 A 
ATOM      3  C2  UNL d   1       0.357  -0.699   1.937  0.00  0.00     0.041 A 
ATOM      4  C3  UNL d   1      -0.627   0.248   2.282  0.00  0.00    -0.075 A 
ATOM      5  S   UNL d   1      -0.989   0.843   3.860  0.00  0.00     0.015 SA
ATOM      6  C4  UNL d   1      -2.225   1.859   3.274  0.00  0.00     0.022 A 
ATOM      7  C5  UNL d   1      -2.372   1.761   1.911  0.00  0.00     0.026 A 
ATOM      8  C6  UNL d   1      -1.453   0.830   1.317  0.00  0.00    -0.082 A 
ATOM      9  C7  UNL d   1      -1.278   0.443  -0.034  0.00  0.00     0.045 A 
ENDROOT
TORSDOF 0
ENDMDL
