MODEL 1
REMARK minimizedAffinity -3.77876592
REMARK minimizedRMSD -1
REMARK  0 active torsions:
REMARK  status: ('A' for Active; 'I' for Inactive)
ROOT
ATOM      1  C   UNL d   1       2.151   0.811  -3.454  0.00  0.00    -0.002 A 
ATOM      2  C1  UNL d   1       1.471   1.897  -2.920  0.00  0.00     0.010 A 
ATOM      3  C2  UNL d   1       0.888   1.817  -1.654  0.00  0.00     0.041 A 
ATOM      4  C3  UNL d   1       1.003   0.616  -0.925  0.00  0.00    -0.075 A 
ATOM      5  S   UNL d   1       0.370   0.288   0.645  0.00  0.00     0.015 SA
ATOM      6  C4  UNL d   1       0.988  -1.300   0.644  0.00  0.00     0.022 A 
ATOM      7  C5  UNL d   1       1.663  -1.590  -0.518  0.00  0.00     0.026 A 
ATOM      8  C6  UNL d   1       1.683  -0.490  -1.442  0.00  0.00    -0.082 A 
ATOM      9  C7  UNL d   1       2.262  -0.378  -2.729  0.00  0.00     0.045 A 
ENDROOT
TORSDOF 0
ENDMDL
