MODEL 1
REMARK minimizedAffinity -2.62137699
REMARK minimizedRMSD -1
REMARK  0 active torsions:
REMARK  status: ('A' for Active; 'I' for Inactive)
ROOT
ATOM      1  C   UNL d   1       1.762   0.739  -3.110  0.00  0.00    -0.002 A 
ATOM      2  C1  UNL d   1       0.859   1.741  -2.785  0.00  0.00     0.010 A 
ATOM      3  C2  UNL d   1       0.044   1.624  -1.658  0.00  0.00     0.041 A 
ATOM      4  C3  UNL d   1       0.154   0.473  -0.853  0.00  0.00    -0.075 A 
ATOM      5  S   UNL d   1      -0.741   0.114   0.576  0.00  0.00     0.015 SA
ATOM      6  C4  UNL d   1       0.055  -1.377   0.790  0.00  0.00     0.022 A 
ATOM      7  C5  UNL d   1       0.984  -1.612  -0.196  0.00  0.00     0.026 A 
ATOM      8  C6  UNL d   1       1.057  -0.549  -1.159  0.00  0.00    -0.082 A 
ATOM      9  C7  UNL d   1       1.868  -0.402  -2.310  0.00  0.00     0.045 A 
ENDROOT
TORSDOF 0
ENDMDL
