MODEL 1
REMARK minimizedAffinity -1.75162435
REMARK minimizedRMSD -1
REMARK  0 active torsions:
REMARK  status: ('A' for Active; 'I' for Inactive)
ROOT
ATOM      1  C   UNL d   1      -1.226   0.399   3.607  0.00  0.00    -0.002 A 
ATOM      2  C1  UNL d   1      -1.797   1.503   2.991  0.00  0.00     0.010 A 
ATOM      3  C2  UNL d   1      -1.531   1.785   1.650  0.00  0.00     0.041 A 
ATOM      4  C3  UNL d   1      -0.673   0.929   0.931  0.00  0.00    -0.075 A 
ATOM      5  S   UNL d   1      -0.204   1.077  -0.722  0.00  0.00     0.015 SA
ATOM      6  C4  UNL d   1       0.766  -0.323  -0.649  0.00  0.00     0.022 A 
ATOM      7  C5  UNL d   1       0.744  -0.901   0.598  0.00  0.00     0.026 A 
ATOM      8  C6  UNL d   1      -0.086  -0.189   1.529  0.00  0.00    -0.082 A 
ATOM      9  C7  UNL d   1      -0.376  -0.448   2.891  0.00  0.00     0.045 A 
ENDROOT
TORSDOF 0
ENDMDL
