MODEL 1
REMARK minimizedAffinity -1.4727726
REMARK minimizedRMSD -1
REMARK  0 active torsions:
REMARK  status: ('A' for Active; 'I' for Inactive)
ROOT
ATOM      1  C   UNL d   1      -0.867  -0.010  -0.765  0.00  0.00    -0.002 A 
ATOM      2  C1  UNL d   1       0.325  -0.108  -0.062  0.00  0.00     0.010 A 
ATOM      3  C2  UNL d   1       0.351   0.075   1.322  0.00  0.00     0.041 A 
ATOM      4  C3  UNL d   1      -0.853   0.360   1.994  0.00  0.00    -0.075 A 
ATOM      5  S   UNL d   1      -1.063   0.622   3.686  0.00  0.00     0.015 SA
ATOM      6  C4  UNL d   1      -2.740   0.870   3.515  0.00  0.00     0.022 A 
ATOM      7  C5  UNL d   1      -3.147   0.760   2.207  0.00  0.00     0.026 A 
ATOM      8  C6  UNL d   1      -2.067   0.463   1.309  0.00  0.00    -0.082 A 
ATOM      9  C7  UNL d   1      -2.060   0.273  -0.094  0.00  0.00     0.045 A 
ENDROOT
TORSDOF 0
ENDMDL
