MODEL 1
REMARK minimizedAffinity -3.96371984
REMARK minimizedRMSD -1
REMARK  0 active torsions:
REMARK  status: ('A' for Active; 'I' for Inactive)
ROOT
ATOM      1  C   UNL d   1       2.081   0.362  -2.915  0.00  0.00    -0.002 A 
ATOM      2  C1  UNL d   1       1.176   1.414  -2.930  0.00  0.00     0.010 A 
ATOM      3  C2  UNL d   1       0.092   1.431  -2.051  0.00  0.00     0.041 A 
ATOM      4  C3  UNL d   1      -0.068   0.364  -1.145  0.00  0.00    -0.075 A 
ATOM      5  S   UNL d   1      -1.319   0.172   0.025  0.00  0.00     0.015 SA
ATOM      6  C4  UNL d   1      -0.682  -1.310   0.573  0.00  0.00     0.022 A 
ATOM      7  C5  UNL d   1       0.458  -1.665  -0.109  0.00  0.00     0.026 A 
ATOM      8  C6  UNL d   1       0.831  -0.706  -1.110  0.00  0.00    -0.082 A 
ATOM      9  C7  UNL d   1       1.919  -0.695  -2.016  0.00  0.00     0.045 A 
ENDROOT
TORSDOF 0
ENDMDL
