MODEL 1
REMARK minimizedAffinity -1.44835365
REMARK minimizedRMSD -1
REMARK  0 active torsions:
REMARK  status: ('A' for Active; 'I' for Inactive)
ROOT
ATOM      1  C   UNL d   1       2.232   0.689  -3.138  0.00  0.00    -0.002 A 
ATOM      2  C1  UNL d   1       1.231   1.625  -2.919  0.00  0.00     0.010 A 
ATOM      3  C2  UNL d   1       0.392   1.520  -1.808  0.00  0.00     0.041 A 
ATOM      4  C3  UNL d   1       0.579   0.449  -0.911  0.00  0.00    -0.075 A 
ATOM      5  S   UNL d   1      -0.328   0.120   0.518  0.00  0.00     0.015 SA
ATOM      6  C4  UNL d   1       0.592  -1.271   0.871  0.00  0.00     0.022 A 
ATOM      7  C5  UNL d   1       1.572  -1.493  -0.068  0.00  0.00     0.026 A 
ATOM      8  C6  UNL d   1       1.580  -0.505  -1.110  0.00  0.00    -0.082 A 
ATOM      9  C7  UNL d   1       2.414  -0.371  -2.247  0.00  0.00     0.045 A 
ENDROOT
TORSDOF 0
ENDMDL
