MODEL 1
REMARK minimizedAffinity -0.08079236
REMARK minimizedRMSD -1
REMARK  0 active torsions:
REMARK  status: ('A' for Active; 'I' for Inactive)
ROOT
ATOM      1  C   UNL d   1      -3.089   0.262   3.107  0.00  0.00    -0.002 A 
ATOM      2  C1  UNL d   1      -2.207   1.191   3.639  0.00  0.00     0.010 A 
ATOM      3  C2  UNL d   1      -1.103   1.625   2.902  0.00  0.00     0.041 A 
ATOM      4  C3  UNL d   1      -0.900   1.105   1.609  0.00  0.00    -0.075 A 
ATOM      5  S   UNL d   1       0.382   1.492   0.523  0.00  0.00     0.015 SA
ATOM      6  C4  UNL d   1      -0.212   0.432  -0.673  0.00  0.00     0.022 A 
ATOM      7  C5  UNL d   1      -1.359  -0.209  -0.271  0.00  0.00     0.026 A 
ATOM      8  C6  UNL d   1      -1.775   0.169   1.051  0.00  0.00    -0.082 A 
ATOM      9  C7  UNL d   1      -2.885  -0.252   1.823  0.00  0.00     0.045 A 
ENDROOT
TORSDOF 0
ENDMDL
