MODEL 1
REMARK minimizedAffinity -1.32660949
REMARK minimizedRMSD -1
REMARK  0 active torsions:
REMARK  status: ('A' for Active; 'I' for Inactive)
ROOT
ATOM      1  C   UNL d   1       1.299  -2.461  -0.601  0.00  0.00    -0.002 A 
ATOM      2  C1  UNL d   1       1.542  -1.740  -1.761  0.00  0.00     0.010 A 
ATOM      3  C2  UNL d   1       0.947  -0.493  -1.960  0.00  0.00     0.041 A 
ATOM      4  C3  UNL d   1       0.096   0.023  -0.963  0.00  0.00    -0.075 A 
ATOM      5  S   UNL d   1      -0.743   1.529  -0.989  0.00  0.00     0.015 SA
ATOM      6  C4  UNL d   1      -1.443   1.251   0.540  0.00  0.00     0.022 A 
ATOM      7  C5  UNL d   1      -1.058   0.043   1.071  0.00  0.00     0.026 A 
ATOM      8  C6  UNL d   1      -0.165  -0.685   0.214  0.00  0.00    -0.082 A 
ATOM      9  C7  UNL d   1       0.454  -1.947   0.386  0.00  0.00     0.045 A 
ENDROOT
TORSDOF 0
ENDMDL
