MODEL 1
REMARK minimizedAffinity 10.2499628
REMARK minimizedRMSD -1
REMARK  0 active torsions:
REMARK  status: ('A' for Active; 'I' for Inactive)
ROOT
ATOM      1  C   UNL d   1       0.773  -4.230   1.242  0.00  0.00    -0.002 A 
ATOM      2  C1  UNL d   1      -0.272  -3.878   0.399  0.00  0.00     0.010 A 
ATOM      3  C2  UNL d   1      -0.097  -2.895  -0.577  0.00  0.00     0.041 A 
ATOM      4  C3  UNL d   1       1.158  -2.266  -0.693  0.00  0.00    -0.075 A 
ATOM      5  S   UNL d   1       1.604  -1.035  -1.815  0.00  0.00     0.015 SA
ATOM      6  C4  UNL d   1       3.192  -0.948  -1.202  0.00  0.00     0.022 A 
ATOM      7  C5  UNL d   1       3.394  -1.829  -0.166  0.00  0.00     0.026 A 
ATOM      8  C6  UNL d   1       2.226  -2.604   0.144  0.00  0.00    -0.082 A 
ATOM      9  C7  UNL d   1       2.016  -3.604   1.124  0.00  0.00     0.045 A 
ENDROOT
TORSDOF 0
ENDMDL
