MODEL 1
REMARK minimizedAffinity 1.83184576
REMARK minimizedRMSD -1
REMARK  0 active torsions:
REMARK  status: ('A' for Active; 'I' for Inactive)
ROOT
ATOM      1  C   UNL d   1      -0.440   1.568   3.092  0.00  0.00     0.172 C 
ATOM      2  N   UNL d   1      -0.174   0.279   2.497  0.00  0.00    -0.070 N 
ATOM      3  C1  UNL d   1       0.892  -0.024   1.693  0.00  0.00    -0.004 A 
ATOM      4  C2  UNL d   1       0.786  -1.350   1.333  0.00  0.00    -0.047 A 
ATOM      5  C3  UNL d   1      -0.385  -1.861   1.941  0.00  0.00    -0.047 A 
ATOM      6  C4  UNL d   1      -0.960  -0.831   2.656  0.00  0.00    -0.004 A 
ENDROOT
TORSDOF 0
ENDMDL
