MODEL 1
REMARK minimizedAffinity 1.81833661
REMARK minimizedRMSD -1
REMARK  0 active torsions:
REMARK  status: ('A' for Active; 'I' for Inactive)
ROOT
ATOM      1  C   UNL d   1       5.999   2.526   5.769  0.00  0.00     0.172 C 
ATOM      2  N   UNL d   1       5.378   3.827   5.680  0.00  0.00    -0.070 N 
ATOM      3  C1  UNL d   1       5.999   4.983   5.290  0.00  0.00    -0.004 A 
ATOM      4  C2  UNL d   1       5.069   5.999   5.339  0.00  0.00    -0.047 A 
ATOM      5  C3  UNL d   1       3.847   5.434   5.774  0.00  0.00    -0.047 A 
ATOM      6  C4  UNL d   1       4.066   4.088   5.978  0.00  0.00    -0.004 A 
ENDROOT
TORSDOF 0
ENDMDL
