MODEL 1
REMARK minimizedAffinity -1.13985288
REMARK minimizedRMSD -1
REMARK  0 active torsions:
REMARK  status: ('A' for Active; 'I' for Inactive)
ROOT
ATOM      1  C   UNL d   1       2.538   5.987   4.873  0.00  0.00     0.172 C 
ATOM      2  N   UNL d   1       3.800   5.394   5.249  0.00  0.00    -0.070 N 
ATOM      3  C1  UNL d   1       5.025   5.999   5.156  0.00  0.00    -0.004 A 
ATOM      4  C2  UNL d   1       5.971   5.106   5.612  0.00  0.00    -0.047 A 
ATOM      5  C3  UNL d   1       5.291   3.925   5.991  0.00  0.00    -0.047 A 
ATOM      6  C4  UNL d   1       3.948   4.130   5.756  0.00  0.00    -0.004 A 
ENDROOT
TORSDOF 0
ENDMDL
