MODEL 1
REMARK minimizedAffinity 3.85391974
REMARK minimizedRMSD -1
REMARK  0 active torsions:
REMARK  status: ('A' for Active; 'I' for Inactive)
ROOT
ATOM      1  C   UNL d   1       5.999  -1.978  -4.764  0.00  0.00     0.172 C 
ATOM      2  N   UNL d   1       5.457  -1.015  -3.834  0.00  0.00    -0.070 N 
ATOM      3  C1  UNL d   1       5.969   0.231  -3.586  0.00  0.00    -0.004 A 
ATOM      4  C2  UNL d   1       5.168   0.835  -2.641  0.00  0.00    -0.047 A 
ATOM      5  C3  UNL d   1       4.141  -0.080  -2.309  0.00  0.00    -0.047 A 
ATOM      6  C4  UNL d   1       4.344  -1.217  -3.062  0.00  0.00    -0.004 A 
ENDROOT
TORSDOF 0
ENDMDL
