MODEL 1
REMARK minimizedAffinity -1.92501211
REMARK minimizedRMSD -1
REMARK  0 active torsions:
REMARK  status: ('A' for Active; 'I' for Inactive)
ROOT
ATOM      1  C   UNL d   1       2.188   5.933   5.981  0.00  0.00     0.172 C 
ATOM      2  N   UNL d   1       3.494   5.317   5.941  0.00  0.00    -0.070 N 
ATOM      3  C1  UNL d   1       3.743   3.971   5.990  0.00  0.00    -0.004 A 
ATOM      4  C2  UNL d   1       5.108   3.792   5.925  0.00  0.00    -0.047 A 
ATOM      5  C3  UNL d   1       5.699   5.074   5.836  0.00  0.00    -0.047 A 
ATOM      6  C4  UNL d   1       4.677   6.000   5.848  0.00  0.00    -0.004 A 
ENDROOT
TORSDOF 0
ENDMDL
