MODEL 1
REMARK minimizedAffinity -0.783727884
REMARK minimizedRMSD -1
REMARK  0 active torsions:
REMARK  status: ('A' for Active; 'I' for Inactive)
ROOT
ATOM      1  C   UNL d   1       5.996   5.906   4.183  0.00  0.00     0.172 C 
ATOM      2  N   UNL d   1       4.898   5.326   4.921  0.00  0.00    -0.070 N 
ATOM      3  C1  UNL d   1       3.768   5.987   5.321  0.00  0.00    -0.004 A 
ATOM      4  C2  UNL d   1       2.969   5.087   5.994  0.00  0.00    -0.047 A 
ATOM      5  C3  UNL d   1       3.643   3.843   5.999  0.00  0.00    -0.047 A 
ATOM      6  C4  UNL d   1       4.835   4.019   5.328  0.00  0.00    -0.004 A 
ENDROOT
TORSDOF 0
ENDMDL
