MODEL 1
REMARK minimizedAffinity -0.133769065
REMARK minimizedRMSD -1
REMARK  0 active torsions:
REMARK  status: ('A' for Active; 'I' for Inactive)
ROOT
ATOM      1  C   UNL d   1       2.265   5.994   5.567  0.00  0.00     0.172 C 
ATOM      2  N   UNL d   1       3.568   5.374   5.623  0.00  0.00    -0.070 N 
ATOM      3  C1  UNL d   1       3.820   4.080   5.996  0.00  0.00    -0.004 A 
ATOM      4  C2  UNL d   1       5.181   3.876   5.917  0.00  0.00    -0.047 A 
ATOM      5  C3  UNL d   1       5.767   5.090   5.484  0.00  0.00    -0.047 A 
ATOM      6  C4  UNL d   1       4.745   5.999   5.310  0.00  0.00    -0.004 A 
ENDROOT
TORSDOF 0
ENDMDL
