MODEL 1
REMARK minimizedAffinity -2.6219871
REMARK minimizedRMSD -1
REMARK  0 active torsions:
REMARK  status: ('A' for Active; 'I' for Inactive)
ROOT
ATOM      1  C   UNL d   1       5.991   5.999   4.128  0.00  0.00     0.172 C 
ATOM      2  N   UNL d   1       4.974   5.278   4.858  0.00  0.00    -0.070 N 
ATOM      3  C1  UNL d   1       3.816   5.814   5.353  0.00  0.00    -0.004 A 
ATOM      4  C2  UNL d   1       3.118   4.805   5.980  0.00  0.00    -0.047 A 
ATOM      5  C3  UNL d   1       3.884   3.621   5.858  0.00  0.00    -0.047 A 
ATOM      6  C4  UNL d   1       5.028   3.943   5.159  0.00  0.00    -0.004 A 
ENDROOT
TORSDOF 0
ENDMDL
