MODEL 1
REMARK minimizedAffinity -1.30981684
REMARK minimizedRMSD -1
REMARK  0 active torsions:
REMARK  status: ('A' for Active; 'I' for Inactive)
ROOT
ATOM      1  C   UNL d   1       2.469   5.952   5.745  0.00  0.00     0.172 C 
ATOM      2  N   UNL d   1       3.784   5.359   5.678  0.00  0.00    -0.070 N 
ATOM      3  C1  UNL d   1       4.930   6.000   5.288  0.00  0.00    -0.004 A 
ATOM      4  C2  UNL d   1       5.966   5.094   5.361  0.00  0.00    -0.047 A 
ATOM      5  C3  UNL d   1       5.424   3.866   5.811  0.00  0.00    -0.047 A 
ATOM      6  C4  UNL d   1       4.072   4.059   5.999  0.00  0.00    -0.004 A 
ENDROOT
TORSDOF 0
ENDMDL
