MODEL 1
REMARK minimizedAffinity -3.77276754
REMARK minimizedRMSD -1
REMARK  0 active torsions:
REMARK  status: ('A' for Active; 'I' for Inactive)
ROOT
ATOM      1  C   UNL d   1      -3.259  -0.594   0.014  0.00  0.00     0.172 C 
ATOM      2  N   UNL d   1      -1.825  -0.424   0.046  0.00  0.00    -0.070 N 
ATOM      3  C1  UNL d   1      -1.092   0.333  -0.828  0.00  0.00    -0.004 A 
ATOM      4  C2  UNL d   1       0.233   0.237  -0.460  0.00  0.00    -0.047 A 
ATOM      5  C3  UNL d   1       0.298  -0.607   0.674  0.00  0.00    -0.047 A 
ATOM      6  C4  UNL d   1      -0.990  -1.002   0.966  0.00  0.00    -0.004 A 
ENDROOT
TORSDOF 0
ENDMDL
