MODEL 1
REMARK minimizedAffinity -1.74652851
REMARK minimizedRMSD -1
REMARK  0 active torsions:
REMARK  status: ('A' for Active; 'I' for Inactive)
ROOT
ATOM      1  C   UNL d   1       5.999   1.497   0.228  0.00  0.00     0.172 C 
ATOM      2  N   UNL d   1       5.669   0.612  -0.864  0.00  0.00    -0.070 N 
ATOM      3  C1  UNL d   1       4.986  -0.570  -0.755  0.00  0.00    -0.004 A 
ATOM      4  C2  UNL d   1       4.875  -1.111  -2.018  0.00  0.00    -0.047 A 
ATOM      5  C3  UNL d   1       5.514  -0.224  -2.916  0.00  0.00    -0.047 A 
ATOM      6  C4  UNL d   1       5.997   0.834  -2.176  0.00  0.00    -0.004 A 
ENDROOT
TORSDOF 0
ENDMDL
