MODEL 1
REMARK minimizedAffinity -2.75038743
REMARK minimizedRMSD -1
REMARK  0 active torsions:
REMARK  status: ('A' for Active; 'I' for Inactive)
ROOT
ATOM      1  C   UNL d   1      -2.667  -1.295  -1.721  0.00  0.00     0.172 C 
ATOM      2  N   UNL d   1      -2.651  -2.140  -0.550  0.00  0.00    -0.070 N 
ATOM      3  C1  UNL d   1      -2.094  -3.389  -0.474  0.00  0.00    -0.004 A 
ATOM      4  C2  UNL d   1      -2.287  -3.859   0.807  0.00  0.00    -0.047 A 
ATOM      5  C3  UNL d   1      -2.986  -2.859   1.525  0.00  0.00    -0.047 A 
ATOM      6  C4  UNL d   1      -3.198  -1.806   0.661  0.00  0.00    -0.004 A 
ENDROOT
TORSDOF 0
ENDMDL
