MODEL 1
REMARK minimizedAffinity -2.64852214
REMARK minimizedRMSD -1
REMARK  0 active torsions:
REMARK  status: ('A' for Active; 'I' for Inactive)
ROOT
ATOM      1  C   UNL d   1       0.332   0.365  -1.178  0.00  0.00     0.172 C 
ATOM      2  N   UNL d   1      -0.682  -0.430  -0.527  0.00  0.00    -0.070 N 
ATOM      3  C1  UNL d   1      -1.778  -0.981  -1.135  0.00  0.00    -0.004 A 
ATOM      4  C2  UNL d   1      -2.496  -1.662  -0.176  0.00  0.00    -0.047 A 
ATOM      5  C3  UNL d   1      -1.808  -1.514   1.052  0.00  0.00    -0.047 A 
ATOM      6  C4  UNL d   1      -0.689  -0.747   0.806  0.00  0.00    -0.004 A 
ENDROOT
TORSDOF 0
ENDMDL
