MODEL 1
REMARK minimizedAffinity -1.30677295
REMARK minimizedRMSD -1
REMARK  0 active torsions:
REMARK  status: ('A' for Active; 'I' for Inactive)
ROOT
ATOM      1  C   UNL d   1       0.241   0.316  -1.930  0.00  0.00     0.172 C 
ATOM      2  N   UNL d   1      -0.030  -0.179  -0.601  0.00  0.00    -0.070 N 
ATOM      3  C1  UNL d   1      -1.273  -0.362  -0.055  0.00  0.00    -0.004 A 
ATOM      4  C2  UNL d   1      -1.105  -0.846   1.224  0.00  0.00    -0.047 A 
ATOM      5  C3  UNL d   1       0.286  -0.957   1.456  0.00  0.00    -0.047 A 
ATOM      6  C4  UNL d   1       0.928  -0.538   0.310  0.00  0.00    -0.004 A 
ENDROOT
TORSDOF 0
ENDMDL
