MODEL 1
REMARK minimizedAffinity -2.79953885
REMARK minimizedRMSD -1
REMARK  0 active torsions:
REMARK  status: ('A' for Active; 'I' for Inactive)
ROOT
ATOM      1  C   UNL d   1      -0.022   0.405  -1.906  0.00  0.00     0.172 C 
ATOM      2  N   UNL d   1      -1.183   0.105  -1.102  0.00  0.00    -0.070 N 
ATOM      3  C1  UNL d   1      -2.262  -0.637  -1.503  0.00  0.00    -0.004 A 
ATOM      4  C2  UNL d   1      -3.150  -0.692  -0.451  0.00  0.00    -0.047 A 
ATOM      5  C3  UNL d   1      -2.587   0.044   0.619  0.00  0.00    -0.047 A 
ATOM      6  C4  UNL d   1      -1.369   0.526   0.189  0.00  0.00    -0.004 A 
ENDROOT
TORSDOF 0
ENDMDL
