MODEL 1
REMARK minimizedAffinity -2.74541593
REMARK minimizedRMSD -1
REMARK  0 active torsions:
REMARK  status: ('A' for Active; 'I' for Inactive)
ROOT
ATOM      1  C   UNL d   1       0.511   0.478  -0.673  0.00  0.00     0.172 C 
ATOM      2  N   UNL d   1      -0.451  -0.443  -0.114  0.00  0.00    -0.070 N 
ATOM      3  C1  UNL d   1      -0.250  -1.242   0.979  0.00  0.00    -0.004 A 
ATOM      4  C2  UNL d   1      -1.402  -1.968   1.189  0.00  0.00    -0.047 A 
ATOM      5  C3  UNL d   1      -2.327  -1.593   0.187  0.00  0.00    -0.047 A 
ATOM      6  C4  UNL d   1      -1.713  -0.648  -0.607  0.00  0.00    -0.004 A 
ENDROOT
TORSDOF 0
ENDMDL
