MODEL 1
REMARK minimizedAffinity -2.75334358
REMARK minimizedRMSD -1
REMARK  0 active torsions:
REMARK  status: ('A' for Active; 'I' for Inactive)
ROOT
ATOM      1  C   UNL d   1      -2.689  -0.816  -0.433  0.00  0.00     0.172 C 
ATOM      2  N   UNL d   1      -1.307  -0.526  -0.133  0.00  0.00    -0.070 N 
ATOM      3  C1  UNL d   1      -0.440   0.158  -0.943  0.00  0.00    -0.004 A 
ATOM      4  C2  UNL d   1       0.777   0.223  -0.300  0.00  0.00    -0.047 A 
ATOM      5  C3  UNL d   1       0.638  -0.445   0.939  0.00  0.00    -0.047 A 
ATOM      6  C4  UNL d   1      -0.662  -0.899   1.017  0.00  0.00    -0.004 A 
ENDROOT
TORSDOF 0
ENDMDL
