MODEL 1
REMARK minimizedAffinity -2.93017912
REMARK minimizedRMSD -1
REMARK  0 active torsions:
REMARK  status: ('A' for Active; 'I' for Inactive)
ROOT
ATOM      1  N1  IND d   1       0.469  -0.715  -0.529  0.00  0.00    -0.196 N 
ATOM      2  C2  IND d   1      -0.692  -0.704   0.192  0.00  0.00     0.054 A 
ATOM      3  C3  IND d   1      -0.647   0.257   1.141  0.00  0.00    -0.031 A 
ATOM      4  C4  IND d   1       1.191   1.993   1.626  0.00  0.00     0.051 A 
ATOM      5  C5  IND d   1       2.456   2.355   1.255  0.00  0.00    -0.031 A 
ATOM      6  C6  IND d   1       3.136   1.700   0.249  0.00  0.00     0.015 A 
ATOM      7  C7  IND d   1       2.569   0.662  -0.435  0.00  0.00    -0.016 A 
ATOM      8  C8  IND d   1       1.288   0.288  -0.057  0.00  0.00    -0.047 A 
ATOM      9  C9  IND d   1       0.609   0.921   0.992  0.00  0.00    -0.096 A 
ATOM     10  HN1 IND d   1       0.657  -1.257  -1.170  0.00  0.00     0.298 HD
ENDROOT
TORSDOF 0
ENDMDL
