MODEL 1
REMARK minimizedAffinity -3.98298526
REMARK minimizedRMSD -1
REMARK  0 active torsions:
REMARK  status: ('A' for Active; 'I' for Inactive)
ROOT
ATOM      1  N1  IND d   1       1.988   1.992   0.575  0.00  0.00    -0.196 N 
ATOM      2  C2  IND d   1       1.424   2.766   1.551  0.00  0.00     0.054 A 
ATOM      3  C3  IND d   1       0.231   2.254   1.926  0.00  0.00    -0.031 A 
ATOM      4  C4  IND d   1      -0.944   0.101   1.145  0.00  0.00     0.051 A 
ATOM      5  C5  IND d   1      -0.835  -0.919   0.241  0.00  0.00    -0.031 A 
ATOM      6  C6  IND d   1       0.244  -1.024  -0.613  0.00  0.00     0.015 A 
ATOM      7  C7  IND d   1       1.264  -0.115  -0.587  0.00  0.00    -0.016 A 
ATOM      8  C8  IND d   1       1.153   0.925   0.325  0.00  0.00    -0.047 A 
ATOM      9  C9  IND d   1       0.040   1.061   1.165  0.00  0.00    -0.096 A 
ATOM     10  HN1 IND d   1       2.738   2.145   0.184  0.00  0.00     0.298 HD
ENDROOT
TORSDOF 0
ENDMDL
