MODEL 1
REMARK minimizedAffinity -3.92816496
REMARK minimizedRMSD -1
REMARK  0 active torsions:
REMARK  status: ('A' for Active; 'I' for Inactive)
ROOT
ATOM      1  N1  IND d   1      -0.016   0.500  -0.432  0.00  0.00    -0.196 N 
ATOM      2  C2  IND d   1       0.087   0.040   0.852  0.00  0.00     0.054 A 
ATOM      3  C3  IND d   1      -0.719  -1.029   1.034  0.00  0.00    -0.031 A 
ATOM      4  C4  IND d   1      -2.218  -2.256  -0.661  0.00  0.00     0.051 A 
ATOM      5  C5  IND d   1      -2.670  -2.184  -1.949  0.00  0.00    -0.031 A 
ATOM      6  C6  IND d   1      -2.250  -1.196  -2.815  0.00  0.00     0.015 A 
ATOM      7  C7  IND d   1      -1.350  -0.245  -2.427  0.00  0.00    -0.016 A 
ATOM      8  C8  IND d   1      -0.894  -0.310  -1.118  0.00  0.00    -0.047 A 
ATOM      9  C9  IND d   1      -1.349  -1.286  -0.222  0.00  0.00    -0.096 A 
ATOM     10  HN1 IND d   1       0.397   1.181  -0.756  0.00  0.00     0.298 HD
ENDROOT
TORSDOF 0
ENDMDL
