MODEL 1
REMARK minimizedAffinity -5.58159113
REMARK minimizedRMSD -1
REMARK  0 active torsions:
REMARK  status: ('A' for Active; 'I' for Inactive)
ROOT
ATOM      1  N1  IND d   1       1.955  -1.219  -0.737  0.00  0.00    -0.196 N 
ATOM      2  C2  IND d   1       0.835  -2.002  -0.706  0.00  0.00     0.054 A 
ATOM      3  C3  IND d   1      -0.185  -1.339  -0.117  0.00  0.00    -0.031 A 
ATOM      4  C4  IND d   1      -0.269   1.072   0.779  0.00  0.00     0.051 A 
ATOM      5  C5  IND d   1       0.519   2.166   1.004  0.00  0.00    -0.031 A 
ATOM      6  C6  IND d   1       1.853   2.189   0.651  0.00  0.00     0.015 A 
ATOM      7  C7  IND d   1       2.447   1.118   0.046  0.00  0.00    -0.016 A 
ATOM      8  C8  IND d   1       1.652   0.003  -0.177  0.00  0.00    -0.047 A 
ATOM      9  C9  IND d   1       0.309  -0.041   0.218  0.00  0.00    -0.096 A 
ATOM     10  HN1 IND d   1       2.721  -1.451  -1.052  0.00  0.00     0.298 HD
ENDROOT
TORSDOF 0
ENDMDL
