MODEL 1
REMARK minimizedAffinity -5.20776367
REMARK minimizedRMSD -1
REMARK  0 active torsions:
REMARK  status: ('A' for Active; 'I' for Inactive)
ROOT
ATOM      1  N1  IND d   1       0.762  -1.390  -1.233  0.00  0.00    -0.196 N 
ATOM      2  C2  IND d   1      -0.477  -1.713  -0.754  0.00  0.00     0.054 A 
ATOM      3  C3  IND d   1      -0.974  -0.698  -0.012  0.00  0.00    -0.031 A 
ATOM      4  C4  IND d   1       0.030   1.624   0.465  0.00  0.00     0.051 A 
ATOM      5  C5  IND d   1       1.159   2.370   0.272  0.00  0.00    -0.031 A 
ATOM      6  C6  IND d   1       2.234   1.892  -0.449  0.00  0.00     0.015 A 
ATOM      7  C7  IND d   1       2.215   0.649  -1.017  0.00  0.00    -0.016 A 
ATOM      8  C8  IND d   1       1.073  -0.114  -0.817  0.00  0.00    -0.047 A 
ATOM      9  C9  IND d   1      -0.004   0.350  -0.050  0.00  0.00    -0.096 A 
ATOM     10  HN1 IND d   1       1.263  -1.898  -1.713  0.00  0.00     0.298 HD
ENDROOT
TORSDOF 0
ENDMDL
