MODEL 1
REMARK minimizedAffinity -3.42341137
REMARK minimizedRMSD -1
REMARK  0 active torsions:
REMARK  status: ('A' for Active; 'I' for Inactive)
ROOT
ATOM      1  N1  IND d   1      -0.913  -0.639   0.740  0.00  0.00    -0.196 N 
ATOM      2  C2  IND d   1      -0.559  -1.183  -0.463  0.00  0.00     0.054 A 
ATOM      3  C3  IND d   1       0.284  -0.358  -1.123  0.00  0.00    -0.031 A 
ATOM      4  C4  IND d   1       1.296   1.887  -0.372  0.00  0.00     0.051 A 
ATOM      5  C5  IND d   1       1.242   2.810   0.634  0.00  0.00    -0.031 A 
ATOM      6  C6  IND d   1       0.453   2.626   1.751  0.00  0.00     0.015 A 
ATOM      7  C7  IND d   1      -0.306   1.501   1.909  0.00  0.00    -0.016 A 
ATOM      8  C8  IND d   1      -0.259   0.565   0.886  0.00  0.00    -0.047 A 
ATOM      9  C9  IND d   1       0.507   0.766  -0.270  0.00  0.00    -0.096 A 
ATOM     10  HN1 IND d   1      -1.453  -0.990   1.310  0.00  0.00     0.298 HD
ENDROOT
TORSDOF 0
ENDMDL
