MODEL 1
REMARK minimizedAffinity -3.61094213
REMARK minimizedRMSD -1
REMARK  0 active torsions:
REMARK  status: ('A' for Active; 'I' for Inactive)
ROOT
ATOM      1  N1  IND d   1       0.034  -1.126  -0.073  0.00  0.00    -0.196 N 
ATOM      2  C2  IND d   1      -0.784  -1.549   0.938  0.00  0.00     0.054 A 
ATOM      3  C3  IND d   1      -0.967  -0.559   1.840  0.00  0.00    -0.031 A 
ATOM      4  C4  IND d   1      -0.102   1.866   1.806  0.00  0.00     0.051 A 
ATOM      5  C5  IND d   1       0.714   2.709   1.104  0.00  0.00    -0.031 A 
ATOM      6  C6  IND d   1       1.355   2.309  -0.051  0.00  0.00     0.015 A 
ATOM      7  C7  IND d   1       1.195   1.049  -0.555  0.00  0.00    -0.016 A 
ATOM      8  C8  IND d   1       0.373   0.189   0.159  0.00  0.00    -0.047 A 
ATOM      9  C9  IND d   1      -0.247   0.575   1.354  0.00  0.00    -0.096 A 
ATOM     10  HN1 IND d   1       0.292  -1.602  -0.741  0.00  0.00     0.298 HD
ENDROOT
TORSDOF 0
ENDMDL
