MODEL 1
REMARK minimizedAffinity -1.20973229
REMARK minimizedRMSD -1
REMARK  0 active torsions:
REMARK  status: ('A' for Active; 'I' for Inactive)
ROOT
ATOM      1  N1  IND d   1      -1.345  -0.834  -0.045  0.00  0.00    -0.196 N 
ATOM      2  C2  IND d   1      -0.759  -1.456  -1.112  0.00  0.00     0.054 A 
ATOM      3  C3  IND d   1       0.423  -0.869  -1.407  0.00  0.00    -0.031 A 
ATOM      4  C4  IND d   1       1.636   1.059  -0.209  0.00  0.00     0.051 A 
ATOM      5  C5  IND d   1       1.477   1.973   0.795  0.00  0.00    -0.031 A 
ATOM      6  C6  IND d   1       0.349   1.996   1.589  0.00  0.00     0.015 A 
ATOM      7  C7  IND d   1      -0.664   1.095   1.414  0.00  0.00    -0.016 A 
ATOM      8  C8  IND d   1      -0.509   0.171   0.390  0.00  0.00    -0.047 A 
ATOM      9  C9  IND d   1       0.615   0.169  -0.445  0.00  0.00    -0.096 A 
ATOM     10  HN1 IND d   1      -2.108  -1.037   0.297  0.00  0.00     0.298 HD
ENDROOT
TORSDOF 0
ENDMDL
