MODEL 1
REMARK minimizedAffinity -4.15612173
REMARK minimizedRMSD -1
REMARK  0 active torsions:
REMARK  status: ('A' for Active; 'I' for Inactive)
ROOT
ATOM      1  N1  IND d   1       1.116   1.480  -0.931  0.00  0.00    -0.196 N 
ATOM      2  C2  IND d   1       1.324   2.682  -0.315  0.00  0.00     0.054 A 
ATOM      3  C3  IND d   1       0.775   2.679   0.921  0.00  0.00    -0.031 A 
ATOM      4  C4  IND d   1      -0.423   0.775   2.173  0.00  0.00     0.051 A 
ATOM      5  C5  IND d   1      -0.885  -0.500   2.007  0.00  0.00    -0.031 A 
ATOM      6  C6  IND d   1      -0.698  -1.196   0.830  0.00  0.00     0.015 A 
ATOM      7  C7  IND d   1      -0.029  -0.643  -0.225  0.00  0.00    -0.016 A 
ATOM      8  C8  IND d   1       0.436   0.654  -0.062  0.00  0.00    -0.047 A 
ATOM      9  C9  IND d   1       0.212   1.380   1.114  0.00  0.00    -0.096 A 
ATOM     10  HN1 IND d   1       1.367   1.274  -1.727  0.00  0.00     0.298 HD
ENDROOT
TORSDOF 0
ENDMDL
