MODEL 1
REMARK minimizedAffinity -4.56199598
REMARK minimizedRMSD -1
REMARK  0 active torsions:
REMARK  status: ('A' for Active; 'I' for Inactive)
ROOT
ATOM      1  N1  IND d   1      -0.600  -0.538   1.146  0.00  0.00    -0.196 N 
ATOM      2  C2  IND d   1      -0.391  -1.280   0.018  0.00  0.00     0.054 A 
ATOM      3  C3  IND d   1       0.454  -0.637  -0.819  0.00  0.00    -0.031 A 
ATOM      4  C4  IND d   1       1.691   1.597  -0.495  0.00  0.00     0.051 A 
ATOM      5  C5  IND d   1       1.792   2.658   0.360  0.00  0.00    -0.031 A 
ATOM      6  C6  IND d   1       1.089   2.709   1.546  0.00  0.00     0.015 A 
ATOM      7  C7  IND d   1       0.263   1.689   1.928  0.00  0.00    -0.016 A 
ATOM      8  C8  IND d   1       0.153   0.613   1.059  0.00  0.00    -0.047 A 
ATOM      9  C9  IND d   1       0.832   0.576  -0.166  0.00  0.00    -0.096 A 
ATOM     10  HN1 IND d   1      -1.115  -0.753   1.800  0.00  0.00     0.298 HD
ENDROOT
TORSDOF 0
ENDMDL
