MODEL 1
REMARK minimizedAffinity -3.78424883
REMARK minimizedRMSD -1
REMARK  0 active torsions:
REMARK  status: ('A' for Active; 'I' for Inactive)
ROOT
ATOM      1  N1  IND d   1      -0.644  -0.562   1.373  0.00  0.00    -0.196 N 
ATOM      2  C2  IND d   1      -0.474  -1.301   0.235  0.00  0.00     0.054 A 
ATOM      3  C3  IND d   1       0.239  -0.603  -0.677  0.00  0.00    -0.031 A 
ATOM      4  C4  IND d   1       1.314   1.728  -0.476  0.00  0.00     0.051 A 
ATOM      5  C5  IND d   1       1.402   2.805   0.360  0.00  0.00    -0.031 A 
ATOM      6  C6  IND d   1       0.803   2.814   1.603  0.00  0.00     0.015 A 
ATOM      7  C7  IND d   1       0.100   1.737   2.062  0.00  0.00    -0.016 A 
ATOM      8  C8  IND d   1       0.002   0.644   1.213  0.00  0.00    -0.047 A 
ATOM      9  C9  IND d   1       0.573   0.645  -0.066  0.00  0.00    -0.096 A 
ATOM     10  HN1 IND d   1      -1.081  -0.810   2.071  0.00  0.00     0.298 HD
ENDROOT
TORSDOF 0
ENDMDL
