MODEL 1
REMARK minimizedAffinity -3.64926982
REMARK minimizedRMSD -1
REMARK  0 active torsions:
REMARK  status: ('A' for Active; 'I' for Inactive)
ROOT
ATOM      1  N1  IND d   1      -0.759  -0.407   1.229  0.00  0.00    -0.196 N 
ATOM      2  C2  IND d   1      -0.716  -1.084   0.042  0.00  0.00     0.054 A 
ATOM      3  C3  IND d   1       0.157  -0.495  -0.805  0.00  0.00    -0.031 A 
ATOM      4  C4  IND d   1       1.699   1.530  -0.416  0.00  0.00     0.051 A 
ATOM      5  C5  IND d   1       1.989   2.503   0.499  0.00  0.00    -0.031 A 
ATOM      6  C6  IND d   1       1.368   2.555   1.730  0.00  0.00     0.015 A 
ATOM      7  C7  IND d   1       0.437   1.625   2.098  0.00  0.00    -0.016 A 
ATOM      8  C8  IND d   1       0.134   0.640   1.168  0.00  0.00    -0.047 A 
ATOM      9  C9  IND d   1       0.731   0.607  -0.099  0.00  0.00    -0.096 A 
ATOM     10  HN1 IND d   1      -1.260  -0.602   1.900  0.00  0.00     0.298 HD
ENDROOT
TORSDOF 0
ENDMDL
