MODEL 1
REMARK minimizedAffinity -5.89873028
REMARK minimizedRMSD -1
REMARK  0 active torsions:
REMARK  status: ('A' for Active; 'I' for Inactive)
ROOT
ATOM      1  N1  IND d   1       0.294  -0.865  -0.617  0.00  0.00    -0.196 N 
ATOM      2  C2  IND d   1      -0.611  -1.594   0.102  0.00  0.00     0.054 A 
ATOM      3  C3  IND d   1      -1.092  -0.863   1.132  0.00  0.00    -0.031 A 
ATOM      4  C4  IND d   1      -0.608   1.585   1.766  0.00  0.00     0.051 A 
ATOM      5  C5  IND d   1       0.180   2.649   1.429  0.00  0.00    -0.031 A 
ATOM      6  C6  IND d   1       1.062   2.597   0.369  0.00  0.00     0.015 A 
ATOM      7  C7  IND d   1       1.181   1.476  -0.404  0.00  0.00    -0.016 A 
ATOM      8  C8  IND d   1       0.388   0.391  -0.059  0.00  0.00    -0.047 A 
ATOM      9  C9  IND d   1      -0.478   0.424   1.041  0.00  0.00    -0.096 A 
ATOM     10  HN1 IND d   1       0.732  -1.144  -1.303  0.00  0.00     0.298 HD
ENDROOT
TORSDOF 0
ENDMDL
