MODEL 1
REMARK minimizedAffinity -5.37684202
REMARK minimizedRMSD -1
REMARK  0 active torsions:
REMARK  status: ('A' for Active; 'I' for Inactive)
ROOT
ATOM      1  N1  IND d   1       0.834  -0.069  -1.385  0.00  0.00    -0.196 N 
ATOM      2  C2  IND d   1      -0.098  -1.069  -1.400  0.00  0.00     0.054 A 
ATOM      3  C3  IND d   1      -0.882  -0.998  -0.301  0.00  0.00    -0.031 A 
ATOM      4  C4  IND d   1      -0.877   0.736   1.602  0.00  0.00     0.051 A 
ATOM      5  C5  IND d   1      -0.186   1.817   2.073  0.00  0.00    -0.031 A 
ATOM      6  C6  IND d   1       0.901   2.337   1.400  0.00  0.00     0.015 A 
ATOM      7  C7  IND d   1       1.332   1.799   0.220  0.00  0.00    -0.016 A 
ATOM      8  C8  IND d   1       0.637   0.697  -0.257  0.00  0.00    -0.047 A 
ATOM      9  C9  IND d   1      -0.441   0.139   0.443  0.00  0.00    -0.096 A 
ATOM     10  HN1 IND d   1       1.442   0.059  -1.980  0.00  0.00     0.298 HD
ENDROOT
TORSDOF 0
ENDMDL
