MODEL 1
REMARK minimizedAffinity -4.80275774
REMARK minimizedRMSD -1
REMARK  0 active torsions:
REMARK  status: ('A' for Active; 'I' for Inactive)
ROOT
ATOM      1  N1  IND d   1       1.491   2.422   0.066  0.00  0.00    -0.196 N 
ATOM      2  C2  IND d   1       1.110   3.040   1.225  0.00  0.00     0.054 A 
ATOM      3  C3  IND d   1       0.118   2.345   1.825  0.00  0.00    -0.031 A 
ATOM      4  C4  IND d   1      -0.964   0.113   1.135  0.00  0.00     0.051 A 
ATOM      5  C5  IND d   1      -0.973  -0.815   0.132  0.00  0.00    -0.031 A 
ATOM      6  C6  IND d   1      -0.144  -0.711  -0.966  0.00  0.00     0.015 A 
ATOM      7  C7  IND d   1       0.739   0.324  -1.096  0.00  0.00    -0.016 A 
ATOM      8  C8  IND d   1       0.747   1.272  -0.082  0.00  0.00    -0.047 A 
ATOM      9  C9  IND d   1      -0.123   1.194   1.013  0.00  0.00    -0.096 A 
ATOM     10  HN1 IND d   1       2.094   2.704  -0.478  0.00  0.00     0.298 HD
ENDROOT
TORSDOF 0
ENDMDL
