MODEL 1
REMARK minimizedAffinity -4.6008954
REMARK minimizedRMSD -1
REMARK  0 active torsions:
REMARK  status: ('A' for Active; 'I' for Inactive)
ROOT
ATOM      1  N1  IND d   1       0.934  -0.810  -0.773  0.00  0.00    -0.196 N 
ATOM      2  C2  IND d   1      -0.273  -1.423  -0.583  0.00  0.00     0.054 A 
ATOM      3  C3  IND d   1      -1.038  -0.701   0.266  0.00  0.00    -0.031 A 
ATOM      4  C4  IND d   1      -0.550   1.567   1.382  0.00  0.00     0.051 A 
ATOM      5  C5  IND d   1       0.436   2.500   1.539  0.00  0.00    -0.031 A 
ATOM      6  C6  IND d   1       1.662   2.377   0.918  0.00  0.00     0.015 A 
ATOM      7  C7  IND d   1       1.946   1.316   0.105  0.00  0.00    -0.016 A 
ATOM      8  C8  IND d   1       0.949   0.363  -0.051  0.00  0.00    -0.047 A 
ATOM      9  C9  IND d   1      -0.282   0.461   0.610  0.00  0.00    -0.096 A 
ATOM     10  HN1 IND d   1       1.576  -1.108  -1.262  0.00  0.00     0.298 HD
ENDROOT
TORSDOF 0
ENDMDL
