MODEL 1
REMARK minimizedAffinity -1.92125297
REMARK minimizedRMSD -1
REMARK  0 active torsions:
REMARK  status: ('A' for Active; 'I' for Inactive)
ROOT
ATOM      1  N1  IND d   1       1.048  -0.822  -0.619  0.00  0.00    -0.196 N 
ATOM      2  C2  IND d   1      -0.179  -1.407  -0.769  0.00  0.00     0.054 A 
ATOM      3  C3  IND d   1      -1.090  -0.799   0.022  0.00  0.00    -0.031 A 
ATOM      4  C4  IND d   1      -0.813   1.242   1.567  0.00  0.00     0.051 A 
ATOM      5  C5  IND d   1       0.131   2.098   2.062  0.00  0.00    -0.031 A 
ATOM      6  C6  IND d   1       1.454   2.024   1.679  0.00  0.00     0.015 A 
ATOM      7  C7  IND d   1       1.884   1.095   0.774  0.00  0.00    -0.016 A 
ATOM      8  C8  IND d   1       0.929   0.220   0.274  0.00  0.00    -0.047 A 
ATOM      9  C9  IND d   1      -0.407   0.263   0.691  0.00  0.00    -0.096 A 
ATOM     10  HN1 IND d   1       1.771  -1.064  -1.016  0.00  0.00     0.298 HD
ENDROOT
TORSDOF 0
ENDMDL
