MODEL 1
REMARK minimizedAffinity -4.86624527
REMARK minimizedRMSD -1
REMARK  0 active torsions:
REMARK  status: ('A' for Active; 'I' for Inactive)
ROOT
ATOM      1  N1  IND d   1       0.665  -0.355  -1.025  0.00  0.00    -0.196 N 
ATOM      2  C2  IND d   1      -0.262  -1.360  -1.036  0.00  0.00     0.054 A 
ATOM      3  C3  IND d   1      -1.060  -1.276   0.051  0.00  0.00    -0.031 A 
ATOM      4  C4  IND d   1      -1.090   0.489   1.925  0.00  0.00     0.051 A 
ATOM      5  C5  IND d   1      -0.411   1.582   2.387  0.00  0.00    -0.031 A 
ATOM      6  C6  IND d   1       0.682   2.097   1.720  0.00  0.00     0.015 A 
ATOM      7  C7  IND d   1       1.131   1.542   0.555  0.00  0.00    -0.016 A 
ATOM      8  C8  IND d   1       0.448   0.429   0.087  0.00  0.00    -0.047 A 
ATOM      9  C9  IND d   1      -0.635  -0.124   0.782  0.00  0.00    -0.096 A 
ATOM     10  HN1 IND d   1       1.279  -0.232  -1.614  0.00  0.00     0.298 HD
ENDROOT
TORSDOF 0
ENDMDL
