MODEL 1
REMARK minimizedAffinity -1.31518674
REMARK minimizedRMSD -1
REMARK  0 active torsions:
REMARK  status: ('A' for Active; 'I' for Inactive)
ROOT
ATOM      1  N1  IND d   1       0.611  -1.100  -0.724  0.00  0.00    -0.196 N 
ATOM      2  C2  IND d   1       1.894  -0.741  -1.028  0.00  0.00     0.054 A 
ATOM      3  C3  IND d   1       2.238   0.384  -0.361  0.00  0.00    -0.031 A 
ATOM      4  C4  IND d   1       0.888   1.744   1.358  0.00  0.00     0.051 A 
ATOM      5  C5  IND d   1      -0.348   1.827   1.934  0.00  0.00    -0.031 A 
ATOM      6  C6  IND d   1      -1.347   0.919   1.651  0.00  0.00     0.015 A 
ATOM      7  C7  IND d   1      -1.143  -0.118   0.785  0.00  0.00    -0.016 A 
ATOM      8  C8  IND d   1       0.109  -0.201   0.192  0.00  0.00    -0.047 A 
ATOM      9  C9  IND d   1       1.114   0.742   0.443  0.00  0.00    -0.096 A 
ATOM     10  HN1 IND d   1       0.188  -1.774  -1.049  0.00  0.00     0.298 HD
ENDROOT
TORSDOF 0
ENDMDL
