MODEL 1
REMARK minimizedAffinity 10.9018688
REMARK minimizedRMSD -1
REMARK  2 active torsions:
REMARK  status: ('A' for Active; 'I' for Inactive)
REMARK    1  A    between atoms: C2'_3  and  C1'_4 
REMARK    2  A    between atoms: C1'_4  and  C1_5 
ROOT
ATOM      1  C1  I4B d   1      -3.641   5.071   3.311  0.00  0.00    -0.075 A 
ATOM      2  C2  I4B d   1      -2.462   5.660   3.694  0.00  0.00     0.003 A 
ATOM      3  C3  I4B d   1      -2.239   5.992   5.052  0.00  0.00     0.002 A 
ATOM      4  C4  I4B d   1      -3.236   5.766   5.979  0.00  0.00    -0.004 A 
ATOM      5  C5  I4B d   1      -4.422   5.148   5.593  0.00  0.00     0.002 A 
ATOM      6  C6  I4B d   1      -4.621   4.787   4.252  0.00  0.00     0.003 A 
ENDROOT
BRANCH   1   7
ATOM      7  C1' I4B d   1      -3.856   4.764   1.863  0.00  0.00     0.060 C 
BRANCH   7   8
ATOM      8  C2' I4B d   1      -5.349   4.687   1.618  0.00  0.00    -0.013 C 
ATOM      9  C4' I4B d   1      -5.964   3.531   2.362  0.00  0.00     0.013 C 
ATOM     10  C3' I4B d   1      -5.956   5.990   2.045  0.00  0.00     0.013 C 
ENDBRANCH   7   8
ENDBRANCH   1   7
TORSDOF 2
ENDMDL
