MODEL 1
REMARK minimizedAffinity 9.53311348
REMARK minimizedRMSD -1
REMARK  2 active torsions:
REMARK  status: ('A' for Active; 'I' for Inactive)
REMARK    1  A    between atoms: C2'_3  and  C1'_4 
REMARK    2  A    between atoms: C1'_4  and  C1_5 
ROOT
ATOM      1  C1  I4B d   1      -3.240   5.875   3.278  0.00  0.00    -0.075 A 
ATOM      2  C2  I4B d   1      -2.235   5.806   4.211  0.00  0.00     0.003 A 
ATOM      3  C3  I4B d   1      -2.544   5.820   5.593  0.00  0.00     0.002 A 
ATOM      4  C4  I4B d   1      -3.857   5.953   5.995  0.00  0.00    -0.004 A 
ATOM      5  C5  I4B d   1      -4.876   5.999   5.048  0.00  0.00     0.002 A 
ATOM      6  C6  I4B d   1      -4.567   5.948   3.681  0.00  0.00     0.003 A 
ENDROOT
BRANCH   1   7
ATOM      7  C1' I4B d   1      -2.876   5.891   1.827  0.00  0.00     0.060 C 
BRANCH   7   8
ATOM      8  C2' I4B d   1      -3.902   5.064   1.080  0.00  0.00    -0.013 C 
ATOM      9  C4' I4B d   1      -3.828   3.614   1.478  0.00  0.00     0.013 C 
ATOM     10  C3' I4B d   1      -5.258   5.636   1.368  0.00  0.00     0.013 C 
ENDBRANCH   7   8
ENDBRANCH   1   7
TORSDOF 2
ENDMDL
