MODEL 1
REMARK minimizedAffinity 7.36483669
REMARK minimizedRMSD -1
REMARK  2 active torsions:
REMARK  status: ('A' for Active; 'I' for Inactive)
REMARK    1  A    between atoms: C2'_3  and  C1'_4 
REMARK    2  A    between atoms: C1'_4  and  C1_5 
ROOT
ATOM      1  C1  I4B d   1      -2.849   3.397   3.099  0.00  0.00    -0.075 A 
ATOM      2  C2  I4B d   1      -2.547   4.419   3.965  0.00  0.00     0.003 A 
ATOM      3  C3  I4B d   1      -2.980   5.738   3.690  0.00  0.00     0.002 A 
ATOM      4  C4  I4B d   1      -3.664   5.999   2.520  0.00  0.00    -0.004 A 
ATOM      5  C5  I4B d   1      -3.989   4.959   1.655  0.00  0.00     0.002 A 
ATOM      6  C6  I4B d   1      -3.591   3.648   1.952  0.00  0.00     0.003 A 
ENDROOT
BRANCH   1   7
ATOM      7  C1' I4B d   1      -2.348   2.021   3.404  0.00  0.00     0.060 C 
BRANCH   7   8
ATOM      8  C2' I4B d   1      -3.078   1.048   2.501  0.00  0.00    -0.013 C 
ATOM      9  C4' I4B d   1      -2.119   0.318   1.599  0.00  0.00     0.013 C 
ATOM     10  C3' I4B d   1      -3.839   0.091   3.370  0.00  0.00     0.013 C 
ENDBRANCH   7   8
ENDBRANCH   1   7
TORSDOF 2
ENDMDL
