MODEL 1
REMARK minimizedAffinity 12.4614458
REMARK minimizedRMSD -1
REMARK  2 active torsions:
REMARK  status: ('A' for Active; 'I' for Inactive)
REMARK    1  A    between atoms: C2'_3  and  C1'_4 
REMARK    2  A    between atoms: C1'_4  and  C1_5 
ROOT
ATOM      1  C1  I4B d   1      -3.372   3.554   3.047  0.00  0.00    -0.075 A 
ATOM      2  C2  I4B d   1      -2.884   4.685   3.652  0.00  0.00     0.003 A 
ATOM      3  C3  I4B d   1      -3.547   5.926   3.487  0.00  0.00     0.002 A 
ATOM      4  C4  I4B d   1      -4.658   5.998   2.672  0.00  0.00    -0.004 A 
ATOM      5  C5  I4B d   1      -5.165   4.846   2.078  0.00  0.00     0.002 A 
ATOM      6  C6  I4B d   1      -4.526   3.614   2.276  0.00  0.00     0.003 A 
ENDROOT
BRANCH   1   7
ATOM      7  C1' I4B d   1      -2.628   2.268   3.217  0.00  0.00     0.060 C 
BRANCH   7   8
ATOM      8  C2' I4B d   1      -3.505   1.149   2.691  0.00  0.00    -0.013 C 
ATOM      9  C4' I4B d   1      -2.733   0.237   1.775  0.00  0.00     0.013 C 
ATOM     10  C3' I4B d   1      -4.052   0.398   3.868  0.00  0.00     0.013 C 
ENDBRANCH   7   8
ENDBRANCH   1   7
TORSDOF 2
ENDMDL
