MODEL 1
REMARK minimizedAffinity 7.17038107
REMARK minimizedRMSD -1
REMARK  2 active torsions:
REMARK  status: ('A' for Active; 'I' for Inactive)
REMARK    1  A    between atoms: C2'_3  and  C1'_4 
REMARK    2  A    between atoms: C1'_4  and  C1_5 
ROOT
ATOM      1  C1  I4B d   1      -3.409   5.855   3.250  0.00  0.00    -0.075 A 
ATOM      2  C2  I4B d   1      -4.774   5.895   3.390  0.00  0.00     0.003 A 
ATOM      3  C3  I4B d   1      -5.355   5.993   4.678  0.00  0.00     0.002 A 
ATOM      4  C4  I4B d   1      -4.542   5.999   5.792  0.00  0.00    -0.004 A 
ATOM      5  C5  I4B d   1      -3.158   5.982   5.647  0.00  0.00     0.002 A 
ATOM      6  C6  I4B d   1      -2.587   5.922   4.367  0.00  0.00     0.003 A 
ENDROOT
BRANCH   1   7
ATOM      7  C1' I4B d   1      -2.829   5.717   1.878  0.00  0.00     0.060 C 
BRANCH   7   8
ATOM      8  C2' I4B d   1      -3.199   4.346   1.350  0.00  0.00    -0.013 C 
ATOM      9  C4' I4B d   1      -2.550   4.082   0.017  0.00  0.00     0.013 C 
ATOM     10  C3' I4B d   1      -2.779   3.329   2.369  0.00  0.00     0.013 C 
ENDBRANCH   7   8
ENDBRANCH   1   7
TORSDOF 2
ENDMDL
