MODEL 1
REMARK minimizedAffinity 5.87169838
REMARK minimizedRMSD -1
REMARK  2 active torsions:
REMARK  status: ('A' for Active; 'I' for Inactive)
REMARK    1  A    between atoms: C2'_3  and  C1'_4 
REMARK    2  A    between atoms: C1'_4  and  C1_5 
ROOT
ATOM      1  C1  I4B d   1      -3.693   5.899   3.271  0.00  0.00    -0.075 A 
ATOM      2  C2  I4B d   1      -2.383   5.995   3.668  0.00  0.00     0.003 A 
ATOM      3  C3  I4B d   1      -2.053   5.991   5.045  0.00  0.00     0.002 A 
ATOM      4  C4  I4B d   1      -3.062   5.941   5.985  0.00  0.00    -0.004 A 
ATOM      5  C5  I4B d   1      -4.388   5.821   5.581  0.00  0.00     0.002 A 
ATOM      6  C6  I4B d   1      -4.706   5.787   4.215  0.00  0.00     0.003 A 
ENDROOT
BRANCH   1   7
ATOM      7  C1' I4B d   1      -4.008   5.938   1.809  0.00  0.00     0.060 C 
BRANCH   7   8
ATOM      8  C2' I4B d   1      -2.933   5.160   1.079  0.00  0.00    -0.013 C 
ATOM      9  C4' I4B d   1      -1.687   5.987   0.900  0.00  0.00     0.013 C 
ATOM     10  C3' I4B d   1      -2.647   3.915   1.865  0.00  0.00     0.013 C 
ENDBRANCH   7   8
ENDBRANCH   1   7
TORSDOF 2
ENDMDL
