MODEL 1
REMARK minimizedAffinity 3.1699028
REMARK minimizedRMSD -1
REMARK  2 active torsions:
REMARK  status: ('A' for Active; 'I' for Inactive)
REMARK    1  A    between atoms: C2'_3  and  C1'_4 
REMARK    2  A    between atoms: C1'_4  and  C1_5 
ROOT
ATOM      1  C1  I4B d   1      -2.906   3.388   3.035  0.00  0.00    -0.075 A 
ATOM      2  C2  I4B d   1      -2.968   4.035   4.244  0.00  0.00     0.003 A 
ATOM      3  C3  I4B d   1      -3.482   5.352   4.322  0.00  0.00     0.002 A 
ATOM      4  C4  I4B d   1      -3.874   5.998   3.168  0.00  0.00    -0.004 A 
ATOM      5  C5  I4B d   1      -3.833   5.332   1.946  0.00  0.00     0.002 A 
ATOM      6  C6  I4B d   1      -3.358   4.014   1.881  0.00  0.00     0.003 A 
ENDROOT
BRANCH   1   7
ATOM      7  C1' I4B d   1      -2.327   2.010   2.984  0.00  0.00     0.060 C 
BRANCH   7   8
ATOM      8  C2' I4B d   1      -3.333   1.105   2.301  0.00  0.00    -0.013 C 
ATOM      9  C4' I4B d   1      -2.707   0.366   1.148  0.00  0.00     0.013 C 
ATOM     10  C3' I4B d   1      -3.871   0.153   3.328  0.00  0.00     0.013 C 
ENDBRANCH   7   8
ENDBRANCH   1   7
TORSDOF 2
ENDMDL
