MODEL 1
REMARK minimizedAffinity 13.9668913
REMARK minimizedRMSD -1
REMARK  2 active torsions:
REMARK  status: ('A' for Active; 'I' for Inactive)
REMARK    1  A    between atoms: C2'_3  and  C1'_4 
REMARK    2  A    between atoms: C1'_4  and  C1_5 
ROOT
ATOM      1  C1  I4B d   1       1.374  -3.842   0.158  0.00  0.00    -0.075 A 
ATOM      2  C2  I4B d   1       2.199  -4.722   0.813  0.00  0.00     0.003 A 
ATOM      3  C3  I4B d   1       1.692  -5.527   1.861  0.00  0.00     0.002 A 
ATOM      4  C4  I4B d   1       0.377  -5.385   2.253  0.00  0.00    -0.004 A 
ATOM      5  C5  I4B d   1      -0.464  -4.509   1.573  0.00  0.00     0.002 A 
ATOM      6  C6  I4B d   1       0.034  -3.741   0.510  0.00  0.00     0.003 A 
ENDROOT
BRANCH   1   7
ATOM      7  C1' I4B d   1       1.949  -2.982  -0.923  0.00  0.00     0.060 C 
BRANCH   7   8
ATOM      8  C2' I4B d   1       0.804  -2.468  -1.770  0.00  0.00    -0.013 C 
ATOM      9  C4' I4B d   1       0.852  -0.968  -1.900  0.00  0.00     0.013 C 
ATOM     10  C3' I4B d   1       0.887  -3.130  -3.113  0.00  0.00     0.013 C 
ENDBRANCH   7   8
ENDBRANCH   1   7
TORSDOF 2
ENDMDL
