MODEL 1
REMARK minimizedAffinity -3.7680099
REMARK minimizedRMSD -1
REMARK  1 active torsions:
REMARK  status: ('A' for Active; 'I' for Inactive)
REMARK    1  A    between atoms: C3_4  and  O_7 
ROOT
ATOM      1  C   UNL d   1      -0.408   0.934   0.370  0.00  0.00    -0.033 A 
ATOM      2  C1  UNL d   1      -0.038   0.536  -0.916  0.00  0.00     0.039 A 
ATOM      3  C2  UNL d   1       1.070  -0.293  -1.101  0.00  0.00    -0.080 A 
ATOM      4  C3  UNL d   1       1.798  -0.718   0.007  0.00  0.00     0.150 A 
ATOM      5  C4  UNL d   1       1.433  -0.329   1.292  0.00  0.00    -0.007 A 
ATOM      6  C5  UNL d   1       0.327   0.500   1.474  0.00  0.00     0.039 A 
ENDROOT
BRANCH   4   7
ATOM      7  O   UNL d   1       2.890  -1.524  -0.123  0.00  0.00    -0.526 OA
ATOM      8  H5  UNL d   1       3.040  -1.688  -1.069  0.00  0.00     0.418 HD
ENDBRANCH   4   7
TORSDOF 1
ENDMDL
