MODEL 1
REMARK minimizedAffinity -3.30669451
REMARK minimizedRMSD -1
REMARK  1 active torsions:
REMARK  status: ('A' for Active; 'I' for Inactive)
REMARK    1  A    between atoms: C3_4  and  O_7 
ROOT
ATOM      1  C   UNL d   1      -0.275  -0.445  -1.247  0.00  0.00    -0.033 A 
ATOM      2  C1  UNL d   1       1.010  -0.594  -0.723  0.00  0.00     0.039 A 
ATOM      3  C2  UNL d   1       1.376   0.089   0.438  0.00  0.00    -0.080 A 
ATOM      4  C3  UNL d   1       0.448   0.916   1.066  0.00  0.00     0.150 A 
ATOM      5  C4  UNL d   1      -0.836   1.065   0.551  0.00  0.00    -0.007 A 
ATOM      6  C5  UNL d   1      -1.199   0.383  -0.610  0.00  0.00     0.039 A 
ENDROOT
BRANCH   4   7
ATOM      7  O   UNL d   1       0.760   1.607   2.199  0.00  0.00    -0.526 OA
ATOM      8  H5  UNL d   1       1.689   1.429   2.422  0.00  0.00     0.418 HD
ENDBRANCH   4   7
TORSDOF 1
ENDMDL
