MODEL 1
REMARK minimizedAffinity -3.43409681
REMARK minimizedRMSD -1
REMARK  1 active torsions:
REMARK  status: ('A' for Active; 'I' for Inactive)
REMARK    1  A    between atoms: C3_4  and  O_7 
ROOT
ATOM      1  C   UNL d   1       0.751  -0.239  -1.314  0.00  0.00    -0.033 A 
ATOM      2  C1  UNL d   1       0.519   1.099  -0.987  0.00  0.00     0.039 A 
ATOM      3  C2  UNL d   1      -0.345   1.423   0.061  0.00  0.00    -0.080 A 
ATOM      4  C3  UNL d   1      -0.968   0.403   0.774  0.00  0.00     0.150 A 
ATOM      5  C4  UNL d   1      -0.738  -0.932   0.456  0.00  0.00    -0.007 A 
ATOM      6  C5  UNL d   1       0.123  -1.254  -0.591  0.00  0.00     0.039 A 
ENDROOT
BRANCH   4   7
ATOM      7  O   UNL d   1      -1.823   0.670   1.802  0.00  0.00    -0.526 OA
ATOM      8  H5  UNL d   1      -1.907   1.634   1.889  0.00  0.00     0.418 HD
ENDBRANCH   4   7
TORSDOF 1
ENDMDL
