MODEL 1
REMARK minimizedAffinity -5.50065136
REMARK minimizedRMSD -1
REMARK  1 active torsions:
REMARK  status: ('A' for Active; 'I' for Inactive)
REMARK    1  A    between atoms: C3_4  and  O_7 
ROOT
ATOM      1  C   UNL d   1      -0.553   0.578   3.543  0.00  0.00    -0.033 A 
ATOM      2  C1  UNL d   1       0.766   0.314   3.171  0.00  0.00     0.039 A 
ATOM      3  C2  UNL d   1       1.080   0.069   1.832  0.00  0.00    -0.080 A 
ATOM      4  C3  UNL d   1       0.067   0.093   0.878  0.00  0.00     0.150 A 
ATOM      5  C4  UNL d   1      -1.249   0.359   1.241  0.00  0.00    -0.007 A 
ATOM      6  C5  UNL d   1      -1.560   0.603   2.578  0.00  0.00     0.039 A 
ENDROOT
BRANCH   4   7
ATOM      7  O   UNL d   1       0.324  -0.145  -0.440  0.00  0.00    -0.526 OA
ATOM      8  H5  UNL d   1       1.271  -0.343  -0.538  0.00  0.00     0.418 HD
ENDBRANCH   4   7
TORSDOF 1
ENDMDL
