MODEL 1
REMARK minimizedAffinity -3.80059052
REMARK minimizedRMSD -1
REMARK  1 active torsions:
REMARK  status: ('A' for Active; 'I' for Inactive)
REMARK    1  A    between atoms: C3_4  and  O_7 
ROOT
ATOM      1  C   UNL d   1      -0.622   0.114  -0.294  0.00  0.00    -0.033 A 
ATOM      2  C1  UNL d   1       0.462   0.702   0.361  0.00  0.00     0.039 A 
ATOM      3  C2  UNL d   1       0.308   1.210   1.652  0.00  0.00    -0.080 A 
ATOM      4  C3  UNL d   1      -0.933   1.124   2.276  0.00  0.00     0.150 A 
ATOM      5  C4  UNL d   1      -2.017   0.537   1.631  0.00  0.00    -0.007 A 
ATOM      6  C5  UNL d   1      -1.861   0.030   0.342  0.00  0.00     0.039 A 
ENDROOT
BRANCH   4   7
ATOM      7  O   UNL d   1      -1.134   1.611   3.534  0.00  0.00    -0.526 OA
ATOM      8  H5  UNL d   1      -0.305   2.014   3.843  0.00  0.00     0.418 HD
ENDBRANCH   4   7
TORSDOF 1
ENDMDL
