MODEL 1
REMARK minimizedAffinity -4.29986715
REMARK minimizedRMSD -1
REMARK  1 active torsions:
REMARK  status: ('A' for Active; 'I' for Inactive)
REMARK    1  A    between atoms: C3_4  and  O_7 
ROOT
ATOM      1  C   UNL d   1       0.354   0.396  -3.677  0.00  0.00    -0.033 A 
ATOM      2  C1  UNL d   1      -0.304   1.424  -3.000  0.00  0.00     0.039 A 
ATOM      3  C2  UNL d   1      -0.472   1.354  -1.615  0.00  0.00    -0.080 A 
ATOM      4  C3  UNL d   1       0.023   0.253  -0.921  0.00  0.00     0.150 A 
ATOM      5  C4  UNL d   1       0.682  -0.773  -1.590  0.00  0.00    -0.007 A 
ATOM      6  C5  UNL d   1       0.849  -0.702  -2.972  0.00  0.00     0.039 A 
ENDROOT
BRANCH   4   7
ATOM      7  O   UNL d   1      -0.122   0.139   0.429  0.00  0.00    -0.526 OA
ATOM      8  H5  UNL d   1      -0.622   0.907   0.752  0.00  0.00     0.418 HD
ENDBRANCH   4   7
TORSDOF 1
ENDMDL
