MODEL 1
REMARK minimizedAffinity -5.49497128
REMARK minimizedRMSD -1
REMARK  1 active torsions:
REMARK  status: ('A' for Active; 'I' for Inactive)
REMARK    1  A    between atoms: C3_4  and  O_7 
ROOT
ATOM      1  C   UNL d   1       1.532  -0.819   0.965  0.00  0.00    -0.033 A 
ATOM      2  C1  UNL d   1       0.422  -0.548   0.162  0.00  0.00     0.039 A 
ATOM      3  C2  UNL d   1      -0.741  -0.025   0.730  0.00  0.00    -0.080 A 
ATOM      4  C3  UNL d   1      -0.782   0.224   2.099  0.00  0.00     0.150 A 
ATOM      5  C4  UNL d   1       0.322  -0.040   2.904  0.00  0.00    -0.007 A 
ATOM      6  C5  UNL d   1       1.482  -0.564   2.336  0.00  0.00     0.039 A 
ENDROOT
BRANCH   4   7
ATOM      7  O   UNL d   1      -1.896   0.729   2.699  0.00  0.00    -0.526 OA
ATOM      8  H5  UNL d   1      -2.588   0.834   2.024  0.00  0.00     0.418 HD
ENDBRANCH   4   7
TORSDOF 1
ENDMDL
