MODEL 1
REMARK minimizedAffinity -3.82660913
REMARK minimizedRMSD -1
REMARK  1 active torsions:
REMARK  status: ('A' for Active; 'I' for Inactive)
REMARK    1  A    between atoms: C3_4  and  O_7 
ROOT
ATOM      1  C   UNL d   1      -1.659   0.501   0.814  0.00  0.00    -0.033 A 
ATOM      2  C1  UNL d   1      -1.589   0.796   2.177  0.00  0.00     0.039 A 
ATOM      3  C2  UNL d   1      -0.472   0.409   2.920  0.00  0.00    -0.080 A 
ATOM      4  C3  UNL d   1       0.566  -0.272   2.289  0.00  0.00     0.150 A 
ATOM      5  C4  UNL d   1       0.504  -0.567   0.931  0.00  0.00    -0.007 A 
ATOM      6  C5  UNL d   1      -0.613  -0.180   0.191  0.00  0.00     0.039 A 
ENDROOT
BRANCH   4   7
ATOM      7  O   UNL d   1       1.673  -0.675   2.974  0.00  0.00    -0.526 OA
ATOM      8  H5  UNL d   1       1.564  -0.428   3.908  0.00  0.00     0.418 HD
ENDBRANCH   4   7
TORSDOF 1
ENDMDL
