MODEL 1
REMARK minimizedAffinity -1.87181008
REMARK minimizedRMSD -1
REMARK  1 active torsions:
REMARK  status: ('A' for Active; 'I' for Inactive)
REMARK    1  A    between atoms: C3_4  and  O_7 
ROOT
ATOM      1  C   UNL d   1      -0.481   0.577  -1.414  0.00  0.00    -0.033 A 
ATOM      2  C1  UNL d   1       0.518  -0.363  -1.675  0.00  0.00     0.039 A 
ATOM      3  C2  UNL d   1       1.344  -0.812  -0.642  0.00  0.00    -0.080 A 
ATOM      4  C3  UNL d   1       1.160  -0.313   0.644  0.00  0.00     0.150 A 
ATOM      5  C4  UNL d   1       0.165   0.621   0.912  0.00  0.00    -0.007 A 
ATOM      6  C5  UNL d   1      -0.658   1.068  -0.121  0.00  0.00     0.039 A 
ENDROOT
BRANCH   4   7
ATOM      7  O   UNL d   1       1.945  -0.717   1.684  0.00  0.00    -0.526 OA
ATOM      8  H5  UNL d   1       2.607  -1.342   1.344  0.00  0.00     0.418 HD
ENDBRANCH   4   7
TORSDOF 1
ENDMDL
