MODEL 1
REMARK minimizedAffinity 12.4980869
REMARK minimizedRMSD -1
REMARK  0 active torsions:
REMARK  status: ('A' for Active; 'I' for Inactive)
ROOT
ATOM      1  C   UNL d   1      -1.462  -5.237  -3.780  0.00  0.00     0.124 A 
ATOM      2  C1  UNL d   1      -1.903  -4.545  -2.660  0.00  0.00     0.062 A 
ATOM      3  C2  UNL d   1      -3.159  -3.945  -2.657  0.00  0.00     0.162 A 
ATOM      4  C3  UNL d   1      -3.985  -4.036  -3.777  0.00  0.00    -0.034 A 
ATOM      5  C4  UNL d   1      -3.535  -4.733  -4.900  0.00  0.00     0.162 A 
ATOM      6  C5  UNL d   1      -2.279  -5.330  -4.899  0.00  0.00     0.062 A 
ATOM      7  F   UNL d   1      -1.855  -5.998  -5.982  0.00  0.00    -0.097 F 
ATOM      8  F1  UNL d   1      -4.303  -4.839  -5.994  0.00  0.00    -0.096 F 
ATOM      9  I   UNL d   1      -5.864  -3.141  -3.776  0.00  0.00    -0.060 I 
ATOM     10  F2  UNL d   1      -3.558  -3.283  -1.561  0.00  0.00    -0.096 F 
ATOM     11  F3  UNL d   1      -1.116  -4.453  -1.579  0.00  0.00    -0.097 F 
ATOM     12  F4  UNL d   1      -0.253  -5.812  -3.781  0.00  0.00    -0.092 F 
ENDROOT
TORSDOF 0
ENDMDL
