MODEL 1
REMARK minimizedAffinity 9.61379242
REMARK minimizedRMSD -1
REMARK  0 active torsions:
REMARK  status: ('A' for Active; 'I' for Inactive)
ROOT
ATOM      1  C   UNL d   1      -1.397  -0.588   0.521  0.00  0.00     0.124 A 
ATOM      2  C1  UNL d   1      -1.854  -0.639   1.831  0.00  0.00     0.062 A 
ATOM      3  C2  UNL d   1      -1.133  -1.334   2.798  0.00  0.00     0.162 A 
ATOM      4  C3  UNL d   1       0.053  -1.984   2.459  0.00  0.00    -0.034 A 
ATOM      5  C4  UNL d   1       0.506  -1.930   1.139  0.00  0.00     0.162 A 
ATOM      6  C5  UNL d   1      -0.218  -1.234   0.177  0.00  0.00     0.062 A 
ATOM      7  F   UNL d   1       0.225  -1.186  -1.088  0.00  0.00    -0.097 F 
ATOM      8  F1  UNL d   1       1.643  -2.544   0.779  0.00  0.00    -0.096 F 
ATOM      9  I   UNL d   1       1.134  -3.025   3.901  0.00  0.00    -0.060 I 
ATOM     10  F2  UNL d   1      -1.598  -1.366   4.055  0.00  0.00    -0.096 F 
ATOM     11  F3  UNL d   1      -2.993  -0.016   2.166  0.00  0.00    -0.097 F 
ATOM     12  F4  UNL d   1      -2.093   0.081  -0.407  0.00  0.00    -0.092 F 
ENDROOT
TORSDOF 0
ENDMDL
