MODEL 1
REMARK minimizedAffinity 12.054224
REMARK minimizedRMSD -1
REMARK  0 active torsions:
REMARK  status: ('A' for Active; 'I' for Inactive)
ROOT
ATOM      1  C   UNL d   1      -2.741  -0.550  -0.730  0.00  0.00     0.124 A 
ATOM      2  C1  UNL d   1      -2.003   0.451  -1.346  0.00  0.00     0.062 A 
ATOM      3  C2  UNL d   1      -0.783   0.852  -0.810  0.00  0.00     0.162 A 
ATOM      4  C3  UNL d   1      -0.292   0.251   0.349  0.00  0.00    -0.034 A 
ATOM      5  C4  UNL d   1      -1.040  -0.755   0.964  0.00  0.00     0.162 A 
ATOM      6  C5  UNL d   1      -2.259  -1.152   0.424  0.00  0.00     0.062 A 
ATOM      7  F   UNL d   1      -2.971  -2.119   1.021  0.00  0.00    -0.097 F 
ATOM      8  F1  UNL d   1      -0.598  -1.354   2.079  0.00  0.00    -0.096 F 
ATOM      9  I   UNL d   1       1.532   0.847   1.154  0.00  0.00    -0.060 I 
ATOM     10  F2  UNL d   1      -0.091   1.821  -1.426  0.00  0.00    -0.096 F 
ATOM     11  F3  UNL d   1      -2.467   1.034  -2.461  0.00  0.00    -0.097 F 
ATOM     12  F4  UNL d   1      -3.915  -0.933  -1.248  0.00  0.00    -0.092 F 
ENDROOT
TORSDOF 0
ENDMDL
