MODEL 1
REMARK minimizedAffinity 6.41978884
REMARK minimizedRMSD -1
REMARK  0 active torsions:
REMARK  status: ('A' for Active; 'I' for Inactive)
ROOT
ATOM      1  C   UNL d   1      -1.436  -4.544  -2.723  0.00  0.00     0.124 A 
ATOM      2  C1  UNL d   1      -2.702  -4.068  -2.409  0.00  0.00     0.062 A 
ATOM      3  C2  UNL d   1      -3.755  -4.238  -3.303  0.00  0.00     0.162 A 
ATOM      4  C3  UNL d   1      -3.547  -4.887  -4.520  0.00  0.00    -0.034 A 
ATOM      5  C4  UNL d   1      -2.271  -5.362  -4.830  0.00  0.00     0.162 A 
ATOM      6  C5  UNL d   1      -1.222  -5.190  -3.933  0.00  0.00     0.062 A 
ATOM      7  F   UNL d   1       0.000  -5.650  -4.238  0.00  0.00    -0.097 F 
ATOM      8  F1  UNL d   1      -2.037  -5.991  -5.991  0.00  0.00    -0.096 F 
ATOM      9  I   UNL d   1      -5.120  -5.143  -5.860  0.00  0.00    -0.060 I 
ATOM     10  F2  UNL d   1      -4.967  -3.769  -2.973  0.00  0.00    -0.096 F 
ATOM     11  F3  UNL d   1      -2.911  -3.443  -1.242  0.00  0.00    -0.097 F 
ATOM     12  F4  UNL d   1      -0.424  -4.378  -1.862  0.00  0.00    -0.092 F 
ENDROOT
TORSDOF 0
ENDMDL
