MODEL 1
REMARK minimizedAffinity 10.1355495
REMARK minimizedRMSD -1
REMARK  0 active torsions:
REMARK  status: ('A' for Active; 'I' for Inactive)
ROOT
ATOM      1  C   UNL d   1      -1.472  -2.067   0.402  0.00  0.00     0.124 A 
ATOM      2  C1  UNL d   1      -0.547  -1.153   0.886  0.00  0.00     0.062 A 
ATOM      3  C2  UNL d   1      -0.617   0.184   0.505  0.00  0.00     0.162 A 
ATOM      4  C3  UNL d   1      -1.618   0.615  -0.365  0.00  0.00    -0.034 A 
ATOM      5  C4  UNL d   1      -2.545  -0.310  -0.849  0.00  0.00     0.162 A 
ATOM      6  C5  UNL d   1      -2.470  -1.645  -0.465  0.00  0.00     0.062 A 
ATOM      7  F   UNL d   1      -3.365  -2.526  -0.935  0.00  0.00    -0.097 F 
ATOM      8  F1  UNL d   1      -3.520   0.071  -1.688  0.00  0.00    -0.096 F 
ATOM      9  I   UNL d   1      -1.727   2.613  -0.938  0.00  0.00    -0.060 I 
ATOM     10  F2  UNL d   1       0.290   1.045   0.989  0.00  0.00    -0.096 F 
ATOM     11  F3  UNL d   1       0.419  -1.559   1.723  0.00  0.00    -0.097 F 
ATOM     12  F4  UNL d   1      -1.401  -3.353   0.770  0.00  0.00    -0.092 F 
ENDROOT
TORSDOF 0
ENDMDL
