MODEL 1
REMARK minimizedAffinity 4.44405985
REMARK minimizedRMSD -1
REMARK  0 active torsions:
REMARK  status: ('A' for Active; 'I' for Inactive)
ROOT
ATOM      1  C   UNL d   1      -4.369  -2.280  -2.841  0.00  0.00     0.124 A 
ATOM      2  C1  UNL d   1      -3.661  -3.449  -2.599  0.00  0.00     0.062 A 
ATOM      3  C2  UNL d   1      -3.734  -4.510  -3.497  0.00  0.00     0.162 A 
ATOM      4  C3  UNL d   1      -4.518  -4.407  -4.646  0.00  0.00    -0.034 A 
ATOM      5  C4  UNL d   1      -5.229  -3.229  -4.882  0.00  0.00     0.162 A 
ATOM      6  C5  UNL d   1      -5.152  -2.171  -3.982  0.00  0.00     0.062 A 
ATOM      7  F   UNL d   1      -5.838  -1.043  -4.217  0.00  0.00    -0.097 F 
ATOM      8  F1  UNL d   1      -5.992  -3.097  -5.976  0.00  0.00    -0.096 F 
ATOM      9  I   UNL d   1      -4.630  -5.992  -5.990  0.00  0.00    -0.060 I 
ATOM     10  F2  UNL d   1      -3.039  -5.627  -3.238  0.00  0.00    -0.096 F 
ATOM     11  F3  UNL d   1      -2.904  -3.557  -1.498  0.00  0.00    -0.097 F 
ATOM     12  F4  UNL d   1      -4.298  -1.261  -1.975  0.00  0.00    -0.092 F 
ENDROOT
TORSDOF 0
ENDMDL
