MODEL 1
REMARK minimizedAffinity 13.2592573
REMARK minimizedRMSD -1
REMARK  0 active torsions:
REMARK  status: ('A' for Active; 'I' for Inactive)
ROOT
ATOM      1  C   UNL d   1      -2.075  -4.803  -4.085  0.00  0.00     0.124 A 
ATOM      2  C1  UNL d   1      -2.201  -3.824  -3.109  0.00  0.00     0.062 A 
ATOM      3  C2  UNL d   1      -3.309  -2.982  -3.101  0.00  0.00     0.162 A 
ATOM      4  C3  UNL d   1      -4.301  -3.114  -4.072  0.00  0.00    -0.034 A 
ATOM      5  C4  UNL d   1      -4.167  -4.100  -5.051  0.00  0.00     0.162 A 
ATOM      6  C5  UNL d   1      -3.058  -4.940  -5.055  0.00  0.00     0.062 A 
ATOM      7  F   UNL d   1      -2.938  -5.884  -5.999  0.00  0.00    -0.097 F 
ATOM      8  F1  UNL d   1      -5.103  -4.255  -6.000  0.00  0.00    -0.096 F 
ATOM      9  I   UNL d   1      -5.959  -1.857  -4.063  0.00  0.00    -0.060 I 
ATOM     10  F2  UNL d   1      -3.404  -2.045  -2.145  0.00  0.00    -0.096 F 
ATOM     11  F3  UNL d   1      -1.252  -3.689  -2.171  0.00  0.00    -0.097 F 
ATOM     12  F4  UNL d   1      -1.008  -5.611  -4.092  0.00  0.00    -0.092 F 
ENDROOT
TORSDOF 0
ENDMDL
