MODEL 1
REMARK minimizedAffinity 3.56401443
REMARK minimizedRMSD -1
REMARK  0 active torsions:
REMARK  status: ('A' for Active; 'I' for Inactive)
ROOT
ATOM      1  C   UNL d   1      -2.206  -0.599   1.534  0.00  0.00     0.124 A 
ATOM      2  C1  UNL d   1      -2.783  -1.790   1.116  0.00  0.00     0.062 A 
ATOM      3  C2  UNL d   1      -3.392  -1.872  -0.133  0.00  0.00     0.162 A 
ATOM      4  C3  UNL d   1      -3.427  -0.759  -0.974  0.00  0.00    -0.034 A 
ATOM      5  C4  UNL d   1      -2.845   0.435  -0.545  0.00  0.00     0.162 A 
ATOM      6  C5  UNL d   1      -2.237   0.512   0.703  0.00  0.00     0.062 A 
ATOM      7  F   UNL d   1      -1.680   1.664   1.106  0.00  0.00    -0.097 F 
ATOM      8  F1  UNL d   1      -2.861   1.524  -1.328  0.00  0.00    -0.096 F 
ATOM      9  I   UNL d   1      -4.337  -0.877  -2.841  0.00  0.00    -0.060 I 
ATOM     10  F2  UNL d   1      -3.942  -3.036  -0.512  0.00  0.00    -0.096 F 
ATOM     11  F3  UNL d   1      -2.754  -2.865   1.917  0.00  0.00    -0.097 F 
ATOM     12  F4  UNL d   1      -1.621  -0.523   2.736  0.00  0.00    -0.092 F 
ENDROOT
TORSDOF 0
ENDMDL
