MODEL 1
REMARK minimizedAffinity 11.4097404
REMARK minimizedRMSD -1
REMARK  0 active torsions:
REMARK  status: ('A' for Active; 'I' for Inactive)
ROOT
ATOM      1  C   UNL d   1      -2.358  -0.777  -0.139  0.00  0.00     0.124 A 
ATOM      2  C1  UNL d   1      -1.442   0.008  -0.825  0.00  0.00     0.062 A 
ATOM      3  C2  UNL d   1      -0.094  -0.024  -0.479  0.00  0.00     0.162 A 
ATOM      4  C3  UNL d   1       0.347  -0.846   0.558  0.00  0.00    -0.034 A 
ATOM      5  C4  UNL d   1      -0.581  -1.632   1.244  0.00  0.00     0.162 A 
ATOM      6  C5  UNL d   1      -1.927  -1.596   0.895  0.00  0.00     0.062 A 
ATOM      7  F   UNL d   1      -2.810  -2.355   1.559  0.00  0.00    -0.097 F 
ATOM      8  F1  UNL d   1      -0.191  -2.433   2.247  0.00  0.00    -0.096 F 
ATOM      9  I   UNL d   1       2.361  -0.897   1.078  0.00  0.00    -0.060 I 
ATOM     10  F2  UNL d   1       0.769   0.745  -1.160  0.00  0.00    -0.096 F 
ATOM     11  F3  UNL d   1      -1.856   0.801  -1.824  0.00  0.00    -0.097 F 
ATOM     12  F4  UNL d   1      -3.654  -0.743  -0.473  0.00  0.00    -0.092 F 
ENDROOT
TORSDOF 0
ENDMDL
