MODEL 1
REMARK minimizedAffinity 11.5846167
REMARK minimizedRMSD -1
REMARK  0 active torsions:
REMARK  status: ('A' for Active; 'I' for Inactive)
ROOT
ATOM      1  C   UNL d   1      -2.407  -1.934   0.860  0.00  0.00     0.124 A 
ATOM      2  C1  UNL d   1      -2.442  -0.923  -0.090  0.00  0.00     0.062 A 
ATOM      3  C2  UNL d   1      -1.316  -0.137  -0.317  0.00  0.00     0.162 A 
ATOM      4  C3  UNL d   1      -0.144  -0.360   0.406  0.00  0.00    -0.034 A 
ATOM      5  C4  UNL d   1      -0.117  -1.378   1.361  0.00  0.00     0.162 A 
ATOM      6  C5  UNL d   1      -1.245  -2.161   1.584  0.00  0.00     0.062 A 
ATOM      7  F   UNL d   1      -1.210  -3.137   2.503  0.00  0.00    -0.097 F 
ATOM      8  F1  UNL d   1       0.993  -1.620   2.074  0.00  0.00    -0.096 F 
ATOM      9  I   UNL d   1       1.542   0.812   0.068  0.00  0.00    -0.060 I 
ATOM     10  F2  UNL d   1      -1.378   0.833  -1.242  0.00  0.00    -0.096 F 
ATOM     11  F3  UNL d   1      -3.563  -0.701  -0.790  0.00  0.00    -0.097 F 
ATOM     12  F4  UNL d   1      -3.492  -2.688   1.078  0.00  0.00    -0.092 F 
ENDROOT
TORSDOF 0
ENDMDL
