MODEL 1
REMARK minimizedAffinity 8.68814754
REMARK minimizedRMSD -1
REMARK  0 active torsions:
REMARK  status: ('A' for Active; 'I' for Inactive)
ROOT
ATOM      1  C   UNL d   1      -1.277  -2.187   1.734  0.00  0.00     0.124 A 
ATOM      2  C1  UNL d   1       0.054  -2.355   2.088  0.00  0.00     0.062 A 
ATOM      3  C2  UNL d   1       1.013  -1.440   1.663  0.00  0.00     0.162 A 
ATOM      4  C3  UNL d   1       0.644  -0.347   0.879  0.00  0.00    -0.034 A 
ATOM      5  C4  UNL d   1      -0.697  -0.185   0.526  0.00  0.00     0.162 A 
ATOM      6  C5  UNL d   1      -1.651  -1.102   0.953  0.00  0.00     0.062 A 
ATOM      7  F   UNL d   1      -2.937  -0.938   0.610  0.00  0.00    -0.097 F 
ATOM      8  F1  UNL d   1      -1.087   0.854  -0.227  0.00  0.00    -0.096 F 
ATOM      9  I   UNL d   1       2.074   1.023   0.241  0.00  0.00    -0.060 I 
ATOM     10  F2  UNL d   1       2.292  -1.628   2.021  0.00  0.00    -0.096 F 
ATOM     11  F3  UNL d   1       0.419  -3.403   2.842  0.00  0.00    -0.097 F 
ATOM     12  F4  UNL d   1      -2.197  -3.069   2.144  0.00  0.00    -0.092 F 
ENDROOT
TORSDOF 0
ENDMDL
