MODEL 1
REMARK minimizedAffinity 5.21714878
REMARK minimizedRMSD -1
REMARK  0 active torsions:
REMARK  status: ('A' for Active; 'I' for Inactive)
ROOT
ATOM      1  C   UNL d   1      -1.496  -1.457   0.946  0.00  0.00     0.124 A 
ATOM      2  C1  UNL d   1      -0.900  -2.647   1.338  0.00  0.00     0.062 A 
ATOM      3  C2  UNL d   1       0.484  -2.729   1.466  0.00  0.00     0.162 A 
ATOM      4  C3  UNL d   1       1.282  -1.616   1.202  0.00  0.00    -0.034 A 
ATOM      5  C4  UNL d   1       0.675  -0.422   0.807  0.00  0.00     0.162 A 
ATOM      6  C5  UNL d   1      -0.708  -0.346   0.681  0.00  0.00     0.062 A 
ATOM      7  F   UNL d   1      -1.282   0.806   0.302  0.00  0.00    -0.097 F 
ATOM      8  F1  UNL d   1       1.413   0.667   0.545  0.00  0.00    -0.096 F 
ATOM      9  I   UNL d   1       3.351  -1.734   1.392  0.00  0.00    -0.060 I 
ATOM     10  F2  UNL d   1       1.032  -3.892   1.847  0.00  0.00    -0.096 F 
ATOM     11  F3  UNL d   1      -1.659  -3.723   1.594  0.00  0.00    -0.097 F 
ATOM     12  F4  UNL d   1      -2.827  -1.381   0.823  0.00  0.00    -0.092 F 
ENDROOT
TORSDOF 0
ENDMDL
