MODEL 1
REMARK minimizedAffinity 21.9060497
REMARK minimizedRMSD -1
REMARK  0 active torsions:
REMARK  status: ('A' for Active; 'I' for Inactive)
ROOT
ATOM      1  C   UNL d   1       1.741  -0.617   1.224  0.00  0.00     0.124 A 
ATOM      2  C1  UNL d   1       1.152   0.639   1.178  0.00  0.00     0.062 A 
ATOM      3  C2  UNL d   1      -0.179   0.774   0.793  0.00  0.00     0.162 A 
ATOM      4  C3  UNL d   1      -0.930  -0.351   0.452  0.00  0.00    -0.034 A 
ATOM      5  C4  UNL d   1      -0.331  -1.610   0.500  0.00  0.00     0.162 A 
ATOM      6  C5  UNL d   1       1.000  -1.740   0.885  0.00  0.00     0.062 A 
ATOM      7  F   UNL d   1       1.567  -2.955   0.929  0.00  0.00    -0.097 F 
ATOM      8  F1  UNL d   1      -1.025  -2.712   0.179  0.00  0.00    -0.096 F 
ATOM      9  I   UNL d   1      -2.921  -0.153  -0.123  0.00  0.00    -0.060 I 
ATOM     10  F2  UNL d   1      -0.722   2.000   0.758  0.00  0.00    -0.096 F 
ATOM     11  F3  UNL d   1       1.867   1.725   1.504  0.00  0.00    -0.097 F 
ATOM     12  F4  UNL d   1       3.022  -0.745   1.594  0.00  0.00    -0.092 F 
ENDROOT
TORSDOF 0
ENDMDL
