MODEL 1
REMARK minimizedAffinity 7.53997183
REMARK minimizedRMSD -1
REMARK  0 active torsions:
REMARK  status: ('A' for Active; 'I' for Inactive)
ROOT
ATOM      1  C   UNL d   1      -2.296  -0.689  -0.211  0.00  0.00     0.124 A 
ATOM      2  C1  UNL d   1      -2.392  -1.969   0.319  0.00  0.00     0.062 A 
ATOM      3  C2  UNL d   1      -1.318  -2.523   1.010  0.00  0.00     0.162 A 
ATOM      4  C3  UNL d   1      -0.139  -1.797   1.176  0.00  0.00    -0.034 A 
ATOM      5  C4  UNL d   1      -0.049  -0.512   0.640  0.00  0.00     0.162 A 
ATOM      6  C5  UNL d   1      -1.125   0.038  -0.049  0.00  0.00     0.062 A 
ATOM      7  F   UNL d   1      -1.030   1.274  -0.560  0.00  0.00    -0.097 F 
ATOM      8  F1  UNL d   1       1.070   0.214   0.782  0.00  0.00    -0.096 F 
ATOM      9  I   UNL d   1       1.469  -2.622   2.209  0.00  0.00    -0.060 I 
ATOM     10  F2  UNL d   1      -1.439  -3.761   1.511  0.00  0.00    -0.096 F 
ATOM     11  F3  UNL d   1      -3.522  -2.674   0.164  0.00  0.00    -0.097 F 
ATOM     12  F4  UNL d   1      -3.330  -0.159  -0.876  0.00  0.00    -0.092 F 
ENDROOT
TORSDOF 0
ENDMDL
