MODEL 1
REMARK minimizedAffinity 7.12654257
REMARK minimizedRMSD -1
REMARK  0 active torsions:
REMARK  status: ('A' for Active; 'I' for Inactive)
ROOT
ATOM      1  C   UNL d   1      -4.160  -2.111  -3.079  0.00  0.00     0.124 A 
ATOM      2  C1  UNL d   1      -3.161  -3.046  -2.845  0.00  0.00     0.062 A 
ATOM      3  C2  UNL d   1      -3.032  -4.156  -3.676  0.00  0.00     0.162 A 
ATOM      4  C3  UNL d   1      -3.905  -4.336  -4.749  0.00  0.00    -0.034 A 
ATOM      5  C4  UNL d   1      -4.908  -3.392  -4.977  0.00  0.00     0.162 A 
ATOM      6  C5  UNL d   1      -5.032  -2.285  -4.144  0.00  0.00     0.062 A 
ATOM      7  F   UNL d   1      -5.998  -1.382  -4.371  0.00  0.00    -0.097 F 
ATOM      8  F1  UNL d   1      -5.764  -3.534  -6.000  0.00  0.00    -0.096 F 
ATOM      9  I   UNL d   1      -3.717  -5.993  -5.994  0.00  0.00    -0.060 I 
ATOM     10  F2  UNL d   1      -2.058  -5.043  -3.427  0.00  0.00    -0.096 F 
ATOM     11  F3  UNL d   1      -2.317  -2.882  -1.816  0.00  0.00    -0.097 F 
ATOM     12  F4  UNL d   1      -4.281  -1.045  -2.277  0.00  0.00    -0.092 F 
ENDROOT
TORSDOF 0
ENDMDL
