MODEL 1
REMARK minimizedAffinity 14.8153582
REMARK minimizedRMSD -1
REMARK  0 active torsions:
REMARK  status: ('A' for Active; 'I' for Inactive)
ROOT
ATOM      1  C   UNL d   1      -0.466  -2.387   1.597  0.00  0.00     0.124 A 
ATOM      2  C1  UNL d   1       0.400  -1.339   1.312  0.00  0.00     0.062 A 
ATOM      3  C2  UNL d   1      -0.058  -0.222   0.619  0.00  0.00     0.162 A 
ATOM      4  C3  UNL d   1      -1.388  -0.146   0.207  0.00  0.00    -0.034 A 
ATOM      5  C4  UNL d   1      -2.252  -1.203   0.496  0.00  0.00     0.162 A 
ATOM      6  C5  UNL d   1      -1.790  -2.318   1.189  0.00  0.00     0.062 A 
ATOM      7  F   UNL d   1      -2.628  -3.329   1.463  0.00  0.00    -0.097 F 
ATOM      8  F1  UNL d   1      -3.538  -1.163   0.115  0.00  0.00    -0.096 F 
ATOM      9  I   UNL d   1      -2.076   1.523  -0.829  0.00  0.00    -0.060 I 
ATOM     10  F2  UNL d   1       0.800   0.775   0.358  0.00  0.00    -0.096 F 
ATOM     11  F3  UNL d   1       1.680  -1.404   1.704  0.00  0.00    -0.097 F 
ATOM     12  F4  UNL d   1      -0.023  -3.461   2.262  0.00  0.00    -0.092 F 
ENDROOT
TORSDOF 0
ENDMDL
