MODEL 1
REMARK minimizedAffinity 15.4341679
REMARK minimizedRMSD -1
REMARK  0 active torsions:
REMARK  status: ('A' for Active; 'I' for Inactive)
ROOT
ATOM      1  C   UNL d   1      -2.819   0.751  -2.486  0.00  0.00     0.124 A 
ATOM      2  C1  UNL d   1      -2.461   0.632  -3.822  0.00  0.00     0.062 A 
ATOM      3  C2  UNL d   1      -3.295  -0.036  -4.714  0.00  0.00     0.162 A 
ATOM      4  C3  UNL d   1      -4.497  -0.590  -4.272  0.00  0.00    -0.034 A 
ATOM      5  C4  UNL d   1      -4.850  -0.467  -2.927  0.00  0.00     0.162 A 
ATOM      6  C5  UNL d   1      -4.013   0.202  -2.040  0.00  0.00     0.062 A 
ATOM      7  F   UNL d   1      -4.360   0.316  -0.750  0.00  0.00    -0.097 F 
ATOM      8  F1  UNL d   1      -5.998  -0.987  -2.470  0.00  0.00    -0.096 F 
ATOM      9  I   UNL d   1      -5.747  -1.590  -5.602  0.00  0.00    -0.060 I 
ATOM     10  F2  UNL d   1      -2.923  -0.137  -5.999  0.00  0.00    -0.096 F 
ATOM     11  F3  UNL d   1      -1.307   1.161  -4.255  0.00  0.00    -0.097 F 
ATOM     12  F4  UNL d   1      -2.014   1.394  -1.631  0.00  0.00    -0.092 F 
ENDROOT
TORSDOF 0
ENDMDL
