MODEL 1
REMARK minimizedAffinity -2.55129743
REMARK minimizedRMSD -1
REMARK  0 active torsions:
REMARK  status: ('A' for Active; 'I' for Inactive)
ROOT
ATOM      1  C1  BNZ d   1       1.024   0.021  -1.031  0.00  0.00     0.000 A 
ATOM      2  C2  BNZ d   1      -0.055   0.824  -0.771  0.00  0.00     0.000 A 
ATOM      3  C3  BNZ d   1      -1.156   0.330  -0.129  0.00  0.00     0.000 A 
ATOM      4  C4  BNZ d   1      -1.194  -0.974   0.215  0.00  0.00     0.000 A 
ATOM      5  C5  BNZ d   1      -0.118  -1.798  -0.049  0.00  0.00     0.000 A 
ATOM      6  C6  BNZ d   1       1.004  -1.288  -0.660  0.00  0.00     0.000 A 
ENDROOT
TORSDOF 0
ENDMDL
