MODEL 1
REMARK minimizedAffinity -1.69374096
REMARK minimizedRMSD -1
REMARK  0 active torsions:
REMARK  status: ('A' for Active; 'I' for Inactive)
ROOT
ATOM      1  C1  BNZ d   1      -0.931   1.733   1.543  0.00  0.00     0.000 A 
ATOM      2  C2  BNZ d   1      -1.332   2.239   2.750  0.00  0.00     0.000 A 
ATOM      3  C3  BNZ d   1      -2.220   1.557   3.535  0.00  0.00     0.000 A 
ATOM      4  C4  BNZ d   1      -2.736   0.392   3.093  0.00  0.00     0.000 A 
ATOM      5  C5  BNZ d   1      -2.349  -0.126   1.873  0.00  0.00     0.000 A 
ATOM      6  C6  BNZ d   1      -1.425   0.544   1.104  0.00  0.00     0.000 A 
ENDROOT
TORSDOF 0
ENDMDL
