MODEL 1
REMARK minimizedAffinity -4.64463472
REMARK minimizedRMSD -1
REMARK  0 active torsions:
REMARK  status: ('A' for Active; 'I' for Inactive)
ROOT
ATOM      1  C1  BNZ d   1       0.292  -0.072  -0.157  0.00  0.00     0.000 A 
ATOM      2  C2  BNZ d   1       1.065  -1.192  -0.310  0.00  0.00     0.000 A 
ATOM      3  C3  BNZ d   1       2.347  -1.100  -0.774  0.00  0.00     0.000 A 
ATOM      4  C4  BNZ d   1       2.840   0.106  -1.123  0.00  0.00     0.000 A 
ATOM      5  C5  BNZ d   1       2.070   1.243  -0.983  0.00  0.00     0.000 A 
ATOM      6  C6  BNZ d   1       0.794   1.151  -0.479  0.00  0.00     0.000 A 
ENDROOT
TORSDOF 0
ENDMDL
