MODEL 1
REMARK minimizedAffinity -4.9991188
REMARK minimizedRMSD -1
REMARK  0 active torsions:
REMARK  status: ('A' for Active; 'I' for Inactive)
ROOT
ATOM      1  C1  BNZ d   1       3.095  -0.425  -1.404  0.00  0.00     0.000 A 
ATOM      2  C2  BNZ d   1       2.081  -0.224  -0.506  0.00  0.00     0.000 A 
ATOM      3  C3  BNZ d   1       1.109   0.707  -0.745  0.00  0.00     0.000 A 
ATOM      4  C4  BNZ d   1       1.175   1.463  -1.861  0.00  0.00     0.000 A 
ATOM      5  C5  BNZ d   1       2.196   1.278  -2.771  0.00  0.00     0.000 A 
ATOM      6  C6  BNZ d   1       3.151   0.313  -2.546  0.00  0.00     0.000 A 
ENDROOT
TORSDOF 0
ENDMDL
