MODEL 1
REMARK minimizedAffinity -2.83271337
REMARK minimizedRMSD -1
REMARK  0 active torsions:
REMARK  status: ('A' for Active; 'I' for Inactive)
ROOT
ATOM      1  C1  BNZ d   1      -0.338   0.399  -0.713  0.00  0.00     0.000 A 
ATOM      2  C2  BNZ d   1       0.864   0.327  -1.364  0.00  0.00     0.000 A 
ATOM      3  C3  BNZ d   1       1.507  -0.869  -1.518  0.00  0.00     0.000 A 
ATOM      4  C4  BNZ d   1       0.967  -1.985  -0.987  0.00  0.00     0.000 A 
ATOM      5  C5  BNZ d   1      -0.241  -1.928  -0.320  0.00  0.00     0.000 A 
ATOM      6  C6  BNZ d   1      -0.904  -0.728  -0.201  0.00  0.00     0.000 A 
ENDROOT
TORSDOF 0
ENDMDL
