MODEL 1
REMARK minimizedAffinity -4.03815985
REMARK minimizedRMSD -1
REMARK  0 active torsions:
REMARK  status: ('A' for Active; 'I' for Inactive)
ROOT
ATOM      1  C1  BNZ d   1      -0.917   1.043   0.271  0.00  0.00     0.000 A 
ATOM      2  C2  BNZ d   1       0.202   1.429  -0.418  0.00  0.00     0.000 A 
ATOM      3  C3  BNZ d   1       1.105   0.503  -0.860  0.00  0.00     0.000 A 
ATOM      4  C4  BNZ d   1       0.910  -0.801  -0.578  0.00  0.00     0.000 A 
ATOM      5  C5  BNZ d   1      -0.208  -1.205   0.123  0.00  0.00     0.000 A 
ATOM      6  C6  BNZ d   1      -1.136  -0.275   0.533  0.00  0.00     0.000 A 
ENDROOT
TORSDOF 0
ENDMDL
