MODEL 1
REMARK minimizedAffinity -4.31858063
REMARK minimizedRMSD -1
REMARK  0 active torsions:
REMARK  status: ('A' for Active; 'I' for Inactive)
ROOT
ATOM      1  C1  BNZ d   1       1.528   0.584  -0.772  0.00  0.00     0.000 A 
ATOM      2  C2  BNZ d   1       0.396   1.349  -0.668  0.00  0.00     0.000 A 
ATOM      3  C3  BNZ d   1      -0.752   0.830  -0.139  0.00  0.00     0.000 A 
ATOM      4  C4  BNZ d   1      -0.780  -0.462   0.248  0.00  0.00     0.000 A 
ATOM      5  C5  BNZ d   1       0.350  -1.248   0.141  0.00  0.00     0.000 A 
ATOM      6  C6  BNZ d   1       1.515  -0.712  -0.356  0.00  0.00     0.000 A 
ENDROOT
TORSDOF 0
ENDMDL
