MODEL 1
REMARK minimizedAffinity -3.0318675
REMARK minimizedRMSD -1
REMARK  0 active torsions:
REMARK  status: ('A' for Active; 'I' for Inactive)
ROOT
ATOM      1  C1  BNZ d   1       1.156   0.453  -0.744  0.00  0.00     0.000 A 
ATOM      2  C2  BNZ d   1       0.256  -0.390  -0.149  0.00  0.00     0.000 A 
ATOM      3  C3  BNZ d   1      -1.075  -0.081  -0.113  0.00  0.00     0.000 A 
ATOM      4  C4  BNZ d   1      -1.498   1.088  -0.635  0.00  0.00     0.000 A 
ATOM      5  C5  BNZ d   1      -0.601   1.953  -1.231  0.00  0.00     0.000 A 
ATOM      6  C6  BNZ d   1       0.732   1.620  -1.300  0.00  0.00     0.000 A 
ENDROOT
TORSDOF 0
ENDMDL
