MODEL 1
REMARK minimizedAffinity -4.59344053
REMARK minimizedRMSD -1
REMARK  0 active torsions:
REMARK  status: ('A' for Active; 'I' for Inactive)
ROOT
ATOM      1  C1  BNZ d   1       2.124  -1.146  -0.532  0.00  0.00     0.000 A 
ATOM      2  C2  BNZ d   1       0.867  -1.456  -0.087  0.00  0.00     0.000 A 
ATOM      3  C3  BNZ d   1      -0.174  -0.588  -0.267  0.00  0.00     0.000 A 
ATOM      4  C4  BNZ d   1       0.052   0.604  -0.857  0.00  0.00     0.000 A 
ATOM      5  C5  BNZ d   1       1.316   0.935  -1.303  0.00  0.00     0.000 A 
ATOM      6  C6  BNZ d   1       2.353   0.042  -1.155  0.00  0.00     0.000 A 
ENDROOT
TORSDOF 0
ENDMDL
