MODEL 1
REMARK minimizedAffinity -5.17420149
REMARK minimizedRMSD -1
REMARK  0 active torsions:
REMARK  status: ('A' for Active; 'I' for Inactive)
ROOT
ATOM      1  C1  BNZ d   1       0.367   0.616  -0.523  0.00  0.00     0.000 A 
ATOM      2  C2  BNZ d   1       0.714   1.592  -1.419  0.00  0.00     0.000 A 
ATOM      3  C3  BNZ d   1       1.809   1.446  -2.224  0.00  0.00     0.000 A 
ATOM      4  C4  BNZ d   1       2.577   0.344  -2.105  0.00  0.00     0.000 A 
ATOM      5  C5  BNZ d   1       2.245  -0.645  -1.200  0.00  0.00     0.000 A 
ATOM      6  C6  BNZ d   1       1.121  -0.512  -0.418  0.00  0.00     0.000 A 
ENDROOT
TORSDOF 0
ENDMDL
