MODEL 1
REMARK minimizedAffinity -4.23684549
REMARK minimizedRMSD -1
REMARK  0 active torsions:
REMARK  status: ('A' for Active; 'I' for Inactive)
ROOT
ATOM      1  C1  BNZ d   1       1.003  -1.763  -0.492  0.00  0.00     0.000 A 
ATOM      2  C2  BNZ d   1       1.771  -0.654  -0.728  0.00  0.00     0.000 A 
ATOM      3  C3  BNZ d   1       1.240   0.601  -0.622  0.00  0.00     0.000 A 
ATOM      4  C4  BNZ d   1      -0.067   0.744  -0.320  0.00  0.00     0.000 A 
ATOM      5  C5  BNZ d   1      -0.857  -0.364  -0.089  0.00  0.00     0.000 A 
ATOM      6  C6  BNZ d   1      -0.309  -1.625  -0.158  0.00  0.00     0.000 A 
ENDROOT
TORSDOF 0
ENDMDL
