MODEL 1
REMARK minimizedAffinity 14.8439827
REMARK minimizedRMSD -1
REMARK  1 active torsions:
REMARK  status: ('A' for Active; 'I' for Inactive)
REMARK    1  A    between atoms: C1_2  and  C2_3 
ROOT
ATOM      1  C2  UNL d   1       0.605   0.386   2.687  0.00  0.00    -0.081 A 
ATOM      2  C3  UNL d   1      -0.385   1.325   2.370  0.00  0.00     0.006 A 
ATOM      3  C4  UNL d   1      -1.486   0.957   1.594  0.00  0.00     0.002 A 
ATOM      4  C5  UNL d   1      -1.621  -0.355   1.128  0.00  0.00    -0.080 A 
ATOM      5  C6  UNL d   1      -2.814  -0.770   0.319  0.00  0.00     0.076 C 
ATOM      6  C7  UNL d   1      -0.623  -1.288   1.430  0.00  0.00     0.002 A 
ATOM      7  C8  UNL d   1       0.478  -0.922   2.206  0.00  0.00     0.006 A 
ENDROOT
BRANCH   1   8
ATOM      8  C1  UNL d   1       1.760   0.763   3.579  0.00  0.00     0.054 C 
ATOM      9  C   UNL d   1       1.556   0.249   4.997  0.00  0.00     0.018 C 
ENDBRANCH   1   8
TORSDOF 1
ENDMDL
