MODEL 1
REMARK minimizedAffinity 4.83601284
REMARK minimizedRMSD -1
REMARK  1 active torsions:
REMARK  status: ('A' for Active; 'I' for Inactive)
REMARK    1  A    between atoms: C1_2  and  C2_3 
ROOT
ATOM      1  C2  UNL d   1       2.992   0.389   3.491  0.00  0.00    -0.081 A 
ATOM      2  C3  UNL d   1       3.467   0.761   4.755  0.00  0.00     0.006 A 
ATOM      3  C4  UNL d   1       4.141   1.972   4.929  0.00  0.00     0.002 A 
ATOM      4  C5  UNL d   1       4.344   2.834   3.845  0.00  0.00    -0.080 A 
ATOM      5  C6  UNL d   1       5.039   4.151   4.025  0.00  0.00     0.076 C 
ATOM      6  C7  UNL d   1       3.885   2.454   2.580  0.00  0.00     0.002 A 
ATOM      7  C8  UNL d   1       3.211   1.243   2.405  0.00  0.00     0.006 A 
ENDROOT
BRANCH   1   8
ATOM      8  C1  UNL d   1       2.208  -0.886   3.313  0.00  0.00     0.054 C 
ATOM      9  C   UNL d   1       0.779  -0.601   2.875  0.00  0.00     0.018 C 
ENDBRANCH   1   8
TORSDOF 1
ENDMDL
