MODEL 1
REMARK minimizedAffinity 17.7533207
REMARK minimizedRMSD -1
REMARK  1 active torsions:
REMARK  status: ('A' for Active; 'I' for Inactive)
REMARK    1  A    between atoms: C1_2  and  C2_3 
ROOT
ATOM      1  C2  UNL d   1      -1.221  -1.467  -0.288  0.00  0.00    -0.081 A 
ATOM      2  C3  UNL d   1      -2.072  -0.980   0.713  0.00  0.00     0.006 A 
ATOM      3  C4  UNL d   1      -1.547  -0.345   1.841  0.00  0.00     0.002 A 
ATOM      4  C5  UNL d   1      -0.165  -0.180   1.984  0.00  0.00    -0.080 A 
ATOM      5  C6  UNL d   1       0.409   0.527   3.176  0.00  0.00     0.076 C 
ATOM      6  C7  UNL d   1       0.685  -0.681   0.993  0.00  0.00     0.002 A 
ATOM      7  C8  UNL d   1       0.162  -1.317  -0.135  0.00  0.00     0.006 A 
ENDROOT
BRANCH   1   8
ATOM      8  C1  UNL d   1      -1.787  -2.094  -1.536  0.00  0.00     0.054 C 
ATOM      9  C   UNL d   1      -1.383  -1.314  -2.779  0.00  0.00     0.018 C 
ENDBRANCH   1   8
TORSDOF 1
ENDMDL
