MODEL 1
REMARK minimizedAffinity 8.8919735
REMARK minimizedRMSD -1
REMARK  1 active torsions:
REMARK  status: ('A' for Active; 'I' for Inactive)
REMARK    1  A    between atoms: C1_2  and  C2_3 
ROOT
ATOM      1  C2  UNL d   1       0.294  -1.223   3.650  0.00  0.00    -0.081 A 
ATOM      2  C3  UNL d   1       0.830   0.013   4.030  0.00  0.00     0.006 A 
ATOM      3  C4  UNL d   1       0.443   1.184   3.374  0.00  0.00     0.002 A 
ATOM      4  C5  UNL d   1      -0.491   1.140   2.334  0.00  0.00    -0.080 A 
ATOM      5  C6  UNL d   1      -0.937   2.393   1.642  0.00  0.00     0.076 C 
ATOM      6  C7  UNL d   1      -1.013  -0.098   1.942  0.00  0.00     0.002 A 
ATOM      7  C8  UNL d   1      -0.626  -1.269   2.597  0.00  0.00     0.006 A 
ENDROOT
BRANCH   1   8
ATOM      8  C1  UNL d   1       0.660  -2.480   4.398  0.00  0.00     0.054 C 
ATOM      9  C   UNL d   1       1.826  -2.239   5.347  0.00  0.00     0.018 C 
ENDBRANCH   1   8
TORSDOF 1
ENDMDL
