MODEL 1
REMARK minimizedAffinity 11.6100445
REMARK minimizedRMSD -1
REMARK  1 active torsions:
REMARK  status: ('A' for Active; 'I' for Inactive)
REMARK    1  A    between atoms: C1_2  and  C2_3 
ROOT
ATOM      1  C2  UNL d   1      -0.372  -0.908   3.375  0.00  0.00    -0.081 A 
ATOM      2  C3  UNL d   1      -1.608  -0.696   2.752  0.00  0.00     0.006 A 
ATOM      3  C4  UNL d   1      -1.978   0.582   2.328  0.00  0.00     0.002 A 
ATOM      4  C5  UNL d   1      -1.115   1.668   2.513  0.00  0.00    -0.080 A 
ATOM      5  C6  UNL d   1      -1.487   3.041   2.035  0.00  0.00     0.076 C 
ATOM      6  C7  UNL d   1       0.112   1.460   3.151  0.00  0.00     0.002 A 
ATOM      7  C8  UNL d   1       0.482   0.182   3.575  0.00  0.00     0.006 A 
ENDROOT
BRANCH   1   8
ATOM      8  C1  UNL d   1       0.057  -2.296   3.775  0.00  0.00     0.054 C 
ATOM      9  C   UNL d   1       1.263  -2.257   4.702  0.00  0.00     0.018 C 
ENDBRANCH   1   8
TORSDOF 1
ENDMDL
