MODEL 1
REMARK minimizedAffinity 7.46871328
REMARK minimizedRMSD -1
REMARK  0 active torsions:
REMARK  status: ('A' for Active; 'I' for Inactive)
ROOT
ATOM      1  C   UNL d   1      -5.775  -0.378   5.128  0.00  0.00    -0.002 A 
ATOM      2  C1  UNL d   1      -5.327  -0.243   3.822  0.00  0.00     0.010 A 
ATOM      3  C2  UNL d   1      -5.096   1.022   3.277  0.00  0.00     0.041 A 
ATOM      4  C3  UNL d   1      -5.324   2.160   4.076  0.00  0.00    -0.075 A 
ATOM      5  S   UNL d   1      -5.109   3.809   3.621  0.00  0.00     0.015 SA
ATOM      6  C4  UNL d   1      -5.606   4.373   5.151  0.00  0.00     0.022 A 
ATOM      7  C5  UNL d   1      -5.932   3.342   6.000  0.00  0.00     0.026 A 
ATOM      8  C6  UNL d   1      -5.775   2.049   5.394  0.00  0.00    -0.082 A 
ATOM      9  C7  UNL d   1      -6.000   0.753   5.917  0.00  0.00     0.045 A 
ENDROOT
TORSDOF 0
ENDMDL
