MODEL 1
REMARK minimizedAffinity 28.9175415
REMARK minimizedRMSD -1
REMARK  0 active torsions:
REMARK  status: ('A' for Active; 'I' for Inactive)
ROOT
ATOM      1  C   UNL d   1      -2.943   2.996   3.960  0.00  0.00    -0.002 A 
ATOM      2  C1  UNL d   1      -3.377   3.349   5.230  0.00  0.00     0.010 A 
ATOM      3  C2  UNL d   1      -4.263   2.528   5.931  0.00  0.00     0.041 A 
ATOM      4  C3  UNL d   1      -4.707   1.334   5.329  0.00  0.00    -0.075 A 
ATOM      5  S   UNL d   1      -5.791   0.173   5.999  0.00  0.00     0.015 SA
ATOM      6  C4  UNL d   1      -5.702  -0.819   4.616  0.00  0.00     0.022 A 
ATOM      7  C5  UNL d   1      -4.870  -0.292   3.657  0.00  0.00     0.026 A 
ATOM      8  C6  UNL d   1      -4.283   0.957   4.052  0.00  0.00    -0.082 A 
ATOM      9  C7  UNL d   1      -3.385   1.811   3.367  0.00  0.00     0.045 A 
ENDROOT
TORSDOF 0
ENDMDL
