MODEL 1
REMARK minimizedAffinity 18.4607086
REMARK minimizedRMSD -1
REMARK  0 active torsions:
REMARK  status: ('A' for Active; 'I' for Inactive)
ROOT
ATOM      1  C   UNL d   1      -1.457  -1.798   0.385  0.00  0.00    -0.002 A 
ATOM      2  C1  UNL d   1      -0.221  -2.345   0.701  0.00  0.00     0.010 A 
ATOM      3  C2  UNL d   1      -0.128  -3.643   1.207  0.00  0.00     0.041 A 
ATOM      4  C3  UNL d   1      -1.308  -4.390   1.389  0.00  0.00    -0.075 A 
ATOM      5  S   UNL d   1      -1.436  -5.999   1.994  0.00  0.00     0.015 SA
ATOM      6  C4  UNL d   1      -3.134  -6.000   1.845  0.00  0.00     0.022 A 
ATOM      7  C5  UNL d   1      -3.608  -4.809   1.348  0.00  0.00     0.026 A 
ATOM      8  C6  UNL d   1      -2.564  -3.862   1.077  0.00  0.00    -0.082 A 
ATOM      9  C7  UNL d   1      -2.625  -2.542   0.566  0.00  0.00     0.045 A 
ENDROOT
TORSDOF 0
ENDMDL
