MODEL 1
REMARK minimizedAffinity 19.1210537
REMARK minimizedRMSD -1
REMARK  0 active torsions:
REMARK  status: ('A' for Active; 'I' for Inactive)
ROOT
ATOM      1  C   UNL d   1       4.557   1.249  -0.853  0.00  0.00    -0.002 A 
ATOM      2  C1  UNL d   1       4.728   0.131  -0.049  0.00  0.00     0.010 A 
ATOM      3  C2  UNL d   1       3.816  -0.158   0.968  0.00  0.00     0.041 A 
ATOM      4  C3  UNL d   1       2.718   0.702   1.164  0.00  0.00    -0.075 A 
ATOM      5  S   UNL d   1       1.474   0.546   2.348  0.00  0.00     0.015 SA
ATOM      6  C4  UNL d   1       0.686   1.960   1.814  0.00  0.00     0.022 A 
ATOM      7  C5  UNL d   1       1.343   2.549   0.759  0.00  0.00     0.026 A 
ATOM      8  C6  UNL d   1       2.524   1.834   0.367  0.00  0.00    -0.082 A 
ATOM      9  C7  UNL d   1       3.467   2.101  -0.655  0.00  0.00     0.045 A 
ENDROOT
TORSDOF 0
ENDMDL
