MODEL 1
REMARK minimizedAffinity 24.1177597
REMARK minimizedRMSD -1
REMARK  0 active torsions:
REMARK  status: ('A' for Active; 'I' for Inactive)
ROOT
ATOM      1  C   UNL d   1      -4.144   1.927   3.312  0.00  0.00    -0.002 A 
ATOM      2  C1  UNL d   1      -2.895   2.048   3.905  0.00  0.00     0.010 A 
ATOM      3  C2  UNL d   1      -1.940   2.919   3.378  0.00  0.00     0.041 A 
ATOM      4  C3  UNL d   1      -2.265   3.675   2.235  0.00  0.00    -0.075 A 
ATOM      5  S   UNL d   1      -1.254   4.806   1.415  0.00  0.00     0.015 SA
ATOM      6  C4  UNL d   1      -2.457   5.157   0.259  0.00  0.00     0.022 A 
ATOM      7  C5  UNL d   1      -3.608   4.437   0.478  0.00  0.00     0.026 A 
ATOM      8  C6  UNL d   1      -3.516   3.572   1.620  0.00  0.00    -0.082 A 
ATOM      9  C7  UNL d   1      -4.463   2.679   2.179  0.00  0.00     0.045 A 
ENDROOT
TORSDOF 0
ENDMDL
