MODEL 1
REMARK minimizedAffinity 10.8941965
REMARK minimizedRMSD -1
REMARK  0 active torsions:
REMARK  status: ('A' for Active; 'I' for Inactive)
ROOT
ATOM      1  C   UNL d   1       1.544   2.610   0.968  0.00  0.00    -0.002 A 
ATOM      2  C1  UNL d   1       1.046   3.639   1.755  0.00  0.00     0.010 A 
ATOM      3  C2  UNL d   1      -0.118   4.315   1.385  0.00  0.00     0.041 A 
ATOM      4  C3  UNL d   1      -0.781   3.936   0.201  0.00  0.00    -0.075 A 
ATOM      5  S   UNL d   1      -2.223   4.621  -0.449  0.00  0.00     0.015 SA
ATOM      6  C4  UNL d   1      -2.212   3.564  -1.786  0.00  0.00     0.022 A 
ATOM      7  C5  UNL d   1      -1.141   2.703  -1.753  0.00  0.00     0.026 A 
ATOM      8  C6  UNL d   1      -0.299   2.902  -0.607  0.00  0.00    -0.082 A 
ATOM      9  C7  UNL d   1       0.884   2.236  -0.206  0.00  0.00     0.045 A 
ENDROOT
TORSDOF 0
ENDMDL
