MODEL 1
REMARK minimizedAffinity 25.5781288
REMARK minimizedRMSD -1
REMARK  0 active torsions:
REMARK  status: ('A' for Active; 'I' for Inactive)
ROOT
ATOM      1  C   UNL d   1       1.376   0.591   2.218  0.00  0.00    -0.002 A 
ATOM      2  C1  UNL d   1       1.654   0.184   0.921  0.00  0.00     0.010 A 
ATOM      3  C2  UNL d   1       2.136   1.095  -0.021  0.00  0.00     0.041 A 
ATOM      4  C3  UNL d   1       2.339   2.434   0.367  0.00  0.00    -0.075 A 
ATOM      5  S   UNL d   1       2.923   3.724  -0.617  0.00  0.00     0.015 SA
ATOM      6  C4  UNL d   1       2.819   4.845   0.663  0.00  0.00     0.022 A 
ATOM      7  C5  UNL d   1       2.352   4.267   1.819  0.00  0.00     0.026 A 
ATOM      8  C6  UNL d   1       2.068   2.867   1.668  0.00  0.00    -0.082 A 
ATOM      9  C7  UNL d   1       1.579   1.920   2.599  0.00  0.00     0.045 A 
ENDROOT
TORSDOF 0
ENDMDL
