MODEL 1
REMARK minimizedAffinity 24.8959236
REMARK minimizedRMSD -1
REMARK  0 active torsions:
REMARK  status: ('A' for Active; 'I' for Inactive)
ROOT
ATOM      1  C   UNL d   1       0.700   3.475   1.569  0.00  0.00    -0.002 A 
ATOM      2  C1  UNL d   1       1.846   2.716   1.381  0.00  0.00     0.010 A 
ATOM      3  C2  UNL d   1       2.014   1.505   2.055  0.00  0.00     0.041 A 
ATOM      4  C3  UNL d   1       1.000   1.065   2.928  0.00  0.00    -0.075 A 
ATOM      5  S   UNL d   1       0.988  -0.386   3.859  0.00  0.00     0.015 SA
ATOM      6  C4  UNL d   1      -0.539  -0.032   4.528  0.00  0.00     0.022 A 
ATOM      7  C5  UNL d   1      -1.042   1.160   4.063  0.00  0.00     0.026 A 
ATOM      8  C6  UNL d   1      -0.163   1.812   3.133  0.00  0.00    -0.082 A 
ATOM      9  C7  UNL d   1      -0.303   3.036   2.436  0.00  0.00     0.045 A 
ENDROOT
TORSDOF 0
ENDMDL
