MODEL 1
REMARK minimizedAffinity 25.218668
REMARK minimizedRMSD -1
REMARK  0 active torsions:
REMARK  status: ('A' for Active; 'I' for Inactive)
ROOT
ATOM      1  C   UNL d   1      -1.588  -6.000   2.600  0.00  0.00    -0.002 A 
ATOM      2  C1  UNL d   1      -2.904  -5.999   2.162  0.00  0.00     0.010 A 
ATOM      3  C2  UNL d   1      -3.459  -4.858   1.579  0.00  0.00     0.041 A 
ATOM      4  C3  UNL d   1      -2.659  -3.707   1.439  0.00  0.00    -0.075 A 
ATOM      5  S   UNL d   1      -3.123  -2.195   0.754  0.00  0.00     0.015 SA
ATOM      6  C4  UNL d   1      -1.585  -1.514   1.025  0.00  0.00     0.022 A 
ATOM      7  C5  UNL d   1      -0.725  -2.405   1.624  0.00  0.00     0.026 A 
ATOM      8  C6  UNL d   1      -1.329  -3.684   1.872  0.00  0.00    -0.082 A 
ATOM      9  C7  UNL d   1      -0.797  -4.856   2.460  0.00  0.00     0.045 A 
ENDROOT
TORSDOF 0
ENDMDL
