MODEL 1
REMARK minimizedAffinity 20.7160854
REMARK minimizedRMSD -1
REMARK  0 active torsions:
REMARK  status: ('A' for Active; 'I' for Inactive)
ROOT
ATOM      1  C   UNL d   1      -2.636   6.000  -1.071  0.00  0.00    -0.002 A 
ATOM      2  C1  UNL d   1      -2.893   4.942  -0.210  0.00  0.00     0.010 A 
ATOM      3  C2  UNL d   1      -2.010   3.864  -0.127  0.00  0.00     0.041 A 
ATOM      4  C3  UNL d   1      -0.852   3.867  -0.929  0.00  0.00    -0.075 A 
ATOM      5  S   UNL d   1       0.372   2.655  -0.994  0.00  0.00     0.015 SA
ATOM      6  C4  UNL d   1       1.265   3.513  -2.164  0.00  0.00     0.022 A 
ATOM      7  C5  UNL d   1       0.659   4.697  -2.509  0.00  0.00     0.026 A 
ATOM      8  C6  UNL d   1      -0.571   4.922  -1.803  0.00  0.00    -0.082 A 
ATOM      9  C7  UNL d   1      -1.486   6.000  -1.865  0.00  0.00     0.045 A 
ENDROOT
TORSDOF 0
ENDMDL
