MODEL 1
REMARK minimizedAffinity 28.5527287
REMARK minimizedRMSD -1
REMARK  0 active torsions:
REMARK  status: ('A' for Active; 'I' for Inactive)
ROOT
ATOM      1  C   UNL d   1       0.416   0.369   5.509  0.00  0.00    -0.002 A 
ATOM      2  C1  UNL d   1      -0.550  -0.627   5.460  0.00  0.00     0.010 A 
ATOM      3  C2  UNL d   1      -0.788  -1.327   4.276  0.00  0.00     0.041 A 
ATOM      4  C3  UNL d   1      -0.031  -1.009   3.132  0.00  0.00    -0.075 A 
ATOM      5  S   UNL d   1      -0.149  -1.735   1.572  0.00  0.00     0.015 SA
ATOM      6  C4  UNL d   1       1.081  -0.741   0.935  0.00  0.00     0.022 A 
ATOM      7  C5  UNL d   1       1.580   0.129   1.875  0.00  0.00     0.026 A 
ATOM      8  C6  UNL d   1       0.948  -0.011   3.157  0.00  0.00    -0.082 A 
ATOM      9  C7  UNL d   1       1.165   0.682   4.372  0.00  0.00     0.045 A 
ENDROOT
TORSDOF 0
ENDMDL
