MODEL 1
REMARK minimizedAffinity 22.3666668
REMARK minimizedRMSD -1
REMARK  0 active torsions:
REMARK  status: ('A' for Active; 'I' for Inactive)
ROOT
ATOM      1  C   UNL d   1       0.732   0.345   3.174  0.00  0.00    -0.002 A 
ATOM      2  C1  UNL d   1       0.325  -0.362   4.296  0.00  0.00     0.010 A 
ATOM      3  C2  UNL d   1      -0.428  -1.531   4.164  0.00  0.00     0.041 A 
ATOM      4  C3  UNL d   1      -0.765  -1.982   2.873  0.00  0.00    -0.075 A 
ATOM      5  S   UNL d   1      -1.679  -3.387   2.469  0.00  0.00     0.015 SA
ATOM      6  C4  UNL d   1      -1.549  -3.082   0.797  0.00  0.00     0.022 A 
ATOM      7  C5  UNL d   1      -0.830  -1.940   0.536  0.00  0.00     0.026 A 
ATOM      8  C6  UNL d   1      -0.366  -1.287   1.728  0.00  0.00    -0.082 A 
ATOM      9  C7  UNL d   1       0.395  -0.105   1.894  0.00  0.00     0.045 A 
ENDROOT
TORSDOF 0
ENDMDL
