MODEL 1
REMARK minimizedAffinity 22.6391449
REMARK minimizedRMSD -1
REMARK  0 active torsions:
REMARK  status: ('A' for Active; 'I' for Inactive)
ROOT
ATOM      1  C   UNL d   1      -2.629  -2.249  -1.333  0.00  0.00    -0.002 A 
ATOM      2  C1  UNL d   1      -1.830  -2.074  -2.455  0.00  0.00     0.010 A 
ATOM      3  C2  UNL d   1      -2.351  -2.271  -3.735  0.00  0.00     0.041 A 
ATOM      4  C3  UNL d   1      -3.701  -2.649  -3.871  0.00  0.00    -0.075 A 
ATOM      5  S   UNL d   1      -4.555  -2.945  -5.340  0.00  0.00     0.015 SA
ATOM      6  C4  UNL d   1      -6.000  -3.309  -4.514  0.00  0.00     0.022 A 
ATOM      7  C5  UNL d   1      -5.853  -3.213  -3.150  0.00  0.00     0.026 A 
ATOM      8  C6  UNL d   1      -4.526  -2.830  -2.758  0.00  0.00    -0.082 A 
ATOM      9  C7  UNL d   1      -3.968  -2.623  -1.473  0.00  0.00     0.045 A 
ENDROOT
TORSDOF 0
ENDMDL
