MODEL 1
REMARK minimizedAffinity 15.0011835
REMARK minimizedRMSD -1
REMARK  0 active torsions:
REMARK  status: ('A' for Active; 'I' for Inactive)
ROOT
ATOM      1  C   UNL d   1      -5.995  -5.097  -3.685  0.00  0.00    -0.002 A 
ATOM      2  C1  UNL d   1      -5.614  -5.989  -2.693  0.00  0.00     0.010 A 
ATOM      3  C2  UNL d   1      -4.522  -5.711  -1.869  0.00  0.00     0.041 A 
ATOM      4  C3  UNL d   1      -3.813  -4.509  -2.059  0.00  0.00    -0.075 A 
ATOM      5  S   UNL d   1      -2.444  -3.957  -1.168  0.00  0.00     0.015 SA
ATOM      6  C4  UNL d   1      -2.332  -2.524  -2.084  0.00  0.00     0.022 A 
ATOM      7  C5  UNL d   1      -3.308  -2.451  -3.050  0.00  0.00     0.026 A 
ATOM      8  C6  UNL d   1      -4.178  -3.594  -3.051  0.00  0.00    -0.082 A 
ATOM      9  C7  UNL d   1      -5.289  -3.905  -3.871  0.00  0.00     0.045 A 
ENDROOT
TORSDOF 0
ENDMDL
