MODEL 1
REMARK minimizedAffinity -4.45082378
REMARK minimizedRMSD -1
REMARK  1 active torsions:
REMARK  status: ('A' for Active; 'I' for Inactive)
REMARK    1  A    between atoms: C3_4  and  O_7 
ROOT
ATOM      1  C   UNL d   1      -0.040   0.685  -1.052  0.00  0.00    -0.033 A 
ATOM      2  C1  UNL d   1      -0.600   0.680   0.226  0.00  0.00     0.039 A 
ATOM      3  C2  UNL d   1      -0.843  -0.530   0.879  0.00  0.00    -0.080 A 
ATOM      4  C3  UNL d   1      -0.522  -1.726   0.243  0.00  0.00     0.150 A 
ATOM      5  C4  UNL d   1       0.040  -1.728  -1.029  0.00  0.00    -0.007 A 
ATOM      6  C5  UNL d   1       0.282  -0.519  -1.680  0.00  0.00     0.039 A 
ENDROOT
BRANCH   4   7
ATOM      7  O   UNL d   1      -0.745  -2.932   0.839  0.00  0.00    -0.526 OA
ATOM      8  H5  UNL d   1      -1.164  -2.776   1.702  0.00  0.00     0.418 HD
ENDBRANCH   4   7
TORSDOF 1
ENDMDL
