MODEL 1
REMARK minimizedAffinity -4.5917182
REMARK minimizedRMSD -1
REMARK  1 active torsions:
REMARK  status: ('A' for Active; 'I' for Inactive)
REMARK    1  A    between atoms: C3_4  and  O_7 
ROOT
ATOM      1  C   UNL d   1      -0.500   0.985   0.072  0.00  0.00    -0.033 A 
ATOM      2  C1  UNL d   1       0.545   0.381  -0.631  0.00  0.00     0.039 A 
ATOM      3  C2  UNL d   1       0.883  -0.949  -0.375  0.00  0.00    -0.080 A 
ATOM      4  C3  UNL d   1       0.169  -1.663   0.584  0.00  0.00     0.150 A 
ATOM      5  C4  UNL d   1      -0.875  -1.069   1.285  0.00  0.00    -0.007 A 
ATOM      6  C5  UNL d   1      -1.211   0.260   1.028  0.00  0.00     0.039 A 
ENDROOT
BRANCH   4   7
ATOM      7  O   UNL d   1       0.465  -2.963   0.872  0.00  0.00    -0.526 OA
ATOM      8  H5  UNL d   1       1.227  -3.232   0.331  0.00  0.00     0.418 HD
ENDBRANCH   4   7
TORSDOF 1
ENDMDL
