MODEL 1
REMARK minimizedAffinity -2.31166172
REMARK minimizedRMSD -1
REMARK  1 active torsions:
REMARK  status: ('A' for Active; 'I' for Inactive)
REMARK    1  A    between atoms: C3_4  and  O_7 
ROOT
ATOM      1  C   UNL d   1       0.137   2.904  -0.092  0.00  0.00    -0.033 A 
ATOM      2  C1  UNL d   1       0.852   3.985   0.428  0.00  0.00     0.039 A 
ATOM      3  C2  UNL d   1       2.226   3.873   0.650  0.00  0.00    -0.080 A 
ATOM      4  C3  UNL d   1       2.873   2.678   0.347  0.00  0.00     0.150 A 
ATOM      5  C4  UNL d   1       2.167   1.598  -0.175  0.00  0.00    -0.007 A 
ATOM      6  C5  UNL d   1       0.795   1.711  -0.395  0.00  0.00     0.039 A 
ENDROOT
BRANCH   4   7
ATOM      7  O   UNL d   1       4.211   2.520   0.551  0.00  0.00    -0.526 OA
ATOM      8  H5  UNL d   1       4.561   3.338   0.943  0.00  0.00     0.418 HD
ENDBRANCH   4   7
TORSDOF 1
ENDMDL
