MODEL 1
REMARK minimizedAffinity -0.225771353
REMARK minimizedRMSD -1
REMARK  1 active torsions:
REMARK  status: ('A' for Active; 'I' for Inactive)
REMARK    1  A    between atoms: C3_4  and  O_7 
ROOT
ATOM      1  C   UNL d   1       0.021   1.507  -0.357  0.00  0.00    -0.033 A 
ATOM      2  C1  UNL d   1       0.634   0.990  -1.500  0.00  0.00     0.039 A 
ATOM      3  C2  UNL d   1       0.861  -0.383  -1.613  0.00  0.00    -0.080 A 
ATOM      4  C3  UNL d   1       0.469  -1.227  -0.578  0.00  0.00     0.150 A 
ATOM      5  C4  UNL d   1      -0.146  -0.720   0.562  0.00  0.00    -0.007 A 
ATOM      6  C5  UNL d   1      -0.371   0.651   0.674  0.00  0.00     0.039 A 
ENDROOT
BRANCH   4   7
ATOM      7  O   UNL d   1       0.674  -2.574  -0.641  0.00  0.00    -0.526 OA
ATOM      8  H5  UNL d   1       1.134  -2.777  -1.472  0.00  0.00     0.418 HD
ENDBRANCH   4   7
TORSDOF 1
ENDMDL
