MODEL 1
REMARK minimizedAffinity -4.3067112
REMARK minimizedRMSD -1
REMARK  1 active torsions:
REMARK  status: ('A' for Active; 'I' for Inactive)
REMARK    1  A    between atoms: C3_4  and  O_7 
ROOT
ATOM      1  C   UNL d   1      -0.167   0.728  -0.278  0.00  0.00    -0.033 A 
ATOM      2  C1  UNL d   1       0.724   0.027  -1.093  0.00  0.00     0.039 A 
ATOM      3  C2  UNL d   1       1.038  -1.303  -0.805  0.00  0.00    -0.080 A 
ATOM      4  C3  UNL d   1       0.454  -1.919   0.298  0.00  0.00     0.150 A 
ATOM      5  C4  UNL d   1      -0.438  -1.228   1.111  0.00  0.00    -0.007 A 
ATOM      6  C5  UNL d   1      -0.749   0.100   0.823  0.00  0.00     0.039 A 
ENDROOT
BRANCH   4   7
ATOM      7  O   UNL d   1       0.733  -3.214   0.621  0.00  0.00    -0.526 OA
ATOM      8  H5  UNL d   1       1.387  -3.555  -0.012  0.00  0.00     0.418 HD
ENDBRANCH   4   7
TORSDOF 1
ENDMDL
