MODEL 1
REMARK minimizedAffinity -4.67726088
REMARK minimizedRMSD -1
REMARK  1 active torsions:
REMARK  status: ('A' for Active; 'I' for Inactive)
REMARK    1  A    between atoms: C3_4  and  O_7 
ROOT
ATOM      1  C   UNL d   1      -0.283   0.194   0.255  0.00  0.00    -0.033 A 
ATOM      2  C1  UNL d   1       0.580  -0.466  -0.622  0.00  0.00     0.039 A 
ATOM      3  C2  UNL d   1       0.765  -1.846  -0.516  0.00  0.00    -0.080 A 
ATOM      4  C3  UNL d   1       0.081  -2.553   0.468  0.00  0.00     0.150 A 
ATOM      5  C4  UNL d   1      -0.783  -1.903   1.343  0.00  0.00    -0.007 A 
ATOM      6  C5  UNL d   1      -0.966  -0.525   1.237  0.00  0.00     0.039 A 
ENDROOT
BRANCH   4   7
ATOM      7  O   UNL d   1       0.233  -3.900   0.613  0.00  0.00    -0.526 OA
ATOM      8  H5  UNL d   1       0.881  -4.209  -0.041  0.00  0.00     0.418 HD
ENDBRANCH   4   7
TORSDOF 1
ENDMDL
