MODEL 1
REMARK minimizedAffinity -3.85491276
REMARK minimizedRMSD -1
REMARK  1 active torsions:
REMARK  status: ('A' for Active; 'I' for Inactive)
REMARK    1  A    between atoms: C3_4  and  O_7 
ROOT
ATOM      1  C   UNL d   1      -0.018   0.085  -0.732  0.00  0.00    -0.033 A 
ATOM      2  C1  UNL d   1      -0.526  -0.066   0.559  0.00  0.00     0.039 A 
ATOM      3  C2  UNL d   1      -0.551  -1.327   1.158  0.00  0.00    -0.080 A 
ATOM      4  C3  UNL d   1      -0.065  -2.426   0.457  0.00  0.00     0.150 A 
ATOM      5  C4  UNL d   1       0.446  -2.283  -0.829  0.00  0.00    -0.007 A 
ATOM      6  C5  UNL d   1       0.469  -1.023  -1.426  0.00  0.00     0.039 A 
ENDROOT
BRANCH   4   7
ATOM      7  O   UNL d   1      -0.073  -3.678   0.998  0.00  0.00    -0.526 OA
ATOM      8  H5  UNL d   1      -0.481  -3.629   1.879  0.00  0.00     0.418 HD
ENDBRANCH   4   7
TORSDOF 1
ENDMDL
