MODEL 1
REMARK minimizedAffinity -5.23172092
REMARK minimizedRMSD -1
REMARK  1 active torsions:
REMARK  status: ('A' for Active; 'I' for Inactive)
REMARK    1  A    between atoms: C3_4  and  O_7 
ROOT
ATOM      1  C   UNL d   1      -0.984   0.222   0.122  0.00  0.00    -0.033 A 
ATOM      2  C1  UNL d   1      -1.689  -0.569   1.031  0.00  0.00     0.039 A 
ATOM      3  C2  UNL d   1      -1.316  -1.898   1.239  0.00  0.00    -0.080 A 
ATOM      4  C3  UNL d   1      -0.237  -2.424   0.533  0.00  0.00     0.150 A 
ATOM      5  C4  UNL d   1       0.472  -1.641  -0.371  0.00  0.00    -0.007 A 
ATOM      6  C5  UNL d   1       0.098  -0.314  -0.578  0.00  0.00     0.039 A 
ENDROOT
BRANCH   4   7
ATOM      7  O   UNL d   1       0.161  -3.717   0.699  0.00  0.00    -0.526 OA
ATOM      8  H5  UNL d   1      -0.439  -4.145   1.333  0.00  0.00     0.418 HD
ENDBRANCH   4   7
TORSDOF 1
ENDMDL
