MODEL 1
REMARK minimizedAffinity -5.32320976
REMARK minimizedRMSD -1
REMARK  1 active torsions:
REMARK  status: ('A' for Active; 'I' for Inactive)
REMARK    1  A    between atoms: C3_4  and  O_7 
ROOT
ATOM      1  C   UNL d   1      -0.201  -2.572   1.158  0.00  0.00    -0.033 A 
ATOM      2  C1  UNL d   1       0.691  -2.593   0.084  0.00  0.00     0.039 A 
ATOM      3  C2  UNL d   1       0.842  -1.464  -0.723  0.00  0.00    -0.080 A 
ATOM      4  C3  UNL d   1       0.097  -0.321  -0.445  0.00  0.00     0.150 A 
ATOM      5  C4  UNL d   1      -0.790  -0.292   0.626  0.00  0.00    -0.007 A 
ATOM      6  C5  UNL d   1      -0.940  -1.421   1.430  0.00  0.00     0.039 A 
ENDROOT
BRANCH   4   7
ATOM      7  O   UNL d   1       0.207   0.804  -1.207  0.00  0.00    -0.526 OA
ATOM      8  H5  UNL d   1       0.835   0.628  -1.927  0.00  0.00     0.418 HD
ENDBRANCH   4   7
TORSDOF 1
ENDMDL
