MODEL 1
REMARK minimizedAffinity -4.06466722
REMARK minimizedRMSD -1
REMARK  1 active torsions:
REMARK  status: ('A' for Active; 'I' for Inactive)
REMARK    1  A    between atoms: C3_4  and  O_7 
ROOT
ATOM      1  C   UNL d   1      -0.335   0.382  -0.146  0.00  0.00    -0.033 A 
ATOM      2  C1  UNL d   1       0.465  -0.475  -0.905  0.00  0.00     0.039 A 
ATOM      3  C2  UNL d   1       0.622  -1.808  -0.522  0.00  0.00    -0.080 A 
ATOM      4  C3  UNL d   1      -0.027  -2.272   0.619  0.00  0.00     0.150 A 
ATOM      5  C4  UNL d   1      -0.829  -1.425   1.377  0.00  0.00    -0.007 A 
ATOM      6  C5  UNL d   1      -0.984  -0.094   0.994  0.00  0.00     0.039 A 
ENDROOT
BRANCH   4   7
ATOM      7  O   UNL d   1       0.099  -3.564   1.035  0.00  0.00    -0.526 OA
ATOM      8  H5  UNL d   1       0.706  -4.024   0.431  0.00  0.00     0.418 HD
ENDBRANCH   4   7
TORSDOF 1
ENDMDL
