MODEL 1
REMARK minimizedAffinity -3.73891163
REMARK minimizedRMSD -1
REMARK  1 active torsions:
REMARK  status: ('A' for Active; 'I' for Inactive)
REMARK    1  A    between atoms: C3_4  and  O_7 
ROOT
ATOM      1  C   UNL d   1       0.196   0.181  -0.062  0.00  0.00    -0.033 A 
ATOM      2  C1  UNL d   1      -0.576  -0.240   1.023  0.00  0.00     0.039 A 
ATOM      3  C2  UNL d   1      -0.640  -1.595   1.353  0.00  0.00    -0.080 A 
ATOM      4  C3  UNL d   1       0.073  -2.518   0.593  0.00  0.00     0.150 A 
ATOM      5  C4  UNL d   1       0.847  -2.105  -0.487  0.00  0.00    -0.007 A 
ATOM      6  C5  UNL d   1       0.909  -0.752  -0.815  0.00  0.00     0.039 A 
ENDROOT
BRANCH   4   7
ATOM      7  O   UNL d   1       0.038  -3.851   0.874  0.00  0.00    -0.526 OA
ATOM      8  H5  UNL d   1      -0.560  -3.991   1.627  0.00  0.00     0.418 HD
ENDBRANCH   4   7
TORSDOF 1
ENDMDL
