MODEL 1
REMARK minimizedAffinity -3.6759932
REMARK minimizedRMSD -1
REMARK  1 active torsions:
REMARK  status: ('A' for Active; 'I' for Inactive)
REMARK    1  A    between atoms: C3_4  and  O_7 
ROOT
ATOM      1  C   UNL d   1      -0.546   0.252   0.360  0.00  0.00    -0.033 A 
ATOM      2  C1  UNL d   1      -0.998  -0.395   1.512  0.00  0.00     0.039 A 
ATOM      3  C2  UNL d   1      -0.711  -1.747   1.713  0.00  0.00    -0.080 A 
ATOM      4  C3  UNL d   1       0.028  -2.438   0.758  0.00  0.00     0.150 A 
ATOM      5  C4  UNL d   1       0.485  -1.799  -0.390  0.00  0.00    -0.007 A 
ATOM      6  C5  UNL d   1       0.197  -0.450  -0.590  0.00  0.00     0.039 A 
ENDROOT
BRANCH   4   7
ATOM      7  O   UNL d   1       0.329  -3.760   0.908  0.00  0.00    -0.526 OA
ATOM      8  H5  UNL d   1      -0.076  -4.075   1.733  0.00  0.00     0.418 HD
ENDBRANCH   4   7
TORSDOF 1
ENDMDL
