MODEL 1
REMARK minimizedAffinity -3.51096582
REMARK minimizedRMSD -1
REMARK  1 active torsions:
REMARK  status: ('A' for Active; 'I' for Inactive)
REMARK    1  A    between atoms: C3_4  and  O_7 
ROOT
ATOM      1  C   UNL d   1      -0.242   0.230   0.179  0.00  0.00    -0.033 A 
ATOM      2  C1  UNL d   1      -0.962  -0.498   1.128  0.00  0.00     0.039 A 
ATOM      3  C2  UNL d   1      -0.702  -1.857   1.313  0.00  0.00    -0.080 A 
ATOM      4  C3  UNL d   1       0.280  -2.475   0.544  0.00  0.00     0.150 A 
ATOM      5  C4  UNL d   1       1.004  -1.755  -0.401  0.00  0.00    -0.007 A 
ATOM      6  C5  UNL d   1       0.742  -0.398  -0.584  0.00  0.00     0.039 A 
ENDROOT
BRANCH   4   7
ATOM      7  O   UNL d   1       0.567  -3.801   0.685  0.00  0.00    -0.526 OA
ATOM      8  H5  UNL d   1      -0.032  -4.175   1.353  0.00  0.00     0.418 HD
ENDBRANCH   4   7
TORSDOF 1
ENDMDL
