MODEL 1
REMARK minimizedAffinity -4.10105896
REMARK minimizedRMSD -1
REMARK  1 active torsions:
REMARK  status: ('A' for Active; 'I' for Inactive)
REMARK    1  A    between atoms: C3_4  and  O_7 
ROOT
ATOM      1  C   UNL d   1      -0.794  -2.272   1.290  0.00  0.00    -0.033 A 
ATOM      2  C1  UNL d   1      -0.441  -2.100  -0.049  0.00  0.00     0.039 A 
ATOM      3  C2  UNL d   1       0.048  -0.869  -0.492  0.00  0.00    -0.080 A 
ATOM      4  C3  UNL d   1       0.179   0.180   0.415  0.00  0.00     0.150 A 
ATOM      5  C4  UNL d   1      -0.168   0.014   1.752  0.00  0.00    -0.007 A 
ATOM      6  C5  UNL d   1      -0.656  -1.216   2.191  0.00  0.00     0.039 A 
ENDROOT
BRANCH   4   7
ATOM      7  O   UNL d   1       0.646   1.401   0.029  0.00  0.00    -0.526 OA
ATOM      8  H5  UNL d   1       0.818   1.376  -0.928  0.00  0.00     0.418 HD
ENDBRANCH   4   7
TORSDOF 1
ENDMDL
