MODEL 1
REMARK minimizedAffinity -3.7512157
REMARK minimizedRMSD -1
REMARK  1 active torsions:
REMARK  status: ('A' for Active; 'I' for Inactive)
REMARK    1  A    between atoms: C3_4  and  O_7 
ROOT
ATOM      1  C   UNL d   1      -0.237   0.614   0.364  0.00  0.00    -0.033 A 
ATOM      2  C1  UNL d   1       0.543   0.005  -0.621  0.00  0.00     0.039 A 
ATOM      3  C2  UNL d   1       0.602  -1.387  -0.705  0.00  0.00    -0.080 A 
ATOM      4  C3  UNL d   1      -0.123  -2.158   0.199  0.00  0.00     0.150 A 
ATOM      5  C4  UNL d   1      -0.906  -1.559   1.180  0.00  0.00    -0.007 A 
ATOM      6  C5  UNL d   1      -0.963  -0.168   1.263  0.00  0.00     0.039 A 
ENDROOT
BRANCH   4   7
ATOM      7  O   UNL d   1      -0.093  -3.521   0.158  0.00  0.00    -0.526 OA
ATOM      8  H5  UNL d   1       0.511  -3.794  -0.552  0.00  0.00     0.418 HD
ENDBRANCH   4   7
TORSDOF 1
ENDMDL
