MODEL 1
REMARK minimizedAffinity -2.65683866
REMARK minimizedRMSD -1
REMARK  1 active torsions:
REMARK  status: ('A' for Active; 'I' for Inactive)
REMARK    1  A    between atoms: C3_4  and  O_7 
ROOT
ATOM      1  C   UNL d   1       1.614   4.008   1.720  0.00  0.00    -0.033 A 
ATOM      2  C1  UNL d   1       2.564   3.136   1.186  0.00  0.00     0.039 A 
ATOM      3  C2  UNL d   1       2.182   2.171   0.252  0.00  0.00    -0.080 A 
ATOM      4  C3  UNL d   1       0.848   2.091  -0.141  0.00  0.00     0.150 A 
ATOM      5  C4  UNL d   1      -0.103   2.960   0.384  0.00  0.00    -0.007 A 
ATOM      6  C5  UNL d   1       0.281   3.922   1.318  0.00  0.00     0.039 A 
ENDROOT
BRANCH   4   7
ATOM      7  O   UNL d   1       0.427   1.164  -1.047  0.00  0.00    -0.526 OA
ATOM      8  H5  UNL d   1       1.187   0.614  -1.301  0.00  0.00     0.418 HD
ENDBRANCH   4   7
TORSDOF 1
ENDMDL
