MODEL 1
REMARK minimizedAffinity -4.3522625
REMARK minimizedRMSD -1
REMARK  1 active torsions:
REMARK  status: ('A' for Active; 'I' for Inactive)
REMARK    1  A    between atoms: C3_4  and  O_7 
ROOT
ATOM      1  C   UNL d   1      -0.837   0.428   0.417  0.00  0.00    -0.033 A 
ATOM      2  C1  UNL d   1       0.161  -0.094  -0.408  0.00  0.00     0.039 A 
ATOM      3  C2  UNL d   1       0.551  -1.429  -0.277  0.00  0.00    -0.080 A 
ATOM      4  C3  UNL d   1      -0.065  -2.229   0.681  0.00  0.00     0.150 A 
ATOM      5  C4  UNL d   1      -1.063  -1.717   1.504  0.00  0.00    -0.007 A 
ATOM      6  C5  UNL d   1      -1.450  -0.384   1.372  0.00  0.00     0.039 A 
ENDROOT
BRANCH   4   7
ATOM      7  O   UNL d   1       0.285  -3.536   0.850  0.00  0.00    -0.526 OA
ATOM      8  H5  UNL d   1       1.007  -3.743   0.233  0.00  0.00     0.418 HD
ENDBRANCH   4   7
TORSDOF 1
ENDMDL
