MODEL 1
REMARK minimizedAffinity -1.16533077
REMARK minimizedRMSD -1
REMARK  0 active torsions:
REMARK  status: ('A' for Active; 'I' for Inactive)
ROOT
ATOM      1  C2' OXE d   1       1.445  -3.274   0.198  0.00  0.00     0.078 C 
ATOM      2  C1' OXE d   1       2.526  -0.691  -0.009  0.00  0.00     0.078 C 
ATOM      3  C1  OXE d   1       1.229  -0.853   0.744  0.00  0.00    -0.078 A 
ATOM      4  C2  OXE d   1       0.684  -2.113   0.801  0.00  0.00    -0.078 A 
ATOM      5  C3  OXE d   1      -0.483  -2.327   1.529  0.00  0.00     0.003 A 
ATOM      6  C4  OXE d   1      -1.186  -1.246   2.075  0.00  0.00    -0.002 A 
ATOM      7  C5  OXE d   1      -0.668   0.051   1.994  0.00  0.00    -0.002 A 
ATOM      8  C6  OXE d   1       0.557   0.258   1.370  0.00  0.00     0.003 A 
ENDROOT
TORSDOF 0
ENDMDL
