MODEL 1
REMARK minimizedAffinity 5.46281576
REMARK minimizedRMSD -1
REMARK  0 active torsions:
REMARK  status: ('A' for Active; 'I' for Inactive)
ROOT
ATOM      1  C2' OXE d   1      -0.755  -3.392   1.491  0.00  0.00     0.078 C 
ATOM      2  C1' OXE d   1       0.252  -5.994   1.803  0.00  0.00     0.078 C 
ATOM      3  C1  OXE d   1       1.226  -4.902   1.437  0.00  0.00    -0.078 A 
ATOM      4  C2  OXE d   1       0.717  -3.641   1.240  0.00  0.00    -0.078 A 
ATOM      5  C3  OXE d   1       1.580  -2.587   0.955  0.00  0.00     0.003 A 
ATOM      6  C4  OXE d   1       2.938  -2.827   0.715  0.00  0.00    -0.002 A 
ATOM      7  C5  OXE d   1       3.470  -4.111   0.870  0.00  0.00    -0.002 A 
ATOM      8  C6  OXE d   1       2.637  -5.150   1.272  0.00  0.00     0.003 A 
ENDROOT
TORSDOF 0
ENDMDL
