MODEL 1
REMARK minimizedAffinity 9.16083622
REMARK minimizedRMSD -1
REMARK  0 active torsions:
REMARK  status: ('A' for Active; 'I' for Inactive)
ROOT
ATOM      1  C2' OXE d   1       2.605  -3.018   0.159  0.00  0.00     0.078 C 
ATOM      2  C1' OXE d   1       2.063  -0.954   1.982  0.00  0.00     0.078 C 
ATOM      3  C1  OXE d   1       0.933  -1.884   1.616  0.00  0.00    -0.078 A 
ATOM      4  C2  OXE d   1       1.196  -2.862   0.688  0.00  0.00    -0.078 A 
ATOM      5  C3  OXE d   1       0.204  -3.781   0.355  0.00  0.00     0.003 A 
ATOM      6  C4  OXE d   1      -1.100  -3.623   0.841  0.00  0.00    -0.002 A 
ATOM      7  C5  OXE d   1      -1.398  -2.609   1.757  0.00  0.00    -0.002 A 
ATOM      8  C6  OXE d   1      -0.385  -1.759   2.186  0.00  0.00     0.003 A 
ENDROOT
TORSDOF 0
ENDMDL
