MODEL 1
REMARK minimizedAffinity 2.72292542
REMARK minimizedRMSD -1
REMARK  0 active torsions:
REMARK  status: ('A' for Active; 'I' for Inactive)
ROOT
ATOM      1  C2' OXE d   1       2.451  -3.001  -0.148  0.00  0.00     0.078 C 
ATOM      2  C1' OXE d   1       2.151  -0.522   1.135  0.00  0.00     0.078 C 
ATOM      3  C1  OXE d   1       1.025  -1.518   1.256  0.00  0.00    -0.078 A 
ATOM      4  C2  OXE d   1       1.160  -2.710   0.586  0.00  0.00    -0.078 A 
ATOM      5  C3  OXE d   1       0.174  -3.685   0.709  0.00  0.00     0.003 A 
ATOM      6  C4  OXE d   1      -1.021  -3.404   1.382  0.00  0.00    -0.002 A 
ATOM      7  C5  OXE d   1      -1.196  -2.181   2.038  0.00  0.00    -0.002 A 
ATOM      8  C6  OXE d   1      -0.167  -1.245   2.021  0.00  0.00     0.003 A 
ENDROOT
TORSDOF 0
ENDMDL
