MODEL 1
REMARK minimizedAffinity 8.08827591
REMARK minimizedRMSD -1
REMARK  0 active torsions:
REMARK  status: ('A' for Active; 'I' for Inactive)
ROOT
ATOM      1  C2' OXE d   1      -1.705   3.371  -4.066  0.00  0.00     0.078 C 
ATOM      2  C1' OXE d   1      -4.015   1.780  -3.950  0.00  0.00     0.078 C 
ATOM      3  C1  OXE d   1      -3.472   2.329  -2.654  0.00  0.00    -0.078 A 
ATOM      4  C2  OXE d   1      -2.315   3.067  -2.715  0.00  0.00    -0.078 A 
ATOM      5  C3  OXE d   1      -1.802   3.642  -1.555  0.00  0.00     0.003 A 
ATOM      6  C4  OXE d   1      -2.367   3.348  -0.308  0.00  0.00    -0.002 A 
ATOM      7  C5  OXE d   1      -3.523   2.565  -0.220  0.00  0.00    -0.002 A 
ATOM      8  C6  OXE d   1      -4.111   2.084  -1.384  0.00  0.00     0.003 A 
ENDROOT
TORSDOF 0
ENDMDL
