MODEL 1
REMARK minimizedAffinity 13.9032936
REMARK minimizedRMSD -1
REMARK  0 active torsions:
REMARK  status: ('A' for Active; 'I' for Inactive)
ROOT
ATOM      1  C2' OXE d   1       5.342  -4.748   0.497  0.00  0.00     0.078 C 
ATOM      2  C1' OXE d   1       3.966  -3.925   2.801  0.00  0.00     0.078 C 
ATOM      3  C1  OXE d   1       3.314  -3.672   1.465  0.00  0.00    -0.078 A 
ATOM      4  C2  OXE d   1       4.015  -4.037   0.341  0.00  0.00    -0.078 A 
ATOM      5  C3  OXE d   1       3.436  -3.876  -0.915  0.00  0.00     0.003 A 
ATOM      6  C4  OXE d   1       2.214  -3.208  -1.052  0.00  0.00    -0.002 A 
ATOM      7  C5  OXE d   1       1.501  -2.793   0.078  0.00  0.00    -0.002 A 
ATOM      8  C6  OXE d   1       2.016  -3.055   1.343  0.00  0.00     0.003 A 
ENDROOT
TORSDOF 0
ENDMDL
