MODEL 1
REMARK minimizedAffinity 11.4817333
REMARK minimizedRMSD -1
REMARK  0 active torsions:
REMARK  status: ('A' for Active; 'I' for Inactive)
ROOT
ATOM      1  C2' OXE d   1      -2.610   2.793  -3.678  0.00  0.00     0.078 C 
ATOM      2  C1' OXE d   1      -0.675   0.762  -3.763  0.00  0.00     0.078 C 
ATOM      3  C1  OXE d   1      -0.396   2.032  -4.527  0.00  0.00    -0.078 A 
ATOM      4  C2  OXE d   1      -1.369   3.002  -4.518  0.00  0.00    -0.078 A 
ATOM      5  C3  OXE d   1      -1.139   4.215  -5.162  0.00  0.00     0.003 A 
ATOM      6  C4  OXE d   1       0.007   4.396  -5.945  0.00  0.00    -0.002 A 
ATOM      7  C5  OXE d   1       0.993   3.405  -6.000  0.00  0.00    -0.002 A 
ATOM      8  C6  OXE d   1       0.827   2.237  -5.264  0.00  0.00     0.003 A 
ENDROOT
TORSDOF 0
ENDMDL
