MODEL 1
REMARK minimizedAffinity 5.78316879
REMARK minimizedRMSD -1
REMARK  0 active torsions:
REMARK  status: ('A' for Active; 'I' for Inactive)
ROOT
ATOM      1  C2' OXE d   1      -2.884   2.382  -3.332  0.00  0.00     0.078 C 
ATOM      2  C1' OXE d   1      -0.625   0.870  -4.032  0.00  0.00     0.078 C 
ATOM      3  C1  OXE d   1      -0.744   2.261  -4.601  0.00  0.00    -0.078 A 
ATOM      4  C2  OXE d   1      -1.875   2.977  -4.291  0.00  0.00    -0.078 A 
ATOM      5  C3  OXE d   1      -2.009   4.286  -4.744  0.00  0.00     0.003 A 
ATOM      6  C4  OXE d   1      -1.077   4.825  -5.639  0.00  0.00    -0.002 A 
ATOM      7  C5  OXE d   1       0.063   4.099  -6.000  0.00  0.00    -0.002 A 
ATOM      8  C6  OXE d   1       0.265   2.834  -5.457  0.00  0.00     0.003 A 
ENDROOT
TORSDOF 0
ENDMDL
