MODEL 1
REMARK minimizedAffinity -2.20202684
REMARK minimizedRMSD -1
REMARK  0 active torsions:
REMARK  status: ('A' for Active; 'I' for Inactive)
ROOT
ATOM      1  C   UNL d   1      -0.865   0.322  -0.516  0.00  0.00     0.020 A 
ATOM      2  C1  UNL d   1       0.349  -0.097   0.026  0.00  0.00     0.020 A 
ATOM      3  C2  UNL d   1       0.722   0.317   1.306  0.00  0.00     0.034 A 
ATOM      4  C3  UNL d   1      -0.120   1.153   2.049  0.00  0.00     0.017 A 
ATOM      5  C4  UNL d   1      -1.339   1.573   1.504  0.00  0.00     0.017 A 
ATOM      6  C5  UNL d   1      -1.707   1.155   0.221  0.00  0.00     0.034 A 
ATOM      7 Cl   UNL d   1      -2.430   2.604   2.360  0.00  0.00    -0.070 Cl
ATOM      8 Cl1  UNL d   1       0.405   1.625   3.626  0.00  0.00    -0.070 Cl
ENDROOT
TORSDOF 0
ENDMDL
