MODEL 1
REMARK minimizedAffinity -2.66852164
REMARK minimizedRMSD -1
REMARK  0 active torsions:
REMARK  status: ('A' for Active; 'I' for Inactive)
ROOT
ATOM      1  C   UNL d   1      -0.732   3.251   4.601  0.00  0.00     0.020 A 
ATOM      2  C1  UNL d   1       0.226   2.342   4.153  0.00  0.00     0.020 A 
ATOM      3  C2  UNL d   1      -0.066   1.488   3.088  0.00  0.00     0.034 A 
ATOM      4  C3  UNL d   1      -1.318   1.542   2.466  0.00  0.00     0.017 A 
ATOM      5  C4  UNL d   1      -2.279   2.454   2.915  0.00  0.00     0.017 A 
ATOM      6  C5  UNL d   1      -1.982   3.307   3.983  0.00  0.00     0.034 A 
ATOM      7 Cl   UNL d   1      -3.847   2.579   2.198  0.00  0.00    -0.070 Cl
ATOM      8 Cl1  UNL d   1      -1.611   0.457   1.153  0.00  0.00    -0.070 Cl
ENDROOT
TORSDOF 0
ENDMDL
