MODEL 1
REMARK minimizedAffinity -4.53354692
REMARK minimizedRMSD -1
REMARK  0 active torsions:
REMARK  status: ('A' for Active; 'I' for Inactive)
ROOT
ATOM      1  C   UNL d   1      -1.277  -0.493   3.564  0.00  0.00     0.020 A 
ATOM      2  C1  UNL d   1      -0.011  -0.583   2.988  0.00  0.00     0.020 A 
ATOM      3  C2  UNL d   1       0.147  -0.387   1.614  0.00  0.00     0.034 A 
ATOM      4  C3  UNL d   1      -0.963  -0.100   0.812  0.00  0.00     0.017 A 
ATOM      5  C4  UNL d   1      -2.234  -0.010   1.391  0.00  0.00     0.017 A 
ATOM      6  C5  UNL d   1      -2.387  -0.207   2.767  0.00  0.00     0.034 A 
ATOM      7 Cl   UNL d   1      -3.652   0.341   0.466  0.00  0.00    -0.070 Cl
ATOM      8 Cl1  UNL d   1      -0.695   0.131  -0.879  0.00  0.00    -0.070 Cl
ENDROOT
TORSDOF 0
ENDMDL
