MODEL 1
REMARK minimizedAffinity -1.36315048
REMARK minimizedRMSD -1
REMARK  0 active torsions:
REMARK  status: ('A' for Active; 'I' for Inactive)
ROOT
ATOM      1  C   UNL d   1       0.292  -0.768  -0.793  0.00  0.00     0.020 A 
ATOM      2  C1  UNL d   1      -0.176  -1.989  -0.308  0.00  0.00     0.020 A 
ATOM      3  C2  UNL d   1      -0.559  -2.108   1.030  0.00  0.00     0.034 A 
ATOM      4  C3  UNL d   1      -0.475  -1.004   1.887  0.00  0.00     0.017 A 
ATOM      5  C4  UNL d   1      -0.006   0.221   1.399  0.00  0.00     0.017 A 
ATOM      6  C5  UNL d   1       0.376   0.334   0.059  0.00  0.00     0.034 A 
ATOM      7 Cl   UNL d   1       0.126   1.626   2.396  0.00  0.00    -0.070 Cl
ATOM      8 Cl1  UNL d   1      -0.966  -1.223   3.529  0.00  0.00    -0.070 Cl
ENDROOT
TORSDOF 0
ENDMDL
