MODEL 1
REMARK minimizedAffinity -4.35644627
REMARK minimizedRMSD -1
REMARK  0 active torsions:
REMARK  status: ('A' for Active; 'I' for Inactive)
ROOT
ATOM      1  C   UNL d   1       0.218  -0.821   2.265  0.00  0.00     0.020 A 
ATOM      2  C1  UNL d   1      -0.922  -0.042   2.459  0.00  0.00     0.020 A 
ATOM      3  C2  UNL d   1      -1.539   0.575   1.369  0.00  0.00     0.034 A 
ATOM      4  C3  UNL d   1      -1.018   0.414   0.080  0.00  0.00     0.017 A 
ATOM      5  C4  UNL d   1       0.126  -0.369  -0.113  0.00  0.00     0.017 A 
ATOM      6  C5  UNL d   1       0.741  -0.984   0.982  0.00  0.00     0.034 A 
ATOM      7 Cl   UNL d   1       0.828  -0.615  -1.674  0.00  0.00    -0.070 Cl
ATOM      8 Cl1  UNL d   1      -1.833   1.205  -1.222  0.00  0.00    -0.070 Cl
ENDROOT
TORSDOF 0
ENDMDL
