MODEL 1
REMARK minimizedAffinity -3.87552834
REMARK minimizedRMSD -1
REMARK  0 active torsions:
REMARK  status: ('A' for Active; 'I' for Inactive)
ROOT
ATOM      1  C   UNL d   1       0.894  -0.380   2.642  0.00  0.00     0.020 A 
ATOM      2  C1  UNL d   1       1.924  -0.283   1.707  0.00  0.00     0.020 A 
ATOM      3  C2  UNL d   1       1.624  -0.140   0.351  0.00  0.00     0.034 A 
ATOM      4  C3  UNL d   1       0.292  -0.093  -0.075  0.00  0.00     0.017 A 
ATOM      5  C4  UNL d   1      -0.742  -0.191   0.865  0.00  0.00     0.017 A 
ATOM      6  C5  UNL d   1      -0.436  -0.334   2.222  0.00  0.00     0.034 A 
ATOM      7 Cl   UNL d   1      -2.410  -0.142   0.416  0.00  0.00    -0.070 Cl
ATOM      8 Cl1  UNL d   1      -0.006   0.085  -1.767  0.00  0.00    -0.070 Cl
ENDROOT
TORSDOF 0
ENDMDL
