MODEL 1
REMARK minimizedAffinity -0.415164649
REMARK minimizedRMSD -1
REMARK  0 active torsions:
REMARK  status: ('A' for Active; 'I' for Inactive)
ROOT
ATOM      1  C   UNL d   1       0.484   0.341  -1.014  0.00  0.00     0.020 A 
ATOM      2  C1  UNL d   1       1.298   0.294   0.117  0.00  0.00     0.020 A 
ATOM      3  C2  UNL d   1       0.741   0.014   1.367  0.00  0.00     0.034 A 
ATOM      4  C3  UNL d   1      -0.634  -0.221   1.488  0.00  0.00     0.017 A 
ATOM      5  C4  UNL d   1      -1.450  -0.174   0.352  0.00  0.00     0.017 A 
ATOM      6  C5  UNL d   1      -0.887   0.108  -0.897  0.00  0.00     0.034 A 
ATOM      7 Cl   UNL d   1      -3.154  -0.452   0.422  0.00  0.00    -0.070 Cl
ATOM      8 Cl1  UNL d   1      -1.255  -0.562   3.064  0.00  0.00    -0.070 Cl
ENDROOT
TORSDOF 0
ENDMDL
