MODEL 1
REMARK minimizedAffinity -4.59510946
REMARK minimizedRMSD -1
REMARK  0 active torsions:
REMARK  status: ('A' for Active; 'I' for Inactive)
ROOT
ATOM      1  C   UNL d   1      -1.829  -0.354   2.281  0.00  0.00     0.020 A 
ATOM      2  C1  UNL d   1      -0.875  -0.077   3.259  0.00  0.00     0.020 A 
ATOM      3  C2  UNL d   1       0.419   0.293   2.888  0.00  0.00     0.034 A 
ATOM      4  C3  UNL d   1       0.763   0.389   1.535  0.00  0.00     0.017 A 
ATOM      5  C4  UNL d   1      -0.195   0.111   0.553  0.00  0.00     0.017 A 
ATOM      6  C5  UNL d   1      -1.490  -0.259   0.930  0.00  0.00     0.034 A 
ATOM      7 Cl   UNL d   1       0.155   0.208  -1.137  0.00  0.00    -0.070 Cl
ATOM      8 Cl1  UNL d   1       2.382   0.853   1.148  0.00  0.00    -0.070 Cl
ENDROOT
TORSDOF 0
ENDMDL
