MODEL 1
REMARK minimizedAffinity -5.08780575
REMARK minimizedRMSD -1
REMARK  0 active torsions:
REMARK  status: ('A' for Active; 'I' for Inactive)
ROOT
ATOM      1  C   UNL d   1       1.361   0.361   1.565  0.00  0.00     0.020 A 
ATOM      2  C1  UNL d   1       0.404   0.039   2.527  0.00  0.00     0.020 A 
ATOM      3  C2  UNL d   1      -0.937  -0.094   2.161  0.00  0.00     0.034 A 
ATOM      4  C3  UNL d   1      -1.325   0.095   0.829  0.00  0.00     0.017 A 
ATOM      5  C4  UNL d   1      -0.364   0.418  -0.135  0.00  0.00     0.017 A 
ATOM      6  C5  UNL d   1       0.978   0.550   0.237  0.00  0.00     0.034 A 
ATOM      7 Cl   UNL d   1      -0.766   0.666  -1.798  0.00  0.00    -0.070 Cl
ATOM      8 Cl1  UNL d   1      -3.000  -0.086   0.447  0.00  0.00    -0.070 Cl
ENDROOT
TORSDOF 0
ENDMDL
