MODEL 1
REMARK minimizedAffinity -4.41752386
REMARK minimizedRMSD -1
REMARK  0 active torsions:
REMARK  status: ('A' for Active; 'I' for Inactive)
ROOT
ATOM      1  C   UNL d   1       0.761   0.917   0.065  0.00  0.00     0.020 A 
ATOM      2  C1  UNL d   1       1.449   0.680   1.254  0.00  0.00     0.020 A 
ATOM      3  C2  UNL d   1       0.791   0.086   2.334  0.00  0.00     0.034 A 
ATOM      4  C3  UNL d   1      -0.558  -0.271   2.227  0.00  0.00     0.017 A 
ATOM      5  C4  UNL d   1      -1.247  -0.032   1.032  0.00  0.00     0.017 A 
ATOM      6  C5  UNL d   1      -0.584   0.562  -0.046  0.00  0.00     0.034 A 
ATOM      7 Cl   UNL d   1      -2.912  -0.446   0.825  0.00  0.00    -0.070 Cl
ATOM      8 Cl1  UNL d   1      -1.307  -1.002   3.602  0.00  0.00    -0.070 Cl
ENDROOT
TORSDOF 0
ENDMDL
