MODEL 1
REMARK minimizedAffinity -1.15179527
REMARK minimizedRMSD -1
REMARK  0 active torsions:
REMARK  status: ('A' for Active; 'I' for Inactive)
ROOT
ATOM      1  C   UNL d   1       1.687  -0.142  -0.182  0.00  0.00     0.020 A 
ATOM      2  C1  UNL d   1       2.207  -0.120   1.112  0.00  0.00     0.020 A 
ATOM      3  C2  UNL d   1       1.348  -0.008   2.207  0.00  0.00     0.034 A 
ATOM      4  C3  UNL d   1      -0.035   0.081   2.012  0.00  0.00     0.017 A 
ATOM      5  C4  UNL d   1      -0.555   0.059   0.713  0.00  0.00     0.017 A 
ATOM      6  C5  UNL d   1       0.309  -0.053  -0.381  0.00  0.00     0.034 A 
ATOM      7 Cl   UNL d   1      -2.250   0.164   0.392  0.00  0.00    -0.070 Cl
ATOM      8 Cl1  UNL d   1      -1.037   0.217   3.412  0.00  0.00    -0.070 Cl
ENDROOT
TORSDOF 0
ENDMDL
