MODEL 1
REMARK minimizedAffinity -2.33527875
REMARK minimizedRMSD -1
REMARK  0 active torsions:
REMARK  status: ('A' for Active; 'I' for Inactive)
ROOT
ATOM      1  C   UNL d   1       1.819  -0.413  -0.582  0.00  0.00     0.020 A 
ATOM      2  C1  UNL d   1       0.778  -0.469  -1.508  0.00  0.00     0.020 A 
ATOM      3  C2  UNL d   1      -0.524  -0.154  -1.115  0.00  0.00     0.034 A 
ATOM      4  C3  UNL d   1      -0.789   0.218   0.208  0.00  0.00     0.017 A 
ATOM      5  C4  UNL d   1       0.256   0.274   1.137  0.00  0.00     0.017 A 
ATOM      6  C5  UNL d   1       1.558  -0.042   0.737  0.00  0.00     0.034 A 
ATOM      7 Cl   UNL d   1       0.007   0.725   2.787  0.00  0.00    -0.070 Cl
ATOM      8 Cl1  UNL d   1      -2.423   0.595   0.625  0.00  0.00    -0.070 Cl
ENDROOT
TORSDOF 0
ENDMDL
