MODEL 1
REMARK minimizedAffinity -3.69644141
REMARK minimizedRMSD -1
REMARK  0 active torsions:
REMARK  status: ('A' for Active; 'I' for Inactive)
ROOT
ATOM      1  C   UNL d   1       0.247   0.390  -0.926  0.00  0.00     0.020 A 
ATOM      2  C1  UNL d   1      -0.915  -0.352  -0.717  0.00  0.00     0.020 A 
ATOM      3  C2  UNL d   1      -1.245  -0.786   0.568  0.00  0.00     0.034 A 
ATOM      4  C3  UNL d   1      -0.413  -0.478   1.651  0.00  0.00     0.017 A 
ATOM      5  C4  UNL d   1       0.753   0.267   1.440  0.00  0.00     0.017 A 
ATOM      6  C5  UNL d   1       1.079   0.699   0.151  0.00  0.00     0.034 A 
ATOM      7 Cl   UNL d   1       1.830   0.686   2.726  0.00  0.00    -0.070 Cl
ATOM      8 Cl1  UNL d   1      -0.883  -1.046   3.213  0.00  0.00    -0.070 Cl
ENDROOT
TORSDOF 0
ENDMDL
