MODEL 1
REMARK minimizedAffinity -2.74700785
REMARK minimizedRMSD -1
REMARK  0 active torsions:
REMARK  status: ('A' for Active; 'I' for Inactive)
ROOT
ATOM      1  C   UNL d   1       1.130   0.966   0.151  0.00  0.00     0.020 A 
ATOM      2  C1  UNL d   1       0.250   0.955  -0.929  0.00  0.00     0.020 A 
ATOM      3  C2  UNL d   1      -1.046   0.459  -0.769  0.00  0.00     0.034 A 
ATOM      4  C3  UNL d   1      -1.464  -0.028   0.474  0.00  0.00     0.017 A 
ATOM      5  C4  UNL d   1      -0.580  -0.017   1.558  0.00  0.00     0.017 A 
ATOM      6  C5  UNL d   1       0.717   0.481   1.393  0.00  0.00     0.034 A 
ATOM      7 Cl   UNL d   1      -1.024  -0.601   3.123  0.00  0.00    -0.070 Cl
ATOM      8 Cl1  UNL d   1      -3.081  -0.626   0.600  0.00  0.00    -0.070 Cl
ENDROOT
TORSDOF 0
ENDMDL
