MODEL 1
REMARK minimizedAffinity -2.1143291
REMARK minimizedRMSD -1
REMARK  0 active torsions:
REMARK  status: ('A' for Active; 'I' for Inactive)
ROOT
ATOM      1  C   UNL d   1      -0.845   0.009  -0.462  0.00  0.00     0.020 A 
ATOM      2  C1  UNL d   1       0.288   0.804  -0.632  0.00  0.00     0.020 A 
ATOM      3  C2  UNL d   1       1.129   1.062   0.453  0.00  0.00     0.034 A 
ATOM      4  C3  UNL d   1       0.838   0.525   1.712  0.00  0.00     0.017 A 
ATOM      5  C4  UNL d   1      -0.299  -0.273   1.882  0.00  0.00     0.017 A 
ATOM      6  C5  UNL d   1      -1.138  -0.528   0.792  0.00  0.00     0.034 A 
ATOM      7 Cl   UNL d   1      -0.723  -0.970   3.405  0.00  0.00    -0.070 Cl
ATOM      8 Cl1  UNL d   1       1.922   0.885   3.009  0.00  0.00    -0.070 Cl
ENDROOT
TORSDOF 0
ENDMDL
