MODEL 1
REMARK minimizedAffinity -3.30303383
REMARK minimizedRMSD -1
REMARK  0 active torsions:
REMARK  status: ('A' for Active; 'I' for Inactive)
ROOT
ATOM      1  C   UNL d   1      -1.447   0.047   2.202  0.00  0.00     0.020 A 
ATOM      2  C1  UNL d   1      -0.739  -0.711   3.134  0.00  0.00     0.020 A 
ATOM      3  C2  UNL d   1       0.494  -1.268   2.788  0.00  0.00     0.034 A 
ATOM      4  C3  UNL d   1       1.024  -1.068   1.508  0.00  0.00     0.017 A 
ATOM      5  C4  UNL d   1       0.312  -0.306   0.574  0.00  0.00     0.017 A 
ATOM      6  C5  UNL d   1      -0.922   0.249   0.925  0.00  0.00     0.034 A 
ATOM      7 Cl   UNL d   1       0.901  -0.015  -1.025  0.00  0.00    -0.070 Cl
ATOM      8 Cl1  UNL d   1       2.554  -1.786   1.150  0.00  0.00    -0.070 Cl
ENDROOT
TORSDOF 0
ENDMDL
