MODEL 1
REMARK minimizedAffinity 9.12098026
REMARK minimizedRMSD -1
REMARK  1 active torsions:
REMARK  status: ('A' for Active; 'I' for Inactive)
REMARK    1  A    between atoms: C1_2  and  C2_3 
ROOT
ATOM      1  C2  UNL d   1       2.555   3.394   4.331  0.00  0.00    -0.081 A 
ATOM      2  C3  UNL d   1       3.424   3.869   3.342  0.00  0.00     0.006 A 
ATOM      3  C4  UNL d   1       4.480   4.722   3.676  0.00  0.00     0.002 A 
ATOM      4  C5  UNL d   1       4.687   5.106   5.005  0.00  0.00    -0.080 A 
ATOM      5  C6  UNL d   1       5.834   5.996   5.382  0.00  0.00     0.076 C 
ATOM      6  C7  UNL d   1       3.808   4.645   5.991  0.00  0.00     0.002 A 
ATOM      7  C8  UNL d   1       2.753   3.794   5.657  0.00  0.00     0.006 A 
ENDROOT
BRANCH   1   8
ATOM      8  C1  UNL d   1       1.455   2.424   3.983  0.00  0.00     0.054 C 
ATOM      9  C   UNL d   1       1.003   2.594   2.540  0.00  0.00     0.018 C 
ENDBRANCH   1   8
TORSDOF 1
ENDMDL
