MODEL 1
REMARK minimizedAffinity 8.59509182
REMARK minimizedRMSD -1
REMARK  1 active torsions:
REMARK  status: ('A' for Active; 'I' for Inactive)
REMARK    1  A    between atoms: C1_2  and  C2_3 
ROOT
ATOM      1  C2  UNL d   1      -2.162   0.913  -2.493  0.00  0.00    -0.081 A 
ATOM      2  C3  UNL d   1      -3.159   0.159  -1.862  0.00  0.00     0.006 A 
ATOM      3  C4  UNL d   1      -4.406  -0.014  -2.468  0.00  0.00     0.002 A 
ATOM      4  C5  UNL d   1      -4.674   0.556  -3.717  0.00  0.00    -0.080 A 
ATOM      5  C6  UNL d   1      -5.998   0.353  -4.392  0.00  0.00     0.076 C 
ATOM      6  C7  UNL d   1      -3.684   1.325  -4.339  0.00  0.00     0.002 A 
ATOM      7  C8  UNL d   1      -2.437   1.499  -3.733  0.00  0.00     0.006 A 
ENDROOT
BRANCH   1   8
ATOM      8  C1  UNL d   1      -0.795   1.048  -1.872  0.00  0.00     0.054 C 
ATOM      9  C   UNL d   1      -0.705   2.291  -0.998  0.00  0.00     0.018 C 
ENDBRANCH   1   8
TORSDOF 1
ENDMDL
