MODEL 1
REMARK minimizedAffinity 15.9284983
REMARK minimizedRMSD -1
REMARK  1 active torsions:
REMARK  status: ('A' for Active; 'I' for Inactive)
REMARK    1  A    between atoms: C1_2  and  C2_3 
ROOT
ATOM      1  C2  UNL d   1       4.851   1.296  -2.032  0.00  0.00    -0.081 A 
ATOM      2  C3  UNL d   1       4.507   0.371  -3.026  0.00  0.00     0.006 A 
ATOM      3  C4  UNL d   1       3.408  -0.475  -2.857  0.00  0.00     0.002 A 
ATOM      4  C5  UNL d   1       2.630  -0.405  -1.695  0.00  0.00    -0.080 A 
ATOM      5  C6  UNL d   1       1.430  -1.286  -1.514  0.00  0.00     0.076 C 
ATOM      6  C7  UNL d   1       2.985   0.507  -0.695  0.00  0.00     0.002 A 
ATOM      7  C8  UNL d   1       4.084   1.352  -0.864  0.00  0.00     0.006 A 
ENDROOT
BRANCH   1   8
ATOM      8  C1  UNL d   1       5.996   2.253  -2.240  0.00  0.00     0.054 C 
ATOM      9  C   UNL d   1       5.545   3.503  -2.982  0.00  0.00     0.018 C 
ENDBRANCH   1   8
TORSDOF 1
ENDMDL
