MODEL 1
REMARK minimizedAffinity 2.4953506
REMARK minimizedRMSD -1
REMARK  1 active torsions:
REMARK  status: ('A' for Active; 'I' for Inactive)
REMARK    1  A    between atoms: C1_2  and  C2_3 
ROOT
ATOM      1  C2  UNL d   1      -1.697   2.784   1.518  0.00  0.00    -0.081 A 
ATOM      2  C3  UNL d   1      -2.735   2.740   2.456  0.00  0.00     0.006 A 
ATOM      3  C4  UNL d   1      -3.991   2.244   2.099  0.00  0.00     0.002 A 
ATOM      4  C5  UNL d   1      -4.228   1.778   0.802  0.00  0.00    -0.080 A 
ATOM      5  C6  UNL d   1      -5.563   1.215   0.414  0.00  0.00     0.076 C 
ATOM      6  C7  UNL d   1      -3.195   1.838  -0.141  0.00  0.00     0.002 A 
ATOM      7  C8  UNL d   1      -1.939   2.335   0.216  0.00  0.00     0.006 A 
ENDROOT
BRANCH   1   8
ATOM      8  C1  UNL d   1      -0.322   3.258   1.918  0.00  0.00     0.054 C 
ATOM      9  C   UNL d   1       0.095   2.676   3.260  0.00  0.00     0.018 C 
ENDBRANCH   1   8
TORSDOF 1
ENDMDL
