MODEL 1
REMARK minimizedAffinity 14.2949419
REMARK minimizedRMSD -1
REMARK  1 active torsions:
REMARK  status: ('A' for Active; 'I' for Inactive)
REMARK    1  A    between atoms: C1_2  and  C2_3 
ROOT
ATOM      1  C2  UNL d   1      -0.192   2.179   3.905  0.00  0.00    -0.081 A 
ATOM      2  C3  UNL d   1       0.756   2.243   2.876  0.00  0.00     0.006 A 
ATOM      3  C4  UNL d   1       0.498   2.984   1.721  0.00  0.00     0.002 A 
ATOM      4  C5  UNL d   1      -0.707   3.680   1.578  0.00  0.00    -0.080 A 
ATOM      5  C6  UNL d   1      -0.984   4.504   0.356  0.00  0.00     0.076 C 
ATOM      6  C7  UNL d   1      -1.661   3.602   2.598  0.00  0.00     0.002 A 
ATOM      7  C8  UNL d   1      -1.404   2.860   3.753  0.00  0.00     0.006 A 
ENDROOT
BRANCH   1   8
ATOM      8  C1  UNL d   1       0.110   1.433   5.179  0.00  0.00     0.054 C 
ATOM      9  C   UNL d   1       1.522   1.723   5.669  0.00  0.00     0.018 C 
ENDBRANCH   1   8
TORSDOF 1
ENDMDL
