MODEL 1
REMARK minimizedAffinity 15.3588877
REMARK minimizedRMSD -1
REMARK  1 active torsions:
REMARK  status: ('A' for Active; 'I' for Inactive)
REMARK    1  A    between atoms: C1_2  and  C2_3 
ROOT
ATOM      1  C2  UNL d   1       5.237   1.993  -2.229  0.00  0.00    -0.081 A 
ATOM      2  C3  UNL d   1       4.247   1.163  -2.769  0.00  0.00     0.006 A 
ATOM      3  C4  UNL d   1       3.511   0.309  -1.943  0.00  0.00     0.002 A 
ATOM      4  C5  UNL d   1       3.747   0.278  -0.565  0.00  0.00    -0.080 A 
ATOM      5  C6  UNL d   1       2.943  -0.612   0.337  0.00  0.00     0.076 C 
ATOM      6  C7  UNL d   1       4.748   1.094  -0.028  0.00  0.00     0.002 A 
ATOM      7  C8  UNL d   1       5.485   1.947  -0.852  0.00  0.00     0.006 A 
ENDROOT
BRANCH   1   8
ATOM      8  C1  UNL d   1       5.988   2.961  -3.107  0.00  0.00     0.054 C 
ATOM      9  C   UNL d   1       5.522   4.391  -2.878  0.00  0.00     0.018 C 
ENDBRANCH   1   8
TORSDOF 1
ENDMDL
