MODEL 1
REMARK minimizedAffinity 6.75215006
REMARK minimizedRMSD -1
REMARK  1 active torsions:
REMARK  status: ('A' for Active; 'I' for Inactive)
REMARK    1  A    between atoms: C1_2  and  C2_3 
ROOT
ATOM      1  C2  UNL d   1       3.278   0.315  -0.387  0.00  0.00    -0.081 A 
ATOM      2  C3  UNL d   1       2.401  -0.492  -1.123  0.00  0.00     0.006 A 
ATOM      3  C4  UNL d   1       2.755  -0.946  -2.395  0.00  0.00     0.002 A 
ATOM      4  C5  UNL d   1       3.994  -0.607  -2.950  0.00  0.00    -0.080 A 
ATOM      5  C6  UNL d   1       4.399  -1.112  -4.303  0.00  0.00     0.076 C 
ATOM      6  C7  UNL d   1       4.863   0.214  -2.223  0.00  0.00     0.002 A 
ATOM      7  C8  UNL d   1       4.509   0.669  -0.951  0.00  0.00     0.006 A 
ENDROOT
BRANCH   1   8
ATOM      8  C1  UNL d   1       2.926   0.753   1.012  0.00  0.00     0.054 C 
ATOM      9  C   UNL d   1       2.727  -0.443   1.932  0.00  0.00     0.018 C 
ENDBRANCH   1   8
TORSDOF 1
ENDMDL
