MODEL 1
REMARK minimizedAffinity 8.56623936
REMARK minimizedRMSD -1
REMARK  1 active torsions:
REMARK  status: ('A' for Active; 'I' for Inactive)
REMARK    1  A    between atoms: C1_2  and  C2_3 
ROOT
ATOM      1  C2  UNL d   1       1.488   0.065   0.174  0.00  0.00    -0.081 A 
ATOM      2  C3  UNL d   1       0.120  -0.209   0.049  0.00  0.00     0.006 A 
ATOM      3  C4  UNL d   1      -0.313  -1.460  -0.397  0.00  0.00     0.002 A 
ATOM      4  C5  UNL d   1       0.612  -2.460  -0.716  0.00  0.00    -0.080 A 
ATOM      5  C6  UNL d   1       0.159  -3.817  -1.166  0.00  0.00     0.076 C 
ATOM      6  C7  UNL d   1       1.978  -2.180  -0.607  0.00  0.00     0.002 A 
ATOM      7  C8  UNL d   1       2.413  -0.930  -0.163  0.00  0.00     0.006 A 
ENDROOT
BRANCH   1   8
ATOM      8  C1  UNL d   1       1.957   1.391   0.715  0.00  0.00     0.054 C 
ATOM      9  C   UNL d   1       1.211   2.549   0.068  0.00  0.00     0.018 C 
ENDBRANCH   1   8
TORSDOF 1
ENDMDL
