MODEL 1
REMARK minimizedAffinity 5.73167229
REMARK minimizedRMSD -1
REMARK  1 active torsions:
REMARK  status: ('A' for Active; 'I' for Inactive)
REMARK    1  A    between atoms: C1_2  and  C2_3 
ROOT
ATOM      1  C2  UNL d   1       0.020  -0.484  -0.342  0.00  0.00    -0.081 A 
ATOM      2  C3  UNL d   1       0.430  -1.820  -0.426  0.00  0.00     0.006 A 
ATOM      3  C4  UNL d   1       0.087  -2.598  -1.535  0.00  0.00     0.002 A 
ATOM      4  C5  UNL d   1      -0.665  -2.051  -2.580  0.00  0.00    -0.080 A 
ATOM      5  C6  UNL d   1      -1.014  -2.866  -3.789  0.00  0.00     0.076 C 
ATOM      6  C7  UNL d   1      -1.090  -0.721  -2.488  0.00  0.00     0.002 A 
ATOM      7  C8  UNL d   1      -0.748   0.057  -1.379  0.00  0.00     0.006 A 
ENDROOT
BRANCH   1   8
ATOM      8  C1  UNL d   1       0.443   0.376   0.822  0.00  0.00     0.054 C 
ATOM      9  C   UNL d   1       1.013   1.706   0.349  0.00  0.00     0.018 C 
ENDBRANCH   1   8
TORSDOF 1
ENDMDL
