MODEL 1
REMARK minimizedAffinity -5.71842003
REMARK minimizedRMSD -1
REMARK  0 active torsions:
REMARK  status: ('A' for Active; 'I' for Inactive)
ROOT
ATOM      1  C   UNL d   1      -1.710   2.684   1.787  0.00  0.00     0.078 C 
ATOM      2  C1  UNL d   1      -0.829   1.615   1.213  0.00  0.00    -0.077 A 
ATOM      3  C2  UNL d   1      -0.765   1.398  -0.169  0.00  0.00    -0.001 A 
ATOM      4  C3  UNL d   1       0.053   0.393  -0.688  0.00  0.00     0.003 A 
ATOM      5  C4  UNL d   1       0.812  -0.404   0.167  0.00  0.00    -0.005 A 
ATOM      6  C5  UNL d   1       0.753  -0.196   1.543  0.00  0.00     0.003 A 
ATOM      7  C6  UNL d   1      -0.064   0.808   2.065  0.00  0.00    -0.001 A 
ENDROOT
TORSDOF 0
ENDMDL
