MODEL 1
REMARK minimizedAffinity -3.61228108
REMARK minimizedRMSD -1
REMARK  0 active torsions:
REMARK  status: ('A' for Active; 'I' for Inactive)
ROOT
ATOM      1  C   UNL d   1      -0.296   1.428   2.284  0.00  0.00     0.078 C 
ATOM      2  C1  UNL d   1      -0.209   0.200   1.428  0.00  0.00    -0.077 A 
ATOM      3  C2  UNL d   1      -0.576  -1.055   1.928  0.00  0.00    -0.001 A 
ATOM      4  C3  UNL d   1      -0.480  -2.192   1.123  0.00  0.00     0.003 A 
ATOM      5  C4  UNL d   1      -0.016  -2.084  -0.186  0.00  0.00    -0.005 A 
ATOM      6  C5  UNL d   1       0.354  -0.840  -0.692  0.00  0.00     0.003 A 
ATOM      7  C6  UNL d   1       0.259   0.298   0.112  0.00  0.00    -0.001 A 
ENDROOT
TORSDOF 0
ENDMDL
