MODEL 1
REMARK minimizedAffinity -4.07553148
REMARK minimizedRMSD -1
REMARK  0 active torsions:
REMARK  status: ('A' for Active; 'I' for Inactive)
ROOT
ATOM      1  C   UNL d   1      -0.918  -2.867  -1.590  0.00  0.00     0.078 C 
ATOM      2  C1  UNL d   1      -0.467  -1.761  -0.683  0.00  0.00    -0.077 A 
ATOM      3  C2  UNL d   1      -1.178  -1.450   0.483  0.00  0.00    -0.001 A 
ATOM      4  C3  UNL d   1      -0.753  -0.412   1.313  0.00  0.00     0.003 A 
ATOM      5  C4  UNL d   1       0.384   0.324   0.986  0.00  0.00    -0.005 A 
ATOM      6  C5  UNL d   1       1.097   0.023  -0.172  0.00  0.00     0.003 A 
ATOM      7  C6  UNL d   1       0.673  -1.015  -1.004  0.00  0.00    -0.001 A 
ENDROOT
TORSDOF 0
ENDMDL
