MODEL 1
REMARK minimizedAffinity 2.22077703
REMARK minimizedRMSD -1
REMARK  0 active torsions:
REMARK  status: ('A' for Active; 'I' for Inactive)
ROOT
ATOM      1  C   UNL d   1      -0.835   2.942  -1.299  0.00  0.00     0.078 C 
ATOM      2  C1  UNL d   1      -0.754   2.557   0.148  0.00  0.00    -0.077 A 
ATOM      3  C2  UNL d   1      -1.743   2.954   1.056  0.00  0.00    -0.001 A 
ATOM      4  C3  UNL d   1      -1.649   2.597   2.402  0.00  0.00     0.003 A 
ATOM      5  C4  UNL d   1      -0.567   1.843   2.853  0.00  0.00    -0.005 A 
ATOM      6  C5  UNL d   1       0.423   1.446   1.957  0.00  0.00     0.003 A 
ATOM      7  C6  UNL d   1       0.331   1.802   0.610  0.00  0.00    -0.001 A 
ENDROOT
TORSDOF 0
ENDMDL
