MODEL 1
REMARK minimizedAffinity -2.11767411
REMARK minimizedRMSD -1
REMARK  0 active torsions:
REMARK  status: ('A' for Active; 'I' for Inactive)
ROOT
ATOM      1  C   UNL d   1       0.662  -1.143   4.290  0.00  0.00     0.078 C 
ATOM      2  C1  UNL d   1       0.481  -0.204   3.135  0.00  0.00    -0.077 A 
ATOM      3  C2  UNL d   1       0.723  -0.620   1.821  0.00  0.00    -0.001 A 
ATOM      4  C3  UNL d   1       0.560   0.268   0.757  0.00  0.00     0.003 A 
ATOM      5  C4  UNL d   1       0.154   1.579   0.997  0.00  0.00    -0.005 A 
ATOM      6  C5  UNL d   1      -0.088   2.004   2.301  0.00  0.00     0.003 A 
ATOM      7  C6  UNL d   1       0.076   1.117   3.367  0.00  0.00    -0.001 A 
ENDROOT
TORSDOF 0
ENDMDL
