MODEL 1
REMARK minimizedAffinity 12.3516426
REMARK minimizedRMSD -1
REMARK  0 active torsions:
REMARK  status: ('A' for Active; 'I' for Inactive)
ROOT
ATOM      1  O1  BZF d   1      -2.451  -1.167  -0.265  0.00  0.00    -0.204 OA
ATOM      2  C2  BZF d   1      -2.594  -2.377  -0.917  0.00  0.00     0.174 A 
ATOM      3  C3  BZF d   1      -1.436  -2.746  -1.501  0.00  0.00    -0.012 A 
ATOM      4  C3A BZF d   1      -0.486  -1.746  -1.118  0.00  0.00    -0.107 A 
ATOM      5  C4  BZF d   1       0.844  -1.569  -1.372  0.00  0.00     0.055 A 
ATOM      6  C5  BZF d   1       1.460  -0.449  -0.910  0.00  0.00    -0.016 A 
ATOM      7  C6  BZF d   1       0.778   0.513  -0.196  0.00  0.00     0.022 A 
ATOM      8  C7  BZF d   1      -0.541   0.379   0.085  0.00  0.00     0.029 A 
ATOM      9  C7A BZF d   1      -1.160  -0.767  -0.352  0.00  0.00     0.058 A 
ENDROOT
TORSDOF 0
ENDMDL
