MODEL 1
REMARK minimizedAffinity 5.95654249
REMARK minimizedRMSD -1
REMARK  0 active torsions:
REMARK  status: ('A' for Active; 'I' for Inactive)
ROOT
ATOM      1  O1  BZF d   1      -1.013  -3.001  -4.268  0.00  0.00    -0.204 OA
ATOM      2  C2  BZF d   1      -1.878  -3.981  -4.717  0.00  0.00     0.174 A 
ATOM      3  C3  BZF d   1      -2.788  -4.287  -3.769  0.00  0.00    -0.012 A 
ATOM      4  C3A BZF d   1      -2.529  -3.381  -2.693  0.00  0.00    -0.107 A 
ATOM      5  C4  BZF d   1      -3.111  -3.181  -1.473  0.00  0.00     0.055 A 
ATOM      6  C5  BZF d   1      -2.572  -2.264  -0.627  0.00  0.00    -0.016 A 
ATOM      7  C6  BZF d   1      -1.451  -1.535  -0.964  0.00  0.00     0.022 A 
ATOM      8  C7  BZF d   1      -0.842  -1.695  -2.164  0.00  0.00     0.029 A 
ATOM      9  C7A BZF d   1      -1.403  -2.596  -3.035  0.00  0.00     0.058 A 
ENDROOT
TORSDOF 0
ENDMDL
