MODEL 1
REMARK minimizedAffinity 8.56520081
REMARK minimizedRMSD -1
REMARK  0 active torsions:
REMARK  status: ('A' for Active; 'I' for Inactive)
ROOT
ATOM      1  O1  BZF d   1      -2.761  -2.112  -0.622  0.00  0.00    -0.204 OA
ATOM      2  C2  BZF d   1      -2.427  -2.977  -1.646  0.00  0.00     0.174 A 
ATOM      3  C3  BZF d   1      -1.187  -2.716  -2.107  0.00  0.00    -0.012 A 
ATOM      4  C3A BZF d   1      -0.681  -1.680  -1.260  0.00  0.00    -0.107 A 
ATOM      5  C4  BZF d   1       0.506  -1.007  -1.206  0.00  0.00     0.055 A 
ATOM      6  C5  BZF d   1       0.655  -0.001  -0.305  0.00  0.00    -0.016 A 
ATOM      7  C6  BZF d   1      -0.363   0.362   0.553  0.00  0.00     0.022 A 
ATOM      8  C7  BZF d   1      -1.556  -0.280   0.541  0.00  0.00     0.029 A 
ATOM      9  C7A BZF d   1      -1.698  -1.319  -0.347  0.00  0.00     0.058 A 
ENDROOT
TORSDOF 0
ENDMDL
