MODEL 1
REMARK minimizedAffinity 2.01459765
REMARK minimizedRMSD -1
REMARK  0 active torsions:
REMARK  status: ('A' for Active; 'I' for Inactive)
ROOT
ATOM      1  O1  BZF d   1      -4.524  -1.052   6.000  0.00  0.00    -0.204 OA
ATOM      2  C2  BZF d   1      -3.715  -2.171   5.998  0.00  0.00     0.174 A 
ATOM      3  C3  BZF d   1      -2.999  -2.242   4.857  0.00  0.00    -0.012 A 
ATOM      4  C3A BZF d   1      -3.316  -1.046   4.139  0.00  0.00    -0.107 A 
ATOM      5  C4  BZF d   1      -2.907  -0.534   2.941  0.00  0.00     0.055 A 
ATOM      6  C5  BZF d   1      -3.464   0.622   2.492  0.00  0.00    -0.016 A 
ATOM      7  C6  BZF d   1      -4.433   1.288   3.213  0.00  0.00     0.022 A 
ATOM      8  C7  BZF d   1      -4.867   0.822   4.409  0.00  0.00     0.029 A 
ATOM      9  C7A BZF d   1      -4.283  -0.328   4.880  0.00  0.00     0.058 A 
ENDROOT
TORSDOF 0
ENDMDL
