MODEL 1
REMARK minimizedAffinity 7.73649263
REMARK minimizedRMSD -1
REMARK  0 active torsions:
REMARK  status: ('A' for Active; 'I' for Inactive)
ROOT
ATOM      1  O1  BZF d   1       4.877  -3.769  -3.560  0.00  0.00    -0.204 OA
ATOM      2  C2  BZF d   1       6.000  -3.848  -2.760  0.00  0.00     0.174 A 
ATOM      3  C3  BZF d   1       5.737  -3.388  -1.520  0.00  0.00    -0.012 A 
ATOM      4  C3A BZF d   1       4.339  -3.083  -1.520  0.00  0.00    -0.107 A 
ATOM      5  C4  BZF d   1       3.483  -2.603  -0.570  0.00  0.00     0.055 A 
ATOM      6  C5  BZF d   1       2.193  -2.348  -0.913  0.00  0.00    -0.016 A 
ATOM      7  C6  BZF d   1       1.728  -2.555  -2.195  0.00  0.00     0.022 A 
ATOM      8  C7  BZF d   1       2.538  -3.034  -3.170  0.00  0.00     0.029 A 
ATOM      9  C7A BZF d   1       3.834  -3.325  -2.818  0.00  0.00     0.058 A 
ENDROOT
TORSDOF 0
ENDMDL
