MODEL 1
REMARK minimizedAffinity 0.572032034
REMARK minimizedRMSD -1
REMARK  0 active torsions:
REMARK  status: ('A' for Active; 'I' for Inactive)
ROOT
ATOM      1  O1  BZF d   1       4.032  -2.667  -4.878  0.00  0.00    -0.204 OA
ATOM      2  C2  BZF d   1       5.047  -3.188  -5.658  0.00  0.00     0.174 A 
ATOM      3  C3  BZF d   1       6.000  -3.753  -4.890  0.00  0.00    -0.012 A 
ATOM      4  C3A BZF d   1       5.509  -3.656  -3.549  0.00  0.00    -0.107 A 
ATOM      5  C4  BZF d   1       5.999  -4.055  -2.339  0.00  0.00     0.055 A 
ATOM      6  C5  BZF d   1       5.307  -3.744  -1.211  0.00  0.00    -0.016 A 
ATOM      7  C6  BZF d   1       4.126  -3.032  -1.257  0.00  0.00     0.022 A 
ATOM      8  C7  BZF d   1       3.598  -2.620  -2.435  0.00  0.00     0.029 A 
ATOM      9  C7A BZF d   1       4.278  -2.961  -3.579  0.00  0.00     0.058 A 
ENDROOT
TORSDOF 0
ENDMDL
