MODEL 1
REMARK minimizedAffinity 6.11348581
REMARK minimizedRMSD -1
REMARK  0 active torsions:
REMARK  status: ('A' for Active; 'I' for Inactive)
ROOT
ATOM      1  O1  BZF d   1      -0.716  -2.419  -2.918  0.00  0.00    -0.204 OA
ATOM      2  C2  BZF d   1      -1.640  -3.292  -2.378  0.00  0.00     0.174 A 
ATOM      3  C3  BZF d   1      -1.963  -2.929  -1.120  0.00  0.00    -0.012 A 
ATOM      4  C3A BZF d   1      -1.262  -1.703  -0.891  0.00  0.00    -0.107 A 
ATOM      5  C4  BZF d   1      -1.191  -0.846   0.170  0.00  0.00     0.055 A 
ATOM      6  C5  BZF d   1      -0.357   0.224   0.101  0.00  0.00    -0.016 A 
ATOM      7  C6  BZF d   1       0.424   0.465  -1.011  0.00  0.00     0.022 A 
ATOM      8  C7  BZF d   1       0.385  -0.354  -2.090  0.00  0.00     0.029 A 
ATOM      9  C7A BZF d   1      -0.482  -1.418  -2.035  0.00  0.00     0.058 A 
ENDROOT
TORSDOF 0
ENDMDL
