MODEL 1
REMARK minimizedAffinity 17.9461746
REMARK minimizedRMSD -1
REMARK  0 active torsions:
REMARK  status: ('A' for Active; 'I' for Inactive)
ROOT
ATOM      1  O1  BZF d   1       0.418  -1.424  -2.907  0.00  0.00    -0.204 OA
ATOM      2  C2  BZF d   1       1.476  -0.539  -2.835  0.00  0.00     0.174 A 
ATOM      3  C3  BZF d   1       1.488   0.097  -1.646  0.00  0.00    -0.012 A 
ATOM      4  C3A BZF d   1       0.422  -0.491  -0.894  0.00  0.00    -0.107 A 
ATOM      5  C4  BZF d   1      -0.058  -0.291   0.369  0.00  0.00     0.055 A 
ATOM      6  C5  BZF d   1      -1.159  -0.977   0.773  0.00  0.00    -0.016 A 
ATOM      7  C6  BZF d   1      -1.808  -1.865  -0.060  0.00  0.00     0.022 A 
ATOM      8  C7  BZF d   1      -1.366  -2.100  -1.320  0.00  0.00     0.029 A 
ATOM      9  C7A BZF d   1      -0.234  -1.433  -1.720  0.00  0.00     0.058 A 
ENDROOT
TORSDOF 0
ENDMDL
