MODEL 1
REMARK minimizedAffinity 8.58853436
REMARK minimizedRMSD -1
REMARK  0 active torsions:
REMARK  status: ('A' for Active; 'I' for Inactive)
ROOT
ATOM      1  O1  BZF d   1      -1.347  -1.235   0.398  0.00  0.00    -0.204 OA
ATOM      2  C2  BZF d   1      -1.527  -2.190  -0.584  0.00  0.00     0.174 A 
ATOM      3  C3  BZF d   1      -0.808  -1.885  -1.684  0.00  0.00    -0.012 A 
ATOM      4  C3A BZF d   1      -0.065  -0.714  -1.335  0.00  0.00    -0.107 A 
ATOM      5  C4  BZF d   1       0.842   0.057  -2.005  0.00  0.00     0.055 A 
ATOM      6  C5  BZF d   1       1.328   1.176  -1.406  0.00  0.00    -0.016 A 
ATOM      7  C6  BZF d   1       0.927   1.556  -0.143  0.00  0.00     0.022 A 
ATOM      8  C7  BZF d   1       0.033   0.821   0.563  0.00  0.00     0.029 A 
ATOM      9  C7A BZF d   1      -0.435  -0.328  -0.026  0.00  0.00     0.058 A 
ENDROOT
TORSDOF 0
ENDMDL
