MODEL 1
REMARK minimizedAffinity 10.4023781
REMARK minimizedRMSD -1
REMARK  0 active torsions:
REMARK  status: ('A' for Active; 'I' for Inactive)
ROOT
ATOM      1  O1  BZF d   1       6.000  -2.588  -4.094  0.00  0.00    -0.204 OA
ATOM      2  C2  BZF d   1       5.011  -2.256  -5.001  0.00  0.00     0.174 A 
ATOM      3  C3  BZF d   1       3.799  -2.261  -4.409  0.00  0.00    -0.012 A 
ATOM      4  C3A BZF d   1       4.056  -2.528  -3.027  0.00  0.00    -0.107 A 
ATOM      5  C4  BZF d   1       3.253  -2.641  -1.928  0.00  0.00     0.055 A 
ATOM      6  C5  BZF d   1       3.810  -2.981  -0.736  0.00  0.00    -0.016 A 
ATOM      7  C6  BZF d   1       5.162  -3.218  -0.608  0.00  0.00     0.022 A 
ATOM      8  C7  BZF d   1       6.000  -3.113  -1.668  0.00  0.00     0.029 A 
ATOM      9  C7A BZF d   1       5.445  -2.738  -2.868  0.00  0.00     0.058 A 
ENDROOT
TORSDOF 0
ENDMDL
