MODEL 1
REMARK minimizedAffinity 3.60911036
REMARK minimizedRMSD -1
REMARK  0 active torsions:
REMARK  status: ('A' for Active; 'I' for Inactive)
ROOT
ATOM      1  O1  BZF d   1       0.319  -0.348  -1.741  0.00  0.00    -0.204 OA
ATOM      2  C2  BZF d   1      -0.596  -0.416  -0.709  0.00  0.00     0.174 A 
ATOM      3  C3  BZF d   1      -0.167  -1.252   0.258  0.00  0.00    -0.012 A 
ATOM      4  C3A BZF d   1       1.139  -1.666  -0.156  0.00  0.00    -0.107 A 
ATOM      5  C4  BZF d   1       2.082  -2.486   0.395  0.00  0.00     0.055 A 
ATOM      6  C5  BZF d   1       3.222  -2.740  -0.298  0.00  0.00    -0.016 A 
ATOM      7  C6  BZF d   1       3.450  -2.196  -1.546  0.00  0.00     0.022 A 
ATOM      8  C7  BZF d   1       2.546  -1.374  -2.131  0.00  0.00     0.029 A 
ATOM      9  C7A BZF d   1       1.407  -1.089  -1.418  0.00  0.00     0.058 A 
ENDROOT
TORSDOF 0
ENDMDL
