MODEL 1
REMARK minimizedAffinity 5.88586664
REMARK minimizedRMSD -1
REMARK  0 active torsions:
REMARK  status: ('A' for Active; 'I' for Inactive)
ROOT
ATOM      1  O1  BZF d   1      -2.617  -3.252  -1.190  0.00  0.00    -0.204 OA
ATOM      2  C2  BZF d   1      -2.294  -3.493  -2.511  0.00  0.00     0.174 A 
ATOM      3  C3  BZF d   1      -1.449  -2.551  -2.977  0.00  0.00    -0.012 A 
ATOM      4  C3A BZF d   1      -1.157  -1.718  -1.851  0.00  0.00    -0.107 A 
ATOM      5  C4  BZF d   1      -0.365  -0.620  -1.676  0.00  0.00     0.055 A 
ATOM      6  C5  BZF d   1      -0.356   0.004  -0.469  0.00  0.00    -0.016 A 
ATOM      7  C6  BZF d   1      -1.131  -0.441   0.583  0.00  0.00     0.022 A 
ATOM      8  C7  BZF d   1      -1.928  -1.530   0.459  0.00  0.00     0.029 A 
ATOM      9  C7A BZF d   1      -1.914  -2.181  -0.750  0.00  0.00     0.058 A 
ENDROOT
TORSDOF 0
ENDMDL
