MODEL 1
REMARK minimizedAffinity 11.0219107
REMARK minimizedRMSD -1
REMARK  0 active torsions:
REMARK  status: ('A' for Active; 'I' for Inactive)
ROOT
ATOM      1  O1  BZF d   1       5.933  -3.772  -5.047  0.00  0.00    -0.204 OA
ATOM      2  C2  BZF d   1       4.962  -3.527  -5.998  0.00  0.00     0.174 A 
ATOM      3  C3  BZF d   1       3.810  -3.134  -5.417  0.00  0.00    -0.012 A 
ATOM      4  C3A BZF d   1       4.106  -3.044  -4.020  0.00  0.00    -0.107 A 
ATOM      5  C4  BZF d   1       3.370  -2.689  -2.926  0.00  0.00     0.055 A 
ATOM      6  C5  BZF d   1       3.935  -2.778  -1.693  0.00  0.00    -0.016 A 
ATOM      7  C6  BZF d   1       5.229  -3.222  -1.517  0.00  0.00     0.022 A 
ATOM      8  C7  BZF d   1       6.000  -3.581  -2.573  0.00  0.00     0.029 A 
ATOM      9  C7A BZF d   1       5.443  -3.461  -3.823  0.00  0.00     0.058 A 
ENDROOT
TORSDOF 0
ENDMDL
