MODEL 1
REMARK minimizedAffinity 12.3608046
REMARK minimizedRMSD -1
REMARK  0 active torsions:
REMARK  status: ('A' for Active; 'I' for Inactive)
ROOT
ATOM      1  O1  BZF d   1       3.601   4.660   0.455  0.00  0.00    -0.204 OA
ATOM      2  C2  BZF d   1       4.069   3.761  -0.484  0.00  0.00     0.174 A 
ATOM      3  C3  BZF d   1       3.271   2.675  -0.545  0.00  0.00    -0.012 A 
ATOM      4  C3A BZF d   1       2.189   2.952   0.349  0.00  0.00    -0.107 A 
ATOM      5  C4  BZF d   1       1.068   2.260   0.709  0.00  0.00     0.055 A 
ATOM      6  C5  BZF d   1       0.250   2.778   1.663  0.00  0.00    -0.016 A 
ATOM      7  C6  BZF d   1       0.525   3.981   2.281  0.00  0.00     0.022 A 
ATOM      8  C7  BZF d   1       1.623   4.705   1.953  0.00  0.00     0.029 A 
ATOM      9  C7A BZF d   1       2.434   4.201   0.966  0.00  0.00     0.058 A 
ENDROOT
TORSDOF 0
ENDMDL
