MODEL 1
REMARK minimizedAffinity 3.27802825
REMARK minimizedRMSD -1
REMARK  0 active torsions:
REMARK  status: ('A' for Active; 'I' for Inactive)
ROOT
ATOM      1  O1  BZF d   1      -3.134  -2.068   0.070  0.00  0.00    -0.204 OA
ATOM      2  C2  BZF d   1      -3.058  -2.838  -1.074  0.00  0.00     0.174 A 
ATOM      3  C3  BZF d   1      -1.893  -2.625  -1.718  0.00  0.00    -0.012 A 
ATOM      4  C3A BZF d   1      -1.156  -1.732  -0.878  0.00  0.00    -0.107 A 
ATOM      5  C4  BZF d   1       0.082  -1.163  -0.968  0.00  0.00     0.055 A 
ATOM      6  C5  BZF d   1       0.474  -0.278  -0.015  0.00  0.00    -0.016 A 
ATOM      7  C6  BZF d   1      -0.347   0.066   1.039  0.00  0.00     0.022 A 
ATOM      8  C7  BZF d   1      -1.583  -0.476   1.174  0.00  0.00     0.029 A 
ATOM      9  C7A BZF d   1      -1.969  -1.396   0.230  0.00  0.00     0.058 A 
ENDROOT
TORSDOF 0
ENDMDL
