MODEL 1
REMARK minimizedAffinity 13.2863894
REMARK minimizedRMSD -1
REMARK  0 active torsions:
REMARK  status: ('A' for Active; 'I' for Inactive)
ROOT
ATOM      1  O1  BZF d   1      -4.183  -0.847   5.934  0.00  0.00    -0.204 OA
ATOM      2  C2  BZF d   1      -3.409  -1.989   5.999  0.00  0.00     0.174 A 
ATOM      3  C3  BZF d   1      -2.791  -2.216   4.822  0.00  0.00    -0.012 A 
ATOM      4  C3A BZF d   1      -3.132  -1.098   3.996  0.00  0.00    -0.107 A 
ATOM      5  C4  BZF d   1      -2.808  -0.741   2.718  0.00  0.00     0.055 A 
ATOM      6  C5  BZF d   1      -3.365   0.377   2.183  0.00  0.00    -0.016 A 
ATOM      7  C6  BZF d   1      -4.253   1.157   2.895  0.00  0.00     0.022 A 
ATOM      8  C7  BZF d   1      -4.601   0.846   4.167  0.00  0.00     0.029 A 
ATOM      9  C7A BZF d   1      -4.014  -0.265   4.722  0.00  0.00     0.058 A 
ENDROOT
TORSDOF 0
ENDMDL
