MODEL 1
REMARK minimizedAffinity 0.934387386
REMARK minimizedRMSD -1
REMARK  0 active torsions:
REMARK  status: ('A' for Active; 'I' for Inactive)
ROOT
ATOM      1  O1  BZF d   1       3.100   2.735   0.081  0.00  0.00    -0.204 OA
ATOM      2  C2  BZF d   1       2.792   3.728   0.991  0.00  0.00     0.174 A 
ATOM      3  C3  BZF d   1       1.486   3.681   1.326  0.00  0.00    -0.012 A 
ATOM      4  C3A BZF d   1       0.966   2.532   0.650  0.00  0.00    -0.107 A 
ATOM      5  C4  BZF d   1      -0.269   1.951   0.602  0.00  0.00     0.055 A 
ATOM      6  C5  BZF d   1      -0.463   0.879  -0.211  0.00  0.00    -0.016 A 
ATOM      7  C6  BZF d   1       0.552   0.367  -0.992  0.00  0.00     0.022 A 
ATOM      8  C7  BZF d   1       1.795   0.907  -0.974  0.00  0.00     0.029 A 
ATOM      9  C7A BZF d   1       2.003   1.969  -0.129  0.00  0.00     0.058 A 
ENDROOT
TORSDOF 0
ENDMDL
