MODEL 1
REMARK minimizedAffinity -2.1872108
REMARK minimizedRMSD -1
REMARK  0 active torsions:
REMARK  status: ('A' for Active; 'I' for Inactive)
ROOT
ATOM      1  O1  BZF d   1       0.054  -0.029  -1.832  0.00  0.00    -0.204 OA
ATOM      2  C2  BZF d   1      -0.187   1.217  -1.285  0.00  0.00     0.174 A 
ATOM      3  C3  BZF d   1      -0.591   1.106  -0.003  0.00  0.00    -0.012 A 
ATOM      4  C3A BZF d   1      -0.516  -0.291   0.296  0.00  0.00    -0.107 A 
ATOM      5  C4  BZF d   1      -0.775  -1.026   1.418  0.00  0.00     0.055 A 
ATOM      6  C5  BZF d   1      -0.672  -2.380   1.358  0.00  0.00    -0.016 A 
ATOM      7  C6  BZF d   1      -0.318  -3.030   0.194  0.00  0.00     0.022 A 
ATOM      8  C7  BZF d   1      -0.046  -2.343  -0.942  0.00  0.00     0.029 A 
ATOM      9  C7A BZF d   1      -0.117  -0.973  -0.876  0.00  0.00     0.058 A 
ENDROOT
TORSDOF 0
ENDMDL
