MODEL 1
REMARK minimizedAffinity -4.42041016
REMARK minimizedRMSD -1
REMARK  3 active torsions:
REMARK  status: ('A' for Active; 'I' for Inactive)
REMARK    1  A    between atoms: C3'_2  and  C2'_3 
REMARK    2  A    between atoms: C2'_3  and  C1'_4 
REMARK    3  A    between atoms: C1'_4  and  C1_5 
ROOT
ATOM      1  C1  N4B d   1      -0.101   0.038   0.688  0.00  0.00    -0.075 A 
ATOM      2  C2  N4B d   1       0.711   0.712   1.627  0.00  0.00     0.002 A 
ATOM      3  C3  N4B d   1       0.462   0.579   2.971  0.00  0.00     0.002 A 
ATOM      4  C4  N4B d   1      -0.602  -0.203   3.397  0.00  0.00    -0.004 A 
ATOM      5  C5  N4B d   1      -1.366  -0.870   2.485  0.00  0.00     0.002 A 
ATOM      6  C6  N4B d   1      -1.124  -0.749   1.131  0.00  0.00     0.002 A 
ENDROOT
BRANCH   1   7
ATOM      7  C1' N4B d   1       0.079   0.221  -0.794  0.00  0.00     0.057 C 
BRANCH   7   8
ATOM      8  C2' N4B d   1      -0.061  -1.131  -1.486  0.00  0.00     0.009 C 
BRANCH   8   9
ATOM      9  C3' N4B d   1       0.533  -1.118  -2.884  0.00  0.00     0.004 C 
ATOM     10  C4' N4B d   1       1.135  -2.436  -3.272  0.00  0.00     0.003 C 
ENDBRANCH   8   9
ENDBRANCH   7   8
ENDBRANCH   1   7
TORSDOF 3
ENDMDL
