MODEL 1
REMARK minimizedAffinity 1.34795547
REMARK minimizedRMSD -1
REMARK  3 active torsions:
REMARK  status: ('A' for Active; 'I' for Inactive)
REMARK    1  A    between atoms: C3'_2  and  C2'_3 
REMARK    2  A    between atoms: C2'_3  and  C1'_4 
REMARK    3  A    between atoms: C1'_4  and  C1_5 
ROOT
ATOM      1  C1  N4B d   1      -0.668   0.003   2.100  0.00  0.00    -0.075 A 
ATOM      2  C2  N4B d   1      -0.148   0.333   0.829  0.00  0.00     0.002 A 
ATOM      3  C3  N4B d   1      -0.221  -0.575  -0.199  0.00  0.00     0.002 A 
ATOM      4  C4  N4B d   1      -0.790  -1.820   0.024  0.00  0.00    -0.004 A 
ATOM      5  C5  N4B d   1      -1.312  -2.121   1.248  0.00  0.00     0.002 A 
ATOM      6  C6  N4B d   1      -1.250  -1.218   2.289  0.00  0.00     0.002 A 
ENDROOT
BRANCH   1   7
ATOM      7  C1' N4B d   1      -0.535   0.929   3.277  0.00  0.00     0.057 C 
BRANCH   7   8
ATOM      8  C2' N4B d   1       0.698   1.808   3.086  0.00  0.00     0.009 C 
BRANCH   8   9
ATOM      9  C3' N4B d   1       0.654   3.048   3.963  0.00  0.00     0.004 C 
ATOM     10  C4' N4B d   1      -0.742   3.539   4.204  0.00  0.00     0.003 C 
ENDBRANCH   8   9
ENDBRANCH   7   8
ENDBRANCH   1   7
TORSDOF 3
ENDMDL
