MODEL 1
REMARK minimizedAffinity 0.381211132
REMARK minimizedRMSD -1
REMARK  3 active torsions:
REMARK  status: ('A' for Active; 'I' for Inactive)
REMARK    1  A    between atoms: C3'_2  and  C2'_3 
REMARK    2  A    between atoms: C2'_3  and  C1'_4 
REMARK    3  A    between atoms: C1'_4  and  C1_5 
ROOT
ATOM      1  C1  N4B d   1       0.087  -0.564  -1.630  0.00  0.00    -0.075 A 
ATOM      2  C2  N4B d   1      -0.697  -1.579  -2.219  0.00  0.00     0.002 A 
ATOM      3  C3  N4B d   1      -0.188  -2.327  -3.252  0.00  0.00     0.002 A 
ATOM      4  C4  N4B d   1       1.091  -2.066  -3.723  0.00  0.00    -0.004 A 
ATOM      5  C5  N4B d   1       1.851  -1.101  -3.131  0.00  0.00     0.002 A 
ATOM      6  C6  N4B d   1       1.354  -0.344  -2.089  0.00  0.00     0.002 A 
ENDROOT
BRANCH   1   7
ATOM      7  C1' N4B d   1      -0.458   0.337  -0.555  0.00  0.00     0.057 C 
BRANCH   7   8
ATOM      8  C2' N4B d   1      -1.873   0.766  -0.931  0.00  0.00     0.009 C 
BRANCH   8   9
ATOM      9  C3' N4B d   1      -2.859   0.524   0.199  0.00  0.00     0.004 C 
ATOM     10  C4' N4B d   1      -2.659  -0.802   0.870  0.00  0.00     0.003 C 
ENDBRANCH   8   9
ENDBRANCH   7   8
ENDBRANCH   1   7
TORSDOF 3
ENDMDL
