MODEL 1
REMARK minimizedAffinity -4.14963722
REMARK minimizedRMSD -1
REMARK  3 active torsions:
REMARK  status: ('A' for Active; 'I' for Inactive)
REMARK    1  A    between atoms: C3'_2  and  C2'_3 
REMARK    2  A    between atoms: C2'_3  and  C1'_4 
REMARK    3  A    between atoms: C1'_4  and  C1_5 
ROOT
ATOM      1  C1  N4B d   1      -0.663   0.078  -0.813  0.00  0.00    -0.075 A 
ATOM      2  C2  N4B d   1       0.380  -0.321   0.052  0.00  0.00     0.002 A 
ATOM      3  C3  N4B d   1       0.096  -0.701   1.341  0.00  0.00     0.002 A 
ATOM      4  C4  N4B d   1      -1.215  -0.672   1.791  0.00  0.00    -0.004 A 
ATOM      5  C5  N4B d   1      -2.220  -0.310   0.942  0.00  0.00     0.002 A 
ATOM      6  C6  N4B d   1      -1.949   0.070  -0.357  0.00  0.00     0.002 A 
ENDROOT
BRANCH   1   7
ATOM      7  C1' N4B d   1      -0.392   0.583  -2.203  0.00  0.00     0.057 C 
BRANCH   7   8
ATOM      8  C2' N4B d   1       0.845  -0.117  -2.759  0.00  0.00     0.009 C 
BRANCH   8   9
ATOM      9  C3' N4B d   1       0.494  -1.414  -3.466  0.00  0.00     0.004 C 
ATOM     10  C4' N4B d   1       1.615  -2.410  -3.443  0.00  0.00     0.003 C 
ENDBRANCH   8   9
ENDBRANCH   7   8
ENDBRANCH   1   7
TORSDOF 3
ENDMDL
