MODEL 1
REMARK minimizedAffinity -5.16978216
REMARK minimizedRMSD -1
REMARK  3 active torsions:
REMARK  status: ('A' for Active; 'I' for Inactive)
REMARK    1  A    between atoms: C3'_2  and  C2'_3 
REMARK    2  A    between atoms: C2'_3  and  C1'_4 
REMARK    3  A    between atoms: C1'_4  and  C1_5 
ROOT
ATOM      1  C1  N4B d   1       1.040  -0.645   0.245  0.00  0.00    -0.075 A 
ATOM      2  C2  N4B d   1       1.747  -0.472   1.455  0.00  0.00     0.002 A 
ATOM      3  C3  N4B d   1       1.115   0.070   2.548  0.00  0.00     0.002 A 
ATOM      4  C4  N4B d   1      -0.212   0.461   2.449  0.00  0.00    -0.004 A 
ATOM      5  C5  N4B d   1      -0.895   0.267   1.284  0.00  0.00     0.002 A 
ATOM      6  C6  N4B d   1      -0.274  -0.279   0.179  0.00  0.00     0.002 A 
ENDROOT
BRANCH   1   7
ATOM      7  C1' N4B d   1       1.712  -1.153  -1.001  0.00  0.00     0.057 C 
BRANCH   7   8
ATOM      8  C2' N4B d   1       0.726  -2.014  -1.786  0.00  0.00     0.009 C 
BRANCH   8   9
ATOM      9  C3' N4B d   1       0.649  -1.603  -3.246  0.00  0.00     0.004 C 
ATOM     10  C4' N4B d   1       0.255  -0.167  -3.425  0.00  0.00     0.003 C 
ENDBRANCH   8   9
ENDBRANCH   7   8
ENDBRANCH   1   7
TORSDOF 3
ENDMDL
