MODEL 1
REMARK minimizedAffinity -3.51245427
REMARK minimizedRMSD -1
REMARK  3 active torsions:
REMARK  status: ('A' for Active; 'I' for Inactive)
REMARK    1  A    between atoms: C3'_2  and  C2'_3 
REMARK    2  A    between atoms: C2'_3  and  C1'_4 
REMARK    3  A    between atoms: C1'_4  and  C1_5 
ROOT
ATOM      1  C1  N4B d   1      -0.853  -0.921   1.408  0.00  0.00    -0.075 A 
ATOM      2  C2  N4B d   1      -1.743  -0.680   0.338  0.00  0.00     0.002 A 
ATOM      3  C3  N4B d   1      -1.364   0.135  -0.700  0.00  0.00     0.002 A 
ATOM      4  C4  N4B d   1      -0.112   0.732  -0.681  0.00  0.00    -0.004 A 
ATOM      5  C5  N4B d   1       0.751   0.474   0.343  0.00  0.00     0.002 A 
ATOM      6  C6  N4B d   1       0.384  -0.346   1.391  0.00  0.00     0.002 A 
ENDROOT
BRANCH   1   7
ATOM      7  C1' N4B d   1      -1.255  -1.736   2.607  0.00  0.00     0.057 C 
BRANCH   7   8
ATOM      8  C2' N4B d   1      -2.186  -0.907   3.487  0.00  0.00     0.009 C 
BRANCH   8   9
ATOM      9  C3' N4B d   1      -1.662   0.504   3.697  0.00  0.00     0.004 C 
ATOM     10  C4' N4B d   1      -2.481   1.540   2.988  0.00  0.00     0.003 C 
ENDBRANCH   8   9
ENDBRANCH   7   8
ENDBRANCH   1   7
TORSDOF 3
ENDMDL
