MODEL 1
REMARK minimizedAffinity -2.83011293
REMARK minimizedRMSD -1
REMARK  1 active torsions:
REMARK  status: ('A' for Active; 'I' for Inactive)
REMARK    1  A    between atoms: C1_2  and  C2_3 
ROOT
ATOM      1  C2  UNL d   1       0.102  -0.007  -0.782  0.00  0.00    -0.073 A 
ATOM      2  C3  UNL d   1      -1.069  -0.706  -1.099  0.00  0.00    -0.002 A 
ATOM      3  C4  UNL d   1      -2.143  -0.723  -0.208  0.00  0.00     0.004 A 
ATOM      4  C5  UNL d   1      -2.060  -0.039   1.004  0.00  0.00    -0.004 A 
ATOM      5  C6  UNL d   1      -0.903   0.675   1.334  0.00  0.00    -0.075 A 
ATOM      6  C7  UNL d   1      -0.797   1.415   2.635  0.00  0.00     0.076 C 
ATOM      7  C8  UNL d   1       0.172   0.686   0.435  0.00  0.00     0.001 A 
ENDROOT
BRANCH   1   8
ATOM      8  C1  UNL d   1       1.261   0.020  -1.744  0.00  0.00     0.053 C 
ATOM      9  C   UNL d   1       0.802  -0.045  -3.192  0.00  0.00     0.018 C 
ENDBRANCH   1   8
TORSDOF 1
ENDMDL
