MODEL 1
REMARK minimizedAffinity -2.89365172
REMARK minimizedRMSD -1
REMARK  1 active torsions:
REMARK  status: ('A' for Active; 'I' for Inactive)
REMARK    1  A    between atoms: C1_2  and  C2_3 
ROOT
ATOM      1  C2  UNL d   1       0.080  -0.066  -0.896  0.00  0.00    -0.073 A 
ATOM      2  C3  UNL d   1      -1.177   0.227  -0.355  0.00  0.00    -0.002 A 
ATOM      3  C4  UNL d   1      -1.330   0.387   1.023  0.00  0.00     0.004 A 
ATOM      4  C5  UNL d   1      -0.230   0.263   1.871  0.00  0.00    -0.004 A 
ATOM      5  C6  UNL d   1       1.036  -0.017   1.348  0.00  0.00    -0.075 A 
ATOM      6  C7  UNL d   1       2.230  -0.155   2.247  0.00  0.00     0.076 C 
ATOM      7  C8  UNL d   1       1.182  -0.179  -0.037  0.00  0.00     0.001 A 
ENDROOT
BRANCH   1   8
ATOM      8  C1  UNL d   1       0.252  -0.233  -2.384  0.00  0.00     0.053 C 
ATOM      9  C   UNL d   1       1.029   0.919  -3.001  0.00  0.00     0.018 C 
ENDBRANCH   1   8
TORSDOF 1
ENDMDL
