MODEL 1
REMARK minimizedAffinity -2.76795626
REMARK minimizedRMSD -1
REMARK  1 active torsions:
REMARK  status: ('A' for Active; 'I' for Inactive)
REMARK    1  A    between atoms: C1_2  and  C2_3 
ROOT
ATOM      1  C2  UNL d   1      -1.029   0.198   0.560  0.00  0.00    -0.073 A 
ATOM      2  C3  UNL d   1      -0.463   1.411   0.967  0.00  0.00    -0.002 A 
ATOM      3  C4  UNL d   1      -0.593   1.841   2.289  0.00  0.00     0.004 A 
ATOM      4  C5  UNL d   1      -1.283   1.061   3.216  0.00  0.00    -0.004 A 
ATOM      5  C6  UNL d   1      -1.845  -0.160   2.831  0.00  0.00    -0.075 A 
ATOM      6  C7  UNL d   1      -2.592  -1.011   3.816  0.00  0.00     0.076 C 
ATOM      7  C8  UNL d   1      -1.713  -0.584   1.502  0.00  0.00     0.001 A 
ENDROOT
BRANCH   1   8
ATOM      8  C1  UNL d   1      -0.885  -0.274  -0.864  0.00  0.00     0.053 C 
ATOM      9  C   UNL d   1       0.545  -0.670  -1.192  0.00  0.00     0.018 C 
ENDBRANCH   1   8
TORSDOF 1
ENDMDL
