MODEL 1
REMARK minimizedAffinity -3.22357297
REMARK minimizedRMSD -1
REMARK  0 active torsions:
REMARK  status: ('A' for Active; 'I' for Inactive)
ROOT
ATOM      1  C1  DEN d   1       0.002   1.492   0.421  0.00  0.00     0.130 A 
ATOM      2  C2  DEN d   1      -1.206   1.135   1.161  0.00  0.00    -0.031 A 
ATOM      3  C3  DEN d   1      -1.421  -0.318   1.009  0.00  0.00     0.027 A 
ATOM      4  C4  DEN d   1      -0.006  -2.041  -0.289  0.00  0.00     0.027 A 
ATOM      5  C5  DEN d   1       1.106  -2.209  -1.084  0.00  0.00    -0.003 A 
ATOM      6  C6  DEN d   1       1.902  -1.159  -1.459  0.00  0.00     0.001 A 
ATOM      7  C7  DEN d   1       1.623   0.101  -1.000  0.00  0.00     0.017 A 
ATOM      8  C8  DEN d   1       0.499   0.280  -0.204  0.00  0.00    -0.094 A 
ATOM      9  C9  DEN d   1      -0.286  -0.796   0.174  0.00  0.00    -0.072 A 
ENDROOT
TORSDOF 0
ENDMDL
