MODEL 1
REMARK minimizedAffinity -0.593788564
REMARK minimizedRMSD -1
REMARK  0 active torsions:
REMARK  status: ('A' for Active; 'I' for Inactive)
ROOT
ATOM      1  C1  DEN d   1       2.880  -0.240  -1.224  0.00  0.00     0.130 A 
ATOM      2  C2  DEN d   1       3.364  -1.595  -1.476  0.00  0.00    -0.031 A 
ATOM      3  C3  DEN d   1       2.336  -2.542  -0.999  0.00  0.00     0.027 A 
ATOM      4  C4  DEN d   1       0.054  -2.046   0.095  0.00  0.00     0.027 A 
ATOM      5  C5  DEN d   1      -0.791  -1.046   0.526  0.00  0.00    -0.003 A 
ATOM      6  C6  DEN d   1      -0.459   0.279   0.436  0.00  0.00     0.001 A 
ATOM      7  C7  DEN d   1       0.730   0.644  -0.140  0.00  0.00     0.017 A 
ATOM      8  C8  DEN d   1       1.590  -0.358  -0.570  0.00  0.00    -0.094 A 
ATOM      9  C9  DEN d   1       1.231  -1.692  -0.481  0.00  0.00    -0.072 A 
ENDROOT
TORSDOF 0
ENDMDL
