MODEL 1
REMARK minimizedAffinity -2.82516193
REMARK minimizedRMSD -1
REMARK  0 active torsions:
REMARK  status: ('A' for Active; 'I' for Inactive)
ROOT
ATOM      1  C1  DEN d   1       1.923   1.236  -1.261  0.00  0.00     0.130 A 
ATOM      2  C2  DEN d   1       2.708   0.058  -1.617  0.00  0.00    -0.031 A 
ATOM      3  C3  DEN d   1       1.944  -1.139  -1.211  0.00  0.00     0.027 A 
ATOM      4  C4  DEN d   1      -0.368  -1.281  -0.078  0.00  0.00     0.027 A 
ATOM      5  C5  DEN d   1      -1.416  -0.546   0.430  0.00  0.00    -0.003 A 
ATOM      6  C6  DEN d   1      -1.410   0.824   0.441  0.00  0.00     0.001 A 
ATOM      7  C7  DEN d   1      -0.353   1.502  -0.107  0.00  0.00     0.017 A 
ATOM      8  C8  DEN d   1       0.710   0.767  -0.615  0.00  0.00    -0.094 A 
ATOM      9  C9  DEN d   1       0.679  -0.617  -0.628  0.00  0.00    -0.072 A 
ENDROOT
TORSDOF 0
ENDMDL
