MODEL 1
REMARK minimizedAffinity -4.03414297
REMARK minimizedRMSD -1
REMARK  0 active torsions:
REMARK  status: ('A' for Active; 'I' for Inactive)
ROOT
ATOM      1  C1  DEN d   1       1.583  -1.770  -0.627  0.00  0.00     0.130 A 
ATOM      2  C2  DEN d   1       2.741  -0.984  -1.042  0.00  0.00    -0.031 A 
ATOM      3  C3  DEN d   1       2.356   0.442  -1.027  0.00  0.00     0.027 A 
ATOM      4  C4  DEN d   1       0.090   1.503  -0.400  0.00  0.00     0.027 A 
ATOM      5  C5  DEN d   1      -1.200   1.238   0.006  0.00  0.00    -0.003 A 
ATOM      6  C6  DEN d   1      -1.658  -0.039   0.194  0.00  0.00     0.001 A 
ATOM      7  C7  DEN d   1      -0.808  -1.098   0.021  0.00  0.00     0.017 A 
ATOM      8  C8  DEN d   1       0.492  -0.840  -0.395  0.00  0.00    -0.094 A 
ATOM      9  C9  DEN d   1       0.940   0.459  -0.569  0.00  0.00    -0.072 A 
ENDROOT
TORSDOF 0
ENDMDL
