MODEL 1
REMARK minimizedAffinity -2.3711338
REMARK minimizedRMSD -1
REMARK  0 active torsions:
REMARK  status: ('A' for Active; 'I' for Inactive)
ROOT
ATOM      1  C1  DEN d   1       2.576   0.459  -1.334  0.00  0.00     0.130 A 
ATOM      2  C2  DEN d   1       3.086  -0.850  -1.732  0.00  0.00    -0.031 A 
ATOM      3  C3  DEN d   1       2.101  -1.869  -1.317  0.00  0.00     0.027 A 
ATOM      4  C4  DEN d   1      -0.154  -1.549  -0.108  0.00  0.00     0.027 A 
ATOM      5  C5  DEN d   1      -1.009  -0.622   0.446  0.00  0.00    -0.003 A 
ATOM      6  C6  DEN d   1      -0.716   0.716   0.475  0.00  0.00     0.001 A 
ATOM      7  C7  DEN d   1       0.442   1.170  -0.100  0.00  0.00     0.017 A 
ATOM      8  C8  DEN d   1       1.312   0.240  -0.653  0.00  0.00    -0.094 A 
ATOM      9  C9  DEN d   1       0.992  -1.106  -0.684  0.00  0.00    -0.072 A 
ENDROOT
TORSDOF 0
ENDMDL
