MODEL 1
REMARK minimizedAffinity -1.76752234
REMARK minimizedRMSD -1
REMARK  0 active torsions:
REMARK  status: ('A' for Active; 'I' for Inactive)
ROOT
ATOM      1  C1  DEN d   1       2.361   0.282  -0.590  0.00  0.00     0.130 A 
ATOM      2  C2  DEN d   1       2.801  -1.034  -1.043  0.00  0.00    -0.031 A 
ATOM      3  C3  DEN d   1       1.652  -1.957  -0.950  0.00  0.00     0.027 A 
ATOM      4  C4  DEN d   1      -0.754  -1.477  -0.155  0.00  0.00     0.027 A 
ATOM      5  C5  DEN d   1      -1.602  -0.510   0.338  0.00  0.00    -0.003 A 
ATOM      6  C6  DEN d   1      -1.182   0.770   0.586  0.00  0.00     0.001 A 
ATOM      7  C7  DEN d   1       0.108   1.130   0.300  0.00  0.00     0.017 A 
ATOM      8  C8  DEN d   1       0.970   0.158  -0.191  0.00  0.00    -0.094 A 
ATOM      9  C9  DEN d   1       0.524  -1.128  -0.447  0.00  0.00    -0.072 A 
ENDROOT
TORSDOF 0
ENDMDL
