MODEL 1
REMARK minimizedAffinity -2.94363165
REMARK minimizedRMSD -1
REMARK  0 active torsions:
REMARK  status: ('A' for Active; 'I' for Inactive)
ROOT
ATOM      1  C1  DEN d   1       0.621   0.798   1.136  0.00  0.00     0.130 A 
ATOM      2  C2  DEN d   1       0.197   0.235  -0.143  0.00  0.00    -0.031 A 
ATOM      3  C3  DEN d   1      -1.223  -0.154  -0.023  0.00  0.00     0.027 A 
ATOM      4  C4  DEN d   1      -2.798   0.064   2.008  0.00  0.00     0.027 A 
ATOM      5  C5  DEN d   1      -2.888   0.471   3.320  0.00  0.00    -0.003 A 
ATOM      6  C6  DEN d   1      -1.814   0.979   4.002  0.00  0.00     0.001 A 
ATOM      7  C7  DEN d   1      -0.615   1.136   3.359  0.00  0.00     0.017 A 
ATOM      8  C8  DEN d   1      -0.515   0.722   2.038  0.00  0.00    -0.094 A 
ATOM      9  C9  DEN d   1      -1.615   0.221   1.362  0.00  0.00    -0.072 A 
ENDROOT
TORSDOF 0
ENDMDL
