MODEL 1
REMARK minimizedAffinity -2.40709615
REMARK minimizedRMSD -1
REMARK  0 active torsions:
REMARK  status: ('A' for Active; 'I' for Inactive)
ROOT
ATOM      1  C1  DEN d   1      -0.801  -1.155  -0.225  0.00  0.00     0.130 A 
ATOM      2  C2  DEN d   1      -1.290  -0.010   0.537  0.00  0.00    -0.031 A 
ATOM      3  C3  DEN d   1      -0.292   1.073   0.425  0.00  0.00     0.027 A 
ATOM      4  C4  DEN d   1       1.949   1.088  -0.852  0.00  0.00     0.027 A 
ATOM      5  C5  DEN d   1       2.798   0.341  -1.638  0.00  0.00    -0.003 A 
ATOM      6  C6  DEN d   1       2.526  -0.958  -1.977  0.00  0.00     0.001 A 
ATOM      7  C7  DEN d   1       1.353  -1.535  -1.566  0.00  0.00     0.017 A 
ATOM      8  C8  DEN d   1       0.496  -0.791  -0.767  0.00  0.00    -0.094 A 
ATOM      9  C9  DEN d   1       0.783   0.525  -0.445  0.00  0.00    -0.072 A 
ENDROOT
TORSDOF 0
ENDMDL
