MODEL 1
REMARK minimizedAffinity -4.7624321
REMARK minimizedRMSD -1
REMARK  0 active torsions:
REMARK  status: ('A' for Active; 'I' for Inactive)
ROOT
ATOM      1  C1  DEN d   1       2.835   0.383  -0.817  0.00  0.00     0.130 A 
ATOM      2  C2  DEN d   1       3.314  -0.833  -1.468  0.00  0.00    -0.031 A 
ATOM      3  C3  DEN d   1       2.232  -1.836  -1.416  0.00  0.00     0.027 A 
ATOM      4  C4  DEN d   1      -0.130  -1.623  -0.400  0.00  0.00     0.027 A 
ATOM      5  C5  DEN d   1      -0.991  -0.785   0.273  0.00  0.00    -0.003 A 
ATOM      6  C6  DEN d   1      -0.629   0.479   0.656  0.00  0.00     0.001 A 
ATOM      7  C7  DEN d   1       0.613   0.958   0.330  0.00  0.00     0.017 A 
ATOM      8  C8  DEN d   1       1.489   0.116  -0.342  0.00  0.00    -0.094 A 
ATOM      9  C9  DEN d   1       1.100  -1.154  -0.732  0.00  0.00    -0.072 A 
ENDROOT
TORSDOF 0
ENDMDL
