MODEL 1
REMARK minimizedAffinity -6.24481249
REMARK minimizedRMSD -1
REMARK  0 active torsions:
REMARK  status: ('A' for Active; 'I' for Inactive)
ROOT
ATOM      1  C1  DEN d   1      -1.144  -0.076   0.899  0.00  0.00     0.130 A 
ATOM      2  C2  DEN d   1      -2.109   0.676   0.101  0.00  0.00    -0.031 A 
ATOM      3  C3  DEN d   1      -1.392   1.258  -1.052  0.00  0.00     0.027 A 
ATOM      4  C4  DEN d   1       1.102   1.064  -1.678  0.00  0.00     0.027 A 
ATOM      5  C5  DEN d   1       2.318   0.538  -1.298  0.00  0.00    -0.003 A 
ATOM      6  C6  DEN d   1       2.470  -0.194  -0.150  0.00  0.00     0.001 A 
ATOM      7  C7  DEN d   1       1.379  -0.460   0.635  0.00  0.00     0.017 A 
ATOM      8  C8  DEN d   1       0.152   0.073   0.262  0.00  0.00    -0.094 A 
ATOM      9  C9  DEN d   1       0.016   0.801  -0.908  0.00  0.00    -0.072 A 
ENDROOT
TORSDOF 0
ENDMDL
