MODEL 1
REMARK minimizedAffinity -4.89116907
REMARK minimizedRMSD -1
REMARK  0 active torsions:
REMARK  status: ('A' for Active; 'I' for Inactive)
ROOT
ATOM      1  C1  DEN d   1      -0.814  -0.978   0.512  0.00  0.00     0.130 A 
ATOM      2  C2  DEN d   1      -1.469   0.324   0.593  0.00  0.00    -0.031 A 
ATOM      3  C3  DEN d   1      -0.547   1.335   0.037  0.00  0.00     0.027 A 
ATOM      4  C4  DEN d   1       1.819   1.010  -0.939  0.00  0.00     0.027 A 
ATOM      5  C5  DEN d   1       2.804   0.087  -1.209  0.00  0.00    -0.003 A 
ATOM      6  C6  DEN d   1       2.668  -1.240  -0.897  0.00  0.00     0.001 A 
ATOM      7  C7  DEN d   1       1.502  -1.688  -0.336  0.00  0.00     0.017 A 
ATOM      8  C8  DEN d   1       0.506  -0.762  -0.053  0.00  0.00    -0.094 A 
ATOM      9  C9  DEN d   1       0.658   0.572  -0.388  0.00  0.00    -0.072 A 
ENDROOT
TORSDOF 0
ENDMDL
