MODEL 1
REMARK minimizedAffinity -5.6730876
REMARK minimizedRMSD -1
REMARK  0 active torsions:
REMARK  status: ('A' for Active; 'I' for Inactive)
ROOT
ATOM      1  C1  DEN d   1       0.924   1.859  -1.772  0.00  0.00     0.130 A 
ATOM      2  C2  DEN d   1      -0.458   2.186  -1.433  0.00  0.00    -0.031 A 
ATOM      3  C3  DEN d   1      -1.032   1.040  -0.700  0.00  0.00     0.027 A 
ATOM      4  C4  DEN d   1       0.081  -1.196  -0.056  0.00  0.00     0.027 A 
ATOM      5  C5  DEN d   1       1.239  -1.937  -0.136  0.00  0.00    -0.003 A 
ATOM      6  C6  DEN d   1       2.353  -1.483  -0.790  0.00  0.00     0.001 A 
ATOM      7  C7  DEN d   1       2.348  -0.234  -1.353  0.00  0.00     0.017 A 
ATOM      8  C8  DEN d   1       1.182   0.517  -1.283  0.00  0.00    -0.094 A 
ATOM      9  C9  DEN d   1       0.070   0.045  -0.606  0.00  0.00    -0.072 A 
ENDROOT
TORSDOF 0
ENDMDL
