MODEL 1
REMARK minimizedAffinity -4.56619883
REMARK minimizedRMSD -1
REMARK  0 active torsions:
REMARK  status: ('A' for Active; 'I' for Inactive)
ROOT
ATOM      1  C1  DEN d   1       2.243   0.379  -1.419  0.00  0.00     0.130 A 
ATOM      2  C2  DEN d   1       2.886  -0.931  -1.473  0.00  0.00    -0.031 A 
ATOM      3  C3  DEN d   1       1.988  -1.908  -0.823  0.00  0.00     0.027 A 
ATOM      4  C4  DEN d   1      -0.325  -1.521   0.251  0.00  0.00     0.027 A 
ATOM      5  C5  DEN d   1      -1.280  -0.574   0.549  0.00  0.00    -0.003 A 
ATOM      6  C6  DEN d   1      -1.114   0.751   0.245  0.00  0.00     0.001 A 
ATOM      7  C7  DEN d   1       0.013   1.160  -0.417  0.00  0.00     0.017 A 
ATOM      8  C8  DEN d   1       0.984   0.213  -0.714  0.00  0.00    -0.094 A 
ATOM      9  C9  DEN d   1       0.793  -1.124  -0.409  0.00  0.00    -0.072 A 
ENDROOT
TORSDOF 0
ENDMDL
