MODEL 1
REMARK minimizedAffinity -2.79004931
REMARK minimizedRMSD -1
REMARK  0 active torsions:
REMARK  status: ('A' for Active; 'I' for Inactive)
ROOT
ATOM      1  C1  DEN d   1       0.361  -0.520   1.691  0.00  0.00     0.130 A 
ATOM      2  C2  DEN d   1      -0.903   0.156   1.970  0.00  0.00    -0.031 A 
ATOM      3  C3  DEN d   1      -1.195   1.064   0.843  0.00  0.00     0.027 A 
ATOM      4  C4  DEN d   1       0.179   1.485  -1.299  0.00  0.00     0.027 A 
ATOM      5  C5  DEN d   1       1.331   1.152  -1.977  0.00  0.00    -0.003 A 
ATOM      6  C6  DEN d   1       2.249   0.272  -1.469  0.00  0.00     0.001 A 
ATOM      7  C7  DEN d   1       2.009  -0.341  -0.267  0.00  0.00     0.017 A 
ATOM      8  C8  DEN d   1       0.854  -0.005   0.426  0.00  0.00    -0.094 A 
ATOM      9  C9  DEN d   1      -0.068   0.878  -0.110  0.00  0.00    -0.072 A 
ENDROOT
TORSDOF 0
ENDMDL
