MODEL 1
REMARK minimizedAffinity -2.96869636
REMARK minimizedRMSD -1
REMARK  1 active torsions:
REMARK  status: ('A' for Active; 'I' for Inactive)
REMARK    1  A    between atoms: C1_2  and  C2_3 
ROOT
ATOM      1  C2  UNL d   1       1.010   0.875   1.528  0.00  0.00    -0.077 A 
ATOM      2  C3  UNL d   1       1.324   2.178   1.938  0.00  0.00     0.002 A 
ATOM      3  C4  UNL d   1       0.529   2.832   2.881  0.00  0.00     0.002 A 
ATOM      4  C5  UNL d   1      -0.582   2.190   3.425  0.00  0.00    -0.004 A 
ATOM      5  C6  UNL d   1      -0.903   0.894   3.021  0.00  0.00     0.002 A 
ATOM      6  C7  UNL d   1      -0.110   0.240   2.078  0.00  0.00     0.002 A 
ENDROOT
BRANCH   1   7
ATOM      7  C1  UNL d   1       1.894   0.150   0.547  0.00  0.00     0.055 C 
ATOM      8  C   UNL d   1       2.636  -0.999   1.215  0.00  0.00     0.019 C 
ENDBRANCH   1   7
TORSDOF 1
ENDMDL
