MODEL 1
REMARK minimizedAffinity 4.87823868
REMARK minimizedRMSD -1
REMARK  1 active torsions:
REMARK  status: ('A' for Active; 'I' for Inactive)
REMARK    1  A    between atoms: C1_2  and  C2_3 
ROOT
ATOM      1  C2  UNL d   1      -0.277  -0.625   0.590  0.00  0.00    -0.077 A 
ATOM      2  C3  UNL d   1      -0.774  -0.096  -0.609  0.00  0.00     0.002 A 
ATOM      3  C4  UNL d   1      -1.933   0.682  -0.611  0.00  0.00     0.002 A 
ATOM      4  C5  UNL d   1      -2.602   0.941   0.584  0.00  0.00    -0.004 A 
ATOM      5  C6  UNL d   1      -2.117   0.418   1.782  0.00  0.00     0.002 A 
ATOM      6  C7  UNL d   1      -0.959  -0.361   1.785  0.00  0.00     0.002 A 
ENDROOT
BRANCH   1   7
ATOM      7  C1  UNL d   1       1.001  -1.423   0.601  0.00  0.00     0.055 C 
ATOM      8  C   UNL d   1       2.039  -0.794   1.519  0.00  0.00     0.019 C 
ENDBRANCH   1   7
TORSDOF 1
ENDMDL
