MODEL 1
REMARK minimizedAffinity -3.44299412
REMARK minimizedRMSD -1
REMARK  1 active torsions:
REMARK  status: ('A' for Active; 'I' for Inactive)
REMARK    1  A    between atoms: C1_2  and  C2_3 
ROOT
ATOM      1  C2  UNL d   1       0.815   0.226   2.151  0.00  0.00    -0.077 A 
ATOM      2  C3  UNL d   1       0.892   0.867   0.906  0.00  0.00     0.002 A 
ATOM      3  C4  UNL d   1       0.021   1.913   0.595  0.00  0.00     0.002 A 
ATOM      4  C5  UNL d   1      -0.931   2.329   1.524  0.00  0.00    -0.004 A 
ATOM      5  C6  UNL d   1      -1.016   1.697   2.764  0.00  0.00     0.002 A 
ATOM      6  C7  UNL d   1      -0.147   0.651   3.076  0.00  0.00     0.002 A 
ENDROOT
BRANCH   1   7
ATOM      7  C1  UNL d   1       1.787  -0.868   2.507  0.00  0.00     0.055 C 
ATOM      8  C   UNL d   1       2.824  -1.066   1.411  0.00  0.00     0.019 C 
ENDBRANCH   1   7
TORSDOF 1
ENDMDL
