MODEL 1
REMARK minimizedAffinity 3.25131869
REMARK minimizedRMSD -1
REMARK  1 active torsions:
REMARK  status: ('A' for Active; 'I' for Inactive)
REMARK    1  A    between atoms: C1_2  and  C2_3 
ROOT
ATOM      1  C2  UNL d   1       0.592   1.076  -1.254  0.00  0.00    -0.077 A 
ATOM      2  C3  UNL d   1       0.003   0.940  -2.519  0.00  0.00     0.002 A 
ATOM      3  C4  UNL d   1       0.671   1.388  -3.660  0.00  0.00     0.002 A 
ATOM      4  C5  UNL d   1       1.932   1.971  -3.548  0.00  0.00    -0.004 A 
ATOM      5  C6  UNL d   1       2.524   2.113  -2.294  0.00  0.00     0.002 A 
ATOM      6  C7  UNL d   1       1.858   1.666  -1.152  0.00  0.00     0.002 A 
ENDROOT
BRANCH   1   7
ATOM      7  C1  UNL d   1      -0.106   0.548  -0.027  0.00  0.00     0.055 C 
ATOM      8  C   UNL d   1      -1.288  -0.334  -0.399  0.00  0.00     0.019 C 
ENDBRANCH   1   7
TORSDOF 1
ENDMDL
