MODEL 1
REMARK minimizedAffinity -1.7649287
REMARK minimizedRMSD -1
REMARK  1 active torsions:
REMARK  status: ('A' for Active; 'I' for Inactive)
REMARK    1  A    between atoms: C1_2  and  C2_3 
ROOT
ATOM      1  C2  UNL d   1       0.807  -0.003  -1.580  0.00  0.00    -0.077 A 
ATOM      2  C3  UNL d   1       1.967   0.782  -1.514  0.00  0.00     0.002 A 
ATOM      3  C4  UNL d   1       2.438   1.442  -2.651  0.00  0.00     0.002 A 
ATOM      4  C5  UNL d   1       1.755   1.326  -3.860  0.00  0.00    -0.004 A 
ATOM      5  C6  UNL d   1       0.602   0.545  -3.936  0.00  0.00     0.002 A 
ATOM      6  C7  UNL d   1       0.130  -0.116  -2.801  0.00  0.00     0.002 A 
ENDROOT
BRANCH   1   7
ATOM      7  C1  UNL d   1       0.270  -0.675  -0.344  0.00  0.00     0.055 C 
ATOM      8  C   UNL d   1       1.396  -1.139   0.569  0.00  0.00     0.019 C 
ENDBRANCH   1   7
TORSDOF 1
ENDMDL
