MODEL 1
REMARK minimizedAffinity -3.93650889
REMARK minimizedRMSD -1
REMARK  1 active torsions:
REMARK  status: ('A' for Active; 'I' for Inactive)
REMARK    1  A    between atoms: C1_2  and  C2_3 
ROOT
ATOM      1  C2  UNL d   1      -0.169  -0.069   0.862  0.00  0.00    -0.077 A 
ATOM      2  C3  UNL d   1       1.131  -0.498   1.161  0.00  0.00     0.002 A 
ATOM      3  C4  UNL d   1       1.574  -0.542   2.485  0.00  0.00     0.002 A 
ATOM      4  C5  UNL d   1       0.721  -0.163   3.519  0.00  0.00    -0.004 A 
ATOM      5  C6  UNL d   1      -0.574   0.267   3.232  0.00  0.00     0.002 A 
ATOM      6  C7  UNL d   1      -1.017   0.313   1.910  0.00  0.00     0.002 A 
ENDROOT
BRANCH   1   7
ATOM      7  C1  UNL d   1      -0.665  -0.067  -0.560  0.00  0.00     0.055 C 
ATOM      8  C   UNL d   1       0.320  -0.762  -1.490  0.00  0.00     0.019 C 
ENDBRANCH   1   7
TORSDOF 1
ENDMDL
