MODEL 1
REMARK minimizedAffinity -5.92450333
REMARK minimizedRMSD -1
REMARK  1 active torsions:
REMARK  status: ('A' for Active; 'I' for Inactive)
REMARK    1  A    between atoms: C1_2  and  C2_3 
ROOT
ATOM      1  C2  UNL d   1       0.019   0.333   1.260  0.00  0.00    -0.077 A 
ATOM      2  C3  UNL d   1      -0.782   1.161   2.059  0.00  0.00     0.002 A 
ATOM      3  C4  UNL d   1      -0.498   1.323   3.416  0.00  0.00     0.002 A 
ATOM      4  C5  UNL d   1       0.590   0.664   3.985  0.00  0.00    -0.004 A 
ATOM      5  C6  UNL d   1       1.391  -0.164   3.200  0.00  0.00     0.002 A 
ATOM      6  C7  UNL d   1       1.108  -0.328   1.843  0.00  0.00     0.002 A 
ENDROOT
BRANCH   1   7
ATOM      7  C1  UNL d   1      -0.257   0.195  -0.214  0.00  0.00     0.055 C 
ATOM      8  C   UNL d   1       0.593  -0.903  -0.836  0.00  0.00     0.019 C 
ENDBRANCH   1   7
TORSDOF 1
ENDMDL
