MODEL 1
REMARK minimizedAffinity 10.2062254
REMARK minimizedRMSD -1
REMARK  1 active torsions:
REMARK  status: ('A' for Active; 'I' for Inactive)
REMARK    1  A    between atoms: C1_2  and  C2_3 
ROOT
ATOM      1  C2  UNL d   1      -0.332   3.239  -1.074  0.00  0.00    -0.077 A 
ATOM      2  C3  UNL d   1      -0.058   4.322  -1.921  0.00  0.00     0.002 A 
ATOM      3  C4  UNL d   1       1.173   4.978  -1.852  0.00  0.00     0.002 A 
ATOM      4  C5  UNL d   1       2.139   4.557  -0.941  0.00  0.00    -0.004 A 
ATOM      5  C6  UNL d   1       1.875   3.483  -0.093  0.00  0.00     0.002 A 
ATOM      6  C7  UNL d   1       0.645   2.826  -0.159  0.00  0.00     0.002 A 
ENDROOT
BRANCH   1   7
ATOM      7  C1  UNL d   1      -1.640   2.499  -1.180  0.00  0.00     0.055 C 
ATOM      8  C   UNL d   1      -2.176   2.122   0.193  0.00  0.00     0.019 C 
ENDBRANCH   1   7
TORSDOF 1
ENDMDL
