MODEL 1
REMARK minimizedAffinity -2.78934598
REMARK minimizedRMSD -1
REMARK  1 active torsions:
REMARK  status: ('A' for Active; 'I' for Inactive)
REMARK    1  A    between atoms: C1_2  and  C2_3 
ROOT
ATOM      1  C2  UNL d   1      -5.349  -4.715  -3.911  0.00  0.00    -0.077 A 
ATOM      2  C3  UNL d   1      -5.505  -3.700  -2.956  0.00  0.00     0.002 A 
ATOM      3  C4  UNL d   1      -4.871  -3.794  -1.716  0.00  0.00     0.002 A 
ATOM      4  C5  UNL d   1      -4.073  -4.898  -1.421  0.00  0.00    -0.004 A 
ATOM      5  C6  UNL d   1      -3.913  -5.913  -2.364  0.00  0.00     0.002 A 
ATOM      6  C7  UNL d   1      -4.547  -5.821  -3.603  0.00  0.00     0.002 A 
ENDROOT
BRANCH   1   7
ATOM      7  C1  UNL d   1      -5.993  -4.592  -5.267  0.00  0.00     0.055 C 
ATOM      8  C   UNL d   1      -5.999  -5.926  -6.000  0.00  0.00     0.019 C 
ENDBRANCH   1   7
TORSDOF 1
ENDMDL
