MODEL 1
REMARK minimizedAffinity 3.86130261
REMARK minimizedRMSD -1
REMARK  1 active torsions:
REMARK  status: ('A' for Active; 'I' for Inactive)
REMARK    1  A    between atoms: C1_2  and  C2_3 
ROOT
ATOM      1  C2  UNL d   1       4.188  -0.918  -3.753  0.00  0.00    -0.077 A 
ATOM      2  C3  UNL d   1       3.798   0.255  -4.416  0.00  0.00     0.002 A 
ATOM      3  C4  UNL d   1       4.506   0.702  -5.533  0.00  0.00     0.002 A 
ATOM      4  C5  UNL d   1       5.603  -0.018  -6.000  0.00  0.00    -0.004 A 
ATOM      5  C6  UNL d   1       6.000  -1.184  -5.346  0.00  0.00     0.002 A 
ATOM      6  C7  UNL d   1       5.295  -1.632  -4.228  0.00  0.00     0.002 A 
ENDROOT
BRANCH   1   7
ATOM      7  C1  UNL d   1       3.396  -1.429  -2.578  0.00  0.00     0.055 C 
ATOM      8  C   UNL d   1       1.992  -1.844  -2.994  0.00  0.00     0.019 C 
ENDBRANCH   1   7
TORSDOF 1
ENDMDL
