MODEL 1
REMARK minimizedAffinity -2.38866377
REMARK minimizedRMSD -1
REMARK  1 active torsions:
REMARK  status: ('A' for Active; 'I' for Inactive)
REMARK    1  A    between atoms: C1_2  and  C2_3 
ROOT
ATOM      1  C2  UNL d   1      -5.576  -4.759  -3.300  0.00  0.00    -0.077 A 
ATOM      2  C3  UNL d   1      -5.697  -3.422  -3.703  0.00  0.00     0.002 A 
ATOM      3  C4  UNL d   1      -5.902  -3.105  -5.048  0.00  0.00     0.002 A 
ATOM      4  C5  UNL d   1      -5.992  -4.120  -5.998  0.00  0.00    -0.004 A 
ATOM      5  C6  UNL d   1      -5.872  -5.453  -5.607  0.00  0.00     0.002 A 
ATOM      6  C7  UNL d   1      -5.665  -5.771  -4.264  0.00  0.00     0.002 A 
ENDROOT
BRANCH   1   7
ATOM      7  C1  UNL d   1      -5.404  -5.105  -1.844  0.00  0.00     0.055 C 
ATOM      8  C   UNL d   1      -4.188  -5.994  -1.626  0.00  0.00     0.019 C 
ENDBRANCH   1   7
TORSDOF 1
ENDMDL
