MODEL 1
REMARK minimizedAffinity -0.0205184091
REMARK minimizedRMSD -1
REMARK  3 active torsions:
REMARK  status: ('A' for Active; 'I' for Inactive)
REMARK    1  A    between atoms: C3'_2  and  C2'_3 
REMARK    2  A    between atoms: C2'_3  and  C1'_4 
REMARK    3  A    between atoms: C1'_4  and  C1_5 
ROOT
ATOM      1  C1  N4B d   1       4.156   1.169  -0.375  0.00  0.00    -0.075 A 
ATOM      2  C2  N4B d   1       5.508   1.076   0.025  0.00  0.00     0.002 A 
ATOM      3  C3  N4B d   1       5.999   1.926   0.986  0.00  0.00     0.002 A 
ATOM      4  C4  N4B d   1       5.167   2.884   1.544  0.00  0.00    -0.004 A 
ATOM      5  C5  N4B d   1       3.856   2.950   1.171  0.00  0.00     0.002 A 
ATOM      6  C6  N4B d   1       3.348   2.100   0.210  0.00  0.00     0.002 A 
ENDROOT
BRANCH   1   7
ATOM      7  C1' N4B d   1       3.596   0.319  -1.482  0.00  0.00     0.057 C 
BRANCH   7   8
ATOM      8  C2' N4B d   1       2.482  -0.562  -0.923  0.00  0.00     0.009 C 
BRANCH   8   9
ATOM      9  C3' N4B d   1       2.886  -2.025  -0.874  0.00  0.00     0.004 C 
ATOM     10  C4' N4B d   1       2.775  -2.613   0.501  0.00  0.00     0.003 C 
ENDBRANCH   8   9
ENDBRANCH   7   8
ENDBRANCH   1   7
TORSDOF 3
ENDMDL
