MODEL 1
REMARK minimizedAffinity 14.1517534
REMARK minimizedRMSD -1
REMARK  3 active torsions:
REMARK  status: ('A' for Active; 'I' for Inactive)
REMARK    1  A    between atoms: C3'_2  and  C2'_3 
REMARK    2  A    between atoms: C2'_3  and  C1'_4 
REMARK    3  A    between atoms: C1'_4  and  C1_5 
ROOT
ATOM      1  C1  N4B d   1      -5.965   1.848  -1.596  0.00  0.00    -0.075 A 
ATOM      2  C2  N4B d   1      -5.917   3.258  -1.531  0.00  0.00     0.002 A 
ATOM      3  C3  N4B d   1      -5.894   3.998  -2.688  0.00  0.00     0.002 A 
ATOM      4  C4  N4B d   1      -5.899   3.352  -3.915  0.00  0.00    -0.004 A 
ATOM      5  C5  N4B d   1      -5.972   1.991  -3.969  0.00  0.00     0.002 A 
ATOM      6  C6  N4B d   1      -5.999   1.235  -2.814  0.00  0.00     0.002 A 
ENDROOT
BRANCH   1   7
ATOM      7  C1' N4B d   1      -5.905   0.993  -0.359  0.00  0.00     0.057 C 
BRANCH   7   8
ATOM      8  C2' N4B d   1      -4.496   1.052   0.222  0.00  0.00     0.009 C 
BRANCH   8   9
ATOM      9  C3' N4B d   1      -4.446   1.853   1.512  0.00  0.00     0.004 C 
ATOM     10  C4' N4B d   1      -3.618   3.098   1.391  0.00  0.00     0.003 C 
ENDBRANCH   8   9
ENDBRANCH   7   8
ENDBRANCH   1   7
TORSDOF 3
ENDMDL
