MODEL 1
REMARK minimizedAffinity -2.39546824
REMARK minimizedRMSD -1
REMARK  0 active torsions:
REMARK  status: ('A' for Active; 'I' for Inactive)
ROOT
ATOM      1  C   UNL d   1       0.337  -0.721   0.379  0.00  0.00    -0.002 A 
ATOM      2  C1  UNL d   1       0.128   0.650   0.378  0.00  0.00     0.010 A 
ATOM      3  C2  UNL d   1      -0.715   1.240  -0.566  0.00  0.00     0.041 A 
ATOM      4  C3  UNL d   1      -1.351   0.419  -1.518  0.00  0.00    -0.075 A 
ATOM      5  S   UNL d   1      -2.427   0.920  -2.769  0.00  0.00     0.015 SA
ATOM      6  C4  UNL d   1      -2.634  -0.676  -3.332  0.00  0.00     0.022 A 
ATOM      7  C5  UNL d   1      -1.908  -1.581  -2.595  0.00  0.00     0.026 A 
ATOM      8  C6  UNL d   1      -1.157  -0.965  -1.537  0.00  0.00    -0.082 A 
ATOM      9  C7  UNL d   1      -0.296  -1.532  -0.567  0.00  0.00     0.045 A 
ENDROOT
TORSDOF 0
ENDMDL
