MODEL 1
REMARK minimizedAffinity -2.02412176
REMARK minimizedRMSD -1
REMARK  0 active torsions:
REMARK  status: ('A' for Active; 'I' for Inactive)
ROOT
ATOM      1  C   UNL d   1       1.725  -2.416   2.209  0.00  0.00    -0.002 A 
ATOM      2  C1  UNL d   1       2.639  -1.386   2.039  0.00  0.00     0.010 A 
ATOM      3  C2  UNL d   1       2.290  -0.237   1.328  0.00  0.00     0.041 A 
ATOM      4  C3  UNL d   1       0.993  -0.138   0.787  0.00  0.00    -0.075 A 
ATOM      5  S   UNL d   1       0.342   1.176  -0.121  0.00  0.00     0.015 SA
ATOM      6  C4  UNL d   1      -1.165   0.401  -0.303  0.00  0.00     0.022 A 
ATOM      7  C5  UNL d   1      -1.189  -0.831   0.307  0.00  0.00     0.026 A 
ATOM      8  C6  UNL d   1       0.054  -1.162   0.946  0.00  0.00    -0.082 A 
ATOM      9  C7  UNL d   1       0.439  -2.315   1.671  0.00  0.00     0.045 A 
ENDROOT
TORSDOF 0
ENDMDL
