MODEL 1
REMARK minimizedAffinity -2.91646051
REMARK minimizedRMSD -1
REMARK  0 active torsions:
REMARK  status: ('A' for Active; 'I' for Inactive)
ROOT
ATOM      1  C   UNL d   1       2.836   0.118   0.225  0.00  0.00    -0.002 A 
ATOM      2  C1  UNL d   1       1.987   1.213   0.148  0.00  0.00     0.010 A 
ATOM      3  C2  UNL d   1       0.631   1.085   0.456  0.00  0.00     0.041 A 
ATOM      4  C3  UNL d   1       0.138  -0.175   0.849  0.00  0.00    -0.075 A 
ATOM      5  S   UNL d   1      -1.485  -0.570   1.274  0.00  0.00     0.015 SA
ATOM      6  C4  UNL d   1      -1.090  -2.201   1.569  0.00  0.00     0.022 A 
ATOM      7  C5  UNL d   1       0.243  -2.456   1.353  0.00  0.00     0.026 A 
ATOM      8  C6  UNL d   1       0.973  -1.293   0.935  0.00  0.00    -0.082 A 
ATOM      9  C7  UNL d   1       2.343  -1.130   0.615  0.00  0.00     0.045 A 
ENDROOT
TORSDOF 0
ENDMDL
