MODEL 1
REMARK minimizedAffinity 6.17703199
REMARK minimizedRMSD -1
REMARK  0 active torsions:
REMARK  status: ('A' for Active; 'I' for Inactive)
ROOT
ATOM      1  C   UNL d   1      -1.018   0.298  -0.299  0.00  0.00    -0.002 A 
ATOM      2  C1  UNL d   1      -1.097   1.425   0.507  0.00  0.00     0.010 A 
ATOM      3  C2  UNL d   1       0.004   1.837   1.261  0.00  0.00     0.041 A 
ATOM      4  C3  UNL d   1       1.197   1.091   1.190  0.00  0.00    -0.075 A 
ATOM      5  S   UNL d   1       2.672   1.408   2.024  0.00  0.00     0.015 SA
ATOM      6  C4  UNL d   1       3.442   0.055   1.329  0.00  0.00     0.022 A 
ATOM      7  C5  UNL d   1       2.608  -0.633   0.479  0.00  0.00     0.026 A 
ATOM      8  C6  UNL d   1       1.301  -0.047   0.384  0.00  0.00    -0.082 A 
ATOM      9  C7  UNL d   1       0.167  -0.439  -0.367  0.00  0.00     0.045 A 
ENDROOT
TORSDOF 0
ENDMDL
