MODEL 1
REMARK minimizedAffinity -0.0549540296
REMARK minimizedRMSD -1
REMARK  0 active torsions:
REMARK  status: ('A' for Active; 'I' for Inactive)
ROOT
ATOM      1  C   UNL d   1       2.432   0.020   0.464  0.00  0.00    -0.002 A 
ATOM      2  C1  UNL d   1       2.085  -1.077   1.239  0.00  0.00     0.010 A 
ATOM      3  C2  UNL d   1       0.751  -1.478   1.345  0.00  0.00     0.041 A 
ATOM      4  C3  UNL d   1      -0.236  -0.751   0.651  0.00  0.00    -0.075 A 
ATOM      5  S   UNL d   1      -1.932  -1.059   0.632  0.00  0.00     0.015 SA
ATOM      6  C4  UNL d   1      -2.235   0.259  -0.405  0.00  0.00     0.022 A 
ATOM      7  C5  UNL d   1      -1.082   0.929  -0.739  0.00  0.00     0.026 A 
ATOM      8  C6  UNL d   1       0.090   0.357  -0.136  0.00  0.00    -0.082 A 
ATOM      9  C7  UNL d   1       1.450   0.739  -0.223  0.00  0.00     0.045 A 
ENDROOT
TORSDOF 0
ENDMDL
