MODEL 1
REMARK minimizedAffinity 0.723764658
REMARK minimizedRMSD -1
REMARK  0 active torsions:
REMARK  status: ('A' for Active; 'I' for Inactive)
ROOT
ATOM      1  C   UNL d   1      -3.454  -2.744  -0.334  0.00  0.00    -0.002 A 
ATOM      2  C1  UNL d   1      -2.647  -3.349  -1.287  0.00  0.00     0.010 A 
ATOM      3  C2  UNL d   1      -1.425  -2.778  -1.650  0.00  0.00     0.041 A 
ATOM      4  C3  UNL d   1      -1.024  -1.578  -1.032  0.00  0.00    -0.075 A 
ATOM      5  S   UNL d   1       0.431  -0.697  -1.317  0.00  0.00     0.015 SA
ATOM      6  C4  UNL d   1       0.016   0.502  -0.180  0.00  0.00     0.022 A 
ATOM      7  C5  UNL d   1      -1.199   0.253   0.412  0.00  0.00     0.026 A 
ATOM      8  C6  UNL d   1      -1.819  -0.950  -0.069  0.00  0.00    -0.082 A 
ATOM      9  C7  UNL d   1      -3.052  -1.553   0.277  0.00  0.00     0.045 A 
ENDROOT
TORSDOF 0
ENDMDL
