MODEL 1
REMARK minimizedAffinity -0.672764838
REMARK minimizedRMSD -1
REMARK  0 active torsions:
REMARK  status: ('A' for Active; 'I' for Inactive)
ROOT
ATOM      1  C   UNL d   1       2.384   2.056  -4.090  0.00  0.00    -0.002 A 
ATOM      2  C1  UNL d   1       2.519   1.126  -3.068  0.00  0.00     0.010 A 
ATOM      3  C2  UNL d   1       1.709  -0.011  -3.031  0.00  0.00     0.041 A 
ATOM      4  C3  UNL d   1       0.754  -0.201  -4.049  0.00  0.00    -0.075 A 
ATOM      5  S   UNL d   1      -0.346  -1.519  -4.209  0.00  0.00     0.015 SA
ATOM      6  C4  UNL d   1      -1.020  -0.880  -5.638  0.00  0.00     0.022 A 
ATOM      7  C5  UNL d   1      -0.432   0.309  -5.998  0.00  0.00     0.026 A 
ATOM      8  C6  UNL d   1       0.600   0.720  -5.089  0.00  0.00    -0.082 A 
ATOM      9  C7  UNL d   1       1.435   1.863  -5.098  0.00  0.00     0.045 A 
ENDROOT
TORSDOF 0
ENDMDL
