MODEL 1
REMARK minimizedAffinity 2.47021174
REMARK minimizedRMSD -1
REMARK  0 active torsions:
REMARK  status: ('A' for Active; 'I' for Inactive)
ROOT
ATOM      1  C   UNL d   1      -0.518   1.928   3.258  0.00  0.00    -0.002 A 
ATOM      2  C1  UNL d   1      -1.447   0.915   3.447  0.00  0.00     0.010 A 
ATOM      3  C2  UNL d   1      -1.614  -0.083   2.485  0.00  0.00     0.041 A 
ATOM      4  C3  UNL d   1      -0.824  -0.046   1.319  0.00  0.00    -0.075 A 
ATOM      5  S   UNL d   1      -0.855  -1.163   0.006  0.00  0.00     0.015 SA
ATOM      6  C4  UNL d   1       0.364  -0.322  -0.836  0.00  0.00     0.022 A 
ATOM      7  C5  UNL d   1       0.796   0.787  -0.147  0.00  0.00     0.026 A 
ATOM      8  C6  UNL d   1       0.119   0.963   1.107  0.00  0.00    -0.082 A 
ATOM      9  C7  UNL d   1       0.265   1.961   2.100  0.00  0.00     0.045 A 
ENDROOT
TORSDOF 0
ENDMDL
