MODEL 1
REMARK minimizedAffinity -4.40514612
REMARK minimizedRMSD -1
REMARK  2 active torsions:
REMARK  status: ('A' for Active; 'I' for Inactive)
REMARK    1  A    between atoms: C2'_3  and  C1'_4 
REMARK    2  A    between atoms: C1'_4  and  C1_5 
ROOT
ATOM      1  C1  I4B d   1       0.636   0.526   0.044  0.00  0.00    -0.075 A 
ATOM      2  C2  I4B d   1       0.532  -0.843   0.031  0.00  0.00     0.003 A 
ATOM      3  C3  I4B d   1       1.675  -1.647   0.255  0.00  0.00     0.002 A 
ATOM      4  C4  I4B d   1       2.904  -1.046   0.434  0.00  0.00    -0.004 A 
ATOM      5  C5  I4B d   1       3.005   0.342   0.469  0.00  0.00     0.002 A 
ATOM      6  C6  I4B d   1       1.862   1.134   0.285  0.00  0.00     0.003 A 
ENDROOT
BRANCH   1   7
ATOM      7  C1' I4B d   1      -0.586   1.345  -0.228  0.00  0.00     0.060 C 
BRANCH   7   8
ATOM      8  C2' I4B d   1      -1.760   0.670   0.450  0.00  0.00    -0.013 C 
ATOM      9  C4' I4B d   1      -2.316   1.525   1.557  0.00  0.00     0.013 C 
ATOM     10  C3' I4B d   1      -2.801   0.392  -0.594  0.00  0.00     0.013 C 
ENDBRANCH   7   8
ENDBRANCH   1   7
TORSDOF 2
ENDMDL
