MODEL 1
REMARK minimizedAffinity -0.485029221
REMARK minimizedRMSD -1
REMARK  2 active torsions:
REMARK  status: ('A' for Active; 'I' for Inactive)
REMARK    1  A    between atoms: C2'_3  and  C1'_4 
REMARK    2  A    between atoms: C1'_4  and  C1_5 
ROOT
ATOM      1  C1  I4B d   1      -1.130   0.451  -0.067  0.00  0.00    -0.075 A 
ATOM      2  C2  I4B d   1      -0.332   1.546   0.151  0.00  0.00     0.003 A 
ATOM      3  C3  I4B d   1       1.023   1.378   0.527  0.00  0.00     0.002 A 
ATOM      4  C4  I4B d   1       1.521   0.106   0.722  0.00  0.00    -0.004 A 
ATOM      5  C5  I4B d   1       0.717  -1.004   0.479  0.00  0.00     0.002 A 
ATOM      6  C6  I4B d   1      -0.613  -0.831   0.070  0.00  0.00     0.003 A 
ENDROOT
BRANCH   1   7
ATOM      7  C1' I4B d   1      -2.565   0.665  -0.431  0.00  0.00     0.060 C 
BRANCH   7   8
ATOM      8  C2' I4B d   1      -3.387   0.572   0.838  0.00  0.00    -0.013 C 
ATOM      9  C4' I4B d   1      -3.689   1.939   1.393  0.00  0.00     0.013 C 
ATOM     10  C3' I4B d   1      -4.649  -0.173   0.518  0.00  0.00     0.013 C 
ENDBRANCH   7   8
ENDBRANCH   1   7
TORSDOF 2
ENDMDL
