MODEL 1
REMARK minimizedAffinity -3.38249588
REMARK minimizedRMSD -1
REMARK  2 active torsions:
REMARK  status: ('A' for Active; 'I' for Inactive)
REMARK    1  A    between atoms: C2'_3  and  C1'_4 
REMARK    2  A    between atoms: C1'_4  and  C1_5 
ROOT
ATOM      1  C1  I4B d   1       0.362  -0.732   0.540  0.00  0.00    -0.075 A 
ATOM      2  C2  I4B d   1      -0.533   0.252   0.879  0.00  0.00     0.003 A 
ATOM      3  C3  I4B d   1      -1.578   0.602  -0.011  0.00  0.00     0.002 A 
ATOM      4  C4  I4B d   1      -1.658  -0.017  -1.242  0.00  0.00    -0.004 A 
ATOM      5  C5  I4B d   1      -0.764  -1.030  -1.574  0.00  0.00     0.002 A 
ATOM      6  C6  I4B d   1       0.246  -1.398  -0.673  0.00  0.00     0.003 A 
ENDROOT
BRANCH   1   7
ATOM      7  C1' I4B d   1       1.472  -1.054   1.489  0.00  0.00     0.060 C 
BRANCH   7   8
ATOM      8  C2' I4B d   1       2.728  -0.372   0.987  0.00  0.00    -0.013 C 
ATOM      9  C4' I4B d   1       3.281  -1.073  -0.226  0.00  0.00     0.013 C 
ATOM     10  C3' I4B d   1       2.389   1.056   0.680  0.00  0.00     0.013 C 
ENDBRANCH   7   8
ENDBRANCH   1   7
TORSDOF 2
ENDMDL
