MODEL 1
REMARK minimizedAffinity -6.44001722
REMARK minimizedRMSD -1
REMARK  2 active torsions:
REMARK  status: ('A' for Active; 'I' for Inactive)
REMARK    1  A    between atoms: C2'_3  and  C1'_4 
REMARK    2  A    between atoms: C1'_4  and  C1_5 
ROOT
ATOM      1  C1  I4B d   1      -0.132   0.262  -0.385  0.00  0.00    -0.075 A 
ATOM      2  C2  I4B d   1       0.943   0.578   0.407  0.00  0.00     0.003 A 
ATOM      3  C3  I4B d   1       1.933  -0.395   0.687  0.00  0.00     0.002 A 
ATOM      4  C4  I4B d   1       1.783  -1.677   0.200  0.00  0.00    -0.004 A 
ATOM      5  C5  I4B d   1       0.703  -1.990  -0.622  0.00  0.00     0.002 A 
ATOM      6  C6  I4B d   1      -0.254  -1.011  -0.927  0.00  0.00     0.003 A 
ENDROOT
BRANCH   1   7
ATOM      7  C1' I4B d   1      -1.176   1.304  -0.634  0.00  0.00     0.060 C 
BRANCH   7   8
ATOM      8  C2' I4B d   1      -2.434   0.889   0.101  0.00  0.00    -0.013 C 
ATOM      9  C4' I4B d   1      -2.506   1.527   1.463  0.00  0.00     0.013 C 
ATOM     10  C3' I4B d   1      -3.612   1.279  -0.742  0.00  0.00     0.013 C 
ENDBRANCH   7   8
ENDBRANCH   1   7
TORSDOF 2
ENDMDL
