MODEL 1
REMARK minimizedAffinity -6.34738064
REMARK minimizedRMSD -1
REMARK  2 active torsions:
REMARK  status: ('A' for Active; 'I' for Inactive)
REMARK    1  A    between atoms: C2'_3  and  C1'_4 
REMARK    2  A    between atoms: C1'_4  and  C1_5 
ROOT
ATOM      1  C1  I4B d   1      -0.107   0.105   0.284  0.00  0.00    -0.075 A 
ATOM      2  C2  I4B d   1      -0.156  -1.256   0.110  0.00  0.00     0.003 A 
ATOM      3  C3  I4B d   1       0.981  -2.052   0.387  0.00  0.00     0.002 A 
ATOM      4  C4  I4B d   1       2.155  -1.445   0.785  0.00  0.00    -0.004 A 
ATOM      5  C5  I4B d   1       2.197  -0.068   0.983  0.00  0.00     0.002 A 
ATOM      6  C6  I4B d   1       1.056   0.711   0.743  0.00  0.00     0.003 A 
ENDROOT
BRANCH   1   7
ATOM      7  C1' I4B d   1      -1.316   0.919  -0.049  0.00  0.00     0.060 C 
BRANCH   7   8
ATOM      8  C2' I4B d   1      -2.471   0.400   0.784  0.00  0.00    -0.013 C 
ATOM      9  C4' I4B d   1      -2.657   1.224   2.031  0.00  0.00     0.013 C 
ATOM     10  C3' I4B d   1      -3.704   0.424  -0.070  0.00  0.00     0.013 C 
ENDBRANCH   7   8
ENDBRANCH   1   7
TORSDOF 2
ENDMDL
