MODEL 1
REMARK minimizedAffinity 3.98114777
REMARK minimizedRMSD -1
REMARK  0 active torsions:
REMARK  status: ('A' for Active; 'I' for Inactive)
ROOT
ATOM      1  C   UNL d   1      -1.360  -1.102   2.253  0.00  0.00     0.124 A 
ATOM      2  C1  UNL d   1      -1.752   0.206   2.003  0.00  0.00     0.062 A 
ATOM      3  C2  UNL d   1      -1.089   0.963   1.042  0.00  0.00     0.162 A 
ATOM      4  C3  UNL d   1      -0.027   0.415   0.323  0.00  0.00    -0.034 A 
ATOM      5  C4  UNL d   1       0.362  -0.901   0.581  0.00  0.00     0.162 A 
ATOM      6  C5  UNL d   1      -0.304  -1.654   1.542  0.00  0.00     0.062 A 
ATOM      7  F   UNL d   1       0.075  -2.918   1.783  0.00  0.00    -0.097 F 
ATOM      8  F1  UNL d   1       1.379  -1.460  -0.092  0.00  0.00    -0.096 F 
ATOM      9  I   UNL d   1       0.968   1.544  -1.114  0.00  0.00    -0.060 I 
ATOM     10  F2  UNL d   1      -1.488   2.224   0.821  0.00  0.00    -0.096 F 
ATOM     11  F3  UNL d   1      -2.771   0.742   2.690  0.00  0.00    -0.097 F 
ATOM     12  F4  UNL d   1      -2.000  -1.829   3.179  0.00  0.00    -0.092 F 
ENDROOT
TORSDOF 0
ENDMDL
