MODEL 1
REMARK minimizedAffinity -3.11519098
REMARK minimizedRMSD -1
REMARK  0 active torsions:
REMARK  status: ('A' for Active; 'I' for Inactive)
ROOT
ATOM      1  C   UNL d   1      -1.301  -1.242   2.237  0.00  0.00     0.124 A 
ATOM      2  C1  UNL d   1      -1.665   0.078   2.012  0.00  0.00     0.062 A 
ATOM      3  C2  UNL d   1      -0.927   0.868   1.134  0.00  0.00     0.162 A 
ATOM      4  C3  UNL d   1       0.182   0.338   0.474  0.00  0.00    -0.034 A 
ATOM      5  C4  UNL d   1       0.543  -0.990   0.707  0.00  0.00     0.162 A 
ATOM      6  C5  UNL d   1      -0.198  -1.775   1.585  0.00  0.00     0.062 A 
ATOM      7  F   UNL d   1       0.155  -3.050   1.801  0.00  0.00    -0.097 F 
ATOM      8  F1  UNL d   1       1.603  -1.531   0.089  0.00  0.00    -0.096 F 
ATOM      9  I   UNL d   1       1.288   1.515  -0.839  0.00  0.00    -0.060 I 
ATOM     10  F2  UNL d   1      -1.301   2.140   0.935  0.00  0.00    -0.096 F 
ATOM     11  F3  UNL d   1      -2.729   0.596   2.642  0.00  0.00    -0.097 F 
ATOM     12  F4  UNL d   1      -2.012  -1.999   3.083  0.00  0.00    -0.092 F 
ENDROOT
TORSDOF 0
ENDMDL
