MODEL 1
REMARK minimizedAffinity 1.99705768
REMARK minimizedRMSD -1
REMARK  0 active torsions:
REMARK  status: ('A' for Active; 'I' for Inactive)
ROOT
ATOM      1  C   UNL d   1      -0.517  -1.272   1.394  0.00  0.00     0.124 A 
ATOM      2  C1  UNL d   1       0.841  -1.493   1.210  0.00  0.00     0.062 A 
ATOM      3  C2  UNL d   1       1.574  -0.673   0.357  0.00  0.00     0.162 A 
ATOM      4  C3  UNL d   1       0.950   0.376  -0.319  0.00  0.00    -0.034 A 
ATOM      5  C4  UNL d   1      -0.416   0.591  -0.130  0.00  0.00     0.162 A 
ATOM      6  C5  UNL d   1      -1.144  -0.231   0.724  0.00  0.00     0.062 A 
ATOM      7  F   UNL d   1      -2.456  -0.017   0.901  0.00  0.00    -0.097 F 
ATOM      8  F1  UNL d   1      -1.047   1.590  -0.764  0.00  0.00    -0.096 F 
ATOM      9  I   UNL d   1       2.043   1.604  -1.596  0.00  0.00    -0.060 I 
ATOM     10  F2  UNL d   1       2.884  -0.910   0.198  0.00  0.00    -0.096 F 
ATOM     11  F3  UNL d   1       1.448  -2.499   1.855  0.00  0.00    -0.097 F 
ATOM     12  F4  UNL d   1      -1.220  -2.063   2.215  0.00  0.00    -0.092 F 
ENDROOT
TORSDOF 0
ENDMDL
