MODEL 1
REMARK minimizedAffinity 0.733142197
REMARK minimizedRMSD -1
REMARK  0 active torsions:
REMARK  status: ('A' for Active; 'I' for Inactive)
ROOT
ATOM      1  C   UNL d   1      -0.976  -0.766  -0.416  0.00  0.00     0.124 A 
ATOM      2  C1  UNL d   1       0.295  -0.394   0.003  0.00  0.00     0.062 A 
ATOM      3  C2  UNL d   1       0.800  -0.866   1.210  0.00  0.00     0.162 A 
ATOM      4  C3  UNL d   1       0.036  -1.718   2.008  0.00  0.00    -0.034 A 
ATOM      5  C4  UNL d   1      -1.241  -2.087   1.581  0.00  0.00     0.162 A 
ATOM      6  C5  UNL d   1      -1.742  -1.612   0.374  0.00  0.00     0.062 A 
ATOM      7  F   UNL d   1      -2.969  -1.972  -0.029  0.00  0.00    -0.097 F 
ATOM      8  F1  UNL d   1      -2.002  -2.904   2.324  0.00  0.00    -0.096 F 
ATOM      9  I   UNL d   1       0.789  -2.427   3.814  0.00  0.00    -0.060 I 
ATOM     10  F2  UNL d   1       2.031  -0.490   1.589  0.00  0.00    -0.096 F 
ATOM     11  F3  UNL d   1       1.037   0.424  -0.758  0.00  0.00    -0.097 F 
ATOM     12  F4  UNL d   1      -1.460  -0.309  -1.577  0.00  0.00    -0.092 F 
ENDROOT
TORSDOF 0
ENDMDL
