MODEL 1
REMARK minimizedAffinity -3.48981762
REMARK minimizedRMSD -1
REMARK  0 active torsions:
REMARK  status: ('A' for Active; 'I' for Inactive)
ROOT
ATOM      1  C   UNL d   1      -1.645  -1.252   0.584  0.00  0.00     0.124 A 
ATOM      2  C1  UNL d   1      -1.188  -0.015   1.018  0.00  0.00     0.062 A 
ATOM      3  C2  UNL d   1      -0.162   0.631   0.335  0.00  0.00     0.162 A 
ATOM      4  C3  UNL d   1       0.414   0.042  -0.791  0.00  0.00    -0.034 A 
ATOM      5  C4  UNL d   1      -0.051  -1.202  -1.221  0.00  0.00     0.162 A 
ATOM      6  C5  UNL d   1      -1.077  -1.844  -0.535  0.00  0.00     0.062 A 
ATOM      7  F   UNL d   1      -1.517  -3.038  -0.955  0.00  0.00    -0.097 F 
ATOM      8  F1  UNL d   1       0.480  -1.797  -2.300  0.00  0.00    -0.096 F 
ATOM      9  I   UNL d   1       1.948   1.005  -1.816  0.00  0.00    -0.060 I 
ATOM     10  F2  UNL d   1       0.260   1.825   0.777  0.00  0.00    -0.096 F 
ATOM     11  F3  UNL d   1      -1.735   0.559   2.099  0.00  0.00    -0.097 F 
ATOM     12  F4  UNL d   1      -2.632  -1.871   1.244  0.00  0.00    -0.092 F 
ENDROOT
TORSDOF 0
ENDMDL
