MODEL 1
REMARK minimizedAffinity -2.28156352
REMARK minimizedRMSD -1
REMARK  0 active torsions:
REMARK  status: ('A' for Active; 'I' for Inactive)
ROOT
ATOM      1  C   UNL d   1       0.342  -2.653   1.872  0.00  0.00     0.124 A 
ATOM      2  C1  UNL d   1      -0.630  -1.665   1.940  0.00  0.00     0.062 A 
ATOM      3  C2  UNL d   1      -0.770  -0.748   0.902  0.00  0.00     0.162 A 
ATOM      4  C3  UNL d   1       0.063  -0.816  -0.214  0.00  0.00    -0.034 A 
ATOM      5  C4  UNL d   1       1.040  -1.812  -0.275  0.00  0.00     0.162 A 
ATOM      6  C5  UNL d   1       1.176  -2.726   0.765  0.00  0.00     0.062 A 
ATOM      7  F   UNL d   1       2.116  -3.680   0.697  0.00  0.00    -0.097 F 
ATOM      8  F1  UNL d   1       1.858  -1.905  -1.333  0.00  0.00    -0.096 F 
ATOM      9  I   UNL d   1      -0.143   0.553  -1.768  0.00  0.00    -0.060 I 
ATOM     10  F2  UNL d   1      -1.719   0.196   0.995  0.00  0.00    -0.096 F 
ATOM     11  F3  UNL d   1      -1.436  -1.593   3.009  0.00  0.00    -0.097 F 
ATOM     12  F4  UNL d   1       0.476  -3.534   2.872  0.00  0.00    -0.092 F 
ENDROOT
TORSDOF 0
ENDMDL
