MODEL 1
REMARK minimizedAffinity -2.57089686
REMARK minimizedRMSD -1
REMARK  0 active torsions:
REMARK  status: ('A' for Active; 'I' for Inactive)
ROOT
ATOM      1  C   UNL d   1       0.142  -0.747  -0.246  0.00  0.00     0.124 A 
ATOM      2  C1  UNL d   1       1.294  -0.558   0.504  0.00  0.00     0.062 A 
ATOM      3  C2  UNL d   1       1.496  -1.286   1.672  0.00  0.00     0.162 A 
ATOM      4  C3  UNL d   1       0.543  -2.211   2.099  0.00  0.00    -0.034 A 
ATOM      5  C4  UNL d   1      -0.614  -2.395   1.340  0.00  0.00     0.162 A 
ATOM      6  C5  UNL d   1      -0.811  -1.665   0.172  0.00  0.00     0.062 A 
ATOM      7  F   UNL d   1      -1.926  -1.849  -0.551  0.00  0.00    -0.097 F 
ATOM      8  F1  UNL d   1      -1.551  -3.276   1.720  0.00  0.00    -0.096 F 
ATOM      9  I   UNL d   1       0.841  -3.302   3.846  0.00  0.00    -0.060 I 
ATOM     10  F2  UNL d   1       2.619  -1.083   2.377  0.00  0.00    -0.096 F 
ATOM     11  F3  UNL d   1       2.216   0.329   0.102  0.00  0.00    -0.097 F 
ATOM     12  F4  UNL d   1      -0.050  -0.044  -1.370  0.00  0.00    -0.092 F 
ENDROOT
TORSDOF 0
ENDMDL
