MODEL 1
REMARK minimizedAffinity 2.99538922
REMARK minimizedRMSD -1
REMARK  0 active torsions:
REMARK  status: ('A' for Active; 'I' for Inactive)
ROOT
ATOM      1  C   UNL d   1      -1.364  -1.174   1.775  0.00  0.00     0.124 A 
ATOM      2  C1  UNL d   1      -0.439  -1.728   0.900  0.00  0.00     0.062 A 
ATOM      3  C2  UNL d   1       0.186  -0.931  -0.055  0.00  0.00     0.162 A 
ATOM      4  C3  UNL d   1      -0.111   0.429  -0.140  0.00  0.00    -0.034 A 
ATOM      5  C4  UNL d   1      -1.043   0.979   0.743  0.00  0.00     0.162 A 
ATOM      6  C5  UNL d   1      -1.665   0.178   1.695  0.00  0.00     0.062 A 
ATOM      7  F   UNL d   1      -2.558   0.714   2.539  0.00  0.00    -0.097 F 
ATOM      8  F1  UNL d   1      -1.352   2.283   0.688  0.00  0.00    -0.096 F 
ATOM      9  I   UNL d   1       0.821   1.624  -1.566  0.00  0.00    -0.060 I 
ATOM     10  F2  UNL d   1       1.076  -1.493  -0.887  0.00  0.00    -0.096 F 
ATOM     11  F3  UNL d   1      -0.146  -3.035   0.974  0.00  0.00    -0.097 F 
ATOM     12  F4  UNL d   1      -1.964  -1.944   2.692  0.00  0.00    -0.092 F 
ENDROOT
TORSDOF 0
ENDMDL
