MODEL 1
REMARK minimizedAffinity 1.72236431
REMARK minimizedRMSD -1
REMARK  0 active torsions:
REMARK  status: ('A' for Active; 'I' for Inactive)
ROOT
ATOM      1  C   UNL d   1      -1.284  -1.269   1.970  0.00  0.00     0.124 A 
ATOM      2  C1  UNL d   1      -0.257  -2.009   1.401  0.00  0.00     0.062 A 
ATOM      3  C2  UNL d   1       0.582  -1.429   0.454  0.00  0.00     0.162 A 
ATOM      4  C3  UNL d   1       0.399  -0.101   0.070  0.00  0.00    -0.034 A 
ATOM      5  C4  UNL d   1      -0.637   0.637   0.646  0.00  0.00     0.162 A 
ATOM      6  C5  UNL d   1      -1.473   0.053   1.592  0.00  0.00     0.062 A 
ATOM      7  F   UNL d   1      -2.465   0.769   2.141  0.00  0.00    -0.097 F 
ATOM      8  F1  UNL d   1      -0.842   1.917   0.300  0.00  0.00    -0.096 F 
ATOM      9  I   UNL d   1       1.651   0.770  -1.345  0.00  0.00    -0.060 I 
ATOM     10  F2  UNL d   1       1.567  -2.168  -0.079  0.00  0.00    -0.096 F 
ATOM     11  F3  UNL d   1      -0.073  -3.287   1.763  0.00  0.00    -0.097 F 
ATOM     12  F4  UNL d   1      -2.091  -1.830   2.880  0.00  0.00    -0.092 F 
ENDROOT
TORSDOF 0
ENDMDL
