MODEL 1
REMARK minimizedAffinity 0.252223045
REMARK minimizedRMSD -1
REMARK  0 active torsions:
REMARK  status: ('A' for Active; 'I' for Inactive)
ROOT
ATOM      1  C   UNL d   1      -0.940  -0.994   1.476  0.00  0.00     0.124 A 
ATOM      2  C1  UNL d   1      -1.258   0.339   1.256  0.00  0.00     0.062 A 
ATOM      3  C2  UNL d   1      -0.600   1.061   0.265  0.00  0.00     0.162 A 
ATOM      4  C3  UNL d   1       0.383   0.451  -0.515  0.00  0.00    -0.034 A 
ATOM      5  C4  UNL d   1       0.698  -0.890  -0.287  0.00  0.00     0.162 A 
ATOM      6  C5  UNL d   1       0.037  -1.607   0.705  0.00  0.00     0.062 A 
ATOM      7  F   UNL d   1       0.345  -2.895   0.916  0.00  0.00    -0.097 F 
ATOM      8  F1  UNL d   1       1.638  -1.507  -1.018  0.00  0.00    -0.096 F 
ATOM      9  I   UNL d   1       1.370   1.527  -1.998  0.00  0.00    -0.060 I 
ATOM     10  F2  UNL d   1      -0.927   2.348   0.074  0.00  0.00    -0.096 F 
ATOM     11  F3  UNL d   1      -2.201   0.934   2.000  0.00  0.00    -0.097 F 
ATOM     12  F4  UNL d   1      -1.575  -1.686   2.431  0.00  0.00    -0.092 F 
ENDROOT
TORSDOF 0
ENDMDL
