MODEL 1
REMARK minimizedAffinity -0.189578414
REMARK minimizedRMSD -1
REMARK  0 active torsions:
REMARK  status: ('A' for Active; 'I' for Inactive)
ROOT
ATOM      1  C   UNL d   1      -1.098  -1.191   1.994  0.00  0.00     0.124 A 
ATOM      2  C1  UNL d   1      -0.036  -1.833   1.372  0.00  0.00     0.062 A 
ATOM      3  C2  UNL d   1       0.768  -1.143   0.470  0.00  0.00     0.162 A 
ATOM      4  C3  UNL d   1       0.514   0.198   0.183  0.00  0.00    -0.034 A 
ATOM      5  C4  UNL d   1      -0.556   0.837   0.812  0.00  0.00     0.162 A 
ATOM      6  C5  UNL d   1      -1.357   0.143   1.713  0.00  0.00     0.062 A 
ATOM      7  F   UNL d   1      -2.383   0.765   2.312  0.00  0.00    -0.097 F 
ATOM      8  F1  UNL d   1      -0.829   2.126   0.559  0.00  0.00    -0.096 F 
ATOM      9  I   UNL d   1       1.714   1.233  -1.166  0.00  0.00    -0.060 I 
ATOM     10  F2  UNL d   1       1.788  -1.789  -0.116  0.00  0.00    -0.096 F 
ATOM     11  F3  UNL d   1       0.217  -3.123   1.641  0.00  0.00    -0.097 F 
ATOM     12  F4  UNL d   1      -1.870  -1.858   2.861  0.00  0.00    -0.092 F 
ENDROOT
TORSDOF 0
ENDMDL
