MODEL 1
REMARK minimizedAffinity -3.39102507
REMARK minimizedRMSD -1
REMARK  0 active torsions:
REMARK  status: ('A' for Active; 'I' for Inactive)
ROOT
ATOM      1  C   UNL d   1      -0.836  -1.380   1.100  0.00  0.00     0.124 A 
ATOM      2  C1  UNL d   1       0.377  -1.854   0.619  0.00  0.00     0.062 A 
ATOM      3  C2  UNL d   1       1.171  -1.049  -0.192  0.00  0.00     0.162 A 
ATOM      4  C3  UNL d   1       0.755   0.239  -0.528  0.00  0.00    -0.034 A 
ATOM      5  C4  UNL d   1      -0.466   0.709  -0.041  0.00  0.00     0.162 A 
ATOM      6  C5  UNL d   1      -1.256  -0.100   0.770  0.00  0.00     0.062 A 
ATOM      7  F   UNL d   1      -2.427   0.360   1.233  0.00  0.00    -0.097 F 
ATOM      8  F1  UNL d   1      -0.896   1.942  -0.344  0.00  0.00    -0.096 F 
ATOM      9  I   UNL d   1       1.939   1.446  -1.741  0.00  0.00    -0.060 I 
ATOM     10  F2  UNL d   1       2.338  -1.533  -0.643  0.00  0.00    -0.096 F 
ATOM     11  F3  UNL d   1       0.785  -3.092   0.937  0.00  0.00    -0.097 F 
ATOM     12  F4  UNL d   1      -1.598  -2.157   1.880  0.00  0.00    -0.092 F 
ENDROOT
TORSDOF 0
ENDMDL
