MODEL 1
REMARK minimizedAffinity 1.58072364
REMARK minimizedRMSD -1
REMARK  0 active torsions:
REMARK  status: ('A' for Active; 'I' for Inactive)
ROOT
ATOM      1  C   UNL d   1      -3.034   1.824   1.781  0.00  0.00     0.078 C 
ATOM      2  C1  UNL d   1      -2.547   1.768   3.198  0.00  0.00    -0.077 A 
ATOM      3  C2  UNL d   1      -1.827   0.664   3.670  0.00  0.00    -0.001 A 
ATOM      4  C3  UNL d   1      -1.388   0.621   4.994  0.00  0.00     0.003 A 
ATOM      5  C4  UNL d   1      -1.666   1.678   5.858  0.00  0.00    -0.005 A 
ATOM      6  C5  UNL d   1      -2.384   2.780   5.398  0.00  0.00     0.003 A 
ATOM      7  C6  UNL d   1      -2.824   2.825   4.074  0.00  0.00    -0.001 A 
ENDROOT
TORSDOF 0
ENDMDL
