MODEL 1
REMARK minimizedAffinity -1.81715703
REMARK minimizedRMSD -1
REMARK  0 active torsions:
REMARK  status: ('A' for Active; 'I' for Inactive)
ROOT
ATOM      1  C   UNL d   1       0.879   4.011  -1.871  0.00  0.00     0.078 C 
ATOM      2  C1  UNL d   1       0.973   2.576  -1.445  0.00  0.00    -0.077 A 
ATOM      3  C2  UNL d   1       1.625   1.628  -2.244  0.00  0.00    -0.001 A 
ATOM      4  C3  UNL d   1       1.697   0.294  -1.840  0.00  0.00     0.003 A 
ATOM      5  C4  UNL d   1       1.117  -0.105  -0.637  0.00  0.00    -0.005 A 
ATOM      6  C5  UNL d   1       0.464   0.831   0.163  0.00  0.00     0.003 A 
ATOM      7  C6  UNL d   1       0.392   2.165  -0.239  0.00  0.00    -0.001 A 
ENDROOT
TORSDOF 0
ENDMDL
