MODEL 1
REMARK minimizedAffinity 2.05463004
REMARK minimizedRMSD -1
REMARK  0 active torsions:
REMARK  status: ('A' for Active; 'I' for Inactive)
ROOT
ATOM      1  C   UNL d   1       1.507  -0.313  -1.323  0.00  0.00     0.078 C 
ATOM      2  C1  UNL d   1       1.288   1.112  -0.910  0.00  0.00    -0.077 A 
ATOM      3  C2  UNL d   1       0.910   2.083  -1.845  0.00  0.00    -0.001 A 
ATOM      4  C3  UNL d   1       0.719   3.408  -1.448  0.00  0.00     0.003 A 
ATOM      5  C4  UNL d   1       0.904   3.773  -0.116  0.00  0.00    -0.005 A 
ATOM      6  C5  UNL d   1       1.282   2.814   0.821  0.00  0.00     0.003 A 
ATOM      7  C6  UNL d   1       1.474   1.489   0.426  0.00  0.00    -0.001 A 
ENDROOT
TORSDOF 0
ENDMDL
