MODEL 1
REMARK minimizedAffinity 2.6767261
REMARK minimizedRMSD -1
REMARK  0 active torsions:
REMARK  status: ('A' for Active; 'I' for Inactive)
ROOT
ATOM      1  C   UNL d   1      -3.078   2.455   2.195  0.00  0.00     0.078 C 
ATOM      2  C1  UNL d   1      -2.661   1.883   3.517  0.00  0.00    -0.077 A 
ATOM      3  C2  UNL d   1      -1.628   0.941   3.602  0.00  0.00    -0.001 A 
ATOM      4  C3  UNL d   1      -1.258   0.410   4.839  0.00  0.00     0.003 A 
ATOM      5  C4  UNL d   1      -1.915   0.813   5.999  0.00  0.00    -0.005 A 
ATOM      6  C5  UNL d   1      -2.946   1.748   5.924  0.00  0.00     0.003 A 
ATOM      7  C6  UNL d   1      -3.318   2.280   4.689  0.00  0.00    -0.001 A 
ENDROOT
TORSDOF 0
ENDMDL
