MODEL 1
REMARK minimizedAffinity -1.46679866
REMARK minimizedRMSD -1
REMARK  0 active torsions:
REMARK  status: ('A' for Active; 'I' for Inactive)
ROOT
ATOM      1  C   UNL d   1       1.145  -0.377  -1.519  0.00  0.00     0.078 C 
ATOM      2  C1  UNL d   1       1.080   1.058  -1.086  0.00  0.00    -0.077 A 
ATOM      3  C2  UNL d   1       1.126   1.405   0.270  0.00  0.00    -0.001 A 
ATOM      4  C3  UNL d   1       1.054   2.743   0.659  0.00  0.00     0.003 A 
ATOM      5  C4  UNL d   1       0.935   3.746  -0.302  0.00  0.00    -0.005 A 
ATOM      6  C5  UNL d   1       0.887   3.410  -1.653  0.00  0.00     0.003 A 
ATOM      7  C6  UNL d   1       0.958   2.072  -2.044  0.00  0.00    -0.001 A 
ENDROOT
TORSDOF 0
ENDMDL
