MODEL 1
REMARK minimizedAffinity -3.98767376
REMARK minimizedRMSD -1
REMARK  0 active torsions:
REMARK  status: ('A' for Active; 'I' for Inactive)
ROOT
ATOM      1  C   UNL d   1       0.883  -0.667  -0.423  0.00  0.00     0.078 C 
ATOM      2  C1  UNL d   1       0.902   0.832  -0.377  0.00  0.00    -0.077 A 
ATOM      3  C2  UNL d   1       0.835   1.517   0.842  0.00  0.00    -0.001 A 
ATOM      4  C3  UNL d   1       0.843   2.912   0.869  0.00  0.00     0.003 A 
ATOM      5  C4  UNL d   1       0.917   3.635  -0.320  0.00  0.00    -0.005 A 
ATOM      6  C5  UNL d   1       0.981   2.962  -1.538  0.00  0.00     0.003 A 
ATOM      7  C6  UNL d   1       0.973   1.566  -1.567  0.00  0.00    -0.001 A 
ENDROOT
TORSDOF 0
ENDMDL
