MODEL 1
REMARK minimizedAffinity 3.81759048
REMARK minimizedRMSD -1
REMARK  0 active torsions:
REMARK  status: ('A' for Active; 'I' for Inactive)
ROOT
ATOM      1  C   UNL d   1       1.462   4.254  -1.045  0.00  0.00     0.078 C 
ATOM      2  C1  UNL d   1       1.409   2.787  -1.351  0.00  0.00    -0.077 A 
ATOM      3  C2  UNL d   1       0.596   2.293  -2.378  0.00  0.00    -0.001 A 
ATOM      4  C3  UNL d   1       0.550   0.923  -2.645  0.00  0.00     0.003 A 
ATOM      5  C4  UNL d   1       1.312   0.037  -1.888  0.00  0.00    -0.005 A 
ATOM      6  C5  UNL d   1       2.122   0.519  -0.861  0.00  0.00     0.003 A 
ATOM      7  C6  UNL d   1       2.170   1.887  -0.593  0.00  0.00    -0.001 A 
ENDROOT
TORSDOF 0
ENDMDL
