MODEL 1
REMARK minimizedAffinity -5.13089609
REMARK minimizedRMSD -1
REMARK  0 active torsions:
REMARK  status: ('A' for Active; 'I' for Inactive)
ROOT
ATOM      1  C   UNL d   1       1.456   3.266   1.043  0.00  0.00     0.078 C 
ATOM      2  C1  UNL d   1       1.416   2.294  -0.098  0.00  0.00    -0.077 A 
ATOM      3  C2  UNL d   1       1.936   1.001   0.037  0.00  0.00    -0.001 A 
ATOM      4  C3  UNL d   1       1.900   0.110  -1.036  0.00  0.00     0.003 A 
ATOM      5  C4  UNL d   1       1.347   0.502  -2.253  0.00  0.00    -0.005 A 
ATOM      6  C5  UNL d   1       0.829   1.787  -2.398  0.00  0.00     0.003 A 
ATOM      7  C6  UNL d   1       0.863   2.680  -1.326  0.00  0.00    -0.001 A 
ENDROOT
TORSDOF 0
ENDMDL
