MODEL 1
REMARK minimizedAffinity -0.49535954
REMARK minimizedRMSD -1
REMARK  0 active torsions:
REMARK  status: ('A' for Active; 'I' for Inactive)
ROOT
ATOM      1  C   UNL d   1       1.171   2.957  -1.916  0.00  0.00     0.078 C 
ATOM      2  C1  UNL d   1       1.011   1.722  -1.080  0.00  0.00    -0.077 A 
ATOM      3  C2  UNL d   1       0.762   0.478  -1.671  0.00  0.00    -0.001 A 
ATOM      4  C3  UNL d   1       0.605  -0.661  -0.880  0.00  0.00     0.003 A 
ATOM      5  C4  UNL d   1       0.694  -0.567   0.507  0.00  0.00    -0.005 A 
ATOM      6  C5  UNL d   1       0.939   0.667   1.105  0.00  0.00     0.003 A 
ATOM      7  C6  UNL d   1       1.096   1.807   0.316  0.00  0.00    -0.001 A 
ENDROOT
TORSDOF 0
ENDMDL
