MODEL 1
REMARK minimizedAffinity 2.84144306
REMARK minimizedRMSD -1
REMARK  0 active torsions:
REMARK  status: ('A' for Active; 'I' for Inactive)
ROOT
ATOM      1  C   UNL d   1       1.547   1.003  -1.441  0.00  0.00     0.078 C 
ATOM      2  C1  UNL d   1       1.377   2.402  -0.930  0.00  0.00    -0.077 A 
ATOM      3  C2  UNL d   1       1.359   3.494  -1.807  0.00  0.00    -0.001 A 
ATOM      4  C3  UNL d   1       1.209   4.792  -1.316  0.00  0.00     0.003 A 
ATOM      5  C4  UNL d   1       1.077   5.011   0.054  0.00  0.00    -0.005 A 
ATOM      6  C5  UNL d   1       1.095   3.931   0.934  0.00  0.00     0.003 A 
ATOM      7  C6  UNL d   1       1.245   2.633   0.445  0.00  0.00    -0.001 A 
ENDROOT
TORSDOF 0
ENDMDL
