MODEL 1
REMARK minimizedAffinity 9.0807085
REMARK minimizedRMSD -1
REMARK  0 active torsions:
REMARK  status: ('A' for Active; 'I' for Inactive)
ROOT
ATOM      1  C   UNL d   1       1.134   4.880  -0.977  0.00  0.00     0.078 C 
ATOM      2  C1  UNL d   1       0.903   3.492  -1.495  0.00  0.00    -0.077 A 
ATOM      3  C2  UNL d   1       1.685   2.418  -1.053  0.00  0.00    -0.001 A 
ATOM      4  C3  UNL d   1       1.465   1.133  -1.551  0.00  0.00     0.003 A 
ATOM      5  C4  UNL d   1       0.465   0.910  -2.495  0.00  0.00    -0.005 A 
ATOM      6  C5  UNL d   1      -0.317   1.973  -2.943  0.00  0.00     0.003 A 
ATOM      7  C6  UNL d   1      -0.099   3.259  -2.445  0.00  0.00    -0.001 A 
ENDROOT
TORSDOF 0
ENDMDL
