MODEL 1
REMARK minimizedAffinity 4.02935553
REMARK minimizedRMSD -1
REMARK  0 active torsions:
REMARK  status: ('A' for Active; 'I' for Inactive)
ROOT
ATOM      1  C   UNL d   1       1.194   4.608  -0.779  0.00  0.00     0.078 C 
ATOM      2  C1  UNL d   1       0.982   3.158  -1.097  0.00  0.00    -0.077 A 
ATOM      3  C2  UNL d   1       1.577   2.155  -0.321  0.00  0.00    -0.001 A 
ATOM      4  C3  UNL d   1       1.380   0.809  -0.635  0.00  0.00     0.003 A 
ATOM      5  C4  UNL d   1       0.588   0.454  -1.725  0.00  0.00    -0.005 A 
ATOM      6  C5  UNL d   1      -0.007   1.445  -2.504  0.00  0.00     0.003 A 
ATOM      7  C6  UNL d   1       0.190   2.791  -2.192  0.00  0.00    -0.001 A 
ENDROOT
TORSDOF 0
ENDMDL
