MODEL 1
REMARK minimizedAffinity 2.92895913
REMARK minimizedRMSD -1
REMARK  0 active torsions:
REMARK  status: ('A' for Active; 'I' for Inactive)
ROOT
ATOM      1  C   UNL d   1       0.509   3.099  -0.346  0.00  0.00     0.078 C 
ATOM      2  C1  UNL d   1       0.947   1.762  -0.866  0.00  0.00    -0.077 A 
ATOM      3  C2  UNL d   1       1.186   0.693   0.006  0.00  0.00    -0.001 A 
ATOM      4  C3  UNL d   1       1.603  -0.543  -0.491  0.00  0.00     0.003 A 
ATOM      5  C4  UNL d   1       1.785  -0.721  -1.861  0.00  0.00    -0.005 A 
ATOM      6  C5  UNL d   1       1.552   0.338  -2.736  0.00  0.00     0.003 A 
ATOM      7  C6  UNL d   1       1.136   1.575  -2.241  0.00  0.00    -0.001 A 
ENDROOT
TORSDOF 0
ENDMDL
