MODEL 1
REMARK minimizedAffinity 8.0074482
REMARK minimizedRMSD -1
REMARK  0 active torsions:
REMARK  status: ('A' for Active; 'I' for Inactive)
ROOT
ATOM      1  C   UNL d   1       1.415   0.035  -1.283  0.00  0.00     0.078 C 
ATOM      2  C1  UNL d   1       0.675   1.294  -1.622  0.00  0.00    -0.077 A 
ATOM      3  C2  UNL d   1      -0.725   1.327  -1.631  0.00  0.00    -0.001 A 
ATOM      4  C3  UNL d   1      -1.401   2.504  -1.958  0.00  0.00     0.003 A 
ATOM      5  C4  UNL d   1      -0.686   3.656  -2.279  0.00  0.00    -0.005 A 
ATOM      6  C5  UNL d   1       0.707   3.632  -2.274  0.00  0.00     0.003 A 
ATOM      7  C6  UNL d   1       1.385   2.456  -1.947  0.00  0.00    -0.001 A 
ENDROOT
TORSDOF 0
ENDMDL
