MODEL 1
REMARK minimizedAffinity 0.174576283
REMARK minimizedRMSD -1
REMARK  0 active torsions:
REMARK  status: ('A' for Active; 'I' for Inactive)
ROOT
ATOM      1  C   UNL d   1       2.471  -0.775  -0.745  0.00  0.00     0.078 C 
ATOM      2  C1  UNL d   1       1.731   0.480  -1.102  0.00  0.00    -0.077 A 
ATOM      3  C2  UNL d   1       1.279   0.704  -2.408  0.00  0.00    -0.001 A 
ATOM      4  C3  UNL d   1       0.600   1.881  -2.728  0.00  0.00     0.003 A 
ATOM      5  C4  UNL d   1       0.369   2.844  -1.748  0.00  0.00    -0.005 A 
ATOM      6  C5  UNL d   1       0.818   2.631  -0.446  0.00  0.00     0.003 A 
ATOM      7  C6  UNL d   1       1.496   1.455  -0.124  0.00  0.00    -0.001 A 
ENDROOT
TORSDOF 0
ENDMDL
