MODEL 1
REMARK minimizedAffinity 1.60735691
REMARK minimizedRMSD -1
REMARK  0 active torsions:
REMARK  status: ('A' for Active; 'I' for Inactive)
ROOT
ATOM      1  C   UNL d   1       1.749   5.701  -1.063  0.00  0.00     0.078 C 
ATOM      2  C1  UNL d   1       1.393   4.249  -0.938  0.00  0.00    -0.077 A 
ATOM      3  C2  UNL d   1       1.332   3.627   0.315  0.00  0.00    -0.001 A 
ATOM      4  C3  UNL d   1       1.009   2.273   0.416  0.00  0.00     0.003 A 
ATOM      5  C4  UNL d   1       0.746   1.529  -0.732  0.00  0.00    -0.005 A 
ATOM      6  C5  UNL d   1       0.807   2.139  -1.984  0.00  0.00     0.003 A 
ATOM      7  C6  UNL d   1       1.130   3.493  -2.087  0.00  0.00    -0.001 A 
ENDROOT
TORSDOF 0
ENDMDL
