MODEL 1
REMARK minimizedAffinity -1.97633898
REMARK minimizedRMSD -1
REMARK  0 active torsions:
REMARK  status: ('A' for Active; 'I' for Inactive)
ROOT
ATOM      1  C   UNL d   1       0.875   2.609  -1.609  0.00  0.00     0.078 C 
ATOM      2  C1  UNL d   1       1.096   1.150  -1.342  0.00  0.00    -0.077 A 
ATOM      3  C2  UNL d   1       0.514   0.171  -2.158  0.00  0.00    -0.001 A 
ATOM      4  C3  UNL d   1       0.721  -1.183  -1.892  0.00  0.00     0.003 A 
ATOM      5  C4  UNL d   1       1.508  -1.572  -0.810  0.00  0.00    -0.005 A 
ATOM      6  C5  UNL d   1       2.090  -0.606   0.008  0.00  0.00     0.003 A 
ATOM      7  C6  UNL d   1       1.884   0.749  -0.256  0.00  0.00    -0.001 A 
ENDROOT
TORSDOF 0
ENDMDL
