MODEL 1
REMARK minimizedAffinity 2.33201694
REMARK minimizedRMSD -1
REMARK  0 active torsions:
REMARK  status: ('A' for Active; 'I' for Inactive)
ROOT
ATOM      1  C1  BNZ d   1      -4.392   3.763  -3.765  0.00  0.00     0.000 A 
ATOM      2  C2  BNZ d   1      -3.653   2.628  -3.967  0.00  0.00     0.000 A 
ATOM      3  C3  BNZ d   1      -3.275   1.842  -2.914  0.00  0.00     0.000 A 
ATOM      4  C4  BNZ d   1      -3.602   2.213  -1.659  0.00  0.00     0.000 A 
ATOM      5  C5  BNZ d   1      -4.339   3.359  -1.438  0.00  0.00     0.000 A 
ATOM      6  C6  BNZ d   1      -4.751   4.127  -2.504  0.00  0.00     0.000 A 
ENDROOT
TORSDOF 0
ENDMDL
