MODEL 1
REMARK minimizedAffinity -4.18775225
REMARK minimizedRMSD -1
REMARK  0 active torsions:
REMARK  status: ('A' for Active; 'I' for Inactive)
ROOT
ATOM      1  C1  BNZ d   1       1.999  -1.609   3.938  0.00  0.00     0.000 A 
ATOM      2  C2  BNZ d   1       2.330  -2.922   4.141  0.00  0.00     0.000 A 
ATOM      3  C3  BNZ d   1       2.381  -3.801   3.095  0.00  0.00     0.000 A 
ATOM      4  C4  BNZ d   1       2.063  -3.375   1.856  0.00  0.00     0.000 A 
ATOM      5  C5  BNZ d   1       1.718  -2.056   1.637  0.00  0.00     0.000 A 
ATOM      6  C6  BNZ d   1       1.705  -1.166   2.686  0.00  0.00     0.000 A 
ENDROOT
TORSDOF 0
ENDMDL
