MODEL 1
REMARK minimizedAffinity 5.66708374
REMARK minimizedRMSD -1
REMARK  0 active torsions:
REMARK  status: ('A' for Active; 'I' for Inactive)
ROOT
ATOM      1  C1  BNZ d   1      -1.637  -1.076  -1.122  0.00  0.00     0.000 A 
ATOM      2  C2  BNZ d   1      -0.637  -1.727  -1.795  0.00  0.00     0.000 A 
ATOM      3  C3  BNZ d   1       0.511  -2.100  -1.152  0.00  0.00     0.000 A 
ATOM      4  C4  BNZ d   1       0.673  -1.787   0.149  0.00  0.00     0.000 A 
ATOM      5  C5  BNZ d   1      -0.322  -1.123   0.839  0.00  0.00     0.000 A 
ATOM      6  C6  BNZ d   1      -1.491  -0.784   0.199  0.00  0.00     0.000 A 
ENDROOT
TORSDOF 0
ENDMDL
