MODEL 1
REMARK minimizedAffinity 7.57098579
REMARK minimizedRMSD -1
REMARK  0 active torsions:
REMARK  status: ('A' for Active; 'I' for Inactive)
ROOT
ATOM      1  C1  BNZ d   1       2.957  -0.951   3.571  0.00  0.00     0.000 A 
ATOM      2  C2  BNZ d   1       3.604   0.011   2.842  0.00  0.00     0.000 A 
ATOM      3  C3  BNZ d   1       2.921   0.789   1.950  0.00  0.00     0.000 A 
ATOM      4  C4  BNZ d   1       1.603   0.579   1.759  0.00  0.00     0.000 A 
ATOM      5  C5  BNZ d   1       0.939  -0.394   2.479  0.00  0.00     0.000 A 
ATOM      6  C6  BNZ d   1       1.621  -1.149   3.405  0.00  0.00     0.000 A 
ENDROOT
TORSDOF 0
ENDMDL
