MODEL 1
REMARK minimizedAffinity 6.22280979
REMARK minimizedRMSD -1
REMARK  0 active torsions:
REMARK  status: ('A' for Active; 'I' for Inactive)
ROOT
ATOM      1  C1  BNZ d   1      -3.639   2.667   2.097  0.00  0.00     0.000 A 
ATOM      2  C2  BNZ d   1      -3.650   3.017   0.773  0.00  0.00     0.000 A 
ATOM      3  C3  BNZ d   1      -4.828   3.254   0.121  0.00  0.00     0.000 A 
ATOM      4  C4  BNZ d   1      -5.994   3.102   0.782  0.00  0.00     0.000 A 
ATOM      5  C5  BNZ d   1      -6.000   2.740   2.114  0.00  0.00     0.000 A 
ATOM      6  C6  BNZ d   1      -4.811   2.540   2.778  0.00  0.00     0.000 A 
ENDROOT
TORSDOF 0
ENDMDL
