MODEL 1
REMARK minimizedAffinity 4.58311939
REMARK minimizedRMSD -1
REMARK  1 active torsions:
REMARK  status: ('A' for Active; 'I' for Inactive)
REMARK    1  A    between atoms: C1_2  and  C2_3 
ROOT
ATOM      1  C2  UNL d   1       3.770  -0.587   0.771  0.00  0.00    -0.077 A 
ATOM      2  C3  UNL d   1       4.269  -0.064  -0.431  0.00  0.00     0.002 A 
ATOM      3  C4  UNL d   1       3.572   0.938  -1.108  0.00  0.00     0.002 A 
ATOM      4  C5  UNL d   1       2.376   1.429  -0.591  0.00  0.00    -0.004 A 
ATOM      5  C6  UNL d   1       1.870   0.915   0.602  0.00  0.00     0.002 A 
ATOM      6  C7  UNL d   1       2.564  -0.088   1.280  0.00  0.00     0.002 A 
ENDROOT
BRANCH   1   7
ATOM      7  C1  UNL d   1       4.544  -1.633   1.528  0.00  0.00     0.055 C 
ATOM      8  C   UNL d   1       5.993  -1.213   1.728  0.00  0.00     0.019 C 
ENDBRANCH   1   7
TORSDOF 1
ENDMDL
