MODEL 1
REMARK minimizedAffinity 9.83035946
REMARK minimizedRMSD -1
REMARK  1 active torsions:
REMARK  status: ('A' for Active; 'I' for Inactive)
REMARK    1  A    between atoms: C1_2  and  C2_3 
ROOT
ATOM      1  C2  UNL d   1       4.861   2.604   1.244  0.00  0.00    -0.077 A 
ATOM      2  C3  UNL d   1       5.319   3.168   0.045  0.00  0.00     0.002 A 
ATOM      3  C4  UNL d   1       4.704   2.848  -1.167  0.00  0.00     0.002 A 
ATOM      4  C5  UNL d   1       3.624   1.967  -1.190  0.00  0.00    -0.004 A 
ATOM      5  C6  UNL d   1       3.163   1.400  -0.003  0.00  0.00     0.002 A 
ATOM      6  C7  UNL d   1       3.778   1.718   1.209  0.00  0.00     0.002 A 
ENDROOT
BRANCH   1   7
ATOM      7  C1  UNL d   1       5.493   2.986   2.557  0.00  0.00     0.055 C 
ATOM      8  C   UNL d   1       4.929   4.299   3.081  0.00  0.00     0.019 C 
ENDBRANCH   1   7
TORSDOF 1
ENDMDL
