MODEL 1
REMARK minimizedAffinity 7.33883762
REMARK minimizedRMSD -1
REMARK  1 active torsions:
REMARK  status: ('A' for Active; 'I' for Inactive)
REMARK    1  A    between atoms: C1_2  and  C2_3 
ROOT
ATOM      1  C2  UNL d   1       3.035   4.171   3.777  0.00  0.00    -0.077 A 
ATOM      2  C3  UNL d   1       1.840   4.578   3.167  0.00  0.00     0.002 A 
ATOM      3  C4  UNL d   1       0.994   5.487   3.806  0.00  0.00     0.002 A 
ATOM      4  C5  UNL d   1       1.336   5.999   5.056  0.00  0.00    -0.004 A 
ATOM      5  C6  UNL d   1       2.521   5.599   5.672  0.00  0.00     0.002 A 
ATOM      6  C7  UNL d   1       3.367   4.690   5.035  0.00  0.00     0.002 A 
ENDROOT
BRANCH   1   7
ATOM      7  C1  UNL d   1       3.972   3.229   3.068  0.00  0.00     0.055 C 
ATOM      8  C   UNL d   1       3.261   2.479   1.950  0.00  0.00     0.019 C 
ENDBRANCH   1   7
TORSDOF 1
ENDMDL
