MODEL 1
REMARK minimizedAffinity 8.46452808
REMARK minimizedRMSD -1
REMARK  1 active torsions:
REMARK  status: ('A' for Active; 'I' for Inactive)
REMARK    1  A    between atoms: C1_2  and  C2_3 
ROOT
ATOM      1  C2  UNL d   1      -4.014  -0.154  -1.337  0.00  0.00    -0.077 A 
ATOM      2  C3  UNL d   1      -5.351   0.153  -1.050  0.00  0.00     0.002 A 
ATOM      3  C4  UNL d   1      -5.666   1.058  -0.035  0.00  0.00     0.002 A 
ATOM      4  C5  UNL d   1      -4.649   1.666   0.698  0.00  0.00    -0.004 A 
ATOM      5  C6  UNL d   1      -3.316   1.365   0.422  0.00  0.00     0.002 A 
ATOM      6  C7  UNL d   1      -3.000   0.460  -0.592  0.00  0.00     0.002 A 
ENDROOT
BRANCH   1   7
ATOM      7  C1  UNL d   1      -3.671  -1.093  -2.465  0.00  0.00     0.055 C 
ATOM      8  C   UNL d   1      -2.512  -0.561  -3.294  0.00  0.00     0.019 C 
ENDBRANCH   1   7
TORSDOF 1
ENDMDL
