MODEL 1
REMARK minimizedAffinity 5.80021381
REMARK minimizedRMSD -1
REMARK  0 active torsions:
REMARK  status: ('A' for Active; 'I' for Inactive)
ROOT
ATOM      1  N1  IND d   1       0.555  -5.968   5.452  0.00  0.00    -0.196 N 
ATOM      2  C2  IND d   1       1.849  -5.971   5.892  0.00  0.00     0.054 A 
ATOM      3  C3  IND d   1       2.702  -6.000   4.843  0.00  0.00    -0.031 A 
ATOM      4  C4  IND d   1       2.194  -5.942   2.320  0.00  0.00     0.051 A 
ATOM      5  C5  IND d   1       1.159  -5.972   1.428  0.00  0.00    -0.031 A 
ATOM      6  C6  IND d   1      -0.158  -6.000   1.841  0.00  0.00     0.015 A 
ATOM      7  C7  IND d   1      -0.489  -5.987   3.166  0.00  0.00    -0.016 A 
ATOM      8  C8  IND d   1       0.560  -5.964   4.074  0.00  0.00    -0.047 A 
ATOM      9  C9  IND d   1       1.898  -5.979   3.662  0.00  0.00    -0.096 A 
ATOM     10  HN1 IND d   1      -0.145  -5.968   5.952  0.00  0.00     0.298 HD
ENDROOT
TORSDOF 0
ENDMDL
