MODEL 1
REMARK minimizedAffinity 4.60635471
REMARK minimizedRMSD -1
REMARK  0 active torsions:
REMARK  status: ('A' for Active; 'I' for Inactive)
ROOT
ATOM      1  N1  IND d   1      -5.970  -1.168   3.801  0.00  0.00    -0.196 N 
ATOM      2  C2  IND d   1      -5.932  -1.738   5.043  0.00  0.00     0.054 A 
ATOM      3  C3  IND d   1      -5.896  -0.782   5.998  0.00  0.00    -0.031 A 
ATOM      4  C4  IND d   1      -5.994   1.778   5.754  0.00  0.00     0.051 A 
ATOM      5  C5  IND d   1      -5.997   2.772   4.815  0.00  0.00    -0.031 A 
ATOM      6  C6  IND d   1      -5.995   2.497   3.463  0.00  0.00     0.015 A 
ATOM      7  C7  IND d   1      -6.000   1.212   2.997  0.00  0.00    -0.016 A 
ATOM      8  C8  IND d   1      -5.989   0.201   3.948  0.00  0.00    -0.047 A 
ATOM      9  C9  IND d   1      -5.949   0.474   5.321  0.00  0.00    -0.096 A 
ATOM     10  HN1 IND d   1      -5.979  -1.594   3.054  0.00  0.00     0.298 HD
ENDROOT
TORSDOF 0
ENDMDL
