MODEL 1
REMARK minimizedAffinity 8.83719635
REMARK minimizedRMSD -1
REMARK  0 active torsions:
REMARK  status: ('A' for Active; 'I' for Inactive)
ROOT
ATOM      1  N1  IND d   1       4.558   2.041  -4.889  0.00  0.00    -0.196 N 
ATOM      2  C2  IND d   1       3.767   2.254  -5.983  0.00  0.00     0.054 A 
ATOM      3  C3  IND d   1       2.740   1.374  -6.000  0.00  0.00    -0.031 A 
ATOM      4  C4  IND d   1       2.108  -0.434  -4.281  0.00  0.00     0.051 A 
ATOM      5  C5  IND d   1       2.549  -1.031  -3.133  0.00  0.00    -0.031 A 
ATOM      6  C6  IND d   1       3.705  -0.624  -2.498  0.00  0.00     0.015 A 
ATOM      7  C7  IND d   1       4.459   0.406  -2.982  0.00  0.00    -0.016 A 
ATOM      8  C8  IND d   1       4.018   1.010  -4.151  0.00  0.00    -0.047 A 
ATOM      9  C9  IND d   1       2.869   0.574  -4.824  0.00  0.00    -0.096 A 
ATOM     10  HN1 IND d   1       5.273   2.477  -4.694  0.00  0.00     0.298 HD
ENDROOT
TORSDOF 0
ENDMDL
