MODEL 1
REMARK minimizedAffinity 4.60703325
REMARK minimizedRMSD -1
REMARK  0 active torsions:
REMARK  status: ('A' for Active; 'I' for Inactive)
ROOT
ATOM      1  N1  IND d   1      -2.180  -5.969   0.763  0.00  0.00    -0.196 N 
ATOM      2  C2  IND d   1      -3.466  -5.972   1.227  0.00  0.00     0.054 A 
ATOM      3  C3  IND d   1      -3.478  -6.000   2.579  0.00  0.00    -0.031 A 
ATOM      4  C4  IND d   1      -1.507  -5.941   4.234  0.00  0.00     0.051 A 
ATOM      5  C5  IND d   1      -0.142  -5.971   4.285  0.00  0.00    -0.031 A 
ATOM      6  C6  IND d   1       0.630  -6.000   3.141  0.00  0.00     0.015 A 
ATOM      7  C7  IND d   1       0.062  -5.988   1.898  0.00  0.00    -0.016 A 
ATOM      8  C8  IND d   1      -1.324  -5.965   1.843  0.00  0.00    -0.047 A 
ATOM      9  C9  IND d   1      -2.113  -5.979   3.001  0.00  0.00    -0.096 A 
ATOM     10  HN1 IND d   1      -1.945  -5.970  -0.064  0.00  0.00     0.298 HD
ENDROOT
TORSDOF 0
ENDMDL
