MODEL 1
REMARK minimizedAffinity 3.61967301
REMARK minimizedRMSD -1
REMARK  0 active torsions:
REMARK  status: ('A' for Active; 'I' for Inactive)
ROOT
ATOM      1  N1  IND d   1       0.023  -5.906   5.516  0.00  0.00    -0.196 N 
ATOM      2  C2  IND d   1       1.347  -5.932   5.857  0.00  0.00     0.054 A 
ATOM      3  C3  IND d   1       2.116  -6.000   4.747  0.00  0.00    -0.031 A 
ATOM      4  C4  IND d   1       1.420  -5.977   2.269  0.00  0.00     0.051 A 
ATOM      5  C5  IND d   1       0.319  -5.999   1.459  0.00  0.00    -0.031 A 
ATOM      6  C6  IND d   1      -0.963  -5.988   1.971  0.00  0.00     0.015 A 
ATOM      7  C7  IND d   1      -1.192  -5.943   3.317  0.00  0.00    -0.016 A 
ATOM      8  C8  IND d   1      -0.077  -5.928   4.142  0.00  0.00    -0.047 A 
ATOM      9  C9  IND d   1       1.226  -5.982   3.630  0.00  0.00    -0.096 A 
ATOM     10  HN1 IND d   1      -0.636  -5.881   6.067  0.00  0.00     0.298 HD
ENDROOT
TORSDOF 0
ENDMDL
