MODEL 1
REMARK minimizedAffinity 5.09587097
REMARK minimizedRMSD -1
REMARK  0 active torsions:
REMARK  status: ('A' for Active; 'I' for Inactive)
ROOT
ATOM      1  N1  IND d   1       0.427  -3.923   3.411  0.00  0.00    -0.196 N 
ATOM      2  C2  IND d   1       0.685  -5.255   3.576  0.00  0.00     0.054 A 
ATOM      3  C3  IND d   1      -0.254  -5.998   2.948  0.00  0.00    -0.031 A 
ATOM      4  C4  IND d   1      -2.245  -5.236   1.505  0.00  0.00     0.051 A 
ATOM      5  C5  IND d   1      -2.911  -4.116   1.093  0.00  0.00    -0.031 A 
ATOM      6  C6  IND d   1      -2.489  -2.848   1.438  0.00  0.00     0.015 A 
ATOM      7  C7  IND d   1      -1.372  -2.653   2.201  0.00  0.00    -0.016 A 
ATOM      8  C8  IND d   1      -0.698  -3.788   2.627  0.00  0.00    -0.047 A 
ATOM      9  C9  IND d   1      -1.146  -5.078   2.315  0.00  0.00    -0.096 A 
ATOM     10  HN1 IND d   1       0.889  -3.278   3.741  0.00  0.00     0.298 HD
ENDROOT
TORSDOF 0
ENDMDL
