MODEL 1
REMARK minimizedAffinity 7.43207741
REMARK minimizedRMSD -1
REMARK  0 active torsions:
REMARK  status: ('A' for Active; 'I' for Inactive)
ROOT
ATOM      1  N1  IND d   1      -1.395  -5.975   2.948  0.00  0.00    -0.196 N 
ATOM      2  C2  IND d   1      -1.355  -5.992   1.582  0.00  0.00     0.054 A 
ATOM      3  C3  IND d   1      -0.075  -5.957   1.148  0.00  0.00    -0.031 A 
ATOM      4  C4  IND d   1       2.113  -5.974   2.504  0.00  0.00     0.051 A 
ATOM      5  C5  IND d   1       2.587  -5.920   3.785  0.00  0.00    -0.031 A 
ATOM      6  C6  IND d   1       1.741  -5.884   4.874  0.00  0.00     0.015 A 
ATOM      7  C7  IND d   1       0.383  -5.912   4.723  0.00  0.00    -0.016 A 
ATOM      8  C8  IND d   1      -0.102  -5.960   3.424  0.00  0.00    -0.047 A 
ATOM      9  C9  IND d   1       0.751  -5.953   2.313  0.00  0.00    -0.096 A 
ATOM     10  HN1 IND d   1      -2.107  -5.975   3.430  0.00  0.00     0.298 HD
ENDROOT
TORSDOF 0
ENDMDL
