MODEL 1
REMARK minimizedAffinity 11.173502
REMARK minimizedRMSD -1
REMARK  0 active torsions:
REMARK  status: ('A' for Active; 'I' for Inactive)
ROOT
ATOM      1  N1  IND d   1      -0.473  -5.895   4.342  0.00  0.00    -0.196 N 
ATOM      2  C2  IND d   1      -0.734  -5.830   3.002  0.00  0.00     0.054 A 
ATOM      3  C3  IND d   1       0.420  -5.801   2.299  0.00  0.00    -0.031 A 
ATOM      4  C4  IND d   1       2.850  -5.955   3.136  0.00  0.00     0.051 A 
ATOM      5  C5  IND d   1       3.594  -5.991   4.281  0.00  0.00    -0.031 A 
ATOM      6  C6  IND d   1       3.009  -6.000   5.531  0.00  0.00     0.015 A 
ATOM      7  C7  IND d   1       1.652  -5.984   5.682  0.00  0.00    -0.016 A 
ATOM      8  C8  IND d   1       0.893  -5.940   4.521  0.00  0.00    -0.047 A 
ATOM      9  C9  IND d   1       1.481  -5.888   3.251  0.00  0.00    -0.096 A 
ATOM     10  HN1 IND d   1      -1.062  -5.906   4.969  0.00  0.00     0.298 HD
ENDROOT
TORSDOF 0
ENDMDL
