MODEL 1
REMARK minimizedAffinity 6.30417728
REMARK minimizedRMSD -1
REMARK  0 active torsions:
REMARK  status: ('A' for Active; 'I' for Inactive)
ROOT
ATOM      1  N1  IND d   1      -0.022  -5.979   1.108  0.00  0.00    -0.196 N 
ATOM      2  C2  IND d   1      -1.322  -5.977   1.529  0.00  0.00     0.054 A 
ATOM      3  C3  IND d   1      -1.379  -5.995   2.880  0.00  0.00    -0.031 A 
ATOM      4  C4  IND d   1       0.537  -5.925   4.598  0.00  0.00     0.051 A 
ATOM      5  C5  IND d   1       1.900  -5.956   4.693  0.00  0.00    -0.031 A 
ATOM      6  C6  IND d   1       2.709  -5.994   3.576  0.00  0.00     0.015 A 
ATOM      7  C7  IND d   1       2.182  -5.991   2.315  0.00  0.00    -0.016 A 
ATOM      8  C8  IND d   1       0.798  -5.967   2.215  0.00  0.00    -0.047 A 
ATOM      9  C9  IND d   1      -0.028  -5.971   3.346  0.00  0.00    -0.096 A 
ATOM     10  HN1 IND d   1       0.240  -5.986   0.289  0.00  0.00     0.298 HD
ENDROOT
TORSDOF 0
ENDMDL
