MODEL 1
REMARK minimizedAffinity 4.32050276
REMARK minimizedRMSD -1
REMARK  0 active torsions:
REMARK  status: ('A' for Active; 'I' for Inactive)
ROOT
ATOM      1  N1  IND d   1       2.331  -5.934   2.309  0.00  0.00    -0.196 N 
ATOM      2  C2  IND d   1       2.640  -5.863   3.639  0.00  0.00     0.054 A 
ATOM      3  C3  IND d   1       1.512  -5.812   4.382  0.00  0.00    -0.031 A 
ATOM      4  C4  IND d   1      -0.948  -5.934   3.632  0.00  0.00     0.051 A 
ATOM      5  C5  IND d   1      -1.733  -5.967   2.513  0.00  0.00    -0.031 A 
ATOM      6  C6  IND d   1      -1.192  -5.994   1.244  0.00  0.00     0.015 A 
ATOM      7  C7  IND d   1       0.160  -6.000   1.045  0.00  0.00    -0.016 A 
ATOM      8  C8  IND d   1       0.959  -5.960   2.179  0.00  0.00    -0.047 A 
ATOM      9  C9  IND d   1       0.416  -5.889   3.468  0.00  0.00    -0.096 A 
ATOM     10  HN1 IND d   1       2.897  -5.958   1.663  0.00  0.00     0.298 HD
ENDROOT
TORSDOF 0
ENDMDL
