MODEL 1
REMARK minimizedAffinity 2.81000423
REMARK minimizedRMSD -1
REMARK  0 active torsions:
REMARK  status: ('A' for Active; 'I' for Inactive)
ROOT
ATOM      1  N1  IND d   1       0.967  -5.945   1.450  0.00  0.00    -0.196 N 
ATOM      2  C2  IND d   1      -0.388  -5.955   1.635  0.00  0.00     0.054 A 
ATOM      3  C3  IND d   1      -0.682  -5.998   2.954  0.00  0.00    -0.031 A 
ATOM      4  C4  IND d   1       0.900  -5.955   4.985  0.00  0.00     0.051 A 
ATOM      5  C5  IND d   1       2.225  -5.984   5.319  0.00  0.00    -0.031 A 
ATOM      6  C6  IND d   1       3.218  -5.998   4.361  0.00  0.00     0.015 A 
ATOM      7  C7  IND d   1       2.922  -5.973   3.028  0.00  0.00    -0.016 A 
ATOM      8  C8  IND d   1       1.578  -5.952   2.684  0.00  0.00    -0.047 A 
ATOM      9  C9  IND d   1       0.565  -5.980   3.651  0.00  0.00    -0.096 A 
ATOM     10  HN1 IND d   1       1.369  -5.936   0.690  0.00  0.00     0.298 HD
ENDROOT
TORSDOF 0
ENDMDL
