MODEL 1
REMARK minimizedAffinity 9.94521618
REMARK minimizedRMSD -1
REMARK  0 active torsions:
REMARK  status: ('A' for Active; 'I' for Inactive)
ROOT
ATOM      1  N1  IND d   1       2.082  -5.431   4.800  0.00  0.00    -0.196 N 
ATOM      2  C2  IND d   1       1.446  -5.274   6.000  0.00  0.00     0.054 A 
ATOM      3  C3  IND d   1       0.106  -5.349   5.835  0.00  0.00    -0.031 A 
ATOM      4  C4  IND d   1      -1.255  -5.823   3.702  0.00  0.00     0.051 A 
ATOM      5  C5  IND d   1      -1.118  -5.998   2.353  0.00  0.00    -0.031 A 
ATOM      6  C6  IND d   1       0.118  -5.995   1.739  0.00  0.00     0.015 A 
ATOM      7  C7  IND d   1       1.269  -5.829   2.456  0.00  0.00    -0.016 A 
ATOM      8  C8  IND d   1       1.133  -5.644   3.825  0.00  0.00    -0.047 A 
ATOM      9  C9  IND d   1      -0.121  -5.602   4.447  0.00  0.00    -0.096 A 
ATOM     10  HN1 IND d   1       2.933  -5.401   4.676  0.00  0.00     0.298 HD
ENDROOT
TORSDOF 0
ENDMDL
