MODEL 1
REMARK minimizedAffinity 3.49273992
REMARK minimizedRMSD -1
REMARK  0 active torsions:
REMARK  status: ('A' for Active; 'I' for Inactive)
ROOT
ATOM      1  N1  IND d   1      -0.629  -5.995   3.345  0.00  0.00    -0.196 N 
ATOM      2  C2  IND d   1      -0.850  -5.972   1.996  0.00  0.00     0.054 A 
ATOM      3  C3  IND d   1       0.324  -5.931   1.328  0.00  0.00    -0.031 A 
ATOM      4  C4  IND d   1       2.730  -5.998   2.242  0.00  0.00     0.051 A 
ATOM      5  C5  IND d   1       3.439  -5.984   3.410  0.00  0.00    -0.031 A 
ATOM      6  C6  IND d   1       2.816  -5.976   4.641  0.00  0.00     0.015 A 
ATOM      7  C7  IND d   1       1.454  -5.992   4.751  0.00  0.00    -0.016 A 
ATOM      8  C8  IND d   1       0.731  -6.000   3.566  0.00  0.00    -0.047 A 
ATOM      9  C9  IND d   1       1.357  -5.965   2.314  0.00  0.00    -0.096 A 
ATOM     10  HN1 IND d   1      -1.237  -6.005   3.953  0.00  0.00     0.298 HD
ENDROOT
TORSDOF 0
ENDMDL
