MODEL 1
REMARK minimizedAffinity 9.10142326
REMARK minimizedRMSD -1
REMARK  0 active torsions:
REMARK  status: ('A' for Active; 'I' for Inactive)
ROOT
ATOM      1  N1  IND d   1      -0.808  -5.950   1.279  0.00  0.00    -0.196 N 
ATOM      2  C2  IND d   1      -2.150  -5.959   1.537  0.00  0.00     0.054 A 
ATOM      3  C3  IND d   1      -2.372  -6.000   2.870  0.00  0.00    -0.031 A 
ATOM      4  C4  IND d   1      -0.681  -5.954   4.812  0.00  0.00     0.051 A 
ATOM      5  C5  IND d   1       0.660  -5.983   5.073  0.00  0.00    -0.031 A 
ATOM      6  C6  IND d   1       1.599  -6.000   4.063  0.00  0.00     0.015 A 
ATOM      7  C7  IND d   1       1.231  -5.977   2.747  0.00  0.00    -0.016 A 
ATOM      8  C8  IND d   1      -0.130  -5.955   2.478  0.00  0.00    -0.047 A 
ATOM      9  C9  IND d   1      -1.089  -5.981   3.499  0.00  0.00    -0.096 A 
ATOM     10  HN1 IND d   1      -0.447  -5.943   0.498  0.00  0.00     0.298 HD
ENDROOT
TORSDOF 0
ENDMDL
