MODEL 1
REMARK minimizedAffinity 1.84788191
REMARK minimizedRMSD -1
REMARK  0 active torsions:
REMARK  status: ('A' for Active; 'I' for Inactive)
ROOT
ATOM      1  N1  IND d   1       0.511  -5.953   5.628  0.00  0.00    -0.196 N 
ATOM      2  C2  IND d   1       1.857  -5.962   5.863  0.00  0.00     0.054 A 
ATOM      3  C3  IND d   1       2.538  -6.000   4.696  0.00  0.00    -0.031 A 
ATOM      4  C4  IND d   1       1.648  -5.951   2.281  0.00  0.00     0.051 A 
ATOM      5  C5  IND d   1       0.487  -5.979   1.560  0.00  0.00    -0.031 A 
ATOM      6  C6  IND d   1      -0.750  -5.998   2.171  0.00  0.00     0.015 A 
ATOM      7  C7  IND d   1      -0.874  -5.977   3.531  0.00  0.00    -0.016 A 
ATOM      8  C8  IND d   1       0.303  -5.956   4.266  0.00  0.00    -0.047 A 
ATOM      9  C9  IND d   1       1.562  -5.980   3.653  0.00  0.00    -0.096 A 
ATOM     10  HN1 IND d   1      -0.104  -5.947   6.230  0.00  0.00     0.298 HD
ENDROOT
TORSDOF 0
ENDMDL
