MODEL 1
REMARK minimizedAffinity -3.9281075
REMARK minimizedRMSD -1
REMARK  2 active torsions:
REMARK  status: ('A' for Active; 'I' for Inactive)
REMARK    1  A    between atoms: C1_2  and  C2_3 
REMARK    2  A    between atoms: C2_3  and  C3_4 
ROOT
ATOM      1  C3  UNL d   1       0.229   0.061  -0.644  0.00  0.00    -0.075 A 
ATOM      2  C4  UNL d   1       0.245  -1.339  -0.730  0.00  0.00     0.002 A 
ATOM      3  C5  UNL d   1       1.081  -1.984  -1.641  0.00  0.00     0.002 A 
ATOM      4  C6  UNL d   1       1.904  -1.240  -2.483  0.00  0.00    -0.004 A 
ATOM      5  C7  UNL d   1       1.885   0.152  -2.419  0.00  0.00     0.002 A 
ATOM      6  C8  UNL d   1       1.052   0.800  -1.505  0.00  0.00     0.002 A 
ENDROOT
BRANCH   1   7
ATOM      7  C2  UNL d   1      -0.652   0.764   0.360  0.00  0.00     0.056 C 
BRANCH   7   8
ATOM      8  C1  UNL d   1      -1.256  -0.165   1.419  0.00  0.00     0.007 C 
ATOM      9  C   UNL d   1      -2.760   0.007   1.580  0.00  0.00     0.009 C 
ENDBRANCH   7   8
ENDBRANCH   1   7
TORSDOF 2
ENDMDL
