MODEL 1
REMARK minimizedAffinity -4.91508245
REMARK minimizedRMSD -1
REMARK  2 active torsions:
REMARK  status: ('A' for Active; 'I' for Inactive)
REMARK    1  A    between atoms: C1_2  and  C2_3 
REMARK    2  A    between atoms: C2_3  and  C3_4 
ROOT
ATOM      1  C3  UNL d   1       0.313   0.182  -0.120  0.00  0.00    -0.075 A 
ATOM      2  C4  UNL d   1       1.158  -0.843  -0.570  0.00  0.00     0.002 A 
ATOM      3  C5  UNL d   1       2.073  -0.608  -1.597  0.00  0.00     0.002 A 
ATOM      4  C6  UNL d   1       2.147   0.649  -2.193  0.00  0.00    -0.004 A 
ATOM      5  C7  UNL d   1       1.301   1.670  -1.766  0.00  0.00     0.002 A 
ATOM      6  C8  UNL d   1       0.388   1.439  -0.735  0.00  0.00     0.002 A 
ENDROOT
BRANCH   1   7
ATOM      7  C2  UNL d   1      -0.658  -0.058   1.011  0.00  0.00     0.056 C 
BRANCH   7   8
ATOM      8  C1  UNL d   1      -2.096   0.370   0.699  0.00  0.00     0.007 C 
ATOM      9  C   UNL d   1      -3.016   0.312   1.912  0.00  0.00     0.009 C 
ENDBRANCH   7   8
ENDBRANCH   1   7
TORSDOF 2
ENDMDL
