MODEL 1
REMARK minimizedAffinity -4.53699875
REMARK minimizedRMSD -1
REMARK  2 active torsions:
REMARK  status: ('A' for Active; 'I' for Inactive)
REMARK    1  A    between atoms: C1_2  and  C2_3 
REMARK    2  A    between atoms: C2_3  and  C3_4 
ROOT
ATOM      1  C3  UNL d   1       0.084   0.111  -0.028  0.00  0.00    -0.075 A 
ATOM      2  C4  UNL d   1       1.199   0.947   0.125  0.00  0.00     0.002 A 
ATOM      3  C5  UNL d   1       2.168   1.026  -0.875  0.00  0.00     0.002 A 
ATOM      4  C6  UNL d   1       2.040   0.263  -2.034  0.00  0.00    -0.004 A 
ATOM      5  C7  UNL d   1       0.945  -0.584  -2.190  0.00  0.00     0.002 A 
ATOM      6  C8  UNL d   1      -0.028  -0.661  -1.192  0.00  0.00     0.002 A 
ENDROOT
BRANCH   1   7
ATOM      7  C2  UNL d   1      -0.984   0.043   1.038  0.00  0.00     0.056 C 
BRANCH   7   8
ATOM      8  C1  UNL d   1      -2.415   0.075   0.491  0.00  0.00     0.007 C 
ATOM      9  C   UNL d   1      -3.473   0.161   1.583  0.00  0.00     0.009 C 
ENDBRANCH   7   8
ENDBRANCH   1   7
TORSDOF 2
ENDMDL
