MODEL 1
REMARK minimizedAffinity -3.8456881
REMARK minimizedRMSD -1
REMARK  2 active torsions:
REMARK  status: ('A' for Active; 'I' for Inactive)
REMARK    1  A    between atoms: C1_2  and  C2_3 
REMARK    2  A    between atoms: C2_3  and  C3_4 
ROOT
ATOM      1  C3  UNL d   1      -0.492   0.421   0.451  0.00  0.00    -0.075 A 
ATOM      2  C4  UNL d   1       0.098   1.497  -0.227  0.00  0.00     0.002 A 
ATOM      3  C5  UNL d   1       1.037   1.270  -1.234  0.00  0.00     0.002 A 
ATOM      4  C6  UNL d   1       1.405  -0.032  -1.567  0.00  0.00    -0.004 A 
ATOM      5  C7  UNL d   1       0.837  -1.108  -0.888  0.00  0.00     0.002 A 
ATOM      6  C8  UNL d   1      -0.106  -0.884   0.117  0.00  0.00     0.002 A 
ENDROOT
BRANCH   1   7
ATOM      7  C2  UNL d   1      -1.531   0.659   1.521  0.00  0.00     0.056 C 
BRANCH   7   8
ATOM      8  C1  UNL d   1      -1.630   2.117   1.981  0.00  0.00     0.007 C 
ATOM      9  C   UNL d   1      -2.941   2.784   1.586  0.00  0.00     0.009 C 
ENDBRANCH   7   8
ENDBRANCH   1   7
TORSDOF 2
ENDMDL
