MODEL 1
REMARK minimizedAffinity -2.64327598
REMARK minimizedRMSD -1
REMARK  2 active torsions:
REMARK  status: ('A' for Active; 'I' for Inactive)
REMARK    1  A    between atoms: C1_2  and  C2_3 
REMARK    2  A    between atoms: C2_3  and  C3_4 
ROOT
ATOM      1  C3  UNL d   1       0.642  -0.374  -1.224  0.00  0.00    -0.075 A 
ATOM      2  C4  UNL d   1       1.930  -0.037  -1.666  0.00  0.00     0.002 A 
ATOM      3  C5  UNL d   1       2.719   0.853  -0.936  0.00  0.00     0.002 A 
ATOM      4  C6  UNL d   1       2.228   1.424   0.236  0.00  0.00    -0.004 A 
ATOM      5  C7  UNL d   1       0.944   1.109   0.675  0.00  0.00     0.002 A 
ATOM      6  C8  UNL d   1       0.154   0.215  -0.051  0.00  0.00     0.002 A 
ENDROOT
BRANCH   1   7
ATOM      7  C2  UNL d   1      -0.205  -1.359  -1.994  0.00  0.00     0.056 C 
BRANCH   7   8
ATOM      8  C1  UNL d   1       0.050  -2.824  -1.623  0.00  0.00     0.007 C 
ATOM      9  C   UNL d   1       0.217  -3.044  -0.126  0.00  0.00     0.009 C 
ENDBRANCH   7   8
ENDBRANCH   1   7
TORSDOF 2
ENDMDL
