MODEL 1
REMARK minimizedAffinity -5.25718784
REMARK minimizedRMSD -1
REMARK  2 active torsions:
REMARK  status: ('A' for Active; 'I' for Inactive)
REMARK    1  A    between atoms: C1_2  and  C2_3 
REMARK    2  A    between atoms: C2_3  and  C3_4 
ROOT
ATOM      1  C3  UNL d   1       0.113  -0.089   0.256  0.00  0.00    -0.075 A 
ATOM      2  C4  UNL d   1       0.753   0.920  -0.479  0.00  0.00     0.002 A 
ATOM      3  C5  UNL d   1       1.457   0.611  -1.643  0.00  0.00     0.002 A 
ATOM      4  C6  UNL d   1       1.540  -0.709  -2.081  0.00  0.00    -0.004 A 
ATOM      5  C7  UNL d   1       0.922  -1.721  -1.350  0.00  0.00     0.002 A 
ATOM      6  C8  UNL d   1       0.213  -1.415  -0.188  0.00  0.00     0.002 A 
ENDROOT
BRANCH   1   7
ATOM      7  C2  UNL d   1      -0.675   0.242   1.500  0.00  0.00     0.056 C 
BRANCH   7   8
ATOM      8  C1  UNL d   1      -2.191   0.082   1.339  0.00  0.00     0.007 C 
ATOM      9  C   UNL d   1      -2.990   1.129   2.103  0.00  0.00     0.009 C 
ENDBRANCH   7   8
ENDBRANCH   1   7
TORSDOF 2
ENDMDL
