MODEL 1
REMARK minimizedAffinity -4.22446346
REMARK minimizedRMSD -1
REMARK  2 active torsions:
REMARK  status: ('A' for Active; 'I' for Inactive)
REMARK    1  A    between atoms: C1_2  and  C2_3 
REMARK    2  A    between atoms: C2_3  and  C3_4 
ROOT
ATOM      1  C3  UNL d   1      -0.089   0.127   0.295  0.00  0.00    -0.075 A 
ATOM      2  C4  UNL d   1       1.078   0.889   0.143  0.00  0.00     0.002 A 
ATOM      3  C5  UNL d   1       1.951   0.644  -0.918  0.00  0.00     0.002 A 
ATOM      4  C6  UNL d   1       1.674  -0.370  -1.832  0.00  0.00    -0.004 A 
ATOM      5  C7  UNL d   1       0.525  -1.144  -1.681  0.00  0.00     0.002 A 
ATOM      6  C8  UNL d   1      -0.352  -0.898  -0.624  0.00  0.00     0.002 A 
ENDROOT
BRANCH   1   7
ATOM      7  C2  UNL d   1      -1.053   0.407   1.423  0.00  0.00     0.056 C 
BRANCH   7   8
ATOM      8  C1  UNL d   1      -2.495  -0.021   1.132  0.00  0.00     0.007 C 
ATOM      9  C   UNL d   1      -3.506   0.576   2.102  0.00  0.00     0.009 C 
ENDBRANCH   7   8
ENDBRANCH   1   7
TORSDOF 2
ENDMDL
