MODEL 1
REMARK minimizedAffinity -5.83284664
REMARK minimizedRMSD -1
REMARK  2 active torsions:
REMARK  status: ('A' for Active; 'I' for Inactive)
REMARK    1  A    between atoms: C1_2  and  C2_3 
REMARK    2  A    between atoms: C2_3  and  C3_4 
ROOT
ATOM      1  C3  UNL d   1       0.334   0.188  -0.155  0.00  0.00    -0.075 A 
ATOM      2  C4  UNL d   1       0.266  -1.052  -0.806  0.00  0.00     0.002 A 
ATOM      3  C5  UNL d   1       0.902  -1.243  -2.033  0.00  0.00     0.002 A 
ATOM      4  C6  UNL d   1       1.604  -0.198  -2.628  0.00  0.00    -0.004 A 
ATOM      5  C7  UNL d   1       1.665   1.044  -1.998  0.00  0.00     0.002 A 
ATOM      6  C8  UNL d   1       1.032   1.237  -0.768  0.00  0.00     0.002 A 
ENDROOT
BRANCH   1   7
ATOM      7  C2  UNL d   1      -0.328   0.394   1.187  0.00  0.00     0.056 C 
BRANCH   7   8
ATOM      8  C1  UNL d   1      -1.813   0.018   1.214  0.00  0.00     0.007 C 
ATOM      9  C   UNL d   1      -2.578   0.674   2.356  0.00  0.00     0.009 C 
ENDBRANCH   7   8
ENDBRANCH   1   7
TORSDOF 2
ENDMDL
