MODEL 1
REMARK minimizedAffinity -5.3818121
REMARK minimizedRMSD -1
REMARK  2 active torsions:
REMARK  status: ('A' for Active; 'I' for Inactive)
REMARK    1  A    between atoms: C1_2  and  C2_3 
REMARK    2  A    between atoms: C2_3  and  C3_4 
ROOT
ATOM      1  C3  UNL d   1      -0.035   0.180   0.244  0.00  0.00    -0.075 A 
ATOM      2  C4  UNL d   1       0.766   1.323   0.106  0.00  0.00     0.002 A 
ATOM      3  C5  UNL d   1       1.504   1.535  -1.059  0.00  0.00     0.002 A 
ATOM      4  C6  UNL d   1       1.459   0.603  -2.094  0.00  0.00    -0.004 A 
ATOM      5  C7  UNL d   1       0.680  -0.544  -1.961  0.00  0.00     0.002 A 
ATOM      6  C8  UNL d   1      -0.063  -0.756  -0.799  0.00  0.00     0.002 A 
ENDROOT
BRANCH   1   7
ATOM      7  C2  UNL d   1      -0.859  -0.040   1.490  0.00  0.00     0.056 C 
BRANCH   7   8
ATOM      8  C1  UNL d   1      -2.325  -0.391   1.214  0.00  0.00     0.007 C 
ATOM      9  C   UNL d   1      -3.297   0.689   1.670  0.00  0.00     0.009 C 
ENDBRANCH   7   8
ENDBRANCH   1   7
TORSDOF 2
ENDMDL
