MODEL 1
REMARK minimizedAffinity -5.29194117
REMARK minimizedRMSD -1
REMARK  2 active torsions:
REMARK  status: ('A' for Active; 'I' for Inactive)
REMARK    1  A    between atoms: C1_2  and  C2_3 
REMARK    2  A    between atoms: C2_3  and  C3_4 
ROOT
ATOM      1  C3  UNL d   1      -0.415   0.539   0.497  0.00  0.00    -0.075 A 
ATOM      2  C4  UNL d   1       0.392   1.606   0.079  0.00  0.00     0.002 A 
ATOM      3  C5  UNL d   1       1.256   1.458  -1.007  0.00  0.00     0.002 A 
ATOM      4  C6  UNL d   1       1.331   0.241  -1.680  0.00  0.00    -0.004 A 
ATOM      5  C7  UNL d   1       0.546  -0.832  -1.262  0.00  0.00     0.002 A 
ATOM      6  C8  UNL d   1      -0.322  -0.685  -0.179  0.00  0.00     0.002 A 
ENDROOT
BRANCH   1   7
ATOM      7  C2  UNL d   1      -1.374   0.702   1.653  0.00  0.00     0.056 C 
BRANCH   7   8
ATOM      8  C1  UNL d   1      -2.830   0.378   1.305  0.00  0.00     0.007 C 
ATOM      9  C   UNL d   1      -3.782   1.539   1.567  0.00  0.00     0.009 C 
ENDBRANCH   7   8
ENDBRANCH   1   7
TORSDOF 2
ENDMDL
