MODEL 1
REMARK minimizedAffinity -5.89652443
REMARK minimizedRMSD -1
REMARK  2 active torsions:
REMARK  status: ('A' for Active; 'I' for Inactive)
REMARK    1  A    between atoms: C1_2  and  C2_3 
REMARK    2  A    between atoms: C2_3  and  C3_4 
ROOT
ATOM      1  C3  UNL d   1       0.328  -0.359  -0.340  0.00  0.00    -0.075 A 
ATOM      2  C4  UNL d   1       0.514  -1.671  -0.799  0.00  0.00     0.002 A 
ATOM      3  C5  UNL d   1       1.323  -1.926  -1.907  0.00  0.00     0.002 A 
ATOM      4  C6  UNL d   1       1.947  -0.875  -2.575  0.00  0.00    -0.004 A 
ATOM      5  C7  UNL d   1       1.755   0.434  -2.138  0.00  0.00     0.002 A 
ATOM      6  C8  UNL d   1       0.950   0.692  -1.027  0.00  0.00     0.002 A 
ENDROOT
BRANCH   1   7
ATOM      7  C2  UNL d   1      -0.522  -0.079   0.876  0.00  0.00     0.056 C 
BRANCH   7   8
ATOM      8  C1  UNL d   1      -1.965  -0.578   0.756  0.00  0.00     0.007 C 
ATOM      9  C   UNL d   1      -2.974   0.331   1.444  0.00  0.00     0.009 C 
ENDBRANCH   7   8
ENDBRANCH   1   7
TORSDOF 2
ENDMDL
