MODEL 1
REMARK minimizedAffinity -2.69283295
REMARK minimizedRMSD -1
REMARK  2 active torsions:
REMARK  status: ('A' for Active; 'I' for Inactive)
REMARK    1  A    between atoms: C1_2  and  C2_3 
REMARK    2  A    between atoms: C2_3  and  C3_4 
ROOT
ATOM      1  C3  UNL d   1      -0.052   0.984   1.296  0.00  0.00    -0.075 A 
ATOM      2  C4  UNL d   1      -0.698  -0.259   1.226  0.00  0.00     0.002 A 
ATOM      3  C5  UNL d   1      -1.986  -0.418   1.736  0.00  0.00     0.002 A 
ATOM      4  C6  UNL d   1      -2.641   0.658   2.331  0.00  0.00    -0.004 A 
ATOM      5  C7  UNL d   1      -2.003   1.894   2.421  0.00  0.00     0.002 A 
ATOM      6  C8  UNL d   1      -0.715   2.057   1.908  0.00  0.00     0.002 A 
ENDROOT
BRANCH   1   7
ATOM      7  C2  UNL d   1       1.331   1.171   0.719  0.00  0.00     0.056 C 
BRANCH   7   8
ATOM      8  C1  UNL d   1       1.473   0.689  -0.728  0.00  0.00     0.007 C 
ATOM      9  C   UNL d   1       1.482   1.826  -1.741  0.00  0.00     0.009 C 
ENDBRANCH   7   8
ENDBRANCH   1   7
TORSDOF 2
ENDMDL
