MODEL 1
REMARK minimizedAffinity -3.59821296
REMARK minimizedRMSD -1
REMARK  2 active torsions:
REMARK  status: ('A' for Active; 'I' for Inactive)
REMARK    1  A    between atoms: C1_2  and  C2_3 
REMARK    2  A    between atoms: C2_3  and  C3_4 
ROOT
ATOM      1  C3  UNL d   1       0.594  -0.563  -0.274  0.00  0.00    -0.075 A 
ATOM      2  C4  UNL d   1       1.116  -1.760  -0.786  0.00  0.00     0.002 A 
ATOM      3  C5  UNL d   1       2.132  -1.737  -1.741  0.00  0.00     0.002 A 
ATOM      4  C6  UNL d   1       2.632  -0.522  -2.203  0.00  0.00    -0.004 A 
ATOM      5  C7  UNL d   1       2.109   0.673  -1.714  0.00  0.00     0.002 A 
ATOM      6  C8  UNL d   1       1.095   0.654  -0.754  0.00  0.00     0.002 A 
ENDROOT
BRANCH   1   7
ATOM      7  C2  UNL d   1      -0.486  -0.581   0.782  0.00  0.00     0.056 C 
BRANCH   7   8
ATOM      8  C1  UNL d   1      -1.052   0.803   1.118  0.00  0.00     0.007 C 
ATOM      9  C   UNL d   1      -2.381   0.744   1.858  0.00  0.00     0.009 C 
ENDBRANCH   7   8
ENDBRANCH   1   7
TORSDOF 2
ENDMDL
