MODEL 1
REMARK minimizedAffinity -4.9246583
REMARK minimizedRMSD -1
REMARK  1 active torsions:
REMARK  status: ('A' for Active; 'I' for Inactive)
REMARK    1  A    between atoms: N_2  and  C1_3 
ROOT
ATOM      1  C1  UNL d   1       0.135  -0.260   0.693  0.00  0.00     0.143 A 
ATOM      2  C2  UNL d   1      -0.143  -0.402   2.057  0.00  0.00    -0.057 A 
ATOM      3  C3  UNL d   1       0.824  -0.879   2.950  0.00  0.00     0.033 A 
ATOM      4  C4  UNL d   1       2.083  -1.250   2.489  0.00  0.00    -0.042 A 
ATOM      5  C5  UNL d   1       2.374  -1.140   1.133  0.00  0.00     0.033 A 
ATOM      6  C6  UNL d   1       1.406  -0.658   0.248  0.00  0.00    -0.057 A 
ENDROOT
BRANCH   1   7
ATOM      7  N   UNL d   1      -0.815   0.114  -0.260  0.00  0.00    -0.732 N 
ATOM      8  C   UNL d   1      -0.404   0.671  -1.531  0.00  0.00     0.284 C 
ATOM      9  H3  UNL d   1      -1.582  -0.551  -0.326  0.00  0.00     0.395 HD
ENDBRANCH   1   7
TORSDOF 1
ENDMDL
