MODEL 1
REMARK minimizedAffinity -5.57291365
REMARK minimizedRMSD -1
REMARK  1 active torsions:
REMARK  status: ('A' for Active; 'I' for Inactive)
REMARK    1  A    between atoms: N_2  and  C1_3 
ROOT
ATOM      1  C1  UNL d   1       1.308  -0.264   0.359  0.00  0.00     0.143 A 
ATOM      2  C2  UNL d   1       1.034  -0.211   1.729  0.00  0.00    -0.057 A 
ATOM      3  C3  UNL d   1       1.600  -1.132   2.619  0.00  0.00     0.033 A 
ATOM      4  C4  UNL d   1       2.430  -2.144   2.148  0.00  0.00    -0.042 A 
ATOM      5  C5  UNL d   1       2.697  -2.230   0.786  0.00  0.00     0.033 A 
ATOM      6  C6  UNL d   1       2.135  -1.304  -0.096  0.00  0.00    -0.057 A 
ENDROOT
BRANCH   1   7
ATOM      7  N   UNL d   1       0.699   0.561  -0.589  0.00  0.00    -0.732 N 
ATOM      8  C   UNL d   1      -0.743   0.669  -0.655  0.00  0.00     0.284 C 
ATOM      9  H3  UNL d   1       1.187   1.446  -0.705  0.00  0.00     0.395 HD
ENDBRANCH   1   7
TORSDOF 1
ENDMDL
