MODEL 1
REMARK minimizedAffinity -4.8206234
REMARK minimizedRMSD -1
REMARK  1 active torsions:
REMARK  status: ('A' for Active; 'I' for Inactive)
REMARK    1  A    between atoms: N_2  and  C1_3 
ROOT
ATOM      1  C1  UNL d   1       0.716  -0.282   0.416  0.00  0.00     0.143 A 
ATOM      2  C2  UNL d   1       1.630  -1.293   0.099  0.00  0.00    -0.057 A 
ATOM      3  C3  UNL d   1       2.221  -2.076   1.098  0.00  0.00     0.033 A 
ATOM      4  C4  UNL d   1       1.929  -1.842   2.438  0.00  0.00    -0.042 A 
ATOM      5  C5  UNL d   1       1.043  -0.826   2.777  0.00  0.00     0.033 A 
ATOM      6  C6  UNL d   1       0.450  -0.052   1.775  0.00  0.00    -0.057 A 
ENDROOT
BRANCH   1   7
ATOM      7  N   UNL d   1       0.170   0.595  -0.524  0.00  0.00    -0.732 N 
ATOM      8  C   UNL d   1      -0.302   0.106  -1.802  0.00  0.00     0.284 C 
ATOM      9  H3  UNL d   1      -0.434   1.294  -0.098  0.00  0.00     0.395 HD
ENDBRANCH   1   7
TORSDOF 1
ENDMDL
