MODEL 1
REMARK minimizedAffinity -4.97330475
REMARK minimizedRMSD -1
REMARK  1 active torsions:
REMARK  status: ('A' for Active; 'I' for Inactive)
REMARK    1  A    between atoms: N_2  and  C1_3 
ROOT
ATOM      1  C1  UNL d   1       0.489  -0.542   0.237  0.00  0.00     0.143 A 
ATOM      2  C2  UNL d   1      -0.214  -0.354   1.433  0.00  0.00    -0.057 A 
ATOM      3  C3  UNL d   1       0.315  -0.774   2.659  0.00  0.00     0.033 A 
ATOM      4  C4  UNL d   1       1.546  -1.419   2.709  0.00  0.00    -0.042 A 
ATOM      5  C5  UNL d   1       2.251  -1.639   1.530  0.00  0.00     0.033 A 
ATOM      6  C6  UNL d   1       1.721  -1.211   0.309  0.00  0.00    -0.057 A 
ENDROOT
BRANCH   1   7
ATOM      7  N   UNL d   1      -0.027  -0.235  -1.024  0.00  0.00    -0.732 N 
ATOM      8  C   UNL d   1      -0.682   1.032  -1.264  0.00  0.00     0.284 C 
ATOM      9  H3  UNL d   1       0.587  -0.535  -1.778  0.00  0.00     0.395 HD
ENDBRANCH   1   7
TORSDOF 1
ENDMDL
