MODEL 1
REMARK minimizedAffinity -3.98127556
REMARK minimizedRMSD -1
REMARK  1 active torsions:
REMARK  status: ('A' for Active; 'I' for Inactive)
REMARK    1  A    between atoms: N_2  and  C1_3 
ROOT
ATOM      1  C1  UNL d   1       0.199  -1.028   0.641  0.00  0.00     0.143 A 
ATOM      2  C2  UNL d   1       0.058  -1.338   1.998  0.00  0.00    -0.057 A 
ATOM      3  C3  UNL d   1       0.951  -2.202   2.642  0.00  0.00     0.033 A 
ATOM      4  C4  UNL d   1       1.988  -2.797   1.931  0.00  0.00    -0.042 A 
ATOM      5  C5  UNL d   1       2.133  -2.524   0.576  0.00  0.00     0.033 A 
ATOM      6  C6  UNL d   1       1.242  -1.654  -0.061  0.00  0.00    -0.057 A 
ENDROOT
BRANCH   1   7
ATOM      7  N   UNL d   1      -0.713  -0.254  -0.080  0.00  0.00    -0.732 N 
ATOM      8  C   UNL d   1      -0.359   0.290  -1.373  0.00  0.00     0.284 C 
ATOM      9  H3  UNL d   1      -1.661  -0.623  -0.029  0.00  0.00     0.395 HD
ENDBRANCH   1   7
TORSDOF 1
ENDMDL
