MODEL 1
REMARK minimizedAffinity -4.06995916
REMARK minimizedRMSD -1
REMARK  1 active torsions:
REMARK  status: ('A' for Active; 'I' for Inactive)
REMARK    1  A    between atoms: N_2  and  C1_3 
ROOT
ATOM      1  C1  UNL d   1       1.169  -0.905   0.741  0.00  0.00     0.143 A 
ATOM      2  C2  UNL d   1       0.091  -0.239   0.149  0.00  0.00    -0.057 A 
ATOM      3  C3  UNL d   1      -0.974   0.246   0.918  0.00  0.00     0.033 A 
ATOM      4  C4  UNL d   1      -0.993   0.047   2.295  0.00  0.00    -0.042 A 
ATOM      5  C5  UNL d   1       0.056  -0.634   2.902  0.00  0.00     0.033 A 
ATOM      6  C6  UNL d   1       1.120  -1.110   2.129  0.00  0.00    -0.057 A 
ENDROOT
BRANCH   1   7
ATOM      7  N   UNL d   1       2.209  -1.497   0.020  0.00  0.00    -0.732 N 
ATOM      8  C   UNL d   1       2.901  -2.656   0.541  0.00  0.00     0.284 C 
ATOM      9  H3  UNL d   1       2.013  -1.542  -0.977  0.00  0.00     0.395 HD
ENDBRANCH   1   7
TORSDOF 1
ENDMDL
