MODEL 1
REMARK minimizedAffinity 2.09033799
REMARK minimizedRMSD -1
REMARK  0 active torsions:
REMARK  status: ('A' for Active; 'I' for Inactive)
ROOT
ATOM      1  C2' OXE d   1      -0.578  -1.119   2.940  0.00  0.00     0.078 C 
ATOM      2  C1' OXE d   1       1.962  -2.083   2.232  0.00  0.00     0.078 C 
ATOM      3  C1  OXE d   1       0.758  -2.774   1.642  0.00  0.00    -0.078 A 
ATOM      4  C2  OXE d   1      -0.482  -2.325   2.031  0.00  0.00    -0.078 A 
ATOM      5  C3  OXE d   1      -1.625  -2.891   1.475  0.00  0.00     0.003 A 
ATOM      6  C4  OXE d   1      -1.528  -4.013   0.642  0.00  0.00    -0.002 A 
ATOM      7  C5  OXE d   1      -0.276  -4.511   0.265  0.00  0.00    -0.002 A 
ATOM      8  C6  OXE d   1       0.874  -3.878   0.721  0.00  0.00     0.003 A 
ENDROOT
TORSDOF 0
ENDMDL
