MODEL 1
REMARK minimizedAffinity 7.88120174
REMARK minimizedRMSD -1
REMARK  0 active torsions:
REMARK  status: ('A' for Active; 'I' for Inactive)
ROOT
ATOM      1  C2' OXE d   1       0.787   2.381  -2.344  0.00  0.00     0.078 C 
ATOM      2  C1' OXE d   1       3.027   3.868  -3.149  0.00  0.00     0.078 C 
ATOM      3  C1  OXE d   1       1.707   4.169  -3.813  0.00  0.00    -0.078 A 
ATOM      4  C2  OXE d   1       0.626   3.405  -3.447  0.00  0.00    -0.078 A 
ATOM      5  C3  OXE d   1      -0.627   3.678  -3.989  0.00  0.00     0.003 A 
ATOM      6  C4  OXE d   1      -0.765   4.620  -5.015  0.00  0.00    -0.002 A 
ATOM      7  C5  OXE d   1       0.332   5.382  -5.432  0.00  0.00    -0.002 A 
ATOM      8  C6  OXE d   1       1.563   5.199  -4.812  0.00  0.00     0.003 A 
ENDROOT
TORSDOF 0
ENDMDL
