MODEL 1
REMARK minimizedAffinity -1.62286675
REMARK minimizedRMSD -1
REMARK  0 active torsions:
REMARK  status: ('A' for Active; 'I' for Inactive)
ROOT
ATOM      1  C2' OXE d   1      -1.618  -6.000  -5.431  0.00  0.00     0.078 C 
ATOM      2  C1' OXE d   1      -2.225  -4.941  -2.903  0.00  0.00     0.078 C 
ATOM      3  C1  OXE d   1      -3.369  -5.195  -3.853  0.00  0.00    -0.078 A 
ATOM      4  C2  OXE d   1      -3.058  -5.670  -5.104  0.00  0.00    -0.078 A 
ATOM      5  C3  OXE d   1      -4.080  -5.973  -6.000  0.00  0.00     0.003 A 
ATOM      6  C4  OXE d   1      -5.408  -5.656  -5.694  0.00  0.00    -0.002 A 
ATOM      7  C5  OXE d   1      -5.743  -5.135  -4.439  0.00  0.00    -0.002 A 
ATOM      8  C6  OXE d   1      -4.742  -4.939  -3.494  0.00  0.00     0.003 A 
ENDROOT
TORSDOF 0
ENDMDL
