MODEL 1
REMARK minimizedAffinity 7.82579851
REMARK minimizedRMSD -1
REMARK  0 active torsions:
REMARK  status: ('A' for Active; 'I' for Inactive)
ROOT
ATOM      1  C2' OXE d   1       1.132   3.611  -2.496  0.00  0.00     0.078 C 
ATOM      2  C1' OXE d   1       2.673   4.096  -4.792  0.00  0.00     0.078 C 
ATOM      3  C1  OXE d   1       1.209   4.457  -4.838  0.00  0.00    -0.078 A 
ATOM      4  C2  OXE d   1       0.453   4.173  -3.727  0.00  0.00    -0.078 A 
ATOM      5  C3  OXE d   1      -0.891   4.536  -3.696  0.00  0.00     0.003 A 
ATOM      6  C4  OXE d   1      -1.514   5.046  -4.842  0.00  0.00    -0.002 A 
ATOM      7  C5  OXE d   1      -0.770   5.306  -5.998  0.00  0.00    -0.002 A 
ATOM      8  C6  OXE d   1       0.598   5.057  -5.999  0.00  0.00     0.003 A 
ENDROOT
TORSDOF 0
ENDMDL
