MODEL 1
REMARK minimizedAffinity 4.5284996
REMARK minimizedRMSD -1
REMARK  0 active torsions:
REMARK  status: ('A' for Active; 'I' for Inactive)
ROOT
ATOM      1  C2' OXE d   1       1.046   3.795  -2.451  0.00  0.00     0.078 C 
ATOM      2  C1' OXE d   1       2.821   4.165  -4.594  0.00  0.00     0.078 C 
ATOM      3  C1  OXE d   1       1.424   4.716  -4.735  0.00  0.00    -0.078 A 
ATOM      4  C2  OXE d   1       0.548   4.489  -3.701  0.00  0.00    -0.078 A 
ATOM      5  C3  OXE d   1      -0.736   5.023  -3.756  0.00  0.00     0.003 A 
ATOM      6  C4  OXE d   1      -1.192   5.656  -4.919  0.00  0.00    -0.002 A 
ATOM      7  C5  OXE d   1      -0.328   5.861  -6.000  0.00  0.00    -0.002 A 
ATOM      8  C6  OXE d   1       0.993   5.436  -5.907  0.00  0.00     0.003 A 
ENDROOT
TORSDOF 0
ENDMDL
