MODEL 1
REMARK minimizedAffinity -0.0151025336
REMARK minimizedRMSD -1
REMARK  0 active torsions:
REMARK  status: ('A' for Active; 'I' for Inactive)
ROOT
ATOM      1  C2' OXE d   1      -5.996  -0.500  -1.242  0.00  0.00     0.078 C 
ATOM      2  C1' OXE d   1      -5.976   2.304  -1.385  0.00  0.00     0.078 C 
ATOM      3  C1  OXE d   1      -5.980   1.533  -2.682  0.00  0.00    -0.078 A 
ATOM      4  C2  OXE d   1      -5.942   0.162  -2.602  0.00  0.00    -0.078 A 
ATOM      5  C3  OXE d   1      -6.000  -0.598  -3.767  0.00  0.00     0.003 A 
ATOM      6  C4  OXE d   1      -5.940   0.022  -5.021  0.00  0.00    -0.002 A 
ATOM      7  C5  OXE d   1      -5.937   1.417  -5.124  0.00  0.00    -0.002 A 
ATOM      8  C6  OXE d   1      -6.000   2.186  -3.967  0.00  0.00     0.003 A 
ENDROOT
TORSDOF 0
ENDMDL
