MODEL 1
REMARK minimizedAffinity 5.92539454
REMARK minimizedRMSD -1
REMARK  0 active torsions:
REMARK  status: ('A' for Active; 'I' for Inactive)
ROOT
ATOM      1  C2' OXE d   1       3.199   4.102  -4.129  0.00  0.00     0.078 C 
ATOM      2  C1' OXE d   1       1.144   2.560  -2.996  0.00  0.00     0.078 C 
ATOM      3  C1  OXE d   1       0.768   3.560  -4.061  0.00  0.00    -0.078 A 
ATOM      4  C2  OXE d   1       1.773   4.343  -4.576  0.00  0.00    -0.078 A 
ATOM      5  C3  OXE d   1       1.490   5.244  -5.599  0.00  0.00     0.003 A 
ATOM      6  C4  OXE d   1       0.167   5.468  -6.000  0.00  0.00    -0.002 A 
ATOM      7  C5  OXE d   1      -0.877   4.709  -5.460  0.00  0.00    -0.002 A 
ATOM      8  C6  OXE d   1      -0.589   3.724  -4.522  0.00  0.00     0.003 A 
ENDROOT
TORSDOF 0
ENDMDL
