MODEL 1
REMARK minimizedAffinity 7.37532187
REMARK minimizedRMSD -1
REMARK  0 active torsions:
REMARK  status: ('A' for Active; 'I' for Inactive)
ROOT
ATOM      1  C2' OXE d   1      -2.707  -4.534  -2.136  0.00  0.00     0.078 C 
ATOM      2  C1' OXE d   1      -4.563  -5.508  -4.003  0.00  0.00     0.078 C 
ATOM      3  C1  OXE d   1      -3.107  -5.503  -4.396  0.00  0.00    -0.078 A 
ATOM      4  C2  OXE d   1      -2.211  -4.981  -3.494  0.00  0.00    -0.078 A 
ATOM      5  C3  OXE d   1      -0.850  -5.002  -3.784  0.00  0.00     0.003 A 
ATOM      6  C4  OXE d   1      -0.400  -5.408  -5.047  0.00  0.00    -0.002 A 
ATOM      7  C5  OXE d   1      -1.300  -5.906  -5.995  0.00  0.00    -0.002 A 
ATOM      8  C6  OXE d   1      -2.649  -6.000  -5.670  0.00  0.00     0.003 A 
ENDROOT
TORSDOF 0
ENDMDL
