MODEL 1
REMARK minimizedAffinity 6.64422655
REMARK minimizedRMSD -1
REMARK  0 active torsions:
REMARK  status: ('A' for Active; 'I' for Inactive)
ROOT
ATOM      1  C2' OXE d   1      -5.902   2.642  -2.268  0.00  0.00     0.078 C 
ATOM      2  C1' OXE d   1      -5.903  -0.163  -2.160  0.00  0.00     0.078 C 
ATOM      3  C1  OXE d   1      -5.920   0.489  -3.520  0.00  0.00    -0.078 A 
ATOM      4  C2  OXE d   1      -5.967   1.861  -3.563  0.00  0.00    -0.078 A 
ATOM      5  C3  OXE d   1      -5.929   2.514  -4.792  0.00  0.00     0.003 A 
ATOM      6  C4  OXE d   1      -5.999   1.785  -5.985  0.00  0.00    -0.002 A 
ATOM      7  C5  OXE d   1      -5.992   0.386  -5.963  0.00  0.00    -0.002 A 
ATOM      8  C6  OXE d   1      -5.910  -0.276  -4.742  0.00  0.00     0.003 A 
ENDROOT
TORSDOF 0
ENDMDL
