MODEL 1
REMARK minimizedAffinity 5.39916229
REMARK minimizedRMSD -1
REMARK  0 active torsions:
REMARK  status: ('A' for Active; 'I' for Inactive)
ROOT
ATOM      1  C2' OXE d   1       0.376   2.799  -3.054  0.00  0.00     0.078 C 
ATOM      2  C1' OXE d   1       2.296   4.846  -3.021  0.00  0.00     0.078 C 
ATOM      3  C1  OXE d   1       1.212   4.915  -4.067  0.00  0.00    -0.078 A 
ATOM      4  C2  OXE d   1       0.304   3.885  -4.106  0.00  0.00    -0.078 A 
ATOM      5  C3  OXE d   1      -0.748   3.927  -5.016  0.00  0.00     0.003 A 
ATOM      6  C4  OXE d   1      -0.802   4.929  -5.992  0.00  0.00    -0.002 A 
ATOM      7  C5  OXE d   1       0.136   5.967  -5.995  0.00  0.00    -0.002 A 
ATOM      8  C6  OXE d   1       1.122   5.998  -5.015  0.00  0.00     0.003 A 
ENDROOT
TORSDOF 0
ENDMDL
