MODEL 1
REMARK minimizedAffinity 3.65874219
REMARK minimizedRMSD -1
REMARK  0 active torsions:
REMARK  status: ('A' for Active; 'I' for Inactive)
ROOT
ATOM      1  C2' OXE d   1       0.742   2.486  -2.057  0.00  0.00     0.078 C 
ATOM      2  C1' OXE d   1       2.639   4.454  -2.700  0.00  0.00     0.078 C 
ATOM      3  C1  OXE d   1       1.364   4.415  -3.506  0.00  0.00    -0.078 A 
ATOM      4  C2  OXE d   1       0.463   3.419  -3.216  0.00  0.00    -0.078 A 
ATOM      5  C3  OXE d   1      -0.753   3.371  -3.892  0.00  0.00     0.003 A 
ATOM      6  C4  OXE d   1      -0.999   4.231  -4.969  0.00  0.00    -0.002 A 
ATOM      7  C5  OXE d   1      -0.077   5.227  -5.308  0.00  0.00    -0.002 A 
ATOM      8  C6  OXE d   1       1.088   5.359  -4.561  0.00  0.00     0.003 A 
ENDROOT
TORSDOF 0
ENDMDL
