MODEL 1
REMARK minimizedAffinity 6.32718229
REMARK minimizedRMSD -1
REMARK  0 active torsions:
REMARK  status: ('A' for Active; 'I' for Inactive)
ROOT
ATOM      1  C2' OXE d   1       1.597   3.523   1.144  0.00  0.00     0.078 C 
ATOM      2  C1' OXE d   1       1.514   0.749   0.722  0.00  0.00     0.078 C 
ATOM      3  C1  OXE d   1       1.498   1.646  -0.491  0.00  0.00    -0.078 A 
ATOM      4  C2  OXE d   1       1.492   3.003  -0.273  0.00  0.00    -0.078 A 
ATOM      5  C3  OXE d   1       1.533   3.875  -1.357  0.00  0.00     0.003 A 
ATOM      6  C4  OXE d   1       1.425   3.386  -2.665  0.00  0.00    -0.002 A 
ATOM      7  C5  OXE d   1       1.390   2.009  -2.907  0.00  0.00    -0.002 A 
ATOM      8  C6  OXE d   1       1.469   1.126  -1.835  0.00  0.00     0.003 A 
ENDROOT
TORSDOF 0
ENDMDL
