MODEL 1
REMARK minimizedAffinity 2.34403515
REMARK minimizedRMSD -1
REMARK  0 active torsions:
REMARK  status: ('A' for Active; 'I' for Inactive)
ROOT
ATOM      1  C2' OXE d   1       0.756   2.727  -2.871  0.00  0.00     0.078 C 
ATOM      2  C1' OXE d   1       3.030   4.105  -3.771  0.00  0.00     0.078 C 
ATOM      3  C1  OXE d   1       1.698   4.473  -4.376  0.00  0.00    -0.078 A 
ATOM      4  C2  OXE d   1       0.598   3.762  -3.964  0.00  0.00    -0.078 A 
ATOM      5  C3  OXE d   1      -0.663   4.098  -4.450  0.00  0.00     0.003 A 
ATOM      6  C4  OXE d   1      -0.799   5.050  -5.468  0.00  0.00    -0.002 A 
ATOM      7  C5  OXE d   1       0.315   5.758  -5.931  0.00  0.00    -0.002 A 
ATOM      8  C6  OXE d   1       1.562   5.513  -5.367  0.00  0.00     0.003 A 
ENDROOT
TORSDOF 0
ENDMDL
