MODEL 1
REMARK minimizedAffinity 4.28238583
REMARK minimizedRMSD -1
REMARK  0 active torsions:
REMARK  status: ('A' for Active; 'I' for Inactive)
ROOT
ATOM      1  C2' OXE d   1       1.109   3.337  -2.861  0.00  0.00     0.078 C 
ATOM      2  C1' OXE d   1       2.914   4.182  -4.839  0.00  0.00     0.078 C 
ATOM      3  C1  OXE d   1       1.496   4.691  -4.916  0.00  0.00    -0.078 A 
ATOM      4  C2  OXE d   1       0.608   4.236  -3.972  0.00  0.00    -0.078 A 
ATOM      5  C3  OXE d   1      -0.698   4.717  -3.965  0.00  0.00     0.003 A 
ATOM      6  C4  OXE d   1      -1.156   5.540  -5.001  0.00  0.00    -0.002 A 
ATOM      7  C5  OXE d   1      -0.278   5.984  -5.995  0.00  0.00    -0.002 A 
ATOM      8  C6  OXE d   1       1.059   5.604  -5.944  0.00  0.00     0.003 A 
ENDROOT
TORSDOF 0
ENDMDL
