MODEL 1
REMARK minimizedAffinity 6.93768883
REMARK minimizedRMSD -1
REMARK  0 active torsions:
REMARK  status: ('A' for Active; 'I' for Inactive)
ROOT
ATOM      1  C2' OXE d   1       0.769   3.406  -2.657  0.00  0.00     0.078 C 
ATOM      2  C1' OXE d   1       2.815   4.253  -4.383  0.00  0.00     0.078 C 
ATOM      3  C1  OXE d   1       1.414   4.735  -4.663  0.00  0.00    -0.078 A 
ATOM      4  C2  OXE d   1       0.412   4.278  -3.841  0.00  0.00    -0.078 A 
ATOM      5  C3  OXE d   1      -0.891   4.735  -4.022  0.00  0.00     0.003 A 
ATOM      6  C4  OXE d   1      -1.215   5.534  -5.126  0.00  0.00    -0.002 A 
ATOM      7  C5  OXE d   1      -0.215   5.978  -5.998  0.00  0.00    -0.002 A 
ATOM      8  C6  OXE d   1       1.107   5.624  -5.757  0.00  0.00     0.003 A 
ENDROOT
TORSDOF 0
ENDMDL
