MODEL 1
REMARK minimizedAffinity 6.8516016
REMARK minimizedRMSD -1
REMARK  0 active torsions:
REMARK  status: ('A' for Active; 'I' for Inactive)
ROOT
ATOM      1  C2' OXE d   1      -1.588  -5.817  -5.986  0.00  0.00     0.078 C 
ATOM      2  C1' OXE d   1      -1.697  -4.911  -3.331  0.00  0.00     0.078 C 
ATOM      3  C1  OXE d   1      -3.000  -5.236  -4.018  0.00  0.00    -0.078 A 
ATOM      4  C2  OXE d   1      -2.940  -5.634  -5.332  0.00  0.00    -0.078 A 
ATOM      5  C3  OXE d   1      -4.108  -5.998  -5.996  0.00  0.00     0.003 A 
ATOM      6  C4  OXE d   1      -5.356  -5.817  -5.387  0.00  0.00    -0.002 A 
ATOM      7  C5  OXE d   1      -5.442  -5.375  -4.062  0.00  0.00    -0.002 A 
ATOM      8  C6  OXE d   1      -4.274  -5.121  -3.351  0.00  0.00     0.003 A 
ENDROOT
TORSDOF 0
ENDMDL
