MODEL 1
REMARK minimizedAffinity 9.51032162
REMARK minimizedRMSD -1
REMARK  0 active torsions:
REMARK  status: ('A' for Active; 'I' for Inactive)
ROOT
ATOM      1  C2' OXE d   1       3.057   3.902  -4.596  0.00  0.00     0.078 C 
ATOM      2  C1' OXE d   1       1.510   4.097  -2.262  0.00  0.00     0.078 C 
ATOM      3  C1  OXE d   1       0.885   4.544  -3.560  0.00  0.00    -0.078 A 
ATOM      4  C2  OXE d   1       1.665   4.488  -4.690  0.00  0.00    -0.078 A 
ATOM      5  C3  OXE d   1       1.119   4.837  -5.922  0.00  0.00     0.003 A 
ATOM      6  C4  OXE d   1      -0.165   5.387  -5.998  0.00  0.00    -0.002 A 
ATOM      7  C5  OXE d   1      -0.963   5.490  -4.854  0.00  0.00    -0.002 A 
ATOM      8  C6  OXE d   1      -0.469   5.034  -3.636  0.00  0.00     0.003 A 
ENDROOT
TORSDOF 0
ENDMDL
