MODEL 1
REMARK minimizedAffinity 4.91527414
REMARK minimizedRMSD -1
REMARK  0 active torsions:
REMARK  status: ('A' for Active; 'I' for Inactive)
ROOT
ATOM      1  C2' OXE d   1       0.755   3.010  -2.523  0.00  0.00     0.078 C 
ATOM      2  C1' OXE d   1       2.872   4.790  -3.001  0.00  0.00     0.078 C 
ATOM      3  C1  OXE d   1       1.629   4.934  -3.842  0.00  0.00    -0.078 A 
ATOM      4  C2  OXE d   1       0.616   4.030  -3.633  0.00  0.00    -0.078 A 
ATOM      5  C3  OXE d   1      -0.575   4.152  -4.344  0.00  0.00     0.003 A 
ATOM      6  C4  OXE d   1      -0.691   5.091  -5.376  0.00  0.00    -0.002 A 
ATOM      7  C5  OXE d   1       0.344   5.997  -5.632  0.00  0.00    -0.002 A 
ATOM      8  C6  OXE d   1       1.491   5.959  -4.847  0.00  0.00     0.003 A 
ENDROOT
TORSDOF 0
ENDMDL
