MODEL 1
REMARK minimizedAffinity 7.56302547
REMARK minimizedRMSD -1
REMARK  0 active torsions:
REMARK  status: ('A' for Active; 'I' for Inactive)
ROOT
ATOM      1  C2' OXE d   1      -0.369   3.129  -2.628  0.00  0.00     0.078 C 
ATOM      2  C1' OXE d   1       2.214   4.013  -3.284  0.00  0.00     0.078 C 
ATOM      3  C1  OXE d   1       1.065   4.510  -4.126  0.00  0.00    -0.078 A 
ATOM      4  C2  OXE d   1      -0.189   4.036  -3.827  0.00  0.00    -0.078 A 
ATOM      5  C3  OXE d   1      -1.291   4.505  -4.537  0.00  0.00     0.003 A 
ATOM      6  C4  OXE d   1      -1.115   5.335  -5.650  0.00  0.00    -0.002 A 
ATOM      7  C5  OXE d   1       0.158   5.798  -5.997  0.00  0.00    -0.002 A 
ATOM      8  C6  OXE d   1       1.252   5.430  -5.221  0.00  0.00     0.003 A 
ENDROOT
TORSDOF 0
ENDMDL
