MODEL 1
REMARK minimizedAffinity 11.599597
REMARK minimizedRMSD -1
REMARK  1 active torsions:
REMARK  status: ('A' for Active; 'I' for Inactive)
REMARK    1  A    between atoms: C1_2  and  C2_3 
ROOT
ATOM      1  C2  UNL d   1      -0.665  -0.038  -1.780  0.00  0.00    -0.076 A 
ATOM      2  C3  UNL d   1      -1.215  -1.183  -2.382  0.00  0.00     0.004 A 
ATOM      3  C4  UNL d   1      -2.532  -1.191  -2.840  0.00  0.00    -0.003 A 
ATOM      4  C5  UNL d   1      -3.319  -0.053  -2.704  0.00  0.00     0.000 A 
ATOM      5  C6  UNL d   1      -2.784   1.098  -2.125  0.00  0.00     0.000 A 
ATOM      6  C7  UNL d   1      -1.454   1.127  -1.673  0.00  0.00    -0.073 A 
ATOM      7  C8  UNL d   1      -0.931   2.393  -1.051  0.00  0.00     0.078 C 
ENDROOT
BRANCH   1   8
ATOM      8  C1  UNL d   1       0.760  -0.098  -1.278  0.00  0.00     0.053 C 
ATOM      9  C   UNL d   1       0.843  -0.460   0.197  0.00  0.00     0.018 C 
ENDBRANCH   1   8
TORSDOF 1
ENDMDL
