MODEL 1
REMARK minimizedAffinity 7.64780569
REMARK minimizedRMSD -1
REMARK  1 active torsions:
REMARK  status: ('A' for Active; 'I' for Inactive)
REMARK    1  A    between atoms: C1_2  and  C2_3 
ROOT
ATOM      1  C2  UNL d   1       0.069   0.485  -0.108  0.00  0.00    -0.076 A 
ATOM      2  C3  UNL d   1      -0.676   1.063   0.935  0.00  0.00     0.004 A 
ATOM      3  C4  UNL d   1      -0.363   0.807   2.268  0.00  0.00    -0.003 A 
ATOM      4  C5  UNL d   1       0.702  -0.032   2.582  0.00  0.00     0.000 A 
ATOM      5  C6  UNL d   1       1.463  -0.600   1.560  0.00  0.00     0.000 A 
ATOM      6  C7  UNL d   1       1.170  -0.339   0.211  0.00  0.00    -0.073 A 
ATOM      7  C8  UNL d   1       2.020  -0.983  -0.850  0.00  0.00     0.078 C 
ENDROOT
BRANCH   1   8
ATOM      8  C1  UNL d   1      -0.334   0.778  -1.535  0.00  0.00     0.053 C 
ATOM      9  C   UNL d   1      -1.698   1.444  -1.630  0.00  0.00     0.018 C 
ENDBRANCH   1   8
TORSDOF 1
ENDMDL
