MODEL 1
REMARK minimizedAffinity 4.5936203
REMARK minimizedRMSD -1
REMARK  1 active torsions:
REMARK  status: ('A' for Active; 'I' for Inactive)
REMARK    1  A    between atoms: C1_2  and  C2_3 
ROOT
ATOM      1  C2  UNL d   1       0.861  -0.485  -0.008  0.00  0.00    -0.076 A 
ATOM      2  C3  UNL d   1       0.374   0.179  -1.147  0.00  0.00     0.004 A 
ATOM      3  C4  UNL d   1      -0.201   1.445  -1.048  0.00  0.00    -0.003 A 
ATOM      4  C5  UNL d   1      -0.297   2.068   0.192  0.00  0.00     0.000 A 
ATOM      5  C6  UNL d   1       0.197   1.431   1.330  0.00  0.00     0.000 A 
ATOM      6  C7  UNL d   1       0.794   0.161   1.245  0.00  0.00    -0.073 A 
ATOM      7  C8  UNL d   1       1.304  -0.482   2.505  0.00  0.00     0.078 C 
ENDROOT
BRANCH   1   8
ATOM      8  C1  UNL d   1       1.449  -1.868  -0.172  0.00  0.00     0.053 C 
ATOM      9  C   UNL d   1       0.393  -2.962  -0.110  0.00  0.00     0.018 C 
ENDBRANCH   1   8
TORSDOF 1
ENDMDL
