MODEL 1
REMARK minimizedAffinity -1.48459756
REMARK minimizedRMSD -1
REMARK  1 active torsions:
REMARK  status: ('A' for Active; 'I' for Inactive)
REMARK    1  A    between atoms: C1_2  and  C2_3 
ROOT
ATOM      1  C2  UNL d   1      -0.107   1.655   0.794  0.00  0.00    -0.076 A 
ATOM      2  C3  UNL d   1      -0.284   1.517  -0.594  0.00  0.00     0.004 A 
ATOM      3  C4  UNL d   1      -0.220   2.624  -1.438  0.00  0.00    -0.003 A 
ATOM      4  C5  UNL d   1       0.022   3.887  -0.909  0.00  0.00     0.000 A 
ATOM      5  C6  UNL d   1       0.218   4.039   0.464  0.00  0.00     0.000 A 
ATOM      6  C7  UNL d   1       0.173   2.931   1.327  0.00  0.00    -0.073 A 
ATOM      7  C8  UNL d   1       0.385   3.154   2.800  0.00  0.00     0.078 C 
ENDROOT
BRANCH   1   8
ATOM      8  C1  UNL d   1      -0.215   0.422   1.664  0.00  0.00     0.053 C 
ATOM      9  C   UNL d   1       0.934  -0.549   1.441  0.00  0.00     0.018 C 
ENDBRANCH   1   8
TORSDOF 1
ENDMDL
