MODEL 1
REMARK minimizedAffinity -2.65931273
REMARK minimizedRMSD -1
REMARK  0 active torsions:
REMARK  status: ('A' for Active; 'I' for Inactive)
ROOT
ATOM      1  C   UNL d   1      -1.625   0.781   2.611  0.00  0.00     0.020 A 
ATOM      2  C1  UNL d   1      -2.231   1.078   1.391  0.00  0.00     0.020 A 
ATOM      3  C2  UNL d   1      -1.557   0.817   0.195  0.00  0.00     0.034 A 
ATOM      4  C3  UNL d   1      -0.274   0.259   0.218  0.00  0.00     0.017 A 
ATOM      5  C4  UNL d   1       0.333  -0.039   1.443  0.00  0.00     0.017 A 
ATOM      6  C5  UNL d   1      -0.346   0.224   2.637  0.00  0.00     0.034 A 
ATOM      7 Cl   UNL d   1       1.914  -0.729   1.551  0.00  0.00    -0.070 Cl
ATOM      8 Cl1  UNL d   1       0.500  -0.037  -1.299  0.00  0.00    -0.070 Cl
ENDROOT
TORSDOF 0
ENDMDL
