MODEL 1
REMARK minimizedAffinity -3.36628509
REMARK minimizedRMSD -1
REMARK  0 active torsions:
REMARK  status: ('A' for Active; 'I' for Inactive)
ROOT
ATOM      1  C   UNL d   1      -1.772   0.599  -0.382  0.00  0.00     0.020 A 
ATOM      2  C1  UNL d   1      -0.649   0.118  -1.055  0.00  0.00     0.020 A 
ATOM      3  C2  UNL d   1       0.505  -0.212  -0.340  0.00  0.00     0.034 A 
ATOM      4  C3  UNL d   1       0.538  -0.062   1.051  0.00  0.00     0.017 A 
ATOM      5  C4  UNL d   1      -0.589   0.420   1.725  0.00  0.00     0.017 A 
ATOM      6  C5  UNL d   1      -1.742   0.749   1.005  0.00  0.00     0.034 A 
ATOM      7 Cl   UNL d   1      -0.624   0.632   3.440  0.00  0.00    -0.070 Cl
ATOM      8 Cl1  UNL d   1       1.998  -0.490   1.870  0.00  0.00    -0.070 Cl
ENDROOT
TORSDOF 0
ENDMDL
