MODEL 1
REMARK minimizedAffinity -3.80035496
REMARK minimizedRMSD -1
REMARK  0 active torsions:
REMARK  status: ('A' for Active; 'I' for Inactive)
ROOT
ATOM      1  C   UNL d   1      -0.753   0.367   2.702  0.00  0.00     0.020 A 
ATOM      2  C1  UNL d   1      -1.450   1.022   1.687  0.00  0.00     0.020 A 
ATOM      3  C2  UNL d   1      -1.090   0.824   0.353  0.00  0.00     0.034 A 
ATOM      4  C3  UNL d   1      -0.029  -0.031   0.029  0.00  0.00     0.017 A 
ATOM      5  C4  UNL d   1       0.669  -0.687   1.049  0.00  0.00     0.017 A 
ATOM      6  C5  UNL d   1       0.304  -0.486   2.384  0.00  0.00     0.034 A 
ATOM      7 Cl   UNL d   1       1.989  -1.757   0.728  0.00  0.00    -0.070 Cl
ATOM      8 Cl1  UNL d   1       0.362  -0.229  -1.642  0.00  0.00    -0.070 Cl
ENDROOT
TORSDOF 0
ENDMDL
