MODEL 1
REMARK minimizedAffinity -3.38966465
REMARK minimizedRMSD -1
REMARK  0 active torsions:
REMARK  status: ('A' for Active; 'I' for Inactive)
ROOT
ATOM      1  C   UNL d   1      -1.413   0.480   0.057  0.00  0.00     0.020 A 
ATOM      2  C1  UNL d   1      -1.294   1.696  -0.614  0.00  0.00     0.020 A 
ATOM      3  C2  UNL d   1      -0.398   1.823  -1.677  0.00  0.00     0.034 A 
ATOM      4  C3  UNL d   1       0.383   0.731  -2.074  0.00  0.00     0.017 A 
ATOM      5  C4  UNL d   1       0.262  -0.490  -1.400  0.00  0.00     0.017 A 
ATOM      6  C5  UNL d   1      -0.637  -0.611  -0.336  0.00  0.00     0.034 A 
ATOM      7 Cl   UNL d   1       1.191  -1.882  -1.832  0.00  0.00    -0.070 Cl
ATOM      8 Cl1  UNL d   1       1.470   0.958  -3.397  0.00  0.00    -0.070 Cl
ENDROOT
TORSDOF 0
ENDMDL
