MODEL 1
REMARK minimizedAffinity -0.898317575
REMARK minimizedRMSD -1
REMARK  0 active torsions:
REMARK  status: ('A' for Active; 'I' for Inactive)
ROOT
ATOM      1  C   UNL d   1      -1.418   0.054  -0.318  0.00  0.00     0.020 A 
ATOM      2  C1  UNL d   1      -1.868   0.376   0.962  0.00  0.00     0.020 A 
ATOM      3  C2  UNL d   1      -1.058   0.124   2.071  0.00  0.00     0.034 A 
ATOM      4  C3  UNL d   1       0.207  -0.452   1.902  0.00  0.00     0.017 A 
ATOM      5  C4  UNL d   1       0.658  -0.774   0.616  0.00  0.00     0.017 A 
ATOM      6  C5  UNL d   1      -0.158  -0.520  -0.490  0.00  0.00     0.034 A 
ATOM      7 Cl   UNL d   1       2.206  -1.486   0.329  0.00  0.00    -0.070 Cl
ATOM      8 Cl1  UNL d   1       1.157  -0.735   3.317  0.00  0.00    -0.070 Cl
ENDROOT
TORSDOF 0
ENDMDL
