MODEL 1
REMARK minimizedAffinity 3.57305121
REMARK minimizedRMSD -1
REMARK  0 active torsions:
REMARK  status: ('A' for Active; 'I' for Inactive)
ROOT
ATOM      1  C   UNL d   1       0.259  -0.536  -0.229  0.00  0.00     0.020 A 
ATOM      2  C1  UNL d   1      -0.364  -0.905  -1.420  0.00  0.00     0.020 A 
ATOM      3  C2  UNL d   1      -1.740  -0.728  -1.572  0.00  0.00     0.034 A 
ATOM      4  C3  UNL d   1      -2.499  -0.181  -0.532  0.00  0.00     0.017 A 
ATOM      5  C4  UNL d   1      -1.873   0.190   0.664  0.00  0.00     0.017 A 
ATOM      6  C5  UNL d   1      -0.494   0.011   0.811  0.00  0.00     0.034 A 
ATOM      7 Cl   UNL d   1      -2.743   0.873   1.992  0.00  0.00    -0.070 Cl
ATOM      8 Cl1  UNL d   1      -4.197   0.010  -0.789  0.00  0.00    -0.070 Cl
ENDROOT
TORSDOF 0
ENDMDL
