MODEL 1
REMARK minimizedAffinity -0.341537267
REMARK minimizedRMSD -1
REMARK  0 active torsions:
REMARK  status: ('A' for Active; 'I' for Inactive)
ROOT
ATOM      1  C   UNL d   1       1.898   0.645  -3.591  0.00  0.00     0.020 A 
ATOM      2  C1  UNL d   1       0.692   0.154  -4.089  0.00  0.00     0.020 A 
ATOM      3  C2  UNL d   1      -0.255  -0.386  -3.216  0.00  0.00     0.034 A 
ATOM      4  C3  UNL d   1       0.002  -0.436  -1.841  0.00  0.00     0.017 A 
ATOM      5  C4  UNL d   1       1.213   0.058  -1.343  0.00  0.00     0.017 A 
ATOM      6  C5  UNL d   1       2.158   0.598  -2.221  0.00  0.00     0.034 A 
ATOM      7 Cl   UNL d   1       1.602   0.031   0.341  0.00  0.00    -0.070 Cl
ATOM      8 Cl1  UNL d   1      -1.214  -1.117  -0.820  0.00  0.00    -0.070 Cl
ENDROOT
TORSDOF 0
ENDMDL
