MODEL 1
REMARK minimizedAffinity -3.95504713
REMARK minimizedRMSD -1
REMARK  0 active torsions:
REMARK  status: ('A' for Active; 'I' for Inactive)
ROOT
ATOM      1  C   UNL d   1      -1.123   0.085  -0.245  0.00  0.00     0.020 A 
ATOM      2  C1  UNL d   1      -1.792   0.516   0.899  0.00  0.00     0.020 A 
ATOM      3  C2  UNL d   1      -1.224   0.313   2.158  0.00  0.00     0.034 A 
ATOM      4  C3  UNL d   1       0.018  -0.322   2.276  0.00  0.00     0.017 A 
ATOM      5  C4  UNL d   1       0.689  -0.754   1.127  0.00  0.00     0.017 A 
ATOM      6  C5  UNL d   1       0.115  -0.548  -0.132  0.00  0.00     0.034 A 
ATOM      7 Cl   UNL d   1       2.224  -1.545   1.192  0.00  0.00    -0.070 Cl
ATOM      8 Cl1  UNL d   1       0.662  -0.540   3.865  0.00  0.00    -0.070 Cl
ENDROOT
TORSDOF 0
ENDMDL
