MODEL 1
REMARK minimizedAffinity -3.10173154
REMARK minimizedRMSD -1
REMARK  0 active torsions:
REMARK  status: ('A' for Active; 'I' for Inactive)
ROOT
ATOM      1  C   UNL d   1      -0.971   1.076   3.005  0.00  0.00     0.020 A 
ATOM      2  C1  UNL d   1       0.338   1.415   2.663  0.00  0.00     0.020 A 
ATOM      3  C2  UNL d   1       0.776   1.268   1.345  0.00  0.00     0.034 A 
ATOM      4  C3  UNL d   1      -0.095   0.781   0.364  0.00  0.00     0.017 A 
ATOM      5  C4  UNL d   1      -1.409   0.441   0.708  0.00  0.00     0.017 A 
ATOM      6  C5  UNL d   1      -1.842   0.590   2.029  0.00  0.00     0.034 A 
ATOM      7 Cl   UNL d   1      -2.542  -0.167  -0.447  0.00  0.00    -0.070 Cl
ATOM      8 Cl1  UNL d   1       0.513   0.625  -1.245  0.00  0.00    -0.070 Cl
ENDROOT
TORSDOF 0
ENDMDL
