MODEL 1
REMARK minimizedAffinity -4.61372852
REMARK minimizedRMSD -1
REMARK  0 active torsions:
REMARK  status: ('A' for Active; 'I' for Inactive)
ROOT
ATOM      1  C   UNL d   1      -0.899   0.742   2.406  0.00  0.00     0.020 A 
ATOM      2  C1  UNL d   1      -1.507   1.405   1.341  0.00  0.00     0.020 A 
ATOM      3  C2  UNL d   1      -1.072   1.173   0.034  0.00  0.00     0.034 A 
ATOM      4  C3  UNL d   1      -0.027   0.274  -0.211  0.00  0.00     0.017 A 
ATOM      5  C4  UNL d   1       0.582  -0.392   0.859  0.00  0.00     0.017 A 
ATOM      6  C5  UNL d   1       0.142  -0.155   2.166  0.00  0.00     0.034 A 
ATOM      7 Cl   UNL d   1       1.876  -1.515   0.636  0.00  0.00    -0.070 Cl
ATOM      8 Cl1  UNL d   1       0.459   0.034  -1.851  0.00  0.00    -0.070 Cl
ENDROOT
TORSDOF 0
ENDMDL
