MODEL 1
REMARK minimizedAffinity -1.37969589
REMARK minimizedRMSD -1
REMARK  0 active torsions:
REMARK  status: ('A' for Active; 'I' for Inactive)
ROOT
ATOM      1  C   UNL d   1      -1.467  -3.137  -4.967  0.00  0.00     0.020 A 
ATOM      2  C1  UNL d   1      -1.088  -2.280  -6.000  0.00  0.00     0.020 A 
ATOM      3  C2  UNL d   1      -0.316  -1.150  -5.722  0.00  0.00     0.034 A 
ATOM      4  C3  UNL d   1       0.079  -0.873  -4.408  0.00  0.00     0.017 A 
ATOM      5  C4  UNL d   1      -0.303  -1.733  -3.372  0.00  0.00     0.017 A 
ATOM      6  C5  UNL d   1      -1.075  -2.864  -3.656  0.00  0.00     0.034 A 
ATOM      7 Cl   UNL d   1       0.146  -1.457  -1.726  0.00  0.00    -0.070 Cl
ATOM      8 Cl1  UNL d   1       1.032   0.542  -4.137  0.00  0.00    -0.070 Cl
ENDROOT
TORSDOF 0
ENDMDL
