MODEL 1
REMARK minimizedAffinity 5.58896542
REMARK minimizedRMSD -1
REMARK  0 active torsions:
REMARK  status: ('A' for Active; 'I' for Inactive)
ROOT
ATOM      1  C   UNL d   1      -1.362   2.721   2.132  0.00  0.00     0.020 A 
ATOM      2  C1  UNL d   1      -0.670   1.653   2.700  0.00  0.00     0.020 A 
ATOM      3  C2  UNL d   1      -1.079   0.342   2.446  0.00  0.00     0.034 A 
ATOM      4  C3  UNL d   1      -2.182   0.096   1.620  0.00  0.00     0.017 A 
ATOM      5  C4  UNL d   1      -2.876   1.169   1.050  0.00  0.00     0.017 A 
ATOM      6  C5  UNL d   1      -2.462   2.480   1.308  0.00  0.00     0.034 A 
ATOM      7 Cl   UNL d   1      -4.246   0.946   0.021  0.00  0.00    -0.070 Cl
ATOM      8 Cl1  UNL d   1      -2.631  -1.550   1.348  0.00  0.00    -0.070 Cl
ENDROOT
TORSDOF 0
ENDMDL
