MODEL 1
REMARK minimizedAffinity 1.15913677
REMARK minimizedRMSD -1
REMARK  0 active torsions:
REMARK  status: ('A' for Active; 'I' for Inactive)
ROOT
ATOM      1  C   UNL d   1      -2.214   1.653   2.081  0.00  0.00     0.020 A 
ATOM      2  C1  UNL d   1      -1.177   0.759   2.347  0.00  0.00     0.020 A 
ATOM      3  C2  UNL d   1      -0.929  -0.302   1.475  0.00  0.00     0.034 A 
ATOM      4  C3  UNL d   1      -1.719  -0.474   0.332  0.00  0.00     0.017 A 
ATOM      5  C4  UNL d   1      -2.760   0.424   0.066  0.00  0.00     0.017 A 
ATOM      6  C5  UNL d   1      -3.003   1.485   0.943  0.00  0.00     0.034 A 
ATOM      7 Cl   UNL d   1      -3.777   0.277  -1.323  0.00  0.00    -0.070 Cl
ATOM      8 Cl1  UNL d   1      -1.356  -1.808  -0.703  0.00  0.00    -0.070 Cl
ENDROOT
TORSDOF 0
ENDMDL
