MODEL 1
REMARK minimizedAffinity -3.49127269
REMARK minimizedRMSD -1
REMARK  0 active torsions:
REMARK  status: ('A' for Active; 'I' for Inactive)
ROOT
ATOM      1  C   UNL d   1       1.682  -2.133   0.957  0.00  0.00     0.023 A 
ATOM      2  C1  UNL d   1       0.357  -2.449   0.656  0.00  0.00     0.003 A 
ATOM      3  C2  UNL d   1      -0.448  -1.525  -0.012  0.00  0.00     0.048 A 
ATOM      4  C3  UNL d   1       0.079  -0.287  -0.379  0.00  0.00     0.023 A 
ATOM      5  C4  UNL d   1       1.404   0.033  -0.081  0.00  0.00     0.048 A 
ATOM      6  C5  UNL d   1       2.205  -0.894   0.588  0.00  0.00     0.003 A 
ATOM      7  I   UNL d   1      -1.118   1.091  -1.374  0.00  0.00    -0.146 I 
ENDROOT
TORSDOF 0
ENDMDL
