MODEL 1
REMARK minimizedAffinity -4.01980782
REMARK minimizedRMSD -1
REMARK  0 active torsions:
REMARK  status: ('A' for Active; 'I' for Inactive)
ROOT
ATOM      1  C   UNL d   1       1.489  -2.754   0.806  0.00  0.00     0.023 A 
ATOM      2  C1  UNL d   1       2.144  -1.645   0.269  0.00  0.00     0.003 A 
ATOM      3  C2  UNL d   1       1.410  -0.526  -0.130  0.00  0.00     0.048 A 
ATOM      4  C3  UNL d   1       0.023  -0.522   0.011  0.00  0.00     0.023 A 
ATOM      5  C4  UNL d   1      -0.636  -1.629   0.549  0.00  0.00     0.048 A 
ATOM      6  C5  UNL d   1       0.101  -2.746   0.946  0.00  0.00     0.003 A 
ATOM      7  I   UNL d   1      -1.070   1.143  -0.583  0.00  0.00    -0.146 I 
ENDROOT
TORSDOF 0
ENDMDL
