MODEL 1
REMARK minimizedAffinity -4.91105652
REMARK minimizedRMSD -1
REMARK  0 active torsions:
REMARK  status: ('A' for Active; 'I' for Inactive)
ROOT
ATOM      1  C   UNL d   1       1.252  -2.426   1.954  0.00  0.00     0.023 A 
ATOM      2  C1  UNL d   1       2.096  -1.711   1.104  0.00  0.00     0.003 A 
ATOM      3  C2  UNL d   1       1.583  -0.678   0.317  0.00  0.00     0.048 A 
ATOM      4  C3  UNL d   1       0.226  -0.364   0.386  0.00  0.00     0.023 A 
ATOM      5  C4  UNL d   1      -0.622  -1.077   1.236  0.00  0.00     0.048 A 
ATOM      6  C5  UNL d   1      -0.104  -2.109   2.021  0.00  0.00     0.003 A 
ATOM      7  I   UNL d   1      -0.540   1.173  -0.784  0.00  0.00    -0.146 I 
ENDROOT
TORSDOF 0
ENDMDL
