MODEL 1
REMARK minimizedAffinity -4.82916069
REMARK minimizedRMSD -1
REMARK  0 active torsions:
REMARK  status: ('A' for Active; 'I' for Inactive)
ROOT
ATOM      1  C   UNL d   1       0.893  -2.757   2.398  0.00  0.00     0.023 A 
ATOM      2  C1  UNL d   1      -0.269  -2.014   2.605  0.00  0.00     0.003 A 
ATOM      3  C2  UNL d   1      -0.617  -0.996   1.715  0.00  0.00     0.048 A 
ATOM      4  C3  UNL d   1       0.202  -0.726   0.619  0.00  0.00     0.023 A 
ATOM      5  C4  UNL d   1       1.366  -1.467   0.407  0.00  0.00     0.048 A 
ATOM      6  C5  UNL d   1       1.710  -2.484   1.300  0.00  0.00     0.003 A 
ATOM      7  I   UNL d   1      -0.313   0.789  -0.707  0.00  0.00    -0.146 I 
ENDROOT
TORSDOF 0
ENDMDL
