MODEL 1
REMARK minimizedAffinity -2.04353285
REMARK minimizedRMSD -1
REMARK  0 active torsions:
REMARK  status: ('A' for Active; 'I' for Inactive)
ROOT
ATOM      1  C   UNL d   1      -1.041  -2.212   1.920  0.00  0.00     0.023 A 
ATOM      2  C1  UNL d   1      -1.235  -0.833   1.843  0.00  0.00     0.003 A 
ATOM      3  C2  UNL d   1      -0.346  -0.041   1.113  0.00  0.00     0.048 A 
ATOM      4  C3  UNL d   1       0.735  -0.635   0.462  0.00  0.00     0.023 A 
ATOM      5  C4  UNL d   1       0.933  -2.015   0.536  0.00  0.00     0.048 A 
ATOM      6  C5  UNL d   1       0.042  -2.802   1.267  0.00  0.00     0.003 A 
ATOM      7  I   UNL d   1       2.059   0.541  -0.625  0.00  0.00    -0.146 I 
ENDROOT
TORSDOF 0
ENDMDL
