MODEL 1
REMARK minimizedAffinity -3.98189068
REMARK minimizedRMSD -1
REMARK  0 active torsions:
REMARK  status: ('A' for Active; 'I' for Inactive)
ROOT
ATOM      1  C   UNL d   1       0.774  -2.569   2.323  0.00  0.00     0.023 A 
ATOM      2  C1  UNL d   1       1.482  -2.168   1.190  0.00  0.00     0.003 A 
ATOM      3  C2  UNL d   1       1.092  -1.024   0.491  0.00  0.00     0.048 A 
ATOM      4  C3  UNL d   1      -0.006  -0.285   0.930  0.00  0.00     0.023 A 
ATOM      5  C4  UNL d   1      -0.717  -0.682   2.064  0.00  0.00     0.048 A 
ATOM      6  C5  UNL d   1      -0.324  -1.827   2.759  0.00  0.00     0.003 A 
ATOM      7  I   UNL d   1      -0.588   1.418  -0.109  0.00  0.00    -0.146 I 
ENDROOT
TORSDOF 0
ENDMDL
