MODEL 1
REMARK minimizedAffinity -2.57097626
REMARK minimizedRMSD -1
REMARK  0 active torsions:
REMARK  status: ('A' for Active; 'I' for Inactive)
ROOT
ATOM      1  C   UNL d   1      -0.719   1.292  -0.275  0.00  0.00     0.023 A 
ATOM      2  C1  UNL d   1      -1.371   0.461   0.637  0.00  0.00     0.003 A 
ATOM      3  C2  UNL d   1      -0.732  -0.681   1.123  0.00  0.00     0.048 A 
ATOM      4  C3  UNL d   1       0.559  -0.986   0.694  0.00  0.00     0.023 A 
ATOM      5  C4  UNL d   1       1.216  -0.157  -0.217  0.00  0.00     0.048 A 
ATOM      6  C5  UNL d   1       0.573   0.983  -0.701  0.00  0.00     0.003 A 
ATOM      7  I   UNL d   1       1.513  -2.686   1.417  0.00  0.00    -0.146 I 
ENDROOT
TORSDOF 0
ENDMDL
