MODEL 1
REMARK minimizedAffinity -5.1032362
REMARK minimizedRMSD -1
REMARK  0 active torsions:
REMARK  status: ('A' for Active; 'I' for Inactive)
ROOT
ATOM      1  C   UNL d   1       0.972  -2.735   1.913  0.00  0.00     0.023 A 
ATOM      2  C1  UNL d   1       1.539  -2.356   0.696  0.00  0.00     0.003 A 
ATOM      3  C2  UNL d   1       1.001  -1.286  -0.022  0.00  0.00     0.048 A 
ATOM      4  C3  UNL d   1      -0.103  -0.600   0.483  0.00  0.00     0.023 A 
ATOM      5  C4  UNL d   1      -0.672  -0.975   1.700  0.00  0.00     0.048 A 
ATOM      6  C5  UNL d   1      -0.132  -2.046   2.415  0.00  0.00     0.003 A 
ATOM      7  I   UNL d   1      -0.905   0.993  -0.585  0.00  0.00    -0.146 I 
ENDROOT
TORSDOF 0
ENDMDL
