MODEL 1
REMARK minimizedAffinity -4.07721281
REMARK minimizedRMSD -1
REMARK  0 active torsions:
REMARK  status: ('A' for Active; 'I' for Inactive)
ROOT
ATOM      1  C   UNL d   1       1.821  -2.352   0.825  0.00  0.00     0.023 A 
ATOM      2  C1  UNL d   1       2.301  -1.175   0.250  0.00  0.00     0.003 A 
ATOM      3  C2  UNL d   1       1.407  -0.204  -0.206  0.00  0.00     0.048 A 
ATOM      4  C3  UNL d   1       0.034  -0.415  -0.081  0.00  0.00     0.023 A 
ATOM      5  C4  UNL d   1      -0.451  -1.590   0.496  0.00  0.00     0.048 A 
ATOM      6  C5  UNL d   1       0.447  -2.559   0.948  0.00  0.00     0.003 A 
ATOM      7  I   UNL d   1      -1.298   1.030  -0.757  0.00  0.00    -0.146 I 
ENDROOT
TORSDOF 0
ENDMDL
