MODEL 1
REMARK minimizedAffinity -2.4997952
REMARK minimizedRMSD -1
REMARK  0 active torsions:
REMARK  status: ('A' for Active; 'I' for Inactive)
ROOT
ATOM      1  C   UNL d   1       1.649  -2.302   0.954  0.00  0.00     0.023 A 
ATOM      2  C1  UNL d   1       0.267  -2.348   1.133  0.00  0.00     0.003 A 
ATOM      3  C2  UNL d   1      -0.518  -1.240   0.808  0.00  0.00     0.048 A 
ATOM      4  C3  UNL d   1       0.086  -0.088   0.304  0.00  0.00     0.023 A 
ATOM      5  C4  UNL d   1       1.469  -0.038   0.123  0.00  0.00     0.048 A 
ATOM      6  C5  UNL d   1       2.250  -1.148   0.450  0.00  0.00     0.003 A 
ATOM      7  I   UNL d   1      -1.080   1.563  -0.180  0.00  0.00    -0.146 I 
ENDROOT
TORSDOF 0
ENDMDL
