MODEL 1
REMARK minimizedAffinity 1.12482107
REMARK minimizedRMSD -1
REMARK  1 active torsions:
REMARK  status: ('A' for Active; 'I' for Inactive)
REMARK    1  A    between atoms: C1_2  and  C2_3 
ROOT
ATOM      1  C2  UNL d   1      -3.325  -2.414  -2.892  0.00  0.00    -0.081 A 
ATOM      2  C3  UNL d   1      -2.610  -3.361  -2.148  0.00  0.00     0.006 A 
ATOM      3  C4  UNL d   1      -2.136  -4.527  -2.754  0.00  0.00     0.002 A 
ATOM      4  C5  UNL d   1      -2.361  -4.761  -4.115  0.00  0.00    -0.080 A 
ATOM      5  C6  UNL d   1      -1.831  -5.994  -4.785  0.00  0.00     0.076 C 
ATOM      6  C7  UNL d   1      -3.090  -3.824  -4.855  0.00  0.00     0.002 A 
ATOM      7  C8  UNL d   1      -3.565  -2.658  -4.249  0.00  0.00     0.006 A 
ENDROOT
BRANCH   1   8
ATOM      8  C1  UNL d   1      -3.782  -1.126  -2.256  0.00  0.00     0.054 C 
ATOM      9  C   UNL d   1      -3.445   0.073  -3.132  0.00  0.00     0.018 C 
ENDBRANCH   1   8
TORSDOF 1
ENDMDL
