MODEL 1
REMARK minimizedAffinity 1.69765472
REMARK minimizedRMSD -1
REMARK  1 active torsions:
REMARK  status: ('A' for Active; 'I' for Inactive)
REMARK    1  A    between atoms: C1_2  and  C2_3 
ROOT
ATOM      1  C2  UNL d   1       1.093  -4.858  -0.804  0.00  0.00    -0.081 A 
ATOM      2  C3  UNL d   1       1.976  -4.487  -1.825  0.00  0.00     0.006 A 
ATOM      3  C4  UNL d   1       3.325  -4.844  -1.758  0.00  0.00     0.002 A 
ATOM      4  C5  UNL d   1       3.811  -5.584  -0.675  0.00  0.00    -0.080 A 
ATOM      5  C6  UNL d   1       5.250  -6.000  -0.606  0.00  0.00     0.076 C 
ATOM      6  C7  UNL d   1       2.932  -5.939   0.354  0.00  0.00     0.002 A 
ATOM      7  C8  UNL d   1       1.583  -5.582   0.288  0.00  0.00     0.006 A 
ENDROOT
BRANCH   1   8
ATOM      8  C1  UNL d   1      -0.375  -4.530  -0.904  0.00  0.00     0.054 C 
ATOM      9  C   UNL d   1      -0.751  -3.386   0.027  0.00  0.00     0.018 C 
ENDBRANCH   1   8
TORSDOF 1
ENDMDL
