MODEL 1
REMARK minimizedAffinity 14.0469198
REMARK minimizedRMSD -1
REMARK  1 active torsions:
REMARK  status: ('A' for Active; 'I' for Inactive)
REMARK    1  A    between atoms: C1_2  and  C2_3 
ROOT
ATOM      1  C2  UNL d   1       0.712   2.338   2.697  0.00  0.00    -0.081 A 
ATOM      2  C3  UNL d   1       1.262   1.081   2.417  0.00  0.00     0.006 A 
ATOM      3  C4  UNL d   1       0.637   0.219   1.513  0.00  0.00     0.002 A 
ATOM      4  C5  UNL d   1      -0.544   0.603   0.867  0.00  0.00    -0.080 A 
ATOM      5  C6  UNL d   1      -1.209  -0.300  -0.128  0.00  0.00     0.076 C 
ATOM      6  C7  UNL d   1      -1.103   1.851   1.160  0.00  0.00     0.002 A 
ATOM      7  C8  UNL d   1      -0.479   2.713   2.065  0.00  0.00     0.006 A 
ENDROOT
BRANCH   1   8
ATOM      8  C1  UNL d   1       1.418   3.295   3.622  0.00  0.00     0.054 C 
ATOM      9  C   UNL d   1       1.564   4.671   2.989  0.00  0.00     0.018 C 
ENDBRANCH   1   8
TORSDOF 1
ENDMDL
