MODEL 1
REMARK minimizedAffinity 3.52407956
REMARK minimizedRMSD -1
REMARK  0 active torsions:
REMARK  status: ('A' for Active; 'I' for Inactive)
ROOT
ATOM      1  C1  BNZ d   1      -2.869  -2.699   0.064  0.00  0.00     0.000 A 
ATOM      2  C2  BNZ d   1      -3.306  -3.601  -0.869  0.00  0.00     0.000 A 
ATOM      3  C3  BNZ d   1      -2.448  -4.514  -1.416  0.00  0.00     0.000 A 
ATOM      4  C4  BNZ d   1      -1.147  -4.497  -1.060  0.00  0.00     0.000 A 
ATOM      5  C5  BNZ d   1      -0.689  -3.588  -0.127  0.00  0.00     0.000 A 
ATOM      6  C6  BNZ d   1      -1.564  -2.696   0.450  0.00  0.00     0.000 A 
ENDROOT
TORSDOF 0
ENDMDL
