MODEL 1
REMARK minimizedAffinity 7.81361485
REMARK minimizedRMSD -1
REMARK  0 active torsions:
REMARK  status: ('A' for Active; 'I' for Inactive)
ROOT
ATOM      1  C1  BNZ d   1       1.592  -0.200   0.518  0.00  0.00     0.000 A 
ATOM      2  C2  BNZ d   1       0.291  -0.603   0.374  0.00  0.00     0.000 A 
ATOM      3  C3  BNZ d   1      -0.519  -0.758   1.465  0.00  0.00     0.000 A 
ATOM      4  C4  BNZ d   1      -0.015  -0.549   2.699  0.00  0.00     0.000 A 
ATOM      5  C5  BNZ d   1       1.297  -0.152   2.861  0.00  0.00     0.000 A 
ATOM      6  C6  BNZ d   1       2.097   0.040   1.758  0.00  0.00     0.000 A 
ENDROOT
TORSDOF 0
ENDMDL
