MODEL 1
REMARK minimizedAffinity 0.777288973
REMARK minimizedRMSD -1
REMARK  0 active torsions:
REMARK  status: ('A' for Active; 'I' for Inactive)
ROOT
ATOM      1  C1  BNZ d   1      -1.309  -0.909  -0.335  0.00  0.00     0.000 A 
ATOM      2  C2  BNZ d   1      -2.540  -1.113  -0.900  0.00  0.00     0.000 A 
ATOM      3  C3  BNZ d   1      -3.642  -0.454  -0.432  0.00  0.00     0.000 A 
ATOM      4  C4  BNZ d   1      -3.520   0.376   0.624  0.00  0.00     0.000 A 
ATOM      5  C5  BNZ d   1      -2.287   0.585   1.209  0.00  0.00     0.000 A 
ATOM      6  C6  BNZ d   1      -1.173  -0.050   0.711  0.00  0.00     0.000 A 
ENDROOT
TORSDOF 0
ENDMDL
