MODEL 1
REMARK minimizedAffinity -2.16920447
REMARK minimizedRMSD -1
REMARK  0 active torsions:
REMARK  status: ('A' for Active; 'I' for Inactive)
ROOT
ATOM      1  C1  BNZ d   1      -3.624  -4.501  -1.508  0.00  0.00     0.000 A 
ATOM      2  C2  BNZ d   1      -3.606  -4.528  -0.139  0.00  0.00     0.000 A 
ATOM      3  C3  BNZ d   1      -4.498  -5.295   0.557  0.00  0.00     0.000 A 
ATOM      4  C4  BNZ d   1      -5.432  -6.000  -0.114  0.00  0.00     0.000 A 
ATOM      5  C5  BNZ d   1      -5.469  -5.975  -1.494  0.00  0.00     0.000 A 
ATOM      6  C6  BNZ d   1      -4.544  -5.233  -2.193  0.00  0.00     0.000 A 
ENDROOT
TORSDOF 0
ENDMDL
