MODEL 1
REMARK minimizedAffinity 3.72913742
REMARK minimizedRMSD -1
REMARK  0 active torsions:
REMARK  status: ('A' for Active; 'I' for Inactive)
ROOT
ATOM      1  C1  BNZ d   1      -0.522  -2.342   1.006  0.00  0.00     0.000 A 
ATOM      2  C2  BNZ d   1       0.694  -2.096   0.426  0.00  0.00     0.000 A 
ATOM      3  C3  BNZ d   1       1.321  -0.893   0.599  0.00  0.00     0.000 A 
ATOM      4  C4  BNZ d   1       0.714   0.074   1.317  0.00  0.00     0.000 A 
ATOM      5  C5  BNZ d   1      -0.516  -0.156   1.899  0.00  0.00     0.000 A 
ATOM      6  C6  BNZ d   1      -1.127  -1.381   1.756  0.00  0.00     0.000 A 
ENDROOT
TORSDOF 0
ENDMDL
