MODEL 1
REMARK minimizedAffinity 3.33300042
REMARK minimizedRMSD -1
REMARK  0 active torsions:
REMARK  status: ('A' for Active; 'I' for Inactive)
ROOT
ATOM      1  C1  BNZ d   1       0.072   1.488  -0.117  0.00  0.00     0.000 A 
ATOM      2  C2  BNZ d   1       1.387   1.752  -0.391  0.00  0.00     0.000 A 
ATOM      3  C3  BNZ d   1       1.747   2.880  -1.073  0.00  0.00     0.000 A 
ATOM      4  C4  BNZ d   1       0.790   3.722  -1.515  0.00  0.00     0.000 A 
ATOM      5  C5  BNZ d   1      -0.541   3.465  -1.255  0.00  0.00     0.000 A 
ATOM      6  C6  BNZ d   1      -0.897   2.348  -0.534  0.00  0.00     0.000 A 
ENDROOT
TORSDOF 0
ENDMDL
