MODEL 1
REMARK minimizedAffinity 8.14339828
REMARK minimizedRMSD -1
REMARK  0 active torsions:
REMARK  status: ('A' for Active; 'I' for Inactive)
ROOT
ATOM      1  C1  BNZ d   1       1.462   0.046   0.879  0.00  0.00     0.000 A 
ATOM      2  C2  BNZ d   1       0.152  -0.349   0.817  0.00  0.00     0.000 A 
ATOM      3  C3  BNZ d   1      -0.506  -0.772   1.937  0.00  0.00     0.000 A 
ATOM      4  C4  BNZ d   1       0.157  -0.838   3.110  0.00  0.00     0.000 A 
ATOM      5  C5  BNZ d   1       1.480  -0.452   3.188  0.00  0.00     0.000 A 
ATOM      6  C6  BNZ d   1       2.128   0.010   2.065  0.00  0.00     0.000 A 
ENDROOT
TORSDOF 0
ENDMDL
