MODEL 1
REMARK minimizedAffinity 9.27244282
REMARK minimizedRMSD -1
REMARK  0 active torsions:
REMARK  status: ('A' for Active; 'I' for Inactive)
ROOT
ATOM      1  C1  BNZ d   1      -0.375  -1.154   3.317  0.00  0.00     0.000 A 
ATOM      2  C2  BNZ d   1       0.561  -0.271   2.848  0.00  0.00     0.000 A 
ATOM      3  C3  BNZ d   1       0.831  -0.182   1.511  0.00  0.00     0.000 A 
ATOM      4  C4  BNZ d   1       0.195  -1.002   0.650  0.00  0.00     0.000 A 
ATOM      5  C5  BNZ d   1      -0.744  -1.904   1.108  0.00  0.00     0.000 A 
ATOM      6  C6  BNZ d   1      -1.042  -1.964   2.450  0.00  0.00     0.000 A 
ENDROOT
TORSDOF 0
ENDMDL
