MODEL 1
REMARK minimizedAffinity 7.56195831
REMARK minimizedRMSD -1
REMARK  0 active torsions:
REMARK  status: ('A' for Active; 'I' for Inactive)
ROOT
ATOM      1  C1  BNZ d   1       3.227   2.002  -0.749  0.00  0.00     0.000 A 
ATOM      2  C2  BNZ d   1       3.451   3.352  -0.701  0.00  0.00     0.000 A 
ATOM      3  C3  BNZ d   1       2.414   4.229  -0.550  0.00  0.00     0.000 A 
ATOM      4  C4  BNZ d   1       1.152   3.758  -0.487  0.00  0.00     0.000 A 
ATOM      5  C5  BNZ d   1       0.908   2.401  -0.543  0.00  0.00     0.000 A 
ATOM      6  C6  BNZ d   1       1.958   1.518  -0.656  0.00  0.00     0.000 A 
ENDROOT
TORSDOF 0
ENDMDL
