MODEL 1
REMARK minimizedAffinity -0.72851938
REMARK minimizedRMSD -1
REMARK  0 active torsions:
REMARK  status: ('A' for Active; 'I' for Inactive)
ROOT
ATOM      1  C1  BNZ d   1       1.111   0.766  -0.178  0.00  0.00     0.000 A 
ATOM      2  C2  BNZ d   1       0.164   1.755  -0.146  0.00  0.00     0.000 A 
ATOM      3  C3  BNZ d   1       0.433   2.999  -0.644  0.00  0.00     0.000 A 
ATOM      4  C4  BNZ d   1       1.660   3.264  -1.137  0.00  0.00     0.000 A 
ATOM      5  C5  BNZ d   1       2.629   2.281  -1.169  0.00  0.00     0.000 A 
ATOM      6  C6  BNZ d   1       2.342   1.019  -0.701  0.00  0.00     0.000 A 
ENDROOT
TORSDOF 0
ENDMDL
