MODEL 1
REMARK minimizedAffinity -3.40165186
REMARK minimizedRMSD -1
REMARK  0 active torsions:
REMARK  status: ('A' for Active; 'I' for Inactive)
ROOT
ATOM      1  C1  BNZ d   1       2.736  -1.524   0.339  0.00  0.00     0.000 A 
ATOM      2  C2  BNZ d   1       1.840  -0.521   0.595  0.00  0.00     0.000 A 
ATOM      3  C3  BNZ d   1       0.508  -0.792   0.740  0.00  0.00     0.000 A 
ATOM      4  C4  BNZ d   1       0.069  -2.058   0.589  0.00  0.00     0.000 A 
ATOM      5  C5  BNZ d   1       0.959  -3.080   0.321  0.00  0.00     0.000 A 
ATOM      6  C6  BNZ d   1       2.304  -2.809   0.215  0.00  0.00     0.000 A 
ENDROOT
TORSDOF 0
ENDMDL
