MODEL 1
REMARK minimizedAffinity 2.04137731
REMARK minimizedRMSD -1
REMARK  0 active torsions:
REMARK  status: ('A' for Active; 'I' for Inactive)
ROOT
ATOM      1  C1  BNZ d   1      -5.975  -5.999   5.261  0.00  0.00     0.000 A 
ATOM      2  C2  BNZ d   1      -6.000  -4.846   6.000  0.00  0.00     0.000 A 
ATOM      3  C3  BNZ d   1      -5.993  -3.623   5.388  0.00  0.00     0.000 A 
ATOM      4  C4  BNZ d   1      -5.922  -3.555   4.043  0.00  0.00     0.000 A 
ATOM      5  C5  BNZ d   1      -5.886  -4.708   3.286  0.00  0.00     0.000 A 
ATOM      6  C6  BNZ d   1      -5.932  -5.937   3.903  0.00  0.00     0.000 A 
ENDROOT
TORSDOF 0
ENDMDL
