MODEL 1
REMARK minimizedAffinity 2.66217422
REMARK minimizedRMSD -1
REMARK  0 active torsions:
REMARK  status: ('A' for Active; 'I' for Inactive)
ROOT
ATOM      1  C1  BNZ d   1      -1.366   2.936  -2.220  0.00  0.00     0.000 A 
ATOM      2  C2  BNZ d   1      -1.856   3.025  -3.496  0.00  0.00     0.000 A 
ATOM      3  C3  BNZ d   1      -1.305   3.892  -4.398  0.00  0.00     0.000 A 
ATOM      4  C4  BNZ d   1      -0.293   4.696  -4.012  0.00  0.00     0.000 A 
ATOM      5  C5  BNZ d   1       0.205   4.624  -2.726  0.00  0.00     0.000 A 
ATOM      6  C6  BNZ d   1      -0.326   3.723  -1.833  0.00  0.00     0.000 A 
ENDROOT
TORSDOF 0
ENDMDL
