MODEL 1
REMARK minimizedAffinity 0.346198559
REMARK minimizedRMSD -1
REMARK  0 active torsions:
REMARK  status: ('A' for Active; 'I' for Inactive)
ROOT
ATOM      1  C1  BNZ d   1      -2.360  -3.960  -2.627  0.00  0.00     0.000 A 
ATOM      2  C2  BNZ d   1      -3.673  -3.978  -3.016  0.00  0.00     0.000 A 
ATOM      3  C3  BNZ d   1      -4.505  -4.989  -2.623  0.00  0.00     0.000 A 
ATOM      4  C4  BNZ d   1      -4.014  -6.000  -1.876  0.00  0.00     0.000 A 
ATOM      5  C5  BNZ d   1      -2.690  -6.000  -1.484  0.00  0.00     0.000 A 
ATOM      6  C6  BNZ d   1      -1.865  -4.961  -1.849  0.00  0.00     0.000 A 
ENDROOT
TORSDOF 0
ENDMDL
