MODEL 1
REMARK minimizedAffinity 4.51013422
REMARK minimizedRMSD -1
REMARK  0 active torsions:
REMARK  status: ('A' for Active; 'I' for Inactive)
ROOT
ATOM      1  C1  BNZ d   1      -3.904  -4.755   4.965  0.00  0.00     0.000 A 
ATOM      2  C2  BNZ d   1      -4.949  -5.258   5.693  0.00  0.00     0.000 A 
ATOM      3  C3  BNZ d   1      -5.987  -5.899   5.077  0.00  0.00     0.000 A 
ATOM      4  C4  BNZ d   1      -6.000  -6.000   3.732  0.00  0.00     0.000 A 
ATOM      5  C5  BNZ d   1      -4.958  -5.489   2.983  0.00  0.00     0.000 A 
ATOM      6  C6  BNZ d   1      -3.896  -4.879   3.610  0.00  0.00     0.000 A 
ENDROOT
TORSDOF 0
ENDMDL
