MODEL 1
REMARK minimizedAffinity 6.0790019
REMARK minimizedRMSD -1
REMARK  0 active torsions:
REMARK  status: ('A' for Active; 'I' for Inactive)
ROOT
ATOM      1  C1  BNZ d   1      -5.468  -4.894  -1.894  0.00  0.00     0.000 A 
ATOM      2  C2  BNZ d   1      -4.709  -3.786  -1.626  0.00  0.00     0.000 A 
ATOM      3  C3  BNZ d   1      -3.372  -3.769  -1.911  0.00  0.00     0.000 A 
ATOM      4  C4  BNZ d   1      -2.789  -4.871  -2.425  0.00  0.00     0.000 A 
ATOM      5  C5  BNZ d   1      -3.539  -5.999  -2.692  0.00  0.00     0.000 A 
ATOM      6  C6  BNZ d   1      -4.892  -5.999  -2.440  0.00  0.00     0.000 A 
ENDROOT
TORSDOF 0
ENDMDL
