MODEL 1
REMARK minimizedAffinity -4.77170134
REMARK minimizedRMSD -1
REMARK  0 active torsions:
REMARK  status: ('A' for Active; 'I' for Inactive)
ROOT
ATOM      1  C   UNL d   1       1.190  -0.400   0.100  0.00  0.00     0.077 C 
ATOM      2  C1  UNL d   1      -0.185  -0.064  -0.396  0.00  0.00    -0.074 A 
ATOM      3  C2  UNL d   1      -0.378   0.936  -1.355  0.00  0.00    -0.005 A 
ATOM      4  C3  UNL d   1      -1.662   1.230  -1.814  0.00  0.00     0.006 A 
ATOM      5  C4  UNL d   1      -2.763   0.530  -1.320  0.00  0.00    -0.005 A 
ATOM      6  C5  UNL d   1      -2.589  -0.474  -0.362  0.00  0.00    -0.074 A 
ATOM      7  C6  UNL d   1      -3.760  -1.243   0.172  0.00  0.00     0.077 C 
ATOM      8  C7  UNL d   1      -1.295  -0.769   0.089  0.00  0.00    -0.001 A 
ENDROOT
TORSDOF 0
ENDMDL
