MODEL 1
REMARK minimizedAffinity -2.63628459
REMARK minimizedRMSD -1
REMARK  0 active torsions:
REMARK  status: ('A' for Active; 'I' for Inactive)
ROOT
ATOM      1  C   UNL d   1       2.919   3.642  -0.558  0.00  0.00     0.077 C 
ATOM      2  C1  UNL d   1       2.427   2.678   0.481  0.00  0.00    -0.074 A 
ATOM      3  C2  UNL d   1       2.683   2.893   1.839  0.00  0.00    -0.005 A 
ATOM      4  C3  UNL d   1       2.211   1.994   2.795  0.00  0.00     0.006 A 
ATOM      5  C4  UNL d   1       1.480   0.872   2.403  0.00  0.00    -0.005 A 
ATOM      6  C5  UNL d   1       1.213   0.641   1.050  0.00  0.00    -0.074 A 
ATOM      7  C6  UNL d   1       0.420  -0.555   0.613  0.00  0.00     0.077 C 
ATOM      8  C7  UNL d   1       1.685   1.553   0.096  0.00  0.00    -0.001 A 
ENDROOT
TORSDOF 0
ENDMDL
