MODEL 1
REMARK minimizedAffinity -2.1954236
REMARK minimizedRMSD -1
REMARK  0 active torsions:
REMARK  status: ('A' for Active; 'I' for Inactive)
ROOT
ATOM      1  C   UNL d   1      -0.050   1.061  -2.324  0.00  0.00     0.077 C 
ATOM      2  C1  UNL d   1      -0.528   0.245  -1.160  0.00  0.00    -0.074 A 
ATOM      3  C2  UNL d   1       0.260   0.097  -0.015  0.00  0.00    -0.005 A 
ATOM      4  C3  UNL d   1      -0.202  -0.657   1.064  0.00  0.00     0.006 A 
ATOM      5  C4  UNL d   1      -1.454  -1.270   1.008  0.00  0.00    -0.005 A 
ATOM      6  C5  UNL d   1      -2.257  -1.132  -0.129  0.00  0.00    -0.074 A 
ATOM      7  C6  UNL d   1      -3.610  -1.776  -0.202  0.00  0.00     0.077 C 
ATOM      8  C7  UNL d   1      -1.789  -0.367  -1.206  0.00  0.00    -0.001 A 
ENDROOT
TORSDOF 0
ENDMDL
