MODEL 1
REMARK minimizedAffinity -4.88700104
REMARK minimizedRMSD -1
REMARK  0 active torsions:
REMARK  status: ('A' for Active; 'I' for Inactive)
ROOT
ATOM      1  C   UNL d   1       1.522   1.555  -0.172  0.00  0.00     0.077 C 
ATOM      2  C1  UNL d   1       0.684   0.420   0.338  0.00  0.00    -0.074 A 
ATOM      3  C2  UNL d   1       1.236  -0.571   1.154  0.00  0.00    -0.005 A 
ATOM      4  C3  UNL d   1       0.442  -1.616   1.628  0.00  0.00     0.006 A 
ATOM      5  C4  UNL d   1      -0.910  -1.679   1.290  0.00  0.00    -0.005 A 
ATOM      6  C5  UNL d   1      -1.481  -0.696   0.476  0.00  0.00    -0.074 A 
ATOM      7  C6  UNL d   1      -2.935  -0.743   0.111  0.00  0.00     0.077 C 
ATOM      8  C7  UNL d   1      -0.678   0.354   0.009  0.00  0.00    -0.001 A 
ENDROOT
TORSDOF 0
ENDMDL
