MODEL 1
REMARK minimizedAffinity -0.321463346
REMARK minimizedRMSD -1
REMARK  0 active torsions:
REMARK  status: ('A' for Active; 'I' for Inactive)
ROOT
ATOM      1  C   UNL d   1       1.646   2.123   0.969  0.00  0.00     0.077 C 
ATOM      2  C1  UNL d   1       0.817   0.937   0.577  0.00  0.00    -0.074 A 
ATOM      3  C2  UNL d   1       0.944  -0.283   1.248  0.00  0.00    -0.005 A 
ATOM      4  C3  UNL d   1       0.159  -1.375   0.878  0.00  0.00     0.006 A 
ATOM      5  C4  UNL d   1      -0.760  -1.258  -0.165  0.00  0.00    -0.005 A 
ATOM      6  C5  UNL d   1      -0.903  -0.045  -0.847  0.00  0.00    -0.074 A 
ATOM      7  C6  UNL d   1      -1.893   0.100  -1.964  0.00  0.00     0.077 C 
ATOM      8  C7  UNL d   1      -0.115   1.049  -0.465  0.00  0.00    -0.001 A 
ENDROOT
TORSDOF 0
ENDMDL
