MODEL 1
REMARK minimizedAffinity -5.30662727
REMARK minimizedRMSD -1
REMARK  0 active torsions:
REMARK  status: ('A' for Active; 'I' for Inactive)
ROOT
ATOM      1  C   UNL d   1      -3.302  -0.609   0.126  0.00  0.00     0.077 C 
ATOM      2  C1  UNL d   1      -1.900  -0.307  -0.311  0.00  0.00    -0.074 A 
ATOM      3  C2  UNL d   1      -1.651   0.415  -1.483  0.00  0.00    -0.005 A 
ATOM      4  C3  UNL d   1      -0.342   0.696  -1.871  0.00  0.00     0.006 A 
ATOM      5  C4  UNL d   1       0.731   0.261  -1.092  0.00  0.00    -0.005 A 
ATOM      6  C5  UNL d   1       0.502  -0.461   0.083  0.00  0.00    -0.074 A 
ATOM      7  C6  UNL d   1       1.644  -0.928   0.937  0.00  0.00     0.077 C 
ATOM      8  C7  UNL d   1      -0.817  -0.734   0.471  0.00  0.00    -0.001 A 
ENDROOT
TORSDOF 0
ENDMDL
