MODEL 1
REMARK minimizedAffinity -5.50346804
REMARK minimizedRMSD -1
REMARK  0 active torsions:
REMARK  status: ('A' for Active; 'I' for Inactive)
ROOT
ATOM      1  C   UNL d   1       0.552   0.831  -2.897  0.00  0.00     0.077 C 
ATOM      2  C1  UNL d   1       0.089   0.267  -1.587  0.00  0.00    -0.074 A 
ATOM      3  C2  UNL d   1       0.991   0.041  -0.542  0.00  0.00    -0.005 A 
ATOM      4  C3  UNL d   1       0.545  -0.475   0.674  0.00  0.00     0.006 A 
ATOM      5  C4  UNL d   1      -0.806  -0.770   0.858  0.00  0.00    -0.005 A 
ATOM      6  C5  UNL d   1      -1.724  -0.550  -0.174  0.00  0.00    -0.074 A 
ATOM      7  C6  UNL d   1      -3.181  -0.853   0.011  0.00  0.00     0.077 C 
ATOM      8  C7  UNL d   1      -1.268  -0.025  -1.391  0.00  0.00    -0.001 A 
ENDROOT
TORSDOF 0
ENDMDL
