MODEL 1
REMARK minimizedAffinity -4.56298399
REMARK minimizedRMSD -1
REMARK  0 active torsions:
REMARK  status: ('A' for Active; 'I' for Inactive)
ROOT
ATOM      1  C   UNL d   1       1.618  -0.013   1.135  0.00  0.00     0.077 C 
ATOM      2  C1  UNL d   1       0.380   0.027   0.290  0.00  0.00    -0.074 A 
ATOM      3  C2  UNL d   1       0.451   0.326  -1.074  0.00  0.00    -0.005 A 
ATOM      4  C3  UNL d   1      -0.708   0.350  -1.850  0.00  0.00     0.006 A 
ATOM      5  C4  UNL d   1      -1.948   0.076  -1.270  0.00  0.00    -0.005 A 
ATOM      6  C5  UNL d   1      -2.038  -0.226   0.092  0.00  0.00    -0.074 A 
ATOM      7  C6  UNL d   1      -3.360  -0.533   0.729  0.00  0.00     0.077 C 
ATOM      8  C7  UNL d   1      -0.868  -0.255   0.864  0.00  0.00    -0.001 A 
ENDROOT
TORSDOF 0
ENDMDL
