MODEL 1
REMARK minimizedAffinity -3.1282475
REMARK minimizedRMSD -1
REMARK  0 active torsions:
REMARK  status: ('A' for Active; 'I' for Inactive)
ROOT
ATOM      1  C   UNL d   1       0.774   0.549   0.279  0.00  0.00     0.077 C 
ATOM      2  C1  UNL d   1      -0.563  -0.073   0.004  0.00  0.00    -0.074 A 
ATOM      3  C2  UNL d   1      -1.548  -0.126   0.995  0.00  0.00    -0.005 A 
ATOM      4  C3  UNL d   1      -2.791  -0.699   0.722  0.00  0.00     0.006 A 
ATOM      5  C4  UNL d   1      -3.059  -1.224  -0.543  0.00  0.00    -0.005 A 
ATOM      6  C5  UNL d   1      -2.087  -1.178  -1.547  0.00  0.00    -0.074 A 
ATOM      7  C6  UNL d   1      -2.363  -1.729  -2.914  0.00  0.00     0.077 C 
ATOM      8  C7  UNL d   1      -0.844  -0.595  -1.266  0.00  0.00    -0.001 A 
ENDROOT
TORSDOF 0
ENDMDL
