MODEL 1
REMARK minimizedAffinity -4.28219795
REMARK minimizedRMSD -1
REMARK  0 active torsions:
REMARK  status: ('A' for Active; 'I' for Inactive)
ROOT
ATOM      1  C   UNL d   1       1.488   0.914  -0.087  0.00  0.00     0.077 C 
ATOM      2  C1  UNL d   1       0.406  -0.015   0.377  0.00  0.00    -0.074 A 
ATOM      3  C2  UNL d   1       0.667  -0.999   1.337  0.00  0.00    -0.005 A 
ATOM      4  C3  UNL d   1      -0.351  -1.850   1.766  0.00  0.00     0.006 A 
ATOM      5  C4  UNL d   1      -1.638  -1.727   1.241  0.00  0.00    -0.005 A 
ATOM      6  C5  UNL d   1      -1.918  -0.749   0.281  0.00  0.00    -0.074 A 
ATOM      7  C6  UNL d   1      -3.298  -0.596  -0.286  0.00  0.00     0.077 C 
ATOM      8  C7  UNL d   1      -0.891   0.108  -0.140  0.00  0.00    -0.001 A 
ENDROOT
TORSDOF 0
ENDMDL
