MODEL 1
REMARK minimizedAffinity -3.83161402
REMARK minimizedRMSD -1
REMARK  0 active torsions:
REMARK  status: ('A' for Active; 'I' for Inactive)
ROOT
ATOM      1  C   UNL d   1       0.964  -1.712   1.917  0.00  0.00     0.077 C 
ATOM      2  C1  UNL d   1       0.277  -0.901   0.859  0.00  0.00    -0.074 A 
ATOM      3  C2  UNL d   1       1.011  -0.094  -0.017  0.00  0.00    -0.005 A 
ATOM      4  C3  UNL d   1       0.359   0.648  -1.002  0.00  0.00     0.006 A 
ATOM      5  C4  UNL d   1      -1.030   0.590  -1.121  0.00  0.00    -0.005 A 
ATOM      6  C5  UNL d   1      -1.780  -0.212  -0.255  0.00  0.00    -0.074 A 
ATOM      7  C6  UNL d   1      -3.273  -0.293  -0.376  0.00  0.00     0.077 C 
ATOM      8  C7  UNL d   1      -1.117  -0.960   0.728  0.00  0.00    -0.001 A 
ENDROOT
TORSDOF 0
ENDMDL
