MODEL 1
REMARK minimizedAffinity -4.31095314
REMARK minimizedRMSD -1
REMARK  0 active torsions:
REMARK  status: ('A' for Active; 'I' for Inactive)
ROOT
ATOM      1  C   UNL d   1       1.294   0.412   0.718  0.00  0.00     0.077 C 
ATOM      2  C1  UNL d   1       0.146   0.269  -0.236  0.00  0.00    -0.074 A 
ATOM      3  C2  UNL d   1       0.234   0.755  -1.545  0.00  0.00    -0.005 A 
ATOM      4  C3  UNL d   1      -0.839   0.605  -2.424  0.00  0.00     0.006 A 
ATOM      5  C4  UNL d   1      -2.008  -0.030  -2.005  0.00  0.00    -0.005 A 
ATOM      6  C5  UNL d   1      -2.114  -0.523  -0.700  0.00  0.00    -0.074 A 
ATOM      7  C6  UNL d   1      -3.360  -1.217  -0.236  0.00  0.00     0.077 C 
ATOM      8  C7  UNL d   1      -1.029  -0.375   0.175  0.00  0.00    -0.001 A 
ENDROOT
TORSDOF 0
ENDMDL
