MODEL 1
REMARK minimizedAffinity 0.520505786
REMARK minimizedRMSD -1
REMARK  0 active torsions:
REMARK  status: ('A' for Active; 'I' for Inactive)
ROOT
ATOM      1  C   UNL d   1      -3.312  -0.976   0.585  0.00  0.00     0.077 C 
ATOM      2  C1  UNL d   1      -1.830  -0.769   0.678  0.00  0.00    -0.074 A 
ATOM      3  C2  UNL d   1      -1.082  -1.375   1.693  0.00  0.00    -0.005 A 
ATOM      4  C3  UNL d   1       0.297  -1.182   1.762  0.00  0.00     0.006 A 
ATOM      5  C4  UNL d   1       0.943  -0.382   0.818  0.00  0.00    -0.005 A 
ATOM      6  C5  UNL d   1       0.212   0.231  -0.205  0.00  0.00    -0.074 A 
ATOM      7  C6  UNL d   1       0.891   1.085  -1.234  0.00  0.00     0.077 C 
ATOM      8  C7  UNL d   1      -1.173   0.026  -0.271  0.00  0.00    -0.001 A 
ENDROOT
TORSDOF 0
ENDMDL
