MODEL 1
REMARK minimizedAffinity -4.27706957
REMARK minimizedRMSD -1
REMARK  0 active torsions:
REMARK  status: ('A' for Active; 'I' for Inactive)
ROOT
ATOM      1  C   UNL d   1       1.787   1.678   0.353  0.00  0.00     0.077 C 
ATOM      2  C1  UNL d   1       0.880   0.509   0.603  0.00  0.00    -0.074 A 
ATOM      3  C2  UNL d   1       1.335  -0.618   1.295  0.00  0.00    -0.005 A 
ATOM      4  C3  UNL d   1       0.477  -1.693   1.528  0.00  0.00     0.006 A 
ATOM      5  C4  UNL d   1      -0.841  -1.652   1.072  0.00  0.00    -0.005 A 
ATOM      6  C5  UNL d   1      -1.313  -0.533   0.379  0.00  0.00    -0.074 A 
ATOM      7  C6  UNL d   1      -2.730  -0.469  -0.110  0.00  0.00     0.077 C 
ATOM      8  C7  UNL d   1      -0.448   0.546   0.155  0.00  0.00    -0.001 A 
ENDROOT
TORSDOF 0
ENDMDL
