MODEL 1
REMARK minimizedAffinity -4.87793875
REMARK minimizedRMSD -1
REMARK  0 active torsions:
REMARK  status: ('A' for Active; 'I' for Inactive)
ROOT
ATOM      1  C   UNL d   1       1.321   0.239   0.569  0.00  0.00     0.077 C 
ATOM      2  C1  UNL d   1       0.069  -0.136  -0.168  0.00  0.00    -0.074 A 
ATOM      3  C2  UNL d   1      -0.002  -0.037  -1.561  0.00  0.00    -0.005 A 
ATOM      4  C3  UNL d   1      -1.170  -0.398  -2.233  0.00  0.00     0.006 A 
ATOM      5  C4  UNL d   1      -2.276  -0.860  -1.520  0.00  0.00    -0.005 A 
ATOM      6  C5  UNL d   1      -2.224  -0.966  -0.127  0.00  0.00    -0.074 A 
ATOM      7  C6  UNL d   1      -3.401  -1.470   0.654  0.00  0.00     0.077 C 
ATOM      8  C7  UNL d   1      -1.045  -0.608   0.541  0.00  0.00    -0.001 A 
ENDROOT
TORSDOF 0
ENDMDL
