MODEL 1
REMARK minimizedAffinity -3.8649652
REMARK minimizedRMSD -1
REMARK  0 active torsions:
REMARK  status: ('A' for Active; 'I' for Inactive)
ROOT
ATOM      1  C   UNL d   1      -3.502  -0.527   0.116  0.00  0.00     0.077 C 
ATOM      2  C1  UNL d   1      -2.095  -0.255  -0.328  0.00  0.00    -0.074 A 
ATOM      3  C2  UNL d   1      -1.815   0.099  -1.651  0.00  0.00    -0.005 A 
ATOM      4  C3  UNL d   1      -0.503   0.358  -2.047  0.00  0.00     0.006 A 
ATOM      5  C4  UNL d   1       0.540   0.267  -1.125  0.00  0.00    -0.005 A 
ATOM      6  C5  UNL d   1       0.279  -0.084   0.203  0.00  0.00    -0.074 A 
ATOM      7  C6  UNL d   1       1.388  -0.177   1.209  0.00  0.00     0.077 C 
ATOM      8  C7  UNL d   1      -1.042  -0.337   0.595  0.00  0.00    -0.001 A 
ENDROOT
TORSDOF 0
ENDMDL
