MODEL 1
REMARK minimizedAffinity -5.14397764
REMARK minimizedRMSD -1
REMARK  0 active torsions:
REMARK  status: ('A' for Active; 'I' for Inactive)
ROOT
ATOM      1  C   UNL d   1      -3.205  -0.878  -0.340  0.00  0.00     0.077 C 
ATOM      2  C1  UNL d   1      -1.871  -0.907   0.344  0.00  0.00    -0.074 A 
ATOM      3  C2  UNL d   1      -1.634  -1.766   1.422  0.00  0.00    -0.005 A 
ATOM      4  C3  UNL d   1      -0.385  -1.789   2.043  0.00  0.00     0.006 A 
ATOM      5  C4  UNL d   1       0.639  -0.955   1.592  0.00  0.00    -0.005 A 
ATOM      6  C5  UNL d   1       0.421  -0.090   0.515  0.00  0.00    -0.074 A 
ATOM      7  C6  UNL d   1       1.514   0.806   0.011  0.00  0.00     0.077 C 
ATOM      8  C7  UNL d   1      -0.835  -0.078  -0.108  0.00  0.00    -0.001 A 
ENDROOT
TORSDOF 0
ENDMDL
