MODEL 1
REMARK minimizedAffinity -1.91620684
REMARK minimizedRMSD -1
REMARK  0 active torsions:
REMARK  status: ('A' for Active; 'I' for Inactive)
ROOT
ATOM      1  C   UNL d   1       1.963  -3.645   1.184  0.00  0.00     0.078 C 
ATOM      2  C1  UNL d   1       1.302  -2.359   1.583  0.00  0.00    -0.077 A 
ATOM      3  C2  UNL d   1       1.683  -1.143   1.004  0.00  0.00    -0.001 A 
ATOM      4  C3  UNL d   1       1.065   0.047   1.392  0.00  0.00     0.003 A 
ATOM      5  C4  UNL d   1       0.064   0.033   2.361  0.00  0.00    -0.005 A 
ATOM      6  C5  UNL d   1      -0.320  -1.173   2.944  0.00  0.00     0.003 A 
ATOM      7  C6  UNL d   1       0.297  -2.364   2.558  0.00  0.00    -0.001 A 
ENDROOT
TORSDOF 0
ENDMDL
