MODEL 1
REMARK minimizedAffinity 4.2414608
REMARK minimizedRMSD -1
REMARK  0 active torsions:
REMARK  status: ('A' for Active; 'I' for Inactive)
ROOT
ATOM      1  C   UNL d   1       0.857  -1.222  -1.125  0.00  0.00     0.078 C 
ATOM      2  C1  UNL d   1       1.571  -1.745   0.085  0.00  0.00    -0.077 A 
ATOM      3  C2  UNL d   1       2.966  -1.675   0.186  0.00  0.00    -0.001 A 
ATOM      4  C3  UNL d   1       3.618  -2.175   1.315  0.00  0.00     0.003 A 
ATOM      5  C4  UNL d   1       2.884  -2.750   2.350  0.00  0.00    -0.005 A 
ATOM      6  C5  UNL d   1       1.496  -2.827   2.257  0.00  0.00     0.003 A 
ATOM      7  C6  UNL d   1       0.842  -2.327   1.130  0.00  0.00    -0.001 A 
ENDROOT
TORSDOF 0
ENDMDL
