MODEL 1
REMARK minimizedAffinity 3.18868136
REMARK minimizedRMSD -1
REMARK  0 active torsions:
REMARK  status: ('A' for Active; 'I' for Inactive)
ROOT
ATOM      1  C   UNL d   1       1.960  -1.651   0.358  0.00  0.00     0.078 C 
ATOM      2  C1  UNL d   1       1.198  -1.541   1.645  0.00  0.00    -0.077 A 
ATOM      3  C2  UNL d   1       0.073  -2.339   1.887  0.00  0.00    -0.001 A 
ATOM      4  C3  UNL d   1      -0.632  -2.219   3.086  0.00  0.00     0.003 A 
ATOM      5  C4  UNL d   1      -0.222  -1.301   4.050  0.00  0.00    -0.005 A 
ATOM      6  C5  UNL d   1       0.895  -0.501   3.817  0.00  0.00     0.003 A 
ATOM      7  C6  UNL d   1       1.602  -0.620   2.619  0.00  0.00    -0.001 A 
ENDROOT
TORSDOF 0
ENDMDL
