MODEL 1
REMARK minimizedAffinity 2.50648546
REMARK minimizedRMSD -1
REMARK  0 active torsions:
REMARK  status: ('A' for Active; 'I' for Inactive)
ROOT
ATOM      1  C   UNL d   1      -0.774  -2.274   3.293  0.00  0.00     0.078 C 
ATOM      2  C1  UNL d   1       0.353  -2.805   2.459  0.00  0.00    -0.077 A 
ATOM      3  C2  UNL d   1       0.487  -4.178   2.217  0.00  0.00    -0.001 A 
ATOM      4  C3  UNL d   1       1.547  -4.659   1.447  0.00  0.00     0.003 A 
ATOM      5  C4  UNL d   1       2.481  -3.775   0.913  0.00  0.00    -0.005 A 
ATOM      6  C5  UNL d   1       2.358  -2.407   1.150  0.00  0.00     0.003 A 
ATOM      7  C6  UNL d   1       1.299  -1.924   1.920  0.00  0.00    -0.001 A 
ENDROOT
TORSDOF 0
ENDMDL
