MODEL 1
REMARK minimizedAffinity 1.83240235
REMARK minimizedRMSD -1
REMARK  0 active torsions:
REMARK  status: ('A' for Active; 'I' for Inactive)
ROOT
ATOM      1  C   UNL d   1       2.629   2.085   2.198  0.00  0.00     0.078 C 
ATOM      2  C1  UNL d   1       3.790   1.463   1.481  0.00  0.00    -0.077 A 
ATOM      3  C2  UNL d   1       3.782   0.106   1.137  0.00  0.00    -0.001 A 
ATOM      4  C3  UNL d   1       4.873  -0.462   0.479  0.00  0.00     0.003 A 
ATOM      5  C4  UNL d   1       5.982   0.319   0.159  0.00  0.00    -0.005 A 
ATOM      6  C5  UNL d   1       6.000   1.671   0.499  0.00  0.00     0.003 A 
ATOM      7  C6  UNL d   1       4.909   2.240   1.158  0.00  0.00    -0.001 A 
ENDROOT
TORSDOF 0
ENDMDL
