MODEL 1
REMARK minimizedAffinity 5.25875187
REMARK minimizedRMSD -1
REMARK  0 active torsions:
REMARK  status: ('A' for Active; 'I' for Inactive)
ROOT
ATOM      1  C   UNL d   1       1.656  -3.250   1.263  0.00  0.00     0.078 C 
ATOM      2  C1  UNL d   1       0.612  -2.411   1.937  0.00  0.00    -0.077 A 
ATOM      3  C2  UNL d   1       0.854  -1.823   3.185  0.00  0.00    -0.001 A 
ATOM      4  C3  UNL d   1      -0.131  -1.053   3.805  0.00  0.00     0.003 A 
ATOM      5  C4  UNL d   1      -1.366  -0.865   3.186  0.00  0.00    -0.005 A 
ATOM      6  C5  UNL d   1      -1.616  -1.448   1.946  0.00  0.00     0.003 A 
ATOM      7  C6  UNL d   1      -0.632  -2.218   1.324  0.00  0.00    -0.001 A 
ENDROOT
TORSDOF 0
ENDMDL
