MODEL 1
REMARK minimizedAffinity 4.57745409
REMARK minimizedRMSD -1
REMARK  0 active torsions:
REMARK  status: ('A' for Active; 'I' for Inactive)
ROOT
ATOM      1  C   UNL d   1       1.278  -1.615   0.743  0.00  0.00     0.078 C 
ATOM      2  C1  UNL d   1       2.101  -2.780   1.204  0.00  0.00    -0.077 A 
ATOM      3  C2  UNL d   1       2.108  -3.986   0.493  0.00  0.00    -0.001 A 
ATOM      4  C3  UNL d   1       2.873  -5.065   0.940  0.00  0.00     0.003 A 
ATOM      5  C4  UNL d   1       3.634  -4.950   2.101  0.00  0.00    -0.005 A 
ATOM      6  C5  UNL d   1       3.632  -3.754   2.817  0.00  0.00     0.003 A 
ATOM      7  C6  UNL d   1       2.869  -2.674   2.371  0.00  0.00    -0.001 A 
ENDROOT
TORSDOF 0
ENDMDL
