MODEL 1
REMARK minimizedAffinity 6.48232174
REMARK minimizedRMSD -1
REMARK  0 active torsions:
REMARK  status: ('A' for Active; 'I' for Inactive)
ROOT
ATOM      1  C   UNL d   1      -0.993  -0.865   3.579  0.00  0.00     0.078 C 
ATOM      2  C1  UNL d   1       0.115  -1.533   2.821  0.00  0.00    -0.077 A 
ATOM      3  C2  UNL d   1       1.180  -2.148   3.491  0.00  0.00    -0.001 A 
ATOM      4  C3  UNL d   1       2.210  -2.757   2.772  0.00  0.00     0.003 A 
ATOM      5  C4  UNL d   1       2.186  -2.757   1.379  0.00  0.00    -0.005 A 
ATOM      6  C5  UNL d   1       1.131  -2.146   0.703  0.00  0.00     0.003 A 
ATOM      7  C6  UNL d   1       0.101  -1.536   1.420  0.00  0.00    -0.001 A 
ENDROOT
TORSDOF 0
ENDMDL
