MODEL 1
REMARK minimizedAffinity 2.95771217
REMARK minimizedRMSD -1
REMARK  0 active torsions:
REMARK  status: ('A' for Active; 'I' for Inactive)
ROOT
ATOM      1  C   UNL d   1      -0.793   0.052  -0.797  0.00  0.00     0.078 C 
ATOM      2  C1  UNL d   1      -0.079  -0.811   0.200  0.00  0.00    -0.077 A 
ATOM      3  C2  UNL d   1      -0.665  -1.124   1.433  0.00  0.00    -0.001 A 
ATOM      4  C3  UNL d   1       0.015  -1.921   2.356  0.00  0.00     0.003 A 
ATOM      5  C4  UNL d   1       1.285  -2.411   2.055  0.00  0.00    -0.005 A 
ATOM      6  C5  UNL d   1       1.876  -2.103   0.832  0.00  0.00     0.003 A 
ATOM      7  C6  UNL d   1       1.198  -1.307  -0.092  0.00  0.00    -0.001 A 
ENDROOT
TORSDOF 0
ENDMDL
