MODEL 1
REMARK minimizedAffinity 9.01169109
REMARK minimizedRMSD -1
REMARK  0 active torsions:
REMARK  status: ('A' for Active; 'I' for Inactive)
ROOT
ATOM      1  C   UNL d   1      -5.132   2.796   6.000  0.00  0.00     0.077 C 
ATOM      2  C1  UNL d   1      -4.104   2.011   5.239  0.00  0.00    -0.074 A 
ATOM      3  C2  UNL d   1      -4.166   1.907   3.846  0.00  0.00    -0.005 A 
ATOM      4  C3  UNL d   1      -3.198   1.181   3.152  0.00  0.00     0.006 A 
ATOM      5  C4  UNL d   1      -2.160   0.554   3.843  0.00  0.00    -0.005 A 
ATOM      6  C5  UNL d   1      -2.081   0.649   5.236  0.00  0.00    -0.074 A 
ATOM      7  C6  UNL d   1      -0.967  -0.011   5.993  0.00  0.00     0.077 C 
ATOM      8  C7  UNL d   1      -3.054   1.385   5.926  0.00  0.00    -0.001 A 
ENDROOT
TORSDOF 0
ENDMDL
