MODEL 1
REMARK minimizedAffinity 5.93970013
REMARK minimizedRMSD -1
REMARK  0 active torsions:
REMARK  status: ('A' for Active; 'I' for Inactive)
ROOT
ATOM      1  C   UNL d   1      -3.893  -3.165   1.681  0.00  0.00     0.077 C 
ATOM      2  C1  UNL d   1      -2.619  -2.385   1.814  0.00  0.00    -0.074 A 
ATOM      3  C2  UNL d   1      -2.639  -0.993   1.956  0.00  0.00    -0.005 A 
ATOM      4  C3  UNL d   1      -1.447  -0.282   2.088  0.00  0.00     0.006 A 
ATOM      5  C4  UNL d   1      -0.224  -0.954   2.080  0.00  0.00    -0.005 A 
ATOM      6  C5  UNL d   1      -0.183  -2.345   1.940  0.00  0.00    -0.074 A 
ATOM      7  C6  UNL d   1       1.122  -3.083   1.939  0.00  0.00     0.077 C 
ATOM      8  C7  UNL d   1      -1.386  -3.053   1.814  0.00  0.00    -0.001 A 
ENDROOT
TORSDOF 0
ENDMDL
