MODEL 1
REMARK minimizedAffinity 4.69321823
REMARK minimizedRMSD -1
REMARK  0 active torsions:
REMARK  status: ('A' for Active; 'I' for Inactive)
ROOT
ATOM      1  C   UNL d   1      -4.510   2.840   6.000  0.00  0.00     0.077 C 
ATOM      2  C1  UNL d   1      -4.255   2.010   4.776  0.00  0.00    -0.074 A 
ATOM      3  C2  UNL d   1      -5.250   1.830   3.810  0.00  0.00    -0.005 A 
ATOM      4  C3  UNL d   1      -4.996   1.064   2.673  0.00  0.00     0.006 A 
ATOM      5  C4  UNL d   1      -3.746   0.471   2.490  0.00  0.00    -0.005 A 
ATOM      6  C5  UNL d   1      -2.738   0.641   3.445  0.00  0.00    -0.074 A 
ATOM      7  C6  UNL d   1      -1.386   0.019   3.260  0.00  0.00     0.077 C 
ATOM      8  C7  UNL d   1      -3.000   1.418   4.582  0.00  0.00    -0.001 A 
ENDROOT
TORSDOF 0
ENDMDL
