MODEL 1
REMARK minimizedAffinity 4.6389122
REMARK minimizedRMSD -1
REMARK  0 active torsions:
REMARK  status: ('A' for Active; 'I' for Inactive)
ROOT
ATOM      1  C   UNL d   1      -0.084  -2.662   2.264  0.00  0.00     0.077 C 
ATOM      2  C1  UNL d   1      -1.018  -1.500   2.430  0.00  0.00    -0.074 A 
ATOM      3  C2  UNL d   1      -0.916  -0.648   3.535  0.00  0.00    -0.005 A 
ATOM      4  C3  UNL d   1      -1.786   0.434   3.671  0.00  0.00     0.006 A 
ATOM      5  C4  UNL d   1      -2.765   0.675   2.706  0.00  0.00    -0.005 A 
ATOM      6  C5  UNL d   1      -2.881  -0.166   1.594  0.00  0.00    -0.074 A 
ATOM      7  C6  UNL d   1      -3.921   0.084   0.543  0.00  0.00     0.077 C 
ATOM      8  C7  UNL d   1      -1.999  -1.247   1.461  0.00  0.00    -0.001 A 
ENDROOT
TORSDOF 0
ENDMDL
