MODEL 1
REMARK minimizedAffinity 12.1738548
REMARK minimizedRMSD -1
REMARK  0 active torsions:
REMARK  status: ('A' for Active; 'I' for Inactive)
ROOT
ATOM      1  C   UNL d   1      -0.947  -0.087   5.999  0.00  0.00     0.077 C 
ATOM      2  C1  UNL d   1      -1.886   0.397   4.935  0.00  0.00    -0.074 A 
ATOM      3  C2  UNL d   1      -1.632   0.145   3.583  0.00  0.00    -0.005 A 
ATOM      4  C3  UNL d   1      -2.520   0.594   2.605  0.00  0.00     0.006 A 
ATOM      5  C4  UNL d   1      -3.669   1.296   2.969  0.00  0.00    -0.005 A 
ATOM      6  C5  UNL d   1      -3.941   1.556   4.316  0.00  0.00    -0.074 A 
ATOM      7  C6  UNL d   1      -5.177   2.301   4.724  0.00  0.00     0.077 C 
ATOM      8  C7  UNL d   1      -3.047   1.097   5.293  0.00  0.00    -0.001 A 
ENDROOT
TORSDOF 0
ENDMDL
