MODEL 1
REMARK minimizedAffinity 7.92813873
REMARK minimizedRMSD -1
REMARK  0 active torsions:
REMARK  status: ('A' for Active; 'I' for Inactive)
ROOT
ATOM      1  C   UNL d   1      -5.998   3.012   0.007  0.00  0.00     0.077 C 
ATOM      2  C1  UNL d   1      -5.858   1.557  -0.331  0.00  0.00    -0.074 A 
ATOM      3  C2  UNL d   1      -5.618   0.607   0.666  0.00  0.00    -0.005 A 
ATOM      4  C3  UNL d   1      -5.499  -0.743   0.338  0.00  0.00     0.006 A 
ATOM      5  C4  UNL d   1      -5.618  -1.157  -0.990  0.00  0.00    -0.005 A 
ATOM      6  C5  UNL d   1      -5.859  -0.221  -2.001  0.00  0.00    -0.074 A 
ATOM      7  C6  UNL d   1      -5.999  -0.649  -3.431  0.00  0.00     0.077 C 
ATOM      8  C7  UNL d   1      -5.984   1.133  -1.662  0.00  0.00    -0.001 A 
ENDROOT
TORSDOF 0
ENDMDL
