MODEL 1
REMARK minimizedAffinity 7.07729197
REMARK minimizedRMSD -1
REMARK  0 active torsions:
REMARK  status: ('A' for Active; 'I' for Inactive)
ROOT
ATOM      1  C   UNL d   1       5.882  -2.353  -1.155  0.00  0.00     0.077 C 
ATOM      2  C1  UNL d   1       5.155  -3.603  -0.758  0.00  0.00    -0.074 A 
ATOM      3  C2  UNL d   1       5.794  -4.847  -0.789  0.00  0.00    -0.005 A 
ATOM      4  C3  UNL d   1       5.108  -6.000  -0.407  0.00  0.00     0.006 A 
ATOM      5  C4  UNL d   1       3.779  -5.921   0.009  0.00  0.00    -0.005 A 
ATOM      6  C5  UNL d   1       3.124  -4.686   0.048  0.00  0.00    -0.074 A 
ATOM      7  C6  UNL d   1       1.698  -4.583   0.503  0.00  0.00     0.077 C 
ATOM      8  C7  UNL d   1       3.822  -3.531  -0.330  0.00  0.00    -0.001 A 
ENDROOT
TORSDOF 0
ENDMDL
