MODEL 1
REMARK minimizedAffinity 11.0368061
REMARK minimizedRMSD -1
REMARK  0 active torsions:
REMARK  status: ('A' for Active; 'I' for Inactive)
ROOT
ATOM      1  C   UNL d   1      -4.127   0.759   1.545  0.00  0.00     0.077 C 
ATOM      2  C1  UNL d   1      -3.617   0.993   2.936  0.00  0.00    -0.074 A 
ATOM      3  C2  UNL d   1      -2.450   0.368   3.388  0.00  0.00    -0.005 A 
ATOM      4  C3  UNL d   1      -1.983   0.603   4.681  0.00  0.00     0.006 A 
ATOM      5  C4  UNL d   1      -2.676   1.463   5.534  0.00  0.00    -0.005 A 
ATOM      6  C5  UNL d   1      -3.844   2.097   5.099  0.00  0.00    -0.074 A 
ATOM      7  C6  UNL d   1      -4.596   3.031   6.000  0.00  0.00     0.077 C 
ATOM      8  C7  UNL d   1      -4.304   1.861   3.796  0.00  0.00    -0.001 A 
ENDROOT
TORSDOF 0
ENDMDL
