MODEL 1
REMARK minimizedAffinity 6.87453175
REMARK minimizedRMSD -1
REMARK  0 active torsions:
REMARK  status: ('A' for Active; 'I' for Inactive)
ROOT
ATOM      1  C   UNL d   1      -1.460   0.742   4.500  0.00  0.00     0.077 C 
ATOM      2  C1  UNL d   1      -2.898   1.086   4.245  0.00  0.00    -0.074 A 
ATOM      3  C2  UNL d   1      -3.543   0.659   3.080  0.00  0.00    -0.005 A 
ATOM      4  C3  UNL d   1      -4.883   0.978   2.861  0.00  0.00     0.006 A 
ATOM      5  C4  UNL d   1      -5.590   1.728   3.802  0.00  0.00    -0.005 A 
ATOM      6  C5  UNL d   1      -4.961   2.163   4.973  0.00  0.00    -0.074 A 
ATOM      7  C6  UNL d   1      -5.709   2.961   5.999  0.00  0.00     0.077 C 
ATOM      8  C7  UNL d   1      -3.617   1.832   5.189  0.00  0.00    -0.001 A 
ENDROOT
TORSDOF 0
ENDMDL
