MODEL 1
REMARK minimizedAffinity 10.7633476
REMARK minimizedRMSD -1
REMARK  0 active torsions:
REMARK  status: ('A' for Active; 'I' for Inactive)
ROOT
ATOM      1  C   UNL d   1       1.675  -1.373   2.305  0.00  0.00     0.077 C 
ATOM      2  C1  UNL d   1       0.206  -1.076   2.252  0.00  0.00    -0.074 A 
ATOM      3  C2  UNL d   1      -0.650  -1.828   1.440  0.00  0.00    -0.005 A 
ATOM      4  C3  UNL d   1      -2.016  -1.547   1.409  0.00  0.00     0.006 A 
ATOM      5  C4  UNL d   1      -2.539  -0.513   2.187  0.00  0.00    -0.005 A 
ATOM      6  C5  UNL d   1      -1.699   0.248   3.005  0.00  0.00    -0.074 A 
ATOM      7  C6  UNL d   1      -2.246   1.356   3.855  0.00  0.00     0.077 C 
ATOM      8  C7  UNL d   1      -0.328  -0.045   3.037  0.00  0.00    -0.001 A 
ENDROOT
TORSDOF 0
ENDMDL
