MODEL 1
REMARK minimizedAffinity 13.4692268
REMARK minimizedRMSD -1
REMARK  0 active torsions:
REMARK  status: ('A' for Active; 'I' for Inactive)
ROOT
ATOM      1  C   UNL d   1      -1.553  -0.040   2.372  0.00  0.00     0.077 C 
ATOM      2  C1  UNL d   1      -2.974   0.357   2.641  0.00  0.00    -0.074 A 
ATOM      3  C2  UNL d   1      -4.015  -0.096   1.824  0.00  0.00    -0.005 A 
ATOM      4  C3  UNL d   1      -5.332   0.274   2.092  0.00  0.00     0.006 A 
ATOM      5  C4  UNL d   1      -5.622   1.100   3.179  0.00  0.00    -0.005 A 
ATOM      6  C5  UNL d   1      -4.595   1.562   4.008  0.00  0.00    -0.074 A 
ATOM      7  C6  UNL d   1      -4.891   2.443   5.186  0.00  0.00     0.077 C 
ATOM      8  C7  UNL d   1      -3.275   1.180   3.735  0.00  0.00    -0.001 A 
ENDROOT
TORSDOF 0
ENDMDL
