MODEL 1
REMARK minimizedAffinity 10.7162409
REMARK minimizedRMSD -1
REMARK  0 active torsions:
REMARK  status: ('A' for Active; 'I' for Inactive)
ROOT
ATOM      1  C   UNL d   1      -4.929   2.392   4.525  0.00  0.00     0.077 C 
ATOM      2  C1  UNL d   1      -3.600   1.697   4.503  0.00  0.00    -0.074 A 
ATOM      3  C2  UNL d   1      -2.792   1.656   5.645  0.00  0.00    -0.005 A 
ATOM      4  C3  UNL d   1      -1.563   0.998   5.612  0.00  0.00     0.006 A 
ATOM      5  C4  UNL d   1      -1.129   0.376   4.441  0.00  0.00    -0.005 A 
ATOM      6  C5  UNL d   1      -1.923   0.407   3.290  0.00  0.00    -0.074 A 
ATOM      7  C6  UNL d   1      -1.476  -0.264   2.025  0.00  0.00     0.077 C 
ATOM      8  C7  UNL d   1      -3.160   1.064   3.332  0.00  0.00    -0.001 A 
ENDROOT
TORSDOF 0
ENDMDL
