MODEL 1
REMARK minimizedAffinity 6.17846155
REMARK minimizedRMSD -1
REMARK  0 active torsions:
REMARK  status: ('A' for Active; 'I' for Inactive)
ROOT
ATOM      1  C   UNL d   1      -1.122   0.730   6.000  0.00  0.00     0.077 C 
ATOM      2  C1  UNL d   1      -0.792   0.172   4.647  0.00  0.00    -0.074 A 
ATOM      3  C2  UNL d   1      -1.455   0.625   3.502  0.00  0.00    -0.005 A 
ATOM      4  C3  UNL d   1      -1.131   0.104   2.249  0.00  0.00     0.006 A 
ATOM      5  C4  UNL d   1      -0.143  -0.874   2.130  0.00  0.00    -0.005 A 
ATOM      6  C5  UNL d   1       0.531  -1.339   3.264  0.00  0.00    -0.074 A 
ATOM      7  C6  UNL d   1       1.603  -2.383   3.151  0.00  0.00     0.077 C 
ATOM      8  C7  UNL d   1       0.205  -0.805   4.518  0.00  0.00    -0.001 A 
ENDROOT
TORSDOF 0
ENDMDL
