MODEL 1
REMARK minimizedAffinity 18.6091671
REMARK minimizedRMSD -1
REMARK  0 active torsions:
REMARK  status: ('A' for Active; 'I' for Inactive)
ROOT
ATOM      1  C   UNL d   1      -2.257   0.885   3.458  0.00  0.00     0.077 C 
ATOM      2  C1  UNL d   1      -1.552  -0.205   2.707  0.00  0.00    -0.074 A 
ATOM      3  C2  UNL d   1      -2.273  -1.181   2.012  0.00  0.00    -0.005 A 
ATOM      4  C3  UNL d   1      -1.603  -2.183   1.309  0.00  0.00     0.006 A 
ATOM      5  C4  UNL d   1      -0.209  -2.219   1.294  0.00  0.00    -0.005 A 
ATOM      6  C5  UNL d   1       0.529  -1.250   1.982  0.00  0.00    -0.074 A 
ATOM      7  C6  UNL d   1       2.029  -1.268   1.969  0.00  0.00     0.077 C 
ATOM      8  C7  UNL d   1      -0.151  -0.243   2.680  0.00  0.00    -0.001 A 
ENDROOT
TORSDOF 0
ENDMDL
