MODEL 1
REMARK minimizedAffinity 11.482338
REMARK minimizedRMSD -1
REMARK  0 active torsions:
REMARK  status: ('A' for Active; 'I' for Inactive)
ROOT
ATOM      1  C   UNL d   1       5.913   5.085  -1.836  0.00  0.00     0.077 C 
ATOM      2  C1  UNL d   1       4.433   4.906  -2.000  0.00  0.00    -0.074 A 
ATOM      3  C2  UNL d   1       3.564   6.000  -1.922  0.00  0.00    -0.005 A 
ATOM      4  C3  UNL d   1       2.191   5.820  -2.086  0.00  0.00     0.006 A 
ATOM      5  C4  UNL d   1       1.673   4.547  -2.328  0.00  0.00    -0.005 A 
ATOM      6  C5  UNL d   1       2.526   3.442  -2.410  0.00  0.00    -0.074 A 
ATOM      7  C6  UNL d   1       1.987   2.069  -2.679  0.00  0.00     0.077 C 
ATOM      8  C7  UNL d   1       3.906   3.632  -2.251  0.00  0.00    -0.001 A 
ENDROOT
TORSDOF 0
ENDMDL
