MODEL 1
REMARK minimizedAffinity 4.10341501
REMARK minimizedRMSD -1
REMARK  0 active torsions:
REMARK  status: ('A' for Active; 'I' for Inactive)
ROOT
ATOM      1  C   UNL d   1      -1.498  -5.250  -0.507  0.00  0.00     0.077 C 
ATOM      2  C1  UNL d   1      -1.337  -5.518  -1.974  0.00  0.00    -0.074 A 
ATOM      3  C2  UNL d   1      -2.453  -5.668  -2.804  0.00  0.00    -0.005 A 
ATOM      4  C3  UNL d   1      -2.288  -5.908  -4.168  0.00  0.00     0.006 A 
ATOM      5  C4  UNL d   1      -1.007  -5.999  -4.716  0.00  0.00    -0.005 A 
ATOM      6  C5  UNL d   1       0.120  -5.851  -3.901  0.00  0.00    -0.074 A 
ATOM      7  C6  UNL d   1       1.503  -5.937  -4.475  0.00  0.00     0.077 C 
ATOM      8  C7  UNL d   1      -0.054  -5.604  -2.533  0.00  0.00    -0.001 A 
ENDROOT
TORSDOF 0
ENDMDL
