MODEL 1
REMARK minimizedAffinity 13.0660048
REMARK minimizedRMSD -1
REMARK  0 active torsions:
REMARK  status: ('A' for Active; 'I' for Inactive)
ROOT
ATOM      1  C   UNL d   1       0.337  -0.856   1.829  0.00  0.00     0.077 C 
ATOM      2  C1  UNL d   1      -0.876  -0.257   2.477  0.00  0.00    -0.074 A 
ATOM      3  C2  UNL d   1      -0.789   0.375   3.722  0.00  0.00    -0.005 A 
ATOM      4  C3  UNL d   1      -1.924   0.936   4.307  0.00  0.00     0.006 A 
ATOM      5  C4  UNL d   1      -3.156   0.871   3.655  0.00  0.00    -0.005 A 
ATOM      6  C5  UNL d   1      -3.262   0.244   2.409  0.00  0.00    -0.074 A 
ATOM      7  C6  UNL d   1      -4.577   0.175   1.690  0.00  0.00     0.077 C 
ATOM      8  C7  UNL d   1      -2.116  -0.311   1.824  0.00  0.00    -0.001 A 
ENDROOT
TORSDOF 0
ENDMDL
