MODEL 1
REMARK minimizedAffinity 6.79719973
REMARK minimizedRMSD -1
REMARK  0 active torsions:
REMARK  status: ('A' for Active; 'I' for Inactive)
ROOT
ATOM      1  C   UNL d   1       1.936  -1.402   3.149  0.00  0.00     0.077 C 
ATOM      2  C1  UNL d   1       0.569  -0.879   2.822  0.00  0.00    -0.074 A 
ATOM      3  C2  UNL d   1      -0.063  -1.221   1.622  0.00  0.00    -0.005 A 
ATOM      4  C3  UNL d   1      -1.339  -0.735   1.336  0.00  0.00     0.006 A 
ATOM      5  C4  UNL d   1      -1.994   0.097   2.245  0.00  0.00    -0.005 A 
ATOM      6  C5  UNL d   1      -1.378   0.449   3.450  0.00  0.00    -0.074 A 
ATOM      7  C6  UNL d   1      -2.072   1.333   4.442  0.00  0.00     0.077 C 
ATOM      8  C7  UNL d   1      -0.099  -0.050   3.733  0.00  0.00    -0.001 A 
ENDROOT
TORSDOF 0
ENDMDL
