MODEL 1
REMARK minimizedAffinity 11.2034836
REMARK minimizedRMSD -1
REMARK  2 active torsions:
REMARK  status: ('A' for Active; 'I' for Inactive)
REMARK    1  A    between atoms: C2'_3  and  C1'_4 
REMARK    2  A    between atoms: C1'_4  and  C1_5 
ROOT
ATOM      1  C1  I4B d   1       4.357   0.920  -2.568  0.00  0.00    -0.075 A 
ATOM      2  C2  I4B d   1       3.591  -0.206  -2.402  0.00  0.00     0.003 A 
ATOM      3  C3  I4B d   1       4.030  -1.450  -2.917  0.00  0.00     0.002 A 
ATOM      4  C4  I4B d   1       5.210  -1.511  -3.630  0.00  0.00    -0.004 A 
ATOM      5  C5  I4B d   1       5.997  -0.373  -3.778  0.00  0.00     0.002 A 
ATOM      6  C6  I4B d   1       5.574   0.848  -3.233  0.00  0.00     0.003 A 
ENDROOT
BRANCH   1   7
ATOM      7  C1' I4B d   1       3.847   2.223  -2.040  0.00  0.00     0.060 C 
BRANCH   7   8
ATOM      8  C2' I4B d   1       4.680   2.595  -0.830  0.00  0.00    -0.013 C 
ATOM      9  C4' I4B d   1       5.417   3.889  -1.051  0.00  0.00     0.013 C 
ATOM     10  C3' I4B d   1       3.763   2.689   0.353  0.00  0.00     0.013 C 
ENDBRANCH   7   8
ENDBRANCH   1   7
TORSDOF 2
ENDMDL
