MODEL 1
REMARK minimizedAffinity 12.068614
REMARK minimizedRMSD -1
REMARK  2 active torsions:
REMARK  status: ('A' for Active; 'I' for Inactive)
REMARK    1  A    between atoms: C2'_3  and  C1'_4 
REMARK    2  A    between atoms: C1'_4  and  C1_5 
ROOT
ATOM      1  C1  I4B d   1       0.332  -0.806  -0.373  0.00  0.00    -0.075 A 
ATOM      2  C2  I4B d   1      -0.257  -1.126  -1.571  0.00  0.00     0.003 A 
ATOM      3  C3  I4B d   1      -1.667  -1.210  -1.672  0.00  0.00     0.002 A 
ATOM      4  C4  I4B d   1      -2.441  -1.017  -0.547  0.00  0.00    -0.004 A 
ATOM      5  C5  I4B d   1      -1.844  -0.670   0.662  0.00  0.00     0.002 A 
ATOM      6  C6  I4B d   1      -0.449  -0.552   0.747  0.00  0.00     0.003 A 
ENDROOT
BRANCH   1   7
ATOM      7  C1' I4B d   1       1.825  -0.759  -0.294  0.00  0.00     0.060 C 
BRANCH   7   8
ATOM      8  C2' I4B d   1       2.331   0.030  -1.485  0.00  0.00    -0.013 C 
ATOM      9  C4' I4B d   1       3.039   1.284  -1.047  0.00  0.00     0.013 C 
ATOM     10  C3' I4B d   1       3.244  -0.860  -2.276  0.00  0.00     0.013 C 
ENDBRANCH   7   8
ENDBRANCH   1   7
TORSDOF 2
ENDMDL
