MODEL 1
REMARK minimizedAffinity 15.3299379
REMARK minimizedRMSD -1
REMARK  2 active torsions:
REMARK  status: ('A' for Active; 'I' for Inactive)
REMARK    1  A    between atoms: C2'_3  and  C1'_4 
REMARK    2  A    between atoms: C1'_4  and  C1_5 
ROOT
ATOM      1  C1  I4B d   1       4.094   1.303  -2.218  0.00  0.00    -0.075 A 
ATOM      2  C2  I4B d   1       3.527   0.053  -2.247  0.00  0.00     0.003 A 
ATOM      3  C3  I4B d   1       4.203  -1.022  -2.873  0.00  0.00     0.002 A 
ATOM      4  C4  I4B d   1       5.412  -0.793  -3.497  0.00  0.00    -0.004 A 
ATOM      5  C5  I4B d   1       5.996   0.470  -3.447  0.00  0.00     0.002 A 
ATOM      6  C6  I4B d   1       5.339   1.522  -2.792  0.00  0.00     0.003 A 
ENDROOT
BRANCH   1   7
ATOM      7  C1' I4B d   1       3.337   2.423  -1.577  0.00  0.00     0.060 C 
BRANCH   7   8
ATOM      8  C2' I4B d   1       4.226   3.040  -0.516  0.00  0.00    -0.013 C 
ATOM      9  C4' I4B d   1       4.537   4.478  -0.835  0.00  0.00     0.013 C 
ATOM     10  C3' I4B d   1       3.525   2.917   0.804  0.00  0.00     0.013 C 
ENDBRANCH   7   8
ENDBRANCH   1   7
TORSDOF 2
ENDMDL
