MODEL 1
REMARK minimizedAffinity 4.56115055
REMARK minimizedRMSD -1
REMARK  2 active torsions:
REMARK  status: ('A' for Active; 'I' for Inactive)
REMARK    1  A    between atoms: C2'_3  and  C1'_4 
REMARK    2  A    between atoms: C1'_4  and  C1_5 
ROOT
ATOM      1  C1  I4B d   1       4.682   3.603   5.525  0.00  0.00    -0.075 A 
ATOM      2  C2  I4B d   1       5.206   4.868   5.432  0.00  0.00     0.003 A 
ATOM      3  C3  I4B d   1       4.376   6.000   5.617  0.00  0.00     0.002 A 
ATOM      4  C4  I4B d   1       3.026   5.823   5.841  0.00  0.00    -0.004 A 
ATOM      5  C5  I4B d   1       2.500   4.539   5.958  0.00  0.00     0.002 A 
ATOM      6  C6  I4B d   1       3.335   3.422   5.812  0.00  0.00     0.003 A 
ENDROOT
BRANCH   1   7
ATOM      7  C1' I4B d   1       5.581   2.431   5.292  0.00  0.00     0.060 C 
BRANCH   7   8
ATOM      8  C2' I4B d   1       5.884   2.363   3.809  0.00  0.00    -0.013 C 
ATOM      9  C4' I4B d   1       5.836   0.944   3.307  0.00  0.00     0.013 C 
ATOM     10  C3' I4B d   1       4.887   3.224   3.093  0.00  0.00     0.013 C 
ENDBRANCH   7   8
ENDBRANCH   1   7
TORSDOF 2
ENDMDL
