MODEL 1
REMARK minimizedAffinity 19.4932766
REMARK minimizedRMSD -1
REMARK  2 active torsions:
REMARK  status: ('A' for Active; 'I' for Inactive)
REMARK    1  A    between atoms: C2'_3  and  C1'_4 
REMARK    2  A    between atoms: C1'_4  and  C1_5 
ROOT
ATOM      1  C1  I4B d   1       4.359   1.816  -2.686  0.00  0.00    -0.075 A 
ATOM      2  C2  I4B d   1       5.538   1.851  -3.387  0.00  0.00     0.003 A 
ATOM      3  C3  I4B d   1       5.999   0.696  -4.065  0.00  0.00     0.002 A 
ATOM      4  C4  I4B d   1       5.280  -0.478  -3.973  0.00  0.00    -0.004 A 
ATOM      5  C5  I4B d   1       4.073  -0.506  -3.280  0.00  0.00     0.002 A 
ATOM      6  C6  I4B d   1       3.603   0.652  -2.643  0.00  0.00     0.003 A 
ENDROOT
BRANCH   1   7
ATOM      7  C1' I4B d   1       3.918   3.044  -1.955  0.00  0.00     0.060 C 
BRANCH   7   8
ATOM      8  C2' I4B d   1       4.989   3.393  -0.941  0.00  0.00    -0.013 C 
ATOM      9  C4' I4B d   1       5.436   4.823  -1.089  0.00  0.00     0.013 C 
ATOM     10  C3' I4B d   1       4.429   3.140   0.428  0.00  0.00     0.013 C 
ENDBRANCH   7   8
ENDBRANCH   1   7
TORSDOF 2
ENDMDL
