MODEL 1
REMARK minimizedAffinity 4.60545206
REMARK minimizedRMSD -1
REMARK  2 active torsions:
REMARK  status: ('A' for Active; 'I' for Inactive)
REMARK    1  A    between atoms: C2'_3  and  C1'_4 
REMARK    2  A    between atoms: C1'_4  and  C1_5 
ROOT
ATOM      1  C1  I4B d   1       5.329   0.752  -1.920  0.00  0.00    -0.075 A 
ATOM      2  C2  I4B d   1       4.036   0.539  -1.510  0.00  0.00     0.003 A 
ATOM      3  C3  I4B d   1       3.373  -0.667  -1.842  0.00  0.00     0.002 A 
ATOM      4  C4  I4B d   1       4.017  -1.604  -2.623  0.00  0.00    -0.004 A 
ATOM      5  C5  I4B d   1       5.335  -1.396  -3.020  0.00  0.00     0.002 A 
ATOM      6  C6  I4B d   1       6.000  -0.216  -2.656  0.00  0.00     0.003 A 
ENDROOT
BRANCH   1   7
ATOM      7  C1' I4B d   1       5.988   2.051  -1.580  0.00  0.00     0.060 C 
BRANCH   7   8
ATOM      8  C2' I4B d   1       5.999   2.188  -0.071  0.00  0.00    -0.013 C 
ATOM      9  C4' I4B d   1       4.837   3.017   0.410  0.00  0.00     0.013 C 
ATOM     10  C3' I4B d   1       5.961   0.810   0.519  0.00  0.00     0.013 C 
ENDBRANCH   7   8
ENDBRANCH   1   7
TORSDOF 2
ENDMDL
