MODEL 1
REMARK minimizedAffinity -1.69549298
REMARK minimizedRMSD -1
REMARK  2 active torsions:
REMARK  status: ('A' for Active; 'I' for Inactive)
REMARK    1  A    between atoms: C2'_3  and  C1'_4 
REMARK    2  A    between atoms: C1'_4  and  C1_5 
ROOT
ATOM      1  C1  I4B d   1      -1.256  -0.181  -0.674  0.00  0.00    -0.075 A 
ATOM      2  C2  I4B d   1      -1.105   0.182   0.641  0.00  0.00     0.003 A 
ATOM      3  C3  I4B d   1      -2.214   0.147   1.521  0.00  0.00     0.002 A 
ATOM      4  C4  I4B d   1      -3.457  -0.205   1.035  0.00  0.00    -0.004 A 
ATOM      5  C5  I4B d   1      -3.603  -0.594  -0.293  0.00  0.00     0.002 A 
ATOM      6  C6  I4B d   1      -2.493  -0.594  -1.151  0.00  0.00     0.003 A 
ENDROOT
BRANCH   1   7
ATOM      7  C1' I4B d   1      -0.071  -0.102  -1.584  0.00  0.00     0.060 C 
BRANCH   7   8
ATOM      8  C2' I4B d   1      -0.418   0.836  -2.722  0.00  0.00    -0.013 C 
ATOM      9  C4' I4B d   1      -0.588   2.250  -2.232  0.00  0.00     0.013 C 
ATOM     10  C3' I4B d   1       0.674   0.745  -3.746  0.00  0.00     0.013 C 
ENDBRANCH   7   8
ENDBRANCH   1   7
TORSDOF 2
ENDMDL
