MODEL 1
REMARK minimizedAffinity -2.28989387
REMARK minimizedRMSD -1
REMARK  2 active torsions:
REMARK  status: ('A' for Active; 'I' for Inactive)
REMARK    1  A    between atoms: C2'_3  and  C1'_4 
REMARK    2  A    between atoms: C1'_4  and  C1_5 
ROOT
ATOM      1  C1  I4B d   1      -1.071  -0.392   0.117  0.00  0.00    -0.075 A 
ATOM      2  C2  I4B d   1      -0.310  -1.025   1.068  0.00  0.00     0.003 A 
ATOM      3  C3  I4B d   1      -0.759  -2.234   1.651  0.00  0.00     0.002 A 
ATOM      4  C4  I4B d   1      -1.990  -2.746   1.292  0.00  0.00    -0.004 A 
ATOM      5  C5  I4B d   1      -2.749  -2.115   0.311  0.00  0.00     0.002 A 
ATOM      6  C6  I4B d   1      -2.282  -0.937  -0.290  0.00  0.00     0.003 A 
ENDROOT
BRANCH   1   7
ATOM      7  C1' I4B d   1      -0.582   0.902  -0.454  0.00  0.00     0.060 C 
BRANCH   7   8
ATOM      8  C2' I4B d   1       0.484   0.584  -1.483  0.00  0.00    -0.013 C 
ATOM      9  C4' I4B d   1       0.042   0.982  -2.866  0.00  0.00     0.013 C 
ATOM     10  C3' I4B d   1       1.738   1.305  -1.087  0.00  0.00     0.013 C 
ENDBRANCH   7   8
ENDBRANCH   1   7
TORSDOF 2
ENDMDL
