MODEL 1
REMARK minimizedAffinity 0.910952091
REMARK minimizedRMSD -1
REMARK  2 active torsions:
REMARK  status: ('A' for Active; 'I' for Inactive)
REMARK    1  A    between atoms: C2'_3  and  C1'_4 
REMARK    2  A    between atoms: C1'_4  and  C1_5 
ROOT
ATOM      1  C1  I4B d   1      -0.753  -0.372   0.373  0.00  0.00    -0.075 A 
ATOM      2  C2  I4B d   1       0.380  -0.867   0.969  0.00  0.00     0.003 A 
ATOM      3  C3  I4B d   1       1.635  -0.749   0.324  0.00  0.00     0.002 A 
ATOM      4  C4  I4B d   1       1.703  -0.177  -0.930  0.00  0.00    -0.004 A 
ATOM      5  C5  I4B d   1       0.557   0.345  -1.523  0.00  0.00     0.002 A 
ATOM      6  C6  I4B d   1      -0.677   0.259  -0.862  0.00  0.00     0.003 A 
ENDROOT
BRANCH   1   7
ATOM      7  C1' I4B d   1      -2.066  -0.544   1.067  0.00  0.00     0.060 C 
BRANCH   7   8
ATOM      8  C2' I4B d   1      -3.125  -0.788   0.011  0.00  0.00    -0.013 C 
ATOM      9  C4' I4B d   1      -2.589  -1.638  -1.111  0.00  0.00     0.013 C 
ATOM     10  C3' I4B d   1      -4.299  -1.444   0.674  0.00  0.00     0.013 C 
ENDBRANCH   7   8
ENDBRANCH   1   7
TORSDOF 2
ENDMDL
