MODEL 1
REMARK minimizedAffinity -2.64252901
REMARK minimizedRMSD -1
REMARK  2 active torsions:
REMARK  status: ('A' for Active; 'I' for Inactive)
REMARK    1  A    between atoms: C2'_3  and  C1'_4 
REMARK    2  A    between atoms: C1'_4  and  C1_5 
ROOT
ATOM      1  C1  I4B d   1      -0.540  -0.622   0.885  0.00  0.00    -0.075 A 
ATOM      2  C2  I4B d   1      -1.541  -0.291   0.006  0.00  0.00     0.003 A 
ATOM      3  C3  I4B d   1      -2.627  -1.175  -0.204  0.00  0.00     0.002 A 
ATOM      4  C4  I4B d   1      -2.646  -2.393   0.444  0.00  0.00    -0.004 A 
ATOM      5  C5  I4B d   1      -1.643  -2.717   1.352  0.00  0.00     0.002 A 
ATOM      6  C6  I4B d   1      -0.589  -1.822   1.584  0.00  0.00     0.003 A 
ENDROOT
BRANCH   1   7
ATOM      7  C1' I4B d   1       0.609   0.320   1.057  0.00  0.00     0.060 C 
BRANCH   7   8
ATOM      8  C2' I4B d   1       1.415   0.312  -0.226  0.00  0.00    -0.013 C 
ATOM      9  C4' I4B d   1       0.520   0.412  -1.433  0.00  0.00     0.013 C 
ATOM     10  C3' I4B d   1       2.381   1.458  -0.172  0.00  0.00     0.013 C 
ENDBRANCH   7   8
ENDBRANCH   1   7
TORSDOF 2
ENDMDL
