MODEL 1
REMARK minimizedAffinity -6.07998228
REMARK minimizedRMSD -1
REMARK  1 active torsions:
REMARK  status: ('A' for Active; 'I' for Inactive)
REMARK    1  A    between atoms: C1_2  and  C2_3 
ROOT
ATOM      1  C2  UNL d   1      -1.375  -0.987   0.362  0.00  0.00    -0.081 A 
ATOM      2  C3  UNL d   1      -2.774  -0.934   0.345  0.00  0.00     0.006 A 
ATOM      3  C4  UNL d   1      -3.450   0.134   0.939  0.00  0.00     0.002 A 
ATOM      4  C5  UNL d   1      -2.739   1.172   1.551  0.00  0.00    -0.080 A 
ATOM      5  C6  UNL d   1      -3.451   2.340   2.166  0.00  0.00     0.076 C 
ATOM      6  C7  UNL d   1      -1.342   1.111   1.583  0.00  0.00     0.002 A 
ATOM      7  C8  UNL d   1      -0.665   0.042   0.991  0.00  0.00     0.006 A 
ENDROOT
BRANCH   1   8
ATOM      8  C1  UNL d   1      -0.641  -2.105  -0.333  0.00  0.00     0.054 C 
ATOM      9  C   UNL d   1      -0.655  -1.920  -1.844  0.00  0.00     0.018 C 
ENDBRANCH   1   8
TORSDOF 1
ENDMDL
