MODEL 1
REMARK minimizedAffinity -5.76501656
REMARK minimizedRMSD -1
REMARK  1 active torsions:
REMARK  status: ('A' for Active; 'I' for Inactive)
REMARK    1  A    between atoms: C1_2  and  C2_3 
ROOT
ATOM      1  C2  UNL d   1      -0.764  -1.084  -0.068  0.00  0.00    -0.081 A 
ATOM      2  C3  UNL d   1      -0.667  -1.803  -1.266  0.00  0.00     0.006 A 
ATOM      3  C4  UNL d   1       0.583  -2.119  -1.803  0.00  0.00     0.002 A 
ATOM      4  C5  UNL d   1       1.756  -1.729  -1.148  0.00  0.00    -0.080 A 
ATOM      5  C6  UNL d   1       3.104  -2.088  -1.699  0.00  0.00     0.076 C 
ATOM      6  C7  UNL d   1       1.660  -0.995   0.039  0.00  0.00     0.002 A 
ATOM      7  C8  UNL d   1       0.410  -0.678   0.576  0.00  0.00     0.006 A 
ENDROOT
BRANCH   1   8
ATOM      8  C1  UNL d   1      -2.110  -0.797   0.548  0.00  0.00     0.054 C 
ATOM      9  C   UNL d   1      -2.026  -0.757   2.067  0.00  0.00     0.018 C 
ENDBRANCH   1   8
TORSDOF 1
ENDMDL
