MODEL 1
REMARK minimizedAffinity -3.43713808
REMARK minimizedRMSD -1
REMARK  1 active torsions:
REMARK  status: ('A' for Active; 'I' for Inactive)
REMARK    1  A    between atoms: C1_2  and  C2_3 
ROOT
ATOM      1  C2  UNL d   1      -1.435  -0.405   1.617  0.00  0.00    -0.081 A 
ATOM      2  C3  UNL d   1      -2.403  -1.048   0.836  0.00  0.00     0.006 A 
ATOM      3  C4  UNL d   1      -3.740  -0.646   0.893  0.00  0.00     0.002 A 
ATOM      4  C5  UNL d   1      -4.129   0.409   1.725  0.00  0.00    -0.080 A 
ATOM      5  C6  UNL d   1      -5.556   0.870   1.773  0.00  0.00     0.076 C 
ATOM      6  C7  UNL d   1      -3.165   1.040   2.518  0.00  0.00     0.002 A 
ATOM      7  C8  UNL d   1      -1.828   0.638   2.462  0.00  0.00     0.006 A 
ENDROOT
BRANCH   1   8
ATOM      8  C1  UNL d   1       0.018  -0.793   1.509  0.00  0.00     0.054 C 
ATOM      9  C   UNL d   1       0.254  -1.732   0.335  0.00  0.00     0.018 C 
ENDBRANCH   1   8
TORSDOF 1
ENDMDL
