MODEL 1
REMARK minimizedAffinity -5.86153841
REMARK minimizedRMSD -1
REMARK  1 active torsions:
REMARK  status: ('A' for Active; 'I' for Inactive)
REMARK    1  A    between atoms: C1_2  and  C2_3 
ROOT
ATOM      1  C2  UNL d   1      -0.491  -0.826  -0.105  0.00  0.00    -0.081 A 
ATOM      2  C3  UNL d   1      -1.830  -0.420  -0.126  0.00  0.00     0.006 A 
ATOM      3  C4  UNL d   1      -2.400   0.197   0.990  0.00  0.00     0.002 A 
ATOM      4  C5  UNL d   1      -1.639   0.426   2.142  0.00  0.00    -0.080 A 
ATOM      5  C6  UNL d   1      -2.230   1.114   3.336  0.00  0.00     0.076 C 
ATOM      6  C7  UNL d   1      -0.305   0.004   2.168  0.00  0.00     0.002 A 
ATOM      7  C8  UNL d   1       0.265  -0.614   1.053  0.00  0.00     0.006 A 
ENDROOT
BRANCH   1   8
ATOM      8  C1  UNL d   1       0.145  -1.433  -1.330  0.00  0.00     0.054 C 
ATOM      9  C   UNL d   1       1.166  -2.497  -0.954  0.00  0.00     0.018 C 
ENDBRANCH   1   8
TORSDOF 1
ENDMDL
