MODEL 1
REMARK minimizedAffinity -5.50873709
REMARK minimizedRMSD -1
REMARK  1 active torsions:
REMARK  status: ('A' for Active; 'I' for Inactive)
REMARK    1  A    between atoms: C1_2  and  C2_3 
ROOT
ATOM      1  C2  UNL d   1      -0.033  -0.822   1.463  0.00  0.00    -0.081 A 
ATOM      2  C3  UNL d   1      -0.499  -0.749   0.145  0.00  0.00     0.006 A 
ATOM      3  C4  UNL d   1      -1.813  -0.357  -0.121  0.00  0.00     0.002 A 
ATOM      4  C5  UNL d   1      -2.680  -0.024   0.926  0.00  0.00    -0.080 A 
ATOM      5  C6  UNL d   1      -4.083   0.428   0.653  0.00  0.00     0.076 C 
ATOM      6  C7  UNL d   1      -2.219  -0.112   2.244  0.00  0.00     0.002 A 
ATOM      7  C8  UNL d   1      -0.905  -0.505   2.510  0.00  0.00     0.006 A 
ENDROOT
BRANCH   1   8
ATOM      8  C1  UNL d   1       1.403  -1.182   1.750  0.00  0.00     0.054 C 
ATOM      9  C   UNL d   1       1.954  -2.137   0.700  0.00  0.00     0.018 C 
ENDBRANCH   1   8
TORSDOF 1
ENDMDL
