MODEL 1
REMARK minimizedAffinity -3.79824877
REMARK minimizedRMSD -1
REMARK  1 active torsions:
REMARK  status: ('A' for Active; 'I' for Inactive)
REMARK    1  A    between atoms: C1_2  and  C2_3 
ROOT
ATOM      1  C2  UNL d   1      -0.601  -1.199   1.268  0.00  0.00    -0.081 A 
ATOM      2  C3  UNL d   1      -1.087  -1.369  -0.034  0.00  0.00     0.006 A 
ATOM      3  C4  UNL d   1      -2.333  -0.853  -0.397  0.00  0.00     0.002 A 
ATOM      4  C5  UNL d   1      -3.110  -0.152   0.531  0.00  0.00    -0.080 A 
ATOM      5  C6  UNL d   1      -4.435   0.434   0.146  0.00  0.00     0.076 C 
ATOM      6  C7  UNL d   1      -2.632   0.003   1.837  0.00  0.00     0.002 A 
ATOM      7  C8  UNL d   1      -1.386  -0.513   2.202  0.00  0.00     0.006 A 
ENDROOT
BRANCH   1   8
ATOM      8  C1  UNL d   1       0.770  -1.698   1.646  0.00  0.00     0.054 C 
ATOM      9  C   UNL d   1       0.969  -1.684   3.155  0.00  0.00     0.018 C 
ENDBRANCH   1   8
TORSDOF 1
ENDMDL
