MODEL 1
REMARK minimizedAffinity -5.70126772
REMARK minimizedRMSD -1
REMARK  1 active torsions:
REMARK  status: ('A' for Active; 'I' for Inactive)
REMARK    1  A    between atoms: C1_2  and  C2_3 
ROOT
ATOM      1  C2  UNL d   1      -1.554  -0.464   1.641  0.00  0.00    -0.081 A 
ATOM      2  C3  UNL d   1      -0.631  -0.630   2.681  0.00  0.00     0.006 A 
ATOM      3  C4  UNL d   1       0.660  -1.093   2.416  0.00  0.00     0.002 A 
ATOM      4  C5  UNL d   1       1.052  -1.390   1.106  0.00  0.00    -0.080 A 
ATOM      5  C6  UNL d   1       2.444  -1.858   0.803  0.00  0.00     0.076 C 
ATOM      6  C7  UNL d   1       0.125  -1.240   0.069  0.00  0.00     0.002 A 
ATOM      7  C8  UNL d   1      -1.166  -0.778   0.334  0.00  0.00     0.006 A 
ENDROOT
BRANCH   1   8
ATOM      8  C1  UNL d   1      -2.926   0.096   1.916  0.00  0.00     0.054 C 
ATOM      9  C   UNL d   1      -3.709   0.298   0.627  0.00  0.00     0.018 C 
ENDBRANCH   1   8
TORSDOF 1
ENDMDL
