MODEL 1
REMARK minimizedAffinity -3.00841665
REMARK minimizedRMSD -1
REMARK  1 active torsions:
REMARK  status: ('A' for Active; 'I' for Inactive)
REMARK    1  A    between atoms: C1_2  and  C2_3 
ROOT
ATOM      1  C2  UNL d   1      -0.418  -1.436  -1.266  0.00  0.00    -0.081 A 
ATOM      2  C3  UNL d   1      -0.866  -2.387  -0.341  0.00  0.00     0.006 A 
ATOM      3  C4  UNL d   1      -1.423  -1.983   0.875  0.00  0.00     0.002 A 
ATOM      4  C5  UNL d   1      -1.549  -0.624   1.182  0.00  0.00    -0.080 A 
ATOM      5  C6  UNL d   1      -2.173  -0.178   2.471  0.00  0.00     0.076 C 
ATOM      6  C7  UNL d   1      -1.085   0.325   0.265  0.00  0.00     0.002 A 
ATOM      7  C8  UNL d   1      -0.527  -0.078  -0.950  0.00  0.00     0.006 A 
ENDROOT
BRANCH   1   8
ATOM      8  C1  UNL d   1       0.124  -1.867  -2.605  0.00  0.00     0.054 C 
ATOM      9  C   UNL d   1      -0.387  -0.970  -3.723  0.00  0.00     0.018 C 
ENDBRANCH   1   8
TORSDOF 1
ENDMDL
