MODEL 1
REMARK minimizedAffinity -3.50861263
REMARK minimizedRMSD -1
REMARK  1 active torsions:
REMARK  status: ('A' for Active; 'I' for Inactive)
REMARK    1  A    between atoms: C1_2  and  C2_3 
ROOT
ATOM      1  C2  UNL d   1      -0.453  -1.161   1.521  0.00  0.00    -0.081 A 
ATOM      2  C3  UNL d   1      -1.120  -1.754   0.441  0.00  0.00     0.006 A 
ATOM      3  C4  UNL d   1      -2.389  -1.308   0.063  0.00  0.00     0.002 A 
ATOM      4  C5  UNL d   1      -3.008  -0.259   0.751  0.00  0.00    -0.080 A 
ATOM      5  C6  UNL d   1      -4.356   0.249   0.335  0.00  0.00     0.076 C 
ATOM      6  C7  UNL d   1      -2.349   0.321   1.840  0.00  0.00     0.002 A 
ATOM      7  C8  UNL d   1      -1.080  -0.124   2.219  0.00  0.00     0.006 A 
ENDROOT
BRANCH   1   8
ATOM      8  C1  UNL d   1       0.942  -1.596   1.891  0.00  0.00     0.054 C 
ATOM      9  C   UNL d   1       1.161  -1.529   3.396  0.00  0.00     0.018 C 
ENDBRANCH   1   8
TORSDOF 1
ENDMDL
