MODEL 1
REMARK minimizedAffinity 7.85371685
REMARK minimizedRMSD -1
REMARK  0 active torsions:
REMARK  status: ('A' for Active; 'I' for Inactive)
ROOT
ATOM      1  C   UNL d   1      -0.330   1.337   0.841  0.00  0.00     0.124 A 
ATOM      2  C1  UNL d   1      -0.431   1.385   2.225  0.00  0.00     0.062 A 
ATOM      3  C2  UNL d   1      -1.215   0.455   2.901  0.00  0.00     0.162 A 
ATOM      4  C3  UNL d   1      -1.903  -0.532   2.196  0.00  0.00    -0.034 A 
ATOM      5  C4  UNL d   1      -1.797  -0.573   0.805  0.00  0.00     0.162 A 
ATOM      6  C5  UNL d   1      -1.012   0.359   0.133  0.00  0.00     0.062 A 
ATOM      7  F   UNL d   1      -0.915   0.311  -1.204  0.00  0.00    -0.097 F 
ATOM      8  F1  UNL d   1      -2.445  -1.509   0.095  0.00  0.00    -0.096 F 
ATOM      9  I   UNL d   1      -3.076  -1.924   3.204  0.00  0.00    -0.060 I 
ATOM     10  F2  UNL d   1      -1.295   0.525   4.239  0.00  0.00    -0.096 F 
ATOM     11  F3  UNL d   1       0.227   2.330   2.911  0.00  0.00    -0.097 F 
ATOM     12  F4  UNL d   1       0.424   2.234   0.192  0.00  0.00    -0.092 F 
ENDROOT
TORSDOF 0
ENDMDL
