MODEL 1
REMARK minimizedAffinity 2.39359879
REMARK minimizedRMSD -1
REMARK  0 active torsions:
REMARK  status: ('A' for Active; 'I' for Inactive)
ROOT
ATOM      1  C   UNL d   1      -0.412  -0.125   2.081  0.00  0.00     0.124 A 
ATOM      2  C1  UNL d   1      -1.207   0.334   1.040  0.00  0.00     0.062 A 
ATOM      3  C2  UNL d   1      -0.667   0.503  -0.232  0.00  0.00     0.162 A 
ATOM      4  C3  UNL d   1       0.677   0.213  -0.470  0.00  0.00    -0.034 A 
ATOM      5  C4  UNL d   1       1.470  -0.248   0.583  0.00  0.00     0.162 A 
ATOM      6  C5  UNL d   1       0.925  -0.416   1.851  0.00  0.00     0.062 A 
ATOM      7  F   UNL d   1       1.695  -0.859   2.856  0.00  0.00    -0.097 F 
ATOM      8  F1  UNL d   1       2.766  -0.537   0.388  0.00  0.00    -0.096 F 
ATOM      9  I   UNL d   1       1.489   0.465  -2.369  0.00  0.00    -0.060 I 
ATOM     10  F2  UNL d   1      -1.458   0.948  -1.219  0.00  0.00    -0.096 F 
ATOM     11  F3  UNL d   1      -2.499   0.616   1.259  0.00  0.00    -0.097 F 
ATOM     12  F4  UNL d   1      -0.934  -0.287   3.303  0.00  0.00    -0.092 F 
ENDROOT
TORSDOF 0
ENDMDL
