MODEL 1
REMARK minimizedAffinity -4.84967566
REMARK minimizedRMSD -1
REMARK  0 active torsions:
REMARK  status: ('A' for Active; 'I' for Inactive)
ROOT
ATOM      1  C   UNL d   1       0.575   0.744   3.005  0.00  0.00     0.124 A 
ATOM      2  C1  UNL d   1      -0.541   0.485   2.222  0.00  0.00     0.062 A 
ATOM      3  C2  UNL d   1      -0.390   0.031   0.915  0.00  0.00     0.162 A 
ATOM      4  C3  UNL d   1       0.884  -0.167   0.382  0.00  0.00    -0.034 A 
ATOM      5  C4  UNL d   1       2.002   0.097   1.176  0.00  0.00     0.162 A 
ATOM      6  C5  UNL d   1       1.845   0.550   2.481  0.00  0.00     0.062 A 
ATOM      7  F   UNL d   1       2.925   0.800   3.237  0.00  0.00    -0.097 F 
ATOM      8  F1  UNL d   1       3.242  -0.083   0.695  0.00  0.00    -0.096 F 
ATOM      9  I   UNL d   1       1.116  -0.846  -1.572  0.00  0.00    -0.060 I 
ATOM     10  F2  UNL d   1      -1.486  -0.211   0.181  0.00  0.00    -0.096 F 
ATOM     11  F3  UNL d   1      -1.770   0.673   2.725  0.00  0.00    -0.097 F 
ATOM     12  F4  UNL d   1       0.426   1.181   4.262  0.00  0.00    -0.092 F 
ENDROOT
TORSDOF 0
ENDMDL
