MODEL 1
REMARK minimizedAffinity -2.37820458
REMARK minimizedRMSD -1
REMARK  0 active torsions:
REMARK  status: ('A' for Active; 'I' for Inactive)
ROOT
ATOM      1  C   UNL d   1       0.243  -0.251   0.630  0.00  0.00     0.124 A 
ATOM      2  C1  UNL d   1      -0.598   0.597  -0.076  0.00  0.00     0.062 A 
ATOM      3  C2  UNL d   1      -0.247   1.027  -1.353  0.00  0.00     0.162 A 
ATOM      4  C3  UNL d   1       0.951   0.609  -1.932  0.00  0.00    -0.034 A 
ATOM      5  C4  UNL d   1       1.792  -0.244  -1.215  0.00  0.00     0.162 A 
ATOM      6  C5  UNL d   1       1.437  -0.671   0.061  0.00  0.00     0.062 A 
ATOM      7  F   UNL d   1       2.250  -1.491   0.742  0.00  0.00    -0.097 F 
ATOM      8  F1  UNL d   1       2.951  -0.666  -1.741  0.00  0.00    -0.096 F 
ATOM      9  I   UNL d   1       1.480   1.250  -3.840  0.00  0.00    -0.060 I 
ATOM     10  F2  UNL d   1      -1.079   1.847  -2.012  0.00  0.00    -0.096 F 
ATOM     11  F3  UNL d   1      -1.752   1.005   0.472  0.00  0.00    -0.097 F 
ATOM     12  F4  UNL d   1      -0.097  -0.663   1.858  0.00  0.00    -0.092 F 
ENDROOT
TORSDOF 0
ENDMDL
