MODEL 1
REMARK minimizedAffinity 1.21292412
REMARK minimizedRMSD -1
REMARK  0 active torsions:
REMARK  status: ('A' for Active; 'I' for Inactive)
ROOT
ATOM      1  C   UNL d   1      -2.112  -0.058   2.030  0.00  0.00     0.124 A 
ATOM      2  C1  UNL d   1      -1.893  -0.199   0.667  0.00  0.00     0.062 A 
ATOM      3  C2  UNL d   1      -0.635  -0.560   0.193  0.00  0.00     0.162 A 
ATOM      4  C3  UNL d   1       0.414  -0.785   1.085  0.00  0.00    -0.034 A 
ATOM      5  C4  UNL d   1       0.186  -0.641   2.454  0.00  0.00     0.162 A 
ATOM      6  C5  UNL d   1      -1.073  -0.279   2.922  0.00  0.00     0.062 A 
ATOM      7  F   UNL d   1      -1.283  -0.144   4.240  0.00  0.00    -0.097 F 
ATOM      8  F1  UNL d   1       1.173  -0.850   3.339  0.00  0.00    -0.096 F 
ATOM      9  I   UNL d   1       2.296  -1.326   0.381  0.00  0.00    -0.060 I 
ATOM     10  F2  UNL d   1      -0.452  -0.689  -1.129  0.00  0.00    -0.096 F 
ATOM     11  F3  UNL d   1      -2.896   0.016  -0.197  0.00  0.00    -0.097 F 
ATOM     12  F4  UNL d   1      -3.324   0.291   2.483  0.00  0.00    -0.092 F 
ENDROOT
TORSDOF 0
ENDMDL
