MODEL 1
REMARK minimizedAffinity -3.78149152
REMARK minimizedRMSD -1
REMARK  0 active torsions:
REMARK  status: ('A' for Active; 'I' for Inactive)
ROOT
ATOM      1  C1  DEN d   1       0.328  -2.289   0.178  0.00  0.00     0.130 A 
ATOM      2  C2  DEN d   1      -0.084  -1.735   1.465  0.00  0.00    -0.031 A 
ATOM      3  C3  DEN d   1       0.143  -0.277   1.428  0.00  0.00     0.027 A 
ATOM      4  C4  DEN d   1       1.082   1.171  -0.489  0.00  0.00     0.027 A 
ATOM      5  C5  DEN d   1       1.581   1.148  -1.772  0.00  0.00    -0.003 A 
ATOM      6  C6  DEN d   1       1.728  -0.017  -2.477  0.00  0.00     0.001 A 
ATOM      7  C7  DEN d   1       1.329  -1.203  -1.920  0.00  0.00     0.017 A 
ATOM      8  C8  DEN d   1       0.832  -1.189  -0.623  0.00  0.00    -0.094 A 
ATOM      9  C9  DEN d   1       0.680   0.001   0.069  0.00  0.00    -0.072 A 
ENDROOT
TORSDOF 0
ENDMDL
