MODEL 1
REMARK minimizedAffinity 1.41163337
REMARK minimizedRMSD -1
REMARK  0 active torsions:
REMARK  status: ('A' for Active; 'I' for Inactive)
ROOT
ATOM      1  C1  DEN d   1      -1.095  -0.676   0.543  0.00  0.00     0.130 A 
ATOM      2  C2  DEN d   1      -1.562  -0.012   1.757  0.00  0.00    -0.031 A 
ATOM      3  C3  DEN d   1      -0.658   1.122   2.034  0.00  0.00     0.027 A 
ATOM      4  C4  DEN d   1       1.406   1.914   0.706  0.00  0.00     0.027 A 
ATOM      5  C5  DEN d   1       2.201   1.660  -0.390  0.00  0.00    -0.003 A 
ATOM      6  C6  DEN d   1       1.975   0.598  -1.226  0.00  0.00     0.001 A 
ATOM      7  C7  DEN d   1       0.901  -0.223  -1.005  0.00  0.00     0.017 A 
ATOM      8  C8  DEN d   1       0.100   0.022   0.103  0.00  0.00    -0.094 A 
ATOM      9  C9  DEN d   1       0.337   1.108   0.928  0.00  0.00    -0.072 A 
ENDROOT
TORSDOF 0
ENDMDL
