MODEL 1
REMARK minimizedAffinity -3.36672878
REMARK minimizedRMSD -1
REMARK  0 active torsions:
REMARK  status: ('A' for Active; 'I' for Inactive)
ROOT
ATOM      1  C1  DEN d   1      -2.570  -0.631  -5.927  0.00  0.00     0.130 A 
ATOM      2  C2  DEN d   1      -3.470   0.519  -5.957  0.00  0.00    -0.031 A 
ATOM      3  C3  DEN d   1      -4.857   0.012  -5.992  0.00  0.00     0.027 A 
ATOM      4  C4  DEN d   1      -5.692  -2.429  -5.998  0.00  0.00     0.027 A 
ATOM      5  C5  DEN d   1      -5.300  -3.749  -5.993  0.00  0.00    -0.003 A 
ATOM      6  C6  DEN d   1      -3.982  -4.120  -5.999  0.00  0.00     0.001 A 
ATOM      7  C7  DEN d   1      -3.006  -3.159  -5.966  0.00  0.00     0.017 A 
ATOM      8  C8  DEN d   1      -3.393  -1.825  -5.979  0.00  0.00    -0.094 A 
ATOM      9  C9  DEN d   1      -4.732  -1.471  -5.960  0.00  0.00    -0.072 A 
ENDROOT
TORSDOF 0
ENDMDL
