MODEL 1
REMARK minimizedAffinity 9.05641651
REMARK minimizedRMSD -1
REMARK  0 active torsions:
REMARK  status: ('A' for Active; 'I' for Inactive)
ROOT
ATOM      1  C1  DEN d   1      -3.876  -1.464  -5.799  0.00  0.00     0.130 A 
ATOM      2  C2  DEN d   1      -5.332  -1.528  -5.894  0.00  0.00    -0.031 A 
ATOM      3  C3  DEN d   1      -5.721  -2.949  -5.991  0.00  0.00     0.027 A 
ATOM      4  C4  DEN d   1      -4.219  -5.046  -5.997  0.00  0.00     0.027 A 
ATOM      5  C5  DEN d   1      -2.917  -5.494  -5.949  0.00  0.00    -0.003 A 
ATOM      6  C6  DEN d   1      -1.851  -4.637  -5.881  0.00  0.00     0.001 A 
ATOM      7  C7  DEN d   1      -2.070  -3.286  -5.815  0.00  0.00     0.017 A 
ATOM      8  C8  DEN d   1      -3.379  -2.826  -5.872  0.00  0.00    -0.094 A 
ATOM      9  C9  DEN d   1      -4.444  -3.709  -5.927  0.00  0.00    -0.072 A 
ENDROOT
TORSDOF 0
ENDMDL
