MODEL 1
REMARK minimizedAffinity 5.40707588
REMARK minimizedRMSD -1
REMARK  0 active torsions:
REMARK  status: ('A' for Active; 'I' for Inactive)
ROOT
ATOM      1  C1  DEN d   1      -5.992   4.476  -5.997  0.00  0.00     0.130 A 
ATOM      2  C2  DEN d   1      -5.519   5.857  -5.956  0.00  0.00    -0.031 A 
ATOM      3  C3  DEN d   1      -4.042   5.833  -5.938  0.00  0.00     0.027 A 
ATOM      4  C4  DEN d   1      -2.451   3.803  -5.974  0.00  0.00     0.027 A 
ATOM      5  C5  DEN d   1      -2.387   2.428  -5.997  0.00  0.00    -0.003 A 
ATOM      6  C6  DEN d   1      -3.511   1.644  -5.987  0.00  0.00     0.001 A 
ATOM      7  C7  DEN d   1      -4.748   2.232  -6.000  0.00  0.00     0.017 A 
ATOM      8  C8  DEN d   1      -4.821   3.618  -5.969  0.00  0.00    -0.094 A 
ATOM      9  C9  DEN d   1      -3.674   4.393  -5.992  0.00  0.00    -0.072 A 
ENDROOT
TORSDOF 0
ENDMDL
