MODEL 1
REMARK minimizedAffinity -1.03520775
REMARK minimizedRMSD -1
REMARK  0 active torsions:
REMARK  status: ('A' for Active; 'I' for Inactive)
ROOT
ATOM      1  C1  DEN d   1      -2.849   1.266  -5.976  0.00  0.00     0.130 A 
ATOM      2  C2  DEN d   1      -3.886   2.293  -5.994  0.00  0.00    -0.031 A 
ATOM      3  C3  DEN d   1      -5.199   1.617  -5.995  0.00  0.00     0.027 A 
ATOM      4  C4  DEN d   1      -5.722  -0.909  -5.964  0.00  0.00     0.027 A 
ATOM      5  C5  DEN d   1      -5.169  -2.170  -5.956  0.00  0.00    -0.003 A 
ATOM      6  C6  DEN d   1      -3.815  -2.373  -5.989  0.00  0.00     0.001 A 
ATOM      7  C7  DEN d   1      -2.967  -1.297  -5.985  0.00  0.00     0.017 A 
ATOM      8  C8  DEN d   1      -3.517  -0.022  -6.000  0.00  0.00    -0.094 A 
ATOM      9  C9  DEN d   1      -4.889   0.162  -5.954  0.00  0.00    -0.072 A 
ENDROOT
TORSDOF 0
ENDMDL
