MODEL 1
REMARK minimizedAffinity -2.35282278
REMARK minimizedRMSD -1
REMARK  0 active torsions:
REMARK  status: ('A' for Active; 'I' for Inactive)
ROOT
ATOM      1  C1  DEN d   1      -2.653   1.913  -5.986  0.00  0.00     0.130 A 
ATOM      2  C2  DEN d   1      -3.591   0.794  -5.965  0.00  0.00    -0.031 A 
ATOM      3  C3  DEN d   1      -4.960   1.347  -5.959  0.00  0.00     0.027 A 
ATOM      4  C4  DEN d   1      -5.714   3.814  -5.986  0.00  0.00     0.027 A 
ATOM      5  C5  DEN d   1      -5.279   5.121  -5.994  0.00  0.00    -0.003 A 
ATOM      6  C6  DEN d   1      -3.949   5.448  -5.966  0.00  0.00     0.001 A 
ATOM      7  C7  DEN d   1      -3.006   4.454  -5.974  0.00  0.00     0.017 A 
ATOM      8  C8  DEN d   1      -3.437   3.134  -5.959  0.00  0.00    -0.094 A 
ATOM      9  C9  DEN d   1      -4.786   2.824  -6.000  0.00  0.00    -0.072 A 
ENDROOT
TORSDOF 0
ENDMDL
