MODEL 1
REMARK minimizedAffinity 2.28378725
REMARK minimizedRMSD -1
REMARK  0 active torsions:
REMARK  status: ('A' for Active; 'I' for Inactive)
ROOT
ATOM      1  C1  DEN d   1      -5.742   2.350  -6.000  0.00  0.00     0.130 A 
ATOM      2  C2  DEN d   1      -5.928   3.793  -5.873  0.00  0.00    -0.031 A 
ATOM      3  C3  DEN d   1      -4.594   4.416  -5.749  0.00  0.00     0.027 A 
ATOM      4  C4  DEN d   1      -2.273   3.291  -5.747  0.00  0.00     0.027 A 
ATOM      5  C5  DEN d   1      -1.609   2.087  -5.817  0.00  0.00    -0.003 A 
ATOM      6  C6  DEN d   1      -2.272   0.892  -5.918  0.00  0.00     0.001 A 
ATOM      7  C7  DEN d   1      -3.640   0.880  -5.997  0.00  0.00     0.017 A 
ATOM      8  C8  DEN d   1      -4.316   2.090  -5.920  0.00  0.00    -0.094 A 
ATOM      9  C9  DEN d   1      -3.627   3.288  -5.830  0.00  0.00    -0.072 A 
ENDROOT
TORSDOF 0
ENDMDL
