MODEL 1
REMARK minimizedAffinity 4.55174971
REMARK minimizedRMSD -1
REMARK  0 active torsions:
REMARK  status: ('A' for Active; 'I' for Inactive)
ROOT
ATOM      1  C1  DEN d   1      -5.243  -1.310  -5.971  0.00  0.00     0.130 A 
ATOM      2  C2  DEN d   1      -4.303  -2.427  -5.986  0.00  0.00    -0.031 A 
ATOM      3  C3  DEN d   1      -2.935  -1.872  -5.988  0.00  0.00     0.027 A 
ATOM      4  C4  DEN d   1      -2.184   0.596  -5.966  0.00  0.00     0.027 A 
ATOM      5  C5  DEN d   1      -2.621   1.902  -5.963  0.00  0.00    -0.003 A 
ATOM      6  C6  DEN d   1      -3.952   2.227  -5.997  0.00  0.00     0.001 A 
ATOM      7  C7  DEN d   1      -4.894   1.232  -5.989  0.00  0.00     0.017 A 
ATOM      8  C8  DEN d   1      -4.461  -0.087  -6.000  0.00  0.00    -0.094 A 
ATOM      9  C9  DEN d   1      -3.111  -0.395  -5.953  0.00  0.00    -0.072 A 
ENDROOT
TORSDOF 0
ENDMDL
