MODEL 1
REMARK minimizedAffinity 1.86145616
REMARK minimizedRMSD -1
REMARK  0 active torsions:
REMARK  status: ('A' for Active; 'I' for Inactive)
ROOT
ATOM      1  C1  DEN d   1       0.696  -0.047   0.775  0.00  0.00     0.130 A 
ATOM      2  C2  DEN d   1       0.205   1.328   0.746  0.00  0.00    -0.031 A 
ATOM      3  C3  DEN d   1      -0.023   1.702  -0.664  0.00  0.00     0.027 A 
ATOM      4  C4  DEN d   1       0.332   0.292  -2.794  0.00  0.00     0.027 A 
ATOM      5  C5  DEN d   1       0.746  -0.930  -3.275  0.00  0.00    -0.003 A 
ATOM      6  C6  DEN d   1       1.201  -1.924  -2.450  0.00  0.00     0.001 A 
ATOM      7  C7  DEN d   1       1.211  -1.728  -1.094  0.00  0.00     0.017 A 
ATOM      8  C8  DEN d   1       0.801  -0.496  -0.602  0.00  0.00    -0.094 A 
ATOM      9  C9  DEN d   1       0.333   0.491  -1.452  0.00  0.00    -0.072 A 
ENDROOT
TORSDOF 0
ENDMDL
