MODEL 1
REMARK minimizedAffinity -0.209891677
REMARK minimizedRMSD -1
REMARK  0 active torsions:
REMARK  status: ('A' for Active; 'I' for Inactive)
ROOT
ATOM      1  C1  DEN d   1       0.429   0.961   0.786  0.00  0.00     0.130 A 
ATOM      2  C2  DEN d   1       1.221   2.081   0.284  0.00  0.00    -0.031 A 
ATOM      3  C3  DEN d   1       1.634   1.764  -1.098  0.00  0.00     0.027 A 
ATOM      4  C4  DEN d   1       1.122  -0.337  -2.504  0.00  0.00     0.027 A 
ATOM      5  C5  DEN d   1       0.496  -1.564  -2.501  0.00  0.00    -0.003 A 
ATOM      6  C6  DEN d   1      -0.162  -2.046  -1.401  0.00  0.00     0.001 A 
ATOM      7  C7  DEN d   1      -0.248  -1.277  -0.271  0.00  0.00     0.017 A 
ATOM      8  C8  DEN d   1       0.387  -0.042  -0.263  0.00  0.00    -0.094 A 
ATOM      9  C9  DEN d   1       1.037   0.433  -1.390  0.00  0.00    -0.072 A 
ENDROOT
TORSDOF 0
ENDMDL
