MODEL 1
REMARK minimizedAffinity 6.26375484
REMARK minimizedRMSD -1
REMARK  0 active torsions:
REMARK  status: ('A' for Active; 'I' for Inactive)
ROOT
ATOM      1  C1  DEN d   1      -3.515   3.514  -3.674  0.00  0.00     0.130 A 
ATOM      2  C2  DEN d   1      -3.908   2.956  -4.966  0.00  0.00    -0.031 A 
ATOM      3  C3  DEN d   1      -3.020   3.527  -5.998  0.00  0.00     0.027 A 
ATOM      4  C4  DEN d   1      -1.083   5.207  -5.724  0.00  0.00     0.027 A 
ATOM      5  C5  DEN d   1      -0.381   5.973  -4.820  0.00  0.00    -0.003 A 
ATOM      6  C6  DEN d   1      -0.694   5.999  -3.487  0.00  0.00     0.001 A 
ATOM      7  C7  DEN d   1      -1.707   5.210  -3.012  0.00  0.00     0.017 A 
ATOM      8  C8  DEN d   1      -2.425   4.440  -3.919  0.00  0.00    -0.094 A 
ATOM      9  C9  DEN d   1      -2.085   4.418  -5.261  0.00  0.00    -0.072 A 
ENDROOT
TORSDOF 0
ENDMDL
