MODEL 1
REMARK minimizedAffinity 23.5422459
REMARK minimizedRMSD -1
REMARK  0 active torsions:
REMARK  status: ('A' for Active; 'I' for Inactive)
ROOT
ATOM      1  C1  DEN d   1      -2.033   2.535   5.338  0.00  0.00     0.130 A 
ATOM      2  C2  DEN d   1      -2.637   1.383   6.000  0.00  0.00    -0.031 A 
ATOM      3  C3  DEN d   1      -3.578   0.754   5.051  0.00  0.00     0.027 A 
ATOM      4  C4  DEN d   1      -4.151   1.446   2.634  0.00  0.00     0.027 A 
ATOM      5  C5  DEN d   1      -3.900   2.367   1.641  0.00  0.00    -0.003 A 
ATOM      6  C6  DEN d   1      -3.041   3.419   1.820  0.00  0.00     0.001 A 
ATOM      7  C7  DEN d   1      -2.368   3.551   3.006  0.00  0.00     0.017 A 
ATOM      8  C8  DEN d   1      -2.622   2.631   4.015  0.00  0.00    -0.094 A 
ATOM      9  C9  DEN d   1      -3.484   1.567   3.809  0.00  0.00    -0.072 A 
ENDROOT
TORSDOF 0
ENDMDL
