MODEL 1
REMARK minimizedAffinity 12.0418406
REMARK minimizedRMSD -1
REMARK  0 active torsions:
REMARK  status: ('A' for Active; 'I' for Inactive)
ROOT
ATOM      1  C1  DEN d   1      -2.083   5.584  -2.779  0.00  0.00     0.130 A 
ATOM      2  C2  DEN d   1      -0.768   5.996  -3.264  0.00  0.00    -0.031 A 
ATOM      3  C3  DEN d   1      -0.580   5.429  -4.614  0.00  0.00     0.027 A 
ATOM      4  C4  DEN d   1      -2.191   3.963  -5.996  0.00  0.00     0.027 A 
ATOM      5  C5  DEN d   1      -3.420   3.342  -6.000  0.00  0.00    -0.003 A 
ATOM      6  C6  DEN d   1      -4.268   3.395  -4.926  0.00  0.00     0.001 A 
ATOM      7  C7  DEN d   1      -3.918   4.123  -3.819  0.00  0.00     0.017 A 
ATOM      8  C8  DEN d   1      -2.677   4.746  -3.806  0.00  0.00    -0.094 A 
ATOM      9  C9  DEN d   1      -1.839   4.691  -4.906  0.00  0.00    -0.072 A 
ENDROOT
TORSDOF 0
ENDMDL
