MODEL 1
REMARK minimizedAffinity 7.12159348
REMARK minimizedRMSD -1
REMARK  0 active torsions:
REMARK  status: ('A' for Active; 'I' for Inactive)
ROOT
ATOM      1  C1  DEN d   1      -2.920  -2.257   4.232  0.00  0.00     0.130 A 
ATOM      2  C2  DEN d   1      -3.873  -3.071   3.482  0.00  0.00    -0.031 A 
ATOM      3  C3  DEN d   1      -4.777  -2.159   2.752  0.00  0.00     0.027 A 
ATOM      4  C4  DEN d   1      -4.791   0.419   2.707  0.00  0.00     0.027 A 
ATOM      5  C5  DEN d   1      -4.181   1.554   3.195  0.00  0.00    -0.003 A 
ATOM      6  C6  DEN d   1      -3.139   1.499   4.082  0.00  0.00     0.001 A 
ATOM      7  C7  DEN d   1      -2.645   0.283   4.474  0.00  0.00     0.017 A 
ATOM      8  C8  DEN d   1      -3.259  -0.866   3.992  0.00  0.00    -0.094 A 
ATOM      9  C9  DEN d   1      -4.304  -0.789   3.087  0.00  0.00    -0.072 A 
ENDROOT
TORSDOF 0
ENDMDL
