MODEL 1
REMARK minimizedAffinity -0.130898193
REMARK minimizedRMSD -1
REMARK  0 active torsions:
REMARK  status: ('A' for Active; 'I' for Inactive)
ROOT
ATOM      1  C1  DEN d   1       0.382  -0.826   2.057  0.00  0.00     0.130 A 
ATOM      2  C2  DEN d   1      -0.371   0.345   2.499  0.00  0.00    -0.031 A 
ATOM      3  C3  DEN d   1      -0.209   1.403   1.481  0.00  0.00     0.027 A 
ATOM      4  C4  DEN d   1       1.121   1.339  -0.728  0.00  0.00     0.027 A 
ATOM      5  C5  DEN d   1       1.933   0.565  -1.528  0.00  0.00    -0.003 A 
ATOM      6  C6  DEN d   1       2.309  -0.704  -1.175  0.00  0.00     0.001 A 
ATOM      7  C7  DEN d   1       1.836  -1.254  -0.013  0.00  0.00     0.017 A 
ATOM      8  C8  DEN d   1       1.023  -0.477   0.802  0.00  0.00    -0.094 A 
ATOM      9  C9  DEN d   1       0.644   0.799   0.422  0.00  0.00    -0.072 A 
ENDROOT
TORSDOF 0
ENDMDL
