MODEL 1
REMARK minimizedAffinity -0.361567378
REMARK minimizedRMSD -1
REMARK  0 active torsions:
REMARK  status: ('A' for Active; 'I' for Inactive)
ROOT
ATOM      1  C   UNL d   1      -0.618  -0.987   2.023  0.00  0.00     0.124 A 
ATOM      2  C1  UNL d   1       0.747  -0.815   1.841  0.00  0.00     0.062 A 
ATOM      3  C2  UNL d   1       1.227  -0.185   0.696  0.00  0.00     0.162 A 
ATOM      4  C3  UNL d   1       0.340   0.279  -0.276  0.00  0.00    -0.034 A 
ATOM      5  C4  UNL d   1      -1.031   0.102  -0.086  0.00  0.00     0.162 A 
ATOM      6  C5  UNL d   1      -1.506  -0.529   1.060  0.00  0.00     0.062 A 
ATOM      7  F   UNL d   1      -2.825  -0.694   1.234  0.00  0.00    -0.097 F 
ATOM      8  F1  UNL d   1      -1.911   0.536  -1.000  0.00  0.00    -0.096 F 
ATOM      9  I   UNL d   1       1.054   1.222  -1.988  0.00  0.00    -0.060 I 
ATOM     10  F2  UNL d   1       2.551  -0.032   0.547  0.00  0.00    -0.096 F 
ATOM     11  F3  UNL d   1       1.607  -1.258   2.770  0.00  0.00    -0.097 F 
ATOM     12  F4  UNL d   1      -1.077  -1.595   3.124  0.00  0.00    -0.092 F 
ENDROOT
TORSDOF 0
ENDMDL
