MODEL 1
REMARK minimizedAffinity 5.84612894
REMARK minimizedRMSD -1
REMARK  0 active torsions:
REMARK  status: ('A' for Active; 'I' for Inactive)
ROOT
ATOM      1  C   UNL d   1      -0.009  -0.728   0.590  0.00  0.00     0.124 A 
ATOM      2  C1  UNL d   1       1.042   0.096   0.214  0.00  0.00     0.062 A 
ATOM      3  C2  UNL d   1       0.830   1.135  -0.687  0.00  0.00     0.162 A 
ATOM      4  C3  UNL d   1      -0.441   1.356  -1.219  0.00  0.00    -0.034 A 
ATOM      5  C4  UNL d   1      -1.493   0.523  -0.837  0.00  0.00     0.162 A 
ATOM      6  C5  UNL d   1      -1.276  -0.514   0.064  0.00  0.00     0.062 A 
ATOM      7  F   UNL d   1      -2.293  -1.309   0.426  0.00  0.00    -0.097 F 
ATOM      8  F1  UNL d   1      -2.727   0.708  -1.329  0.00  0.00    -0.096 F 
ATOM      9  I   UNL d   1      -0.762   2.909  -2.568  0.00  0.00    -0.060 I 
ATOM     10  F2  UNL d   1       1.864   1.916  -1.033  0.00  0.00    -0.096 F 
ATOM     11  F3  UNL d   1       2.267  -0.109   0.720  0.00  0.00    -0.097 F 
ATOM     12  F4  UNL d   1       0.198  -1.727   1.457  0.00  0.00    -0.092 F 
ENDROOT
TORSDOF 0
ENDMDL
