MODEL 1
REMARK minimizedAffinity -3.02208638
REMARK minimizedRMSD -1
REMARK  0 active torsions:
REMARK  status: ('A' for Active; 'I' for Inactive)
ROOT
ATOM      1  C   UNL d   1       2.147  -1.395   1.679  0.00  0.00     0.124 A 
ATOM      2  C1  UNL d   1       1.305  -0.392   2.138  0.00  0.00     0.062 A 
ATOM      3  C2  UNL d   1       0.494   0.304   1.247  0.00  0.00     0.162 A 
ATOM      4  C3  UNL d   1       0.520  -0.000  -0.114  0.00  0.00    -0.034 A 
ATOM      5  C4  UNL d   1       1.371  -1.010  -0.569  0.00  0.00     0.162 A 
ATOM      6  C5  UNL d   1       2.179  -1.702   0.326  0.00  0.00     0.062 A 
ATOM      7  F   UNL d   1       2.993  -2.671  -0.120  0.00  0.00    -0.097 F 
ATOM      8  F1  UNL d   1       1.421  -1.328  -1.871  0.00  0.00    -0.096 F 
ATOM      9  I   UNL d   1      -0.691   1.038  -1.450  0.00  0.00    -0.060 I 
ATOM     10  F2  UNL d   1      -0.310   1.268   1.719  0.00  0.00    -0.096 F 
ATOM     11  F3  UNL d   1       1.273  -0.092   3.445  0.00  0.00    -0.097 F 
ATOM     12  F4  UNL d   1       2.928  -2.062   2.538  0.00  0.00    -0.092 F 
ENDROOT
TORSDOF 0
ENDMDL
