MODEL 1
REMARK minimizedAffinity -2.99456716
REMARK minimizedRMSD -1
REMARK  0 active torsions:
REMARK  status: ('A' for Active; 'I' for Inactive)
ROOT
ATOM      1  C   UNL d   1       1.587  -1.488   1.529  0.00  0.00     0.124 A 
ATOM      2  C1  UNL d   1       0.925  -0.354   1.979  0.00  0.00     0.062 A 
ATOM      3  C2  UNL d   1       0.297   0.495   1.073  0.00  0.00     0.162 A 
ATOM      4  C3  UNL d   1       0.326   0.213  -0.293  0.00  0.00    -0.034 A 
ATOM      5  C4  UNL d   1       0.995  -0.928  -0.738  0.00  0.00     0.162 A 
ATOM      6  C5  UNL d   1       1.621  -1.774   0.172  0.00  0.00     0.062 A 
ATOM      7  F   UNL d   1       2.261  -2.869  -0.265  0.00  0.00    -0.097 F 
ATOM      8  F1  UNL d   1       1.043  -1.229  -2.044  0.00  0.00    -0.096 F 
ATOM      9  I   UNL d   1      -0.612   1.481  -1.651  0.00  0.00    -0.060 I 
ATOM     10  F2  UNL d   1      -0.336   1.584   1.535  0.00  0.00    -0.096 F 
ATOM     11  F3  UNL d   1       0.891  -0.075   3.290  0.00  0.00    -0.097 F 
ATOM     12  F4  UNL d   1       2.191  -2.303   2.403  0.00  0.00    -0.092 F 
ENDROOT
TORSDOF 0
ENDMDL
