MODEL 1
REMARK minimizedAffinity -2.85419822
REMARK minimizedRMSD -1
REMARK  0 active torsions:
REMARK  status: ('A' for Active; 'I' for Inactive)
ROOT
ATOM      1  C   UNL d   1      -0.051  -2.353  -1.796  0.00  0.00     0.172 C 
ATOM      2  N   UNL d   1      -0.050  -1.027  -1.224  0.00  0.00    -0.070 N 
ATOM      3  C1  UNL d   1       0.221  -0.721   0.083  0.00  0.00    -0.004 A 
ATOM      4  C2  UNL d   1       0.120   0.645   0.226  0.00  0.00    -0.047 A 
ATOM      5  C3  UNL d   1      -0.225   1.180  -1.039  0.00  0.00    -0.047 A 
ATOM      6  C4  UNL d   1      -0.324   0.122  -1.918  0.00  0.00    -0.004 A 
ENDROOT
TORSDOF 0
ENDMDL
