MODEL 1
REMARK minimizedAffinity 2.73492551
REMARK minimizedRMSD -1
REMARK  0 active torsions:
REMARK  status: ('A' for Active; 'I' for Inactive)
ROOT
ATOM      1  C   UNL d   1       3.777  -0.696  -0.788  0.00  0.00     0.172 C 
ATOM      2  N   UNL d   1       3.947  -0.580   0.641  0.00  0.00    -0.070 N 
ATOM      3  C1  UNL d   1       2.954  -0.696   1.576  0.00  0.00    -0.004 A 
ATOM      4  C2  UNL d   1       3.522  -0.522   2.820  0.00  0.00    -0.047 A 
ATOM      5  C3  UNL d   1       4.905  -0.293   2.625  0.00  0.00    -0.047 A 
ATOM      6  C4  UNL d   1       5.141  -0.334   1.268  0.00  0.00    -0.004 A 
ENDROOT
TORSDOF 0
ENDMDL
