MODEL 1
REMARK minimizedAffinity -3.80303574
REMARK minimizedRMSD -1
REMARK  0 active torsions:
REMARK  status: ('A' for Active; 'I' for Inactive)
ROOT
ATOM      1  C   UNL d   1       1.499   0.111   1.605  0.00  0.00     0.172 C 
ATOM      2  N   UNL d   1       0.327   0.810   1.134  0.00  0.00    -0.070 N 
ATOM      3  C1  UNL d   1      -0.152   1.992   1.634  0.00  0.00    -0.004 A 
ATOM      4  C2  UNL d   1      -1.282   2.326   0.918  0.00  0.00    -0.047 A 
ATOM      5  C3  UNL d   1      -1.489   1.310  -0.045  0.00  0.00    -0.047 A 
ATOM      6  C4  UNL d   1      -0.479   0.384   0.111  0.00  0.00    -0.004 A 
ENDROOT
TORSDOF 0
ENDMDL
