MODEL 1
REMARK minimizedAffinity -3.05422354
REMARK minimizedRMSD -1
REMARK  0 active torsions:
REMARK  status: ('A' for Active; 'I' for Inactive)
ROOT
ATOM      1  C   UNL d   1       0.359  -0.418   1.131  0.00  0.00     0.172 C 
ATOM      2  N   UNL d   1      -0.399   0.614   0.462  0.00  0.00    -0.070 N 
ATOM      3  C1  UNL d   1      -0.510   0.771  -0.893  0.00  0.00    -0.004 A 
ATOM      4  C2  UNL d   1      -1.316   1.864  -1.127  0.00  0.00    -0.047 A 
ATOM      5  C3  UNL d   1      -1.702   2.382   0.132  0.00  0.00    -0.047 A 
ATOM      6  C4  UNL d   1      -1.121   1.589   1.099  0.00  0.00    -0.004 A 
ENDROOT
TORSDOF 0
ENDMDL
