MODEL 1
REMARK minimizedAffinity -3.0247333
REMARK minimizedRMSD -1
REMARK  0 active torsions:
REMARK  status: ('A' for Active; 'I' for Inactive)
ROOT
ATOM      1  C   UNL d   1      -1.790   2.378   1.186  0.00  0.00     0.172 C 
ATOM      2  N   UNL d   1      -0.887   1.596   0.375  0.00  0.00    -0.070 N 
ATOM      3  C1  UNL d   1      -0.187   0.496   0.792  0.00  0.00    -0.004 A 
ATOM      4  C2  UNL d   1       0.557   0.039  -0.274  0.00  0.00    -0.047 A 
ATOM      5  C3  UNL d   1       0.295   0.895  -1.371  0.00  0.00    -0.047 A 
ATOM      6  C4  UNL d   1      -0.603   1.850  -0.941  0.00  0.00    -0.004 A 
ENDROOT
TORSDOF 0
ENDMDL
