MODEL 1
REMARK minimizedAffinity -1.77559316
REMARK minimizedRMSD -1
REMARK  0 active torsions:
REMARK  status: ('A' for Active; 'I' for Inactive)
ROOT
ATOM      1  C   UNL d   1      -0.599   2.503   1.941  0.00  0.00     0.172 C 
ATOM      2  N   UNL d   1      -0.384   1.784   0.707  0.00  0.00    -0.070 N 
ATOM      3  C1  UNL d   1      -0.522   2.302  -0.553  0.00  0.00    -0.004 A 
ATOM      4  C2  UNL d   1      -0.229   1.302  -1.454  0.00  0.00    -0.047 A 
ATOM      5  C3  UNL d   1       0.096   0.143  -0.710  0.00  0.00    -0.047 A 
ATOM      6  C4  UNL d   1      -0.008   0.470   0.625  0.00  0.00    -0.004 A 
ENDROOT
TORSDOF 0
ENDMDL
