MODEL 1
REMARK minimizedAffinity 8.93447495
REMARK minimizedRMSD -1
REMARK  2 active torsions:
REMARK  status: ('A' for Active; 'I' for Inactive)
REMARK    1  A    between atoms: C2'_3  and  C1'_4 
REMARK    2  A    between atoms: C1'_4  and  C1_5 
ROOT
ATOM      1  C1  I4B d   1       0.715   2.567   1.133  0.00  0.00    -0.075 A 
ATOM      2  C2  I4B d   1       0.836   3.883   0.763  0.00  0.00     0.003 A 
ATOM      3  C3  I4B d   1       0.262   4.339  -0.449  0.00  0.00     0.002 A 
ATOM      4  C4  I4B d   1      -0.377   3.440  -1.279  0.00  0.00    -0.004 A 
ATOM      5  C5  I4B d   1      -0.518   2.111  -0.891  0.00  0.00     0.002 A 
ATOM      6  C6  I4B d   1       0.020   1.673   0.328  0.00  0.00     0.003 A 
ENDROOT
BRANCH   1   7
ATOM      7  C1' I4B d   1       1.362   2.113   2.403  0.00  0.00     0.060 C 
BRANCH   7   8
ATOM      8  C2' I4B d   1       0.443   1.103   3.059  0.00  0.00    -0.013 C 
ATOM      9  C4' I4B d   1      -1.004   1.437   2.807  0.00  0.00     0.013 C 
ATOM     10  C3' I4B d   1       0.787  -0.254   2.521  0.00  0.00     0.013 C 
ENDBRANCH   7   8
ENDBRANCH   1   7
TORSDOF 2
ENDMDL
