MODEL 1
REMARK minimizedAffinity 3.96182418
REMARK minimizedRMSD -1
REMARK  2 active torsions:
REMARK  status: ('A' for Active; 'I' for Inactive)
REMARK    1  A    between atoms: C2'_3  and  C1'_4 
REMARK    2  A    between atoms: C1'_4  and  C1_5 
ROOT
ATOM      1  C1  I4B d   1       4.282  -2.960  -1.511  0.00  0.00    -0.075 A 
ATOM      2  C2  I4B d   1       5.001  -4.104  -1.270  0.00  0.00     0.003 A 
ATOM      3  C3  I4B d   1       5.076  -5.120  -2.253  0.00  0.00     0.002 A 
ATOM      4  C4  I4B d   1       4.379  -4.974  -3.436  0.00  0.00    -0.004 A 
ATOM      5  C5  I4B d   1       3.669  -3.804  -3.688  0.00  0.00     0.002 A 
ATOM      6  C6  I4B d   1       3.630  -2.785  -2.725  0.00  0.00     0.003 A 
ENDROOT
BRANCH   1   7
ATOM      7  C1' I4B d   1       4.197  -1.922  -0.438  0.00  0.00     0.060 C 
BRANCH   7   8
ATOM      8  C2' I4B d   1       2.741  -1.779  -0.040  0.00  0.00    -0.013 C 
ATOM      9  C4' I4B d   1       2.144  -3.112   0.328  0.00  0.00     0.013 C 
ATOM     10  C3' I4B d   1       2.667  -0.817   1.107  0.00  0.00     0.013 C 
ENDBRANCH   7   8
ENDBRANCH   1   7
TORSDOF 2
ENDMDL
