MODEL 1
REMARK minimizedAffinity 11.9290819
REMARK minimizedRMSD -1
REMARK  2 active torsions:
REMARK  status: ('A' for Active; 'I' for Inactive)
REMARK    1  A    between atoms: C2'_3  and  C1'_4 
REMARK    2  A    between atoms: C1'_4  and  C1_5 
ROOT
ATOM      1  C1  I4B d   1      -0.972   2.564  -1.169  0.00  0.00    -0.075 A 
ATOM      2  C2  I4B d   1       0.293   2.825  -0.706  0.00  0.00     0.003 A 
ATOM      3  C3  I4B d   1       0.818   4.139  -0.767  0.00  0.00     0.002 A 
ATOM      4  C4  I4B d   1       0.067   5.145  -1.341  0.00  0.00    -0.004 A 
ATOM      5  C5  I4B d   1      -1.225   4.883  -1.789  0.00  0.00     0.002 A 
ATOM      6  C6  I4B d   1      -1.753   3.587  -1.692  0.00  0.00     0.003 A 
ENDROOT
BRANCH   1   7
ATOM      7  C1' I4B d   1      -1.482   1.158  -1.120  0.00  0.00     0.060 C 
BRANCH   7   8
ATOM      8  C2' I4B d   1      -2.994   1.213  -1.036  0.00  0.00    -0.013 C 
ATOM      9  C4' I4B d   1      -3.628   0.751  -2.321  0.00  0.00     0.013 C 
ATOM     10  C3' I4B d   1      -3.424   0.358   0.118  0.00  0.00     0.013 C 
ENDBRANCH   7   8
ENDBRANCH   1   7
TORSDOF 2
ENDMDL
