MODEL 1
REMARK minimizedAffinity -2.09423399
REMARK minimizedRMSD -1
REMARK  2 active torsions:
REMARK  status: ('A' for Active; 'I' for Inactive)
REMARK    1  A    between atoms: C2'_3  and  C1'_4 
REMARK    2  A    between atoms: C1'_4  and  C1_5 
ROOT
ATOM      1  C1  I4B d   1       4.347  -3.056  -1.521  0.00  0.00    -0.075 A 
ATOM      2  C2  I4B d   1       5.093  -4.175  -1.247  0.00  0.00     0.003 A 
ATOM      3  C3  I4B d   1       5.186  -5.220  -2.198  0.00  0.00     0.002 A 
ATOM      4  C4  I4B d   1       4.481  -5.127  -3.381  0.00  0.00    -0.004 A 
ATOM      5  C5  I4B d   1       3.744  -3.981  -3.667  0.00  0.00     0.002 A 
ATOM      6  C6  I4B d   1       3.686  -2.933  -2.736  0.00  0.00     0.003 A 
ENDROOT
BRANCH   1   7
ATOM      7  C1' I4B d   1       4.244  -1.986  -0.481  0.00  0.00     0.060 C 
BRANCH   7   8
ATOM      8  C2' I4B d   1       2.827  -1.990   0.054  0.00  0.00    -0.013 C 
ATOM      9  C4' I4B d   1       2.546  -3.241   0.844  0.00  0.00     0.013 C 
ATOM     10  C3' I4B d   1       2.647  -0.764   0.899  0.00  0.00     0.013 C 
ENDBRANCH   7   8
ENDBRANCH   1   7
TORSDOF 2
ENDMDL
