MODEL 1
REMARK minimizedAffinity 7.49493933
REMARK minimizedRMSD -1
REMARK  0 active torsions:
REMARK  status: ('A' for Active; 'I' for Inactive)
ROOT
ATOM      1  C   UNL d   1      -3.993   3.391  -2.907  0.00  0.00    -0.002 A 
ATOM      2  C1  UNL d   1      -3.449   2.203  -2.441  0.00  0.00     0.010 A 
ATOM      3  C2  UNL d   1      -2.187   1.784  -2.869  0.00  0.00     0.041 A 
ATOM      4  C3  UNL d   1      -1.475   2.588  -3.780  0.00  0.00    -0.075 A 
ATOM      5  S   UNL d   1       0.086   2.276  -4.442  0.00  0.00     0.015 SA
ATOM      6  C4  UNL d   1       0.067   3.713  -5.358  0.00  0.00     0.022 A 
ATOM      7  C5  UNL d   1      -1.094   4.425  -5.176  0.00  0.00     0.026 A 
ATOM      8  C6  UNL d   1      -2.002   3.789  -4.264  0.00  0.00    -0.082 A 
ATOM      9  C7  UNL d   1      -3.284   4.186  -3.812  0.00  0.00     0.045 A 
ENDROOT
TORSDOF 0
ENDMDL
