MODEL 1
REMARK minimizedAffinity 9.42679691
REMARK minimizedRMSD -1
REMARK  0 active torsions:
REMARK  status: ('A' for Active; 'I' for Inactive)
ROOT
ATOM      1  C   UNL d   1      -3.380   2.584  -3.325  0.00  0.00    -0.002 A 
ATOM      2  C1  UNL d   1      -2.544   1.478  -3.369  0.00  0.00     0.010 A 
ATOM      3  C2  UNL d   1      -1.336   1.528  -4.068  0.00  0.00     0.041 A 
ATOM      4  C3  UNL d   1      -0.979   2.720  -4.727  0.00  0.00    -0.075 A 
ATOM      5  S   UNL d   1       0.452   3.013  -5.644  0.00  0.00     0.015 SA
ATOM      6  C4  UNL d   1      -0.013   4.614  -5.998  0.00  0.00     0.022 A 
ATOM      7  C5  UNL d   1      -1.228   4.934  -5.439  0.00  0.00     0.026 A 
ATOM      8  C6  UNL d   1      -1.804   3.848  -4.697  0.00  0.00    -0.082 A 
ATOM      9  C7  UNL d   1      -3.022   3.766  -3.981  0.00  0.00     0.045 A 
ENDROOT
TORSDOF 0
ENDMDL
