MODEL 1
REMARK minimizedAffinity 11.7661457
REMARK minimizedRMSD -1
REMARK  0 active torsions:
REMARK  status: ('A' for Active; 'I' for Inactive)
ROOT
ATOM      1  C   UNL d   1      -0.021   4.672  -6.000  0.00  0.00    -0.002 A 
ATOM      2  C1  UNL d   1       0.492   3.385  -5.921  0.00  0.00     0.010 A 
ATOM      3  C2  UNL d   1      -0.185   2.393  -5.209  0.00  0.00     0.041 A 
ATOM      4  C3  UNL d   1      -1.399   2.719  -4.572  0.00  0.00    -0.075 A 
ATOM      5  S   UNL d   1      -2.401   1.667  -3.645  0.00  0.00     0.015 SA
ATOM      6  C4  UNL d   1      -3.534   2.901  -3.332  0.00  0.00     0.022 A 
ATOM      7  C5  UNL d   1      -3.172   4.093  -3.912  0.00  0.00     0.026 A 
ATOM      8  C6  UNL d   1      -1.935   4.008  -4.637  0.00  0.00    -0.082 A 
ATOM      9  C7  UNL d   1      -1.225   4.991  -5.367  0.00  0.00     0.045 A 
ENDROOT
TORSDOF 0
ENDMDL
