MODEL 1
REMARK minimizedAffinity 6.72760201
REMARK minimizedRMSD -1
REMARK  0 active torsions:
REMARK  status: ('A' for Active; 'I' for Inactive)
ROOT
ATOM      1  C   UNL d   1      -1.416  -2.989   2.055  0.00  0.00    -0.002 A 
ATOM      2  C1  UNL d   1      -1.212  -1.642   2.322  0.00  0.00     0.010 A 
ATOM      3  C2  UNL d   1      -0.072  -0.989   1.848  0.00  0.00     0.041 A 
ATOM      4  C3  UNL d   1       0.867  -1.719   1.093  0.00  0.00    -0.075 A 
ATOM      5  S   UNL d   1       2.336  -1.128   0.409  0.00  0.00     0.015 SA
ATOM      6  C4  UNL d   1       2.726  -2.649  -0.254  0.00  0.00     0.022 A 
ATOM      7  C5  UNL d   1       1.771  -3.596   0.030  0.00  0.00     0.026 A 
ATOM      8  C6  UNL d   1       0.683  -3.075   0.811  0.00  0.00    -0.082 A 
ATOM      9  C7  UNL d   1      -0.482  -3.709   1.306  0.00  0.00     0.045 A 
ENDROOT
TORSDOF 0
ENDMDL
