MODEL 1
REMARK minimizedAffinity 0.68675077
REMARK minimizedRMSD -1
REMARK  0 active torsions:
REMARK  status: ('A' for Active; 'I' for Inactive)
ROOT
ATOM      1  C   UNL d   1      -1.032  -0.479  -3.827  0.00  0.00    -0.002 A 
ATOM      2  C1  UNL d   1       0.132   0.116  -4.292  0.00  0.00     0.010 A 
ATOM      3  C2  UNL d   1       0.153   1.473  -4.623  0.00  0.00     0.041 A 
ATOM      4  C3  UNL d   1      -1.027   2.228  -4.476  0.00  0.00    -0.075 A 
ATOM      5  S   UNL d   1      -1.237   3.905  -4.818  0.00  0.00     0.015 SA
ATOM      6  C4  UNL d   1      -2.877   3.871  -4.355  0.00  0.00     0.022 A 
ATOM      7  C5  UNL d   1      -3.271   2.618  -3.946  0.00  0.00     0.026 A 
ATOM      8  C6  UNL d   1      -2.211   1.651  -4.009  0.00  0.00    -0.082 A 
ATOM      9  C7  UNL d   1      -2.201   0.274  -3.683  0.00  0.00     0.045 A 
ENDROOT
TORSDOF 0
ENDMDL
