MODEL 1
REMARK minimizedAffinity 18.4924183
REMARK minimizedRMSD -1
REMARK  0 active torsions:
REMARK  status: ('A' for Active; 'I' for Inactive)
ROOT
ATOM      1  C   UNL d   1       1.655  -2.993  -0.374  0.00  0.00    -0.002 A 
ATOM      2  C1  UNL d   1       2.022  -2.944   0.964  0.00  0.00     0.010 A 
ATOM      3  C2  UNL d   1       3.281  -3.390   1.372  0.00  0.00     0.041 A 
ATOM      4  C3  UNL d   1       4.173  -3.890   0.403  0.00  0.00    -0.075 A 
ATOM      5  S   UNL d   1       5.767  -4.490   0.671  0.00  0.00     0.015 SA
ATOM      6  C4  UNL d   1       5.999  -4.826  -0.984  0.00  0.00     0.022 A 
ATOM      7  C5  UNL d   1       4.897  -4.494  -1.737  0.00  0.00     0.026 A 
ATOM      8  C6  UNL d   1       3.827  -3.949  -0.950  0.00  0.00    -0.082 A 
ATOM      9  C7  UNL d   1       2.543  -3.490  -1.331  0.00  0.00     0.045 A 
ENDROOT
TORSDOF 0
ENDMDL
