MODEL 1
REMARK minimizedAffinity -0.790574014
REMARK minimizedRMSD -1
REMARK  0 active torsions:
REMARK  status: ('A' for Active; 'I' for Inactive)
ROOT
ATOM      1  C   UNL d   1      -3.586   2.344  -2.628  0.00  0.00    -0.002 A 
ATOM      2  C1  UNL d   1      -4.279   3.366  -3.263  0.00  0.00     0.010 A 
ATOM      3  C2  UNL d   1      -3.695   4.070  -4.318  0.00  0.00     0.041 A 
ATOM      4  C3  UNL d   1      -2.393   3.726  -4.729  0.00  0.00    -0.075 A 
ATOM      5  S   UNL d   1      -1.478   4.449  -5.999  0.00  0.00     0.015 SA
ATOM      6  C4  UNL d   1      -0.148   3.419  -5.729  0.00  0.00     0.022 A 
ATOM      7  C5  UNL d   1      -0.378   2.539  -4.699  0.00  0.00     0.026 A 
ATOM      8  C6  UNL d   1      -1.676   2.700  -4.106  0.00  0.00    -0.082 A 
ATOM      9  C7  UNL d   1      -2.294   2.006  -3.038  0.00  0.00     0.045 A 
ENDROOT
TORSDOF 0
ENDMDL
