MODEL 1
REMARK minimizedAffinity 6.85541582
REMARK minimizedRMSD -1
REMARK  0 active torsions:
REMARK  status: ('A' for Active; 'I' for Inactive)
ROOT
ATOM      1  C   UNL d   1      -4.088   3.023  -3.402  0.00  0.00    -0.002 A 
ATOM      2  C1  UNL d   1      -3.394   1.891  -2.998  0.00  0.00     0.010 A 
ATOM      3  C2  UNL d   1      -2.096   1.654  -3.453  0.00  0.00     0.041 A 
ATOM      4  C3  UNL d   1      -1.500   2.584  -4.328  0.00  0.00    -0.075 A 
ATOM      5  S   UNL d   1       0.081   2.501  -5.012  0.00  0.00     0.015 SA
ATOM      6  C4  UNL d   1      -0.128   3.968  -5.856  0.00  0.00     0.022 A 
ATOM      7  C5  UNL d   1      -1.367   4.520  -5.632  0.00  0.00     0.026 A 
ATOM      8  C6  UNL d   1      -2.178   3.732  -4.747  0.00  0.00    -0.082 A 
ATOM      9  C7  UNL d   1      -3.493   3.943  -4.269  0.00  0.00     0.045 A 
ENDROOT
TORSDOF 0
ENDMDL
