MODEL 1
REMARK minimizedAffinity 12.6943188
REMARK minimizedRMSD -1
REMARK  0 active torsions:
REMARK  status: ('A' for Active; 'I' for Inactive)
ROOT
ATOM      1  C   UNL d   1      -3.514   2.358   0.291  0.00  0.00    -0.002 A 
ATOM      2  C1  UNL d   1      -2.433   3.222   0.400  0.00  0.00     0.010 A 
ATOM      3  C2  UNL d   1      -1.783   3.693  -0.743  0.00  0.00     0.041 A 
ATOM      4  C3  UNL d   1      -2.243   3.279  -2.008  0.00  0.00    -0.075 A 
ATOM      5  S   UNL d   1      -1.603   3.728  -3.545  0.00  0.00     0.015 SA
ATOM      6  C4  UNL d   1      -2.749   2.784  -4.382  0.00  0.00     0.022 A 
ATOM      7  C5  UNL d   1      -3.607   2.136  -3.525  0.00  0.00     0.026 A 
ATOM      8  C6  UNL d   1      -3.330   2.410  -2.143  0.00  0.00    -0.082 A 
ATOM      9  C7  UNL d   1      -3.967   1.949  -0.966  0.00  0.00     0.045 A 
ENDROOT
TORSDOF 0
ENDMDL
