MODEL 1
REMARK minimizedAffinity 3.91551065
REMARK minimizedRMSD -1
REMARK  0 active torsions:
REMARK  status: ('A' for Active; 'I' for Inactive)
ROOT
ATOM      1  C   UNL d   1      -4.206   2.566  -2.972  0.00  0.00    -0.002 A 
ATOM      2  C1  UNL d   1      -3.775   1.268  -2.740  0.00  0.00     0.010 A 
ATOM      3  C2  UNL d   1      -2.547   0.828  -3.236  0.00  0.00     0.041 A 
ATOM      4  C3  UNL d   1      -1.750   1.724  -3.975  0.00  0.00    -0.075 A 
ATOM      5  S   UNL d   1      -0.208   1.407  -4.679  0.00  0.00     0.015 SA
ATOM      6  C4  UNL d   1      -0.085   2.988  -5.304  0.00  0.00     0.022 A 
ATOM      7  C5  UNL d   1      -1.185   3.752  -4.993  0.00  0.00     0.026 A 
ATOM      8  C6  UNL d   1      -2.162   3.037  -4.221  0.00  0.00    -0.082 A 
ATOM      9  C7  UNL d   1      -3.413   3.453  -3.706  0.00  0.00     0.045 A 
ENDROOT
TORSDOF 0
ENDMDL
