MODEL 1
REMARK minimizedAffinity -0.0177536123
REMARK minimizedRMSD -1
REMARK  1 active torsions:
REMARK  status: ('A' for Active; 'I' for Inactive)
REMARK    1  A    between atoms: N_2  and  C1_3 
ROOT
ATOM      1  C1  UNL d   1      -3.309   0.336  -6.000  0.00  0.00     0.143 A 
ATOM      2  C2  UNL d   1      -4.537   1.007  -5.999  0.00  0.00    -0.057 A 
ATOM      3  C3  UNL d   1      -4.600   2.406  -5.999  0.00  0.00     0.033 A 
ATOM      4  C4  UNL d   1      -3.431   3.161  -5.969  0.00  0.00    -0.042 A 
ATOM      5  C5  UNL d   1      -2.200   2.515  -5.944  0.00  0.00     0.033 A 
ATOM      6  C6  UNL d   1      -2.144   1.118  -5.952  0.00  0.00    -0.057 A 
ENDROOT
BRANCH   1   7
ATOM      7  N   UNL d   1      -3.181  -1.051  -5.901  0.00  0.00    -0.732 N 
ATOM      8  C   UNL d   1      -4.349  -1.905  -5.954  0.00  0.00     0.284 C 
ATOM      9  H3  UNL d   1      -2.383  -1.406  -6.423  0.00  0.00     0.395 HD
ENDBRANCH   1   7
TORSDOF 1
ENDMDL
