MODEL 1
REMARK minimizedAffinity -3.17796016
REMARK minimizedRMSD -1
REMARK  1 active torsions:
REMARK  status: ('A' for Active; 'I' for Inactive)
REMARK    1  A    between atoms: N_2  and  C1_3 
ROOT
ATOM      1  C1  UNL d   1       0.251  -0.612  -0.987  0.00  0.00     0.143 A 
ATOM      2  C2  UNL d   1      -0.904  -1.385  -1.146  0.00  0.00    -0.057 A 
ATOM      3  C3  UNL d   1      -1.242  -1.939  -2.387  0.00  0.00     0.033 A 
ATOM      4  C4  UNL d   1      -0.442  -1.704  -3.501  0.00  0.00    -0.042 A 
ATOM      5  C5  UNL d   1       0.697  -0.918  -3.371  0.00  0.00     0.033 A 
ATOM      6  C6  UNL d   1       1.032  -0.373  -2.128  0.00  0.00    -0.057 A 
ENDROOT
BRANCH   1   7
ATOM      7  N   UNL d   1       0.588   0.047   0.198  0.00  0.00    -0.732 N 
ATOM      8  C   UNL d   1       0.595   1.493   0.261  0.00  0.00     0.284 C 
ATOM      9  H3  UNL d   1       0.190  -0.403   1.019  0.00  0.00     0.395 HD
ENDBRANCH   1   7
TORSDOF 1
ENDMDL
