MODEL 1
REMARK minimizedAffinity -2.98971248
REMARK minimizedRMSD -1
REMARK  1 active torsions:
REMARK  status: ('A' for Active; 'I' for Inactive)
REMARK    1  A    between atoms: N_2  and  C1_3 
ROOT
ATOM      1  C1  UNL d   1      -3.012   4.235  -5.721  0.00  0.00     0.143 A 
ATOM      2  C2  UNL d   1      -4.411   4.284  -5.738  0.00  0.00    -0.057 A 
ATOM      3  C3  UNL d   1      -5.177   3.118  -5.856  0.00  0.00     0.033 A 
ATOM      4  C4  UNL d   1      -4.555   1.881  -5.989  0.00  0.00    -0.042 A 
ATOM      5  C5  UNL d   1      -3.166   1.811  -6.000  0.00  0.00     0.033 A 
ATOM      6  C6  UNL d   1      -2.407   2.978  -5.875  0.00  0.00    -0.057 A 
ENDROOT
BRANCH   1   7
ATOM      7  N   UNL d   1      -2.195   5.367  -5.705  0.00  0.00    -0.732 N 
ATOM      8  C   UNL d   1      -0.782   5.260  -6.000  0.00  0.00     0.284 C 
ATOM      9  H3  UNL d   1      -2.646   6.178  -6.122  0.00  0.00     0.395 HD
ENDBRANCH   1   7
TORSDOF 1
ENDMDL
