MODEL 1
REMARK minimizedAffinity 0.111875765
REMARK minimizedRMSD -1
REMARK  1 active torsions:
REMARK  status: ('A' for Active; 'I' for Inactive)
REMARK    1  A    between atoms: N_2  and  C1_3 
ROOT
ATOM      1  C1  UNL d   1       0.840  -0.259  -0.412  0.00  0.00     0.143 A 
ATOM      2  C2  UNL d   1       1.798   0.756  -0.314  0.00  0.00    -0.057 A 
ATOM      3  C3  UNL d   1       2.491   1.211  -1.442  0.00  0.00     0.033 A 
ATOM      4  C4  UNL d   1       2.259   0.637  -2.687  0.00  0.00    -0.042 A 
ATOM      5  C5  UNL d   1       1.329  -0.390  -2.804  0.00  0.00     0.033 A 
ATOM      6  C6  UNL d   1       0.635  -0.836  -1.675  0.00  0.00    -0.057 A 
ENDROOT
BRANCH   1   7
ATOM      7  N   UNL d   1       0.189  -0.823   0.688  0.00  0.00    -0.732 N 
ATOM      8  C   UNL d   1      -0.601  -2.026   0.540  0.00  0.00     0.284 C 
ATOM      9  H3  UNL d   1       0.759  -0.801   1.530  0.00  0.00     0.395 HD
ENDBRANCH   1   7
TORSDOF 1
ENDMDL
