MODEL 1
REMARK minimizedAffinity 4.38031101
REMARK minimizedRMSD -1
REMARK  1 active torsions:
REMARK  status: ('A' for Active; 'I' for Inactive)
REMARK    1  A    between atoms: N_2  and  C1_3 
ROOT
ATOM      1  C1  UNL d   1      -5.005   1.024  -6.000  0.00  0.00     0.143 A 
ATOM      2  C2  UNL d   1      -5.332   2.382  -5.936  0.00  0.00    -0.057 A 
ATOM      3  C3  UNL d   1      -4.338   3.368  -5.918  0.00  0.00     0.033 A 
ATOM      4  C4  UNL d   1      -2.994   3.010  -5.933  0.00  0.00    -0.042 A 
ATOM      5  C5  UNL d   1      -2.646   1.664  -5.971  0.00  0.00     0.033 A 
ATOM      6  C6  UNL d   1      -3.643   0.685  -5.996  0.00  0.00    -0.057 A 
ENDROOT
BRANCH   1   7
ATOM      7  N   UNL d   1      -5.945  -0.007  -5.922  0.00  0.00    -0.732 N 
ATOM      8  C   UNL d   1      -5.861  -1.004  -4.876  0.00  0.00     0.284 C 
ATOM      9  H3  UNL d   1      -6.891   0.315  -6.114  0.00  0.00     0.395 HD
ENDBRANCH   1   7
TORSDOF 1
ENDMDL
