MODEL 1
REMARK minimizedAffinity -1.63547289
REMARK minimizedRMSD -1
REMARK  1 active torsions:
REMARK  status: ('A' for Active; 'I' for Inactive)
REMARK    1  A    between atoms: N_2  and  C1_3 
ROOT
ATOM      1  C1  UNL d   1      -4.262   2.975  -5.379  0.00  0.00     0.143 A 
ATOM      2  C2  UNL d   1      -2.913   2.955  -5.748  0.00  0.00    -0.057 A 
ATOM      3  C3  UNL d   1      -2.245   1.750  -5.998  0.00  0.00     0.033 A 
ATOM      4  C4  UNL d   1      -2.911   0.537  -5.855  0.00  0.00    -0.042 A 
ATOM      5  C5  UNL d   1      -4.246   0.531  -5.466  0.00  0.00     0.033 A 
ATOM      6  C6  UNL d   1      -4.908   1.738  -5.224  0.00  0.00    -0.057 A 
ENDROOT
BRANCH   1   7
ATOM      7  N   UNL d   1      -4.954   4.134  -5.022  0.00  0.00    -0.732 N 
ATOM      8  C   UNL d   1      -5.839   4.785  -5.964  0.00  0.00     0.284 C 
ATOM      9  H3  UNL d   1      -5.316   4.093  -4.072  0.00  0.00     0.395 HD
ENDBRANCH   1   7
TORSDOF 1
ENDMDL
