MODEL 1
REMARK minimizedAffinity 4.68196535
REMARK minimizedRMSD -1
REMARK  1 active torsions:
REMARK  status: ('A' for Active; 'I' for Inactive)
REMARK    1  A    between atoms: N_2  and  C1_3 
ROOT
ATOM      1  C1  UNL d   1       0.800   0.472  -0.937  0.00  0.00     0.143 A 
ATOM      2  C2  UNL d   1       0.583   0.169   0.411  0.00  0.00    -0.057 A 
ATOM      3  C3  UNL d   1       0.954   1.060   1.425  0.00  0.00     0.033 A 
ATOM      4  C4  UNL d   1       1.578   2.262   1.109  0.00  0.00    -0.042 A 
ATOM      5  C5  UNL d   1       1.827   2.574  -0.224  0.00  0.00     0.033 A 
ATOM      6  C6  UNL d   1       1.447   1.682  -1.232  0.00  0.00    -0.057 A 
ENDROOT
BRANCH   1   7
ATOM      7  N   UNL d   1       0.543  -0.415  -1.985  0.00  0.00    -0.732 N 
ATOM      8  C   UNL d   1       0.510   0.052  -3.354  0.00  0.00     0.284 C 
ATOM      9  H3  UNL d   1       1.014  -1.308  -1.862  0.00  0.00     0.395 HD
ENDBRANCH   1   7
TORSDOF 1
ENDMDL
