MODEL 1
REMARK minimizedAffinity 5.38085747
REMARK minimizedRMSD -1
REMARK  1 active torsions:
REMARK  status: ('A' for Active; 'I' for Inactive)
REMARK    1  A    between atoms: N_2  and  C1_3 
ROOT
ATOM      1  C1  UNL d   1      -4.031   0.519   1.336  0.00  0.00     0.143 A 
ATOM      2  C2  UNL d   1      -3.499  -0.647   1.898  0.00  0.00    -0.057 A 
ATOM      3  C3  UNL d   1      -4.189  -1.864   1.835  0.00  0.00     0.033 A 
ATOM      4  C4  UNL d   1      -5.441  -1.929   1.232  0.00  0.00    -0.042 A 
ATOM      5  C5  UNL d   1      -6.000  -0.778   0.689  0.00  0.00     0.033 A 
ATOM      6  C6  UNL d   1      -5.303   0.433   0.749  0.00  0.00    -0.057 A 
ENDROOT
BRANCH   1   7
ATOM      7  N   UNL d   1      -3.438   1.779   1.453  0.00  0.00    -0.732 N 
ATOM      8  C   UNL d   1      -3.755   2.642   2.571  0.00  0.00     0.284 C 
ATOM      9  H3  UNL d   1      -2.452   1.769   1.202  0.00  0.00     0.395 HD
ENDBRANCH   1   7
TORSDOF 1
ENDMDL
