MODEL 1
REMARK minimizedAffinity 2.84148908
REMARK minimizedRMSD -1
REMARK  1 active torsions:
REMARK  status: ('A' for Active; 'I' for Inactive)
REMARK    1  A    between atoms: N_2  and  C1_3 
ROOT
ATOM      1  C1  UNL d   1      -3.143   0.530  -5.857  0.00  0.00     0.143 A 
ATOM      2  C2  UNL d   1      -4.497   0.205  -5.725  0.00  0.00    -0.057 A 
ATOM      3  C3  UNL d   1      -4.925  -1.127  -5.689  0.00  0.00     0.033 A 
ATOM      4  C4  UNL d   1      -4.004  -2.163  -5.814  0.00  0.00    -0.042 A 
ATOM      5  C5  UNL d   1      -2.656  -1.864  -5.971  0.00  0.00     0.033 A 
ATOM      6  C6  UNL d   1      -2.234  -0.531  -5.999  0.00  0.00    -0.057 A 
ENDROOT
BRANCH   1   7
ATOM      7  N   UNL d   1      -2.666   1.835  -5.998  0.00  0.00    -0.732 N 
ATOM      8  C   UNL d   1      -3.544   2.967  -5.792  0.00  0.00     0.284 C 
ATOM      9  H3  UNL d   1      -1.735   1.953  -5.604  0.00  0.00     0.395 HD
ENDBRANCH   1   7
TORSDOF 1
ENDMDL
