MODEL 1
REMARK minimizedAffinity -3.2610445
REMARK minimizedRMSD -1
REMARK  1 active torsions:
REMARK  status: ('A' for Active; 'I' for Inactive)
REMARK    1  A    between atoms: N_2  and  C1_3 
ROOT
ATOM      1  C1  UNL d   1      -3.203   2.057  -5.917  0.00  0.00     0.143 A 
ATOM      2  C2  UNL d   1      -4.543   2.449  -6.000  0.00  0.00    -0.057 A 
ATOM      3  C3  UNL d   1      -4.922   3.784  -5.813  0.00  0.00     0.033 A 
ATOM      4  C4  UNL d   1      -3.967   4.749  -5.511  0.00  0.00    -0.042 A 
ATOM      5  C5  UNL d   1      -2.632   4.378  -5.399  0.00  0.00     0.033 A 
ATOM      6  C6  UNL d   1      -2.259   3.044  -5.593  0.00  0.00    -0.057 A 
ENDROOT
BRANCH   1   7
ATOM      7  N   UNL d   1      -2.774   0.730  -5.995  0.00  0.00    -0.732 N 
ATOM      8  C   UNL d   1      -3.732  -0.355  -6.000  0.00  0.00     0.284 C 
ATOM      9  H3  UNL d   1      -2.004   0.608  -6.649  0.00  0.00     0.395 HD
ENDBRANCH   1   7
TORSDOF 1
ENDMDL
