MODEL 1
REMARK minimizedAffinity -1.02515662
REMARK minimizedRMSD -1
REMARK  1 active torsions:
REMARK  status: ('A' for Active; 'I' for Inactive)
REMARK    1  A    between atoms: N_2  and  C1_3 
ROOT
ATOM      1  C1  UNL d   1      -3.780  -0.904  -5.993  0.00  0.00     0.143 A 
ATOM      2  C2  UNL d   1      -4.785   0.069  -5.963  0.00  0.00    -0.057 A 
ATOM      3  C3  UNL d   1      -4.474   1.434  -5.976  0.00  0.00     0.033 A 
ATOM      4  C4  UNL d   1      -3.147   1.851  -5.989  0.00  0.00    -0.042 A 
ATOM      5  C5  UNL d   1      -2.132   0.902  -5.993  0.00  0.00     0.033 A 
ATOM      6  C6  UNL d   1      -2.448  -0.460  -5.987  0.00  0.00    -0.057 A 
ENDROOT
BRANCH   1   7
ATOM      7  N   UNL d   1      -4.021  -2.276  -5.883  0.00  0.00    -0.732 N 
ATOM      8  C   UNL d   1      -5.375  -2.782  -5.810  0.00  0.00     0.284 C 
ATOM      9  H3  UNL d   1      -3.402  -2.828  -6.472  0.00  0.00     0.395 HD
ENDBRANCH   1   7
TORSDOF 1
ENDMDL
