MODEL 1
REMARK minimizedAffinity -0.223334059
REMARK minimizedRMSD -1
REMARK  1 active torsions:
REMARK  status: ('A' for Active; 'I' for Inactive)
REMARK    1  A    between atoms: N_2  and  C1_3 
ROOT
ATOM      1  C1  UNL d   1       1.045   0.520   0.019  0.00  0.00     0.143 A 
ATOM      2  C2  UNL d   1       0.015  -0.407  -0.172  0.00  0.00    -0.057 A 
ATOM      3  C3  UNL d   1      -0.048  -1.194  -1.328  0.00  0.00     0.033 A 
ATOM      4  C4  UNL d   1       0.906  -1.047  -2.330  0.00  0.00    -0.042 A 
ATOM      5  C5  UNL d   1       1.925  -0.114  -2.172  0.00  0.00     0.033 A 
ATOM      6  C6  UNL d   1       1.986   0.664  -1.012  0.00  0.00    -0.057 A 
ENDROOT
BRANCH   1   7
ATOM      7  N   UNL d   1       1.108   1.401   1.102  0.00  0.00    -0.732 N 
ATOM      8  C   UNL d   1       1.884   2.619   1.017  0.00  0.00     0.284 C 
ATOM      9  H3  UNL d   1       0.208   1.512   1.564  0.00  0.00     0.395 HD
ENDBRANCH   1   7
TORSDOF 1
ENDMDL
