MODEL 1
REMARK minimizedAffinity -0.124291785
REMARK minimizedRMSD -1
REMARK  1 active torsions:
REMARK  status: ('A' for Active; 'I' for Inactive)
REMARK    1  A    between atoms: N_2  and  C1_3 
ROOT
ATOM      1  C1  UNL d   1      -3.729  -3.489  -5.655  0.00  0.00     0.143 A 
ATOM      2  C2  UNL d   1      -5.107  -3.580  -5.882  0.00  0.00    -0.057 A 
ATOM      3  C3  UNL d   1      -5.743  -4.821  -6.000  0.00  0.00     0.033 A 
ATOM      4  C4  UNL d   1      -5.005  -5.998  -5.922  0.00  0.00    -0.042 A 
ATOM      5  C5  UNL d   1      -3.631  -5.931  -5.722  0.00  0.00     0.033 A 
ATOM      6  C6  UNL d   1      -3.002  -4.688  -5.598  0.00  0.00    -0.057 A 
ENDROOT
BRANCH   1   7
ATOM      7  N   UNL d   1      -3.024  -2.284  -5.627  0.00  0.00    -0.732 N 
ATOM      8  C   UNL d   1      -3.638  -1.082  -5.105  0.00  0.00     0.284 C 
ATOM      9  H3  UNL d   1      -2.053  -2.409  -5.350  0.00  0.00     0.395 HD
ENDBRANCH   1   7
TORSDOF 1
ENDMDL
