MODEL 1
REMARK minimizedAffinity -3.08371687
REMARK minimizedRMSD -1
REMARK  1 active torsions:
REMARK  status: ('A' for Active; 'I' for Inactive)
REMARK    1  A    between atoms: N_2  and  C1_3 
ROOT
ATOM      1  C1  UNL d   1       0.864   0.068  -0.414  0.00  0.00     0.143 A 
ATOM      2  C2  UNL d   1      -0.263  -0.738  -0.607  0.00  0.00    -0.057 A 
ATOM      3  C3  UNL d   1      -0.517  -1.347  -1.842  0.00  0.00     0.033 A 
ATOM      4  C4  UNL d   1       0.340  -1.136  -2.918  0.00  0.00    -0.042 A 
ATOM      5  C5  UNL d   1       1.453  -0.319  -2.756  0.00  0.00     0.033 A 
ATOM      6  C6  UNL d   1       1.705   0.281  -1.518  0.00  0.00    -0.057 A 
ENDROOT
BRANCH   1   7
ATOM      7  N   UNL d   1       1.119   0.781   0.760  0.00  0.00    -0.732 N 
ATOM      8  C   UNL d   1       1.840   2.035   0.720  0.00  0.00     0.284 C 
ATOM      9  H3  UNL d   1       0.325   0.777   1.396  0.00  0.00     0.395 HD
ENDBRANCH   1   7
TORSDOF 1
ENDMDL
