MODEL 1
REMARK minimizedAffinity 4.67110252
REMARK minimizedRMSD -1
REMARK  0 active torsions:
REMARK  status: ('A' for Active; 'I' for Inactive)
ROOT
ATOM      1  C   UNL d   1      -4.170   5.003  -0.956  0.00  0.00     0.020 A 
ATOM      2  C1  UNL d   1      -3.757   5.858   0.065  0.00  0.00     0.020 A 
ATOM      3  C2  UNL d   1      -2.984   5.365   1.119  0.00  0.00     0.034 A 
ATOM      4  C3  UNL d   1      -2.623   4.013   1.154  0.00  0.00     0.017 A 
ATOM      5  C4  UNL d   1      -3.039   3.156   0.129  0.00  0.00     0.017 A 
ATOM      6  C5  UNL d   1      -3.812   3.655  -0.924  0.00  0.00     0.034 A 
ATOM      7 Cl   UNL d   1      -2.633   1.476   0.104  0.00  0.00    -0.070 Cl
ATOM      8 Cl1  UNL d   1      -1.666   3.472   2.487  0.00  0.00    -0.070 Cl
ENDROOT
TORSDOF 0
ENDMDL
