MODEL 1
REMARK minimizedAffinity 18.1902637
REMARK minimizedRMSD -1
REMARK  0 active torsions:
REMARK  status: ('A' for Active; 'I' for Inactive)
ROOT
ATOM      1  C   UNL d   1      -5.534  -5.999  -5.480  0.00  0.00     0.020 A 
ATOM      2  C1  UNL d   1      -5.989  -5.487  -4.266  0.00  0.00     0.020 A 
ATOM      3  C2  UNL d   1      -5.213  -4.562  -3.563  0.00  0.00     0.034 A 
ATOM      4  C3  UNL d   1      -3.978  -4.147  -4.075  0.00  0.00     0.017 A 
ATOM      5  C4  UNL d   1      -3.522  -4.662  -5.293  0.00  0.00     0.017 A 
ATOM      6  C5  UNL d   1      -4.303  -5.588  -5.992  0.00  0.00     0.034 A 
ATOM      7 Cl   UNL d   1      -2.009  -4.198  -5.988  0.00  0.00    -0.070 Cl
ATOM      8 Cl1  UNL d   1      -3.072  -3.000  -3.153  0.00  0.00    -0.070 Cl
ENDROOT
TORSDOF 0
ENDMDL
