MODEL 1
REMARK minimizedAffinity 15.1002245
REMARK minimizedRMSD -1
REMARK  0 active torsions:
REMARK  status: ('A' for Active; 'I' for Inactive)
ROOT
ATOM      1  C   UNL d   1       6.000  -3.052  -1.126  0.00  0.00     0.020 A 
ATOM      2  C1  UNL d   1       5.263  -1.868  -1.151  0.00  0.00     0.020 A 
ATOM      3  C2  UNL d   1       4.248  -1.698  -2.094  0.00  0.00     0.034 A 
ATOM      4  C3  UNL d   1       3.966  -2.713  -3.016  0.00  0.00     0.017 A 
ATOM      5  C4  UNL d   1       4.706  -3.901  -2.990  0.00  0.00     0.017 A 
ATOM      6  C5  UNL d   1       5.722  -4.066  -2.043  0.00  0.00     0.034 A 
ATOM      7 Cl   UNL d   1       4.417  -5.198  -4.095  0.00  0.00    -0.070 Cl
ATOM      8 Cl1  UNL d   1       2.696  -2.435  -4.154  0.00  0.00    -0.070 Cl
ENDROOT
TORSDOF 0
ENDMDL
