MODEL 1
REMARK minimizedAffinity 12.5549517
REMARK minimizedRMSD -1
REMARK  0 active torsions:
REMARK  status: ('A' for Active; 'I' for Inactive)
ROOT
ATOM      1  C   UNL d   1       5.259   0.797  -5.998  0.00  0.00     0.020 A 
ATOM      2  C1  UNL d   1       6.000   1.305  -4.932  0.00  0.00     0.020 A 
ATOM      3  C2  UNL d   1       5.972   0.662  -3.693  0.00  0.00     0.034 A 
ATOM      4  C3  UNL d   1       5.201  -0.493  -3.517  0.00  0.00     0.017 A 
ATOM      5  C4  UNL d   1       4.458  -1.003  -4.588  0.00  0.00     0.017 A 
ATOM      6  C5  UNL d   1       4.490  -0.355  -5.826  0.00  0.00     0.034 A 
ATOM      7 Cl   UNL d   1       3.484  -2.423  -4.447  0.00  0.00    -0.070 Cl
ATOM      8 Cl1  UNL d   1       5.213  -1.237  -1.957  0.00  0.00    -0.070 Cl
ENDROOT
TORSDOF 0
ENDMDL
