MODEL 1
REMARK minimizedAffinity 14.6899977
REMARK minimizedRMSD -1
REMARK  0 active torsions:
REMARK  status: ('A' for Active; 'I' for Inactive)
ROOT
ATOM      1  C   UNL d   1       4.075   2.631  -5.210  0.00  0.00     0.020 A 
ATOM      2  C1  UNL d   1       5.426   2.496  -4.893  0.00  0.00     0.020 A 
ATOM      3  C2  UNL d   1       5.996   3.306  -3.907  0.00  0.00     0.034 A 
ATOM      4  C3  UNL d   1       5.214   4.253  -3.236  0.00  0.00     0.017 A 
ATOM      5  C4  UNL d   1       3.858   4.387  -3.556  0.00  0.00     0.017 A 
ATOM      6  C5  UNL d   1       3.293   3.574  -4.543  0.00  0.00     0.034 A 
ATOM      7 Cl   UNL d   1       2.830   5.534  -2.771  0.00  0.00    -0.070 Cl
ATOM      8 Cl1  UNL d   1       5.984   5.220  -2.029  0.00  0.00    -0.070 Cl
ENDROOT
TORSDOF 0
ENDMDL
