MODEL 1
REMARK minimizedAffinity 11.3259678
REMARK minimizedRMSD -1
REMARK  0 active torsions:
REMARK  status: ('A' for Active; 'I' for Inactive)
ROOT
ATOM      1  C   UNL d   1      -3.885   6.000   0.363  0.00  0.00     0.020 A 
ATOM      2  C1  UNL d   1      -4.480   5.216  -0.625  0.00  0.00     0.020 A 
ATOM      3  C2  UNL d   1      -3.963   3.952  -0.919  0.00  0.00     0.034 A 
ATOM      4  C3  UNL d   1      -2.848   3.469  -0.225  0.00  0.00     0.017 A 
ATOM      5  C4  UNL d   1      -2.251   4.257   0.766  0.00  0.00     0.017 A 
ATOM      6  C5  UNL d   1      -2.773   5.521   1.057  0.00  0.00     0.034 A 
ATOM      7 Cl   UNL d   1      -0.872   3.729   1.665  0.00  0.00    -0.070 Cl
ATOM      8 Cl1  UNL d   1      -2.262   1.898  -0.641  0.00  0.00    -0.070 Cl
ENDROOT
TORSDOF 0
ENDMDL
