MODEL 1
REMARK minimizedAffinity 16.3041744
REMARK minimizedRMSD -1
REMARK  0 active torsions:
REMARK  status: ('A' for Active; 'I' for Inactive)
ROOT
ATOM      1  C   UNL d   1       5.997   5.257  -0.435  0.00  0.00     0.020 A 
ATOM      2  C1  UNL d   1       5.850   5.728  -1.740  0.00  0.00     0.020 A 
ATOM      3  C2  UNL d   1       4.574   5.950  -2.262  0.00  0.00     0.034 A 
ATOM      4  C3  UNL d   1       3.440   5.702  -1.480  0.00  0.00     0.017 A 
ATOM      5  C4  UNL d   1       3.589   5.230  -0.171  0.00  0.00     0.017 A 
ATOM      6  C5  UNL d   1       4.868   5.009   0.347  0.00  0.00     0.034 A 
ATOM      7 Cl   UNL d   1       2.237   4.901   0.854  0.00  0.00    -0.070 Cl
ATOM      8 Cl1  UNL d   1       1.894   6.000  -2.191  0.00  0.00    -0.070 Cl
ENDROOT
TORSDOF 0
ENDMDL
