MODEL 1
REMARK minimizedAffinity 15.9743872
REMARK minimizedRMSD -1
REMARK  0 active torsions:
REMARK  status: ('A' for Active; 'I' for Inactive)
ROOT
ATOM      1  C   UNL d   1       2.159   5.445   0.449  0.00  0.00     0.020 A 
ATOM      2  C1  UNL d   1       1.321   6.000   1.416  0.00  0.00     0.020 A 
ATOM      3  C2  UNL d   1       0.228   5.273   1.892  0.00  0.00     0.034 A 
ATOM      4  C3  UNL d   1      -0.030   3.988   1.402  0.00  0.00     0.017 A 
ATOM      5  C4  UNL d   1       0.811   3.432   0.432  0.00  0.00     0.017 A 
ATOM      6  C5  UNL d   1       1.905   4.164  -0.041  0.00  0.00     0.034 A 
ATOM      7 Cl   UNL d   1       0.557   1.852  -0.220  0.00  0.00    -0.070 Cl
ATOM      8 Cl1  UNL d   1      -1.400   3.147   2.036  0.00  0.00    -0.070 Cl
ENDROOT
TORSDOF 0
ENDMDL
