MODEL 1
REMARK minimizedAffinity 14.5042124
REMARK minimizedRMSD -1
REMARK  0 active torsions:
REMARK  status: ('A' for Active; 'I' for Inactive)
ROOT
ATOM      1  C   UNL d   1      -5.740   0.012   5.996  0.00  0.00     0.020 A 
ATOM      2  C1  UNL d   1      -5.017   1.203   5.996  0.00  0.00     0.020 A 
ATOM      3  C2  UNL d   1      -3.621   1.173   5.997  0.00  0.00     0.034 A 
ATOM      4  C3  UNL d   1      -2.944  -0.052   5.998  0.00  0.00     0.017 A 
ATOM      5  C4  UNL d   1      -3.671  -1.248   5.998  0.00  0.00     0.017 A 
ATOM      6  C5  UNL d   1      -5.069  -1.212   5.997  0.00  0.00     0.034 A 
ATOM      7 Cl   UNL d   1      -2.906  -2.798   5.999  0.00  0.00    -0.070 Cl
ATOM      8 Cl1  UNL d   1      -1.216  -0.016   5.999  0.00  0.00    -0.070 Cl
ENDROOT
TORSDOF 0
ENDMDL
