MODEL 1
REMARK minimizedAffinity 16.1741333
REMARK minimizedRMSD -1
REMARK  0 active torsions:
REMARK  status: ('A' for Active; 'I' for Inactive)
ROOT
ATOM      1  C   UNL d   1      -0.006  -2.345   0.466  0.00  0.00     0.020 A 
ATOM      2  C1  UNL d   1       0.550  -2.227  -0.807  0.00  0.00     0.020 A 
ATOM      3  C2  UNL d   1      -0.278  -2.188  -1.930  0.00  0.00     0.034 A 
ATOM      4  C3  UNL d   1      -1.668  -2.267  -1.783  0.00  0.00     0.017 A 
ATOM      5  C4  UNL d   1      -2.225  -2.385  -0.504  0.00  0.00     0.017 A 
ATOM      6  C5  UNL d   1      -1.391  -2.424   0.617  0.00  0.00     0.034 A 
ATOM      7 Cl   UNL d   1      -3.931  -2.487  -0.243  0.00  0.00    -0.070 Cl
ATOM      8 Cl1  UNL d   1      -2.632  -2.212  -3.215  0.00  0.00    -0.070 Cl
ENDROOT
TORSDOF 0
ENDMDL
