MODEL 1
REMARK minimizedAffinity 21.0204182
REMARK minimizedRMSD -1
REMARK  0 active torsions:
REMARK  status: ('A' for Active; 'I' for Inactive)
ROOT
ATOM      1  C   UNL d   1      -3.770  -2.166   0.357  0.00  0.00     0.020 A 
ATOM      2  C1  UNL d   1      -2.721  -2.247   1.272  0.00  0.00     0.020 A 
ATOM      3  C2  UNL d   1      -1.402  -2.310   0.818  0.00  0.00     0.034 A 
ATOM      4  C3  UNL d   1      -1.129  -2.292  -0.555  0.00  0.00     0.017 A 
ATOM      5  C4  UNL d   1      -2.182  -2.210  -1.472  0.00  0.00     0.017 A 
ATOM      6  C5  UNL d   1      -3.501  -2.148  -1.012  0.00  0.00     0.034 A 
ATOM      7 Cl   UNL d   1      -1.924  -2.183  -3.181  0.00  0.00    -0.070 Cl
ATOM      8 Cl1  UNL d   1       0.526  -2.372  -1.045  0.00  0.00    -0.070 Cl
ENDROOT
TORSDOF 0
ENDMDL
