MODEL 1
REMARK minimizedAffinity 13.7623367
REMARK minimizedRMSD -1
REMARK  0 active torsions:
REMARK  status: ('A' for Active; 'I' for Inactive)
ROOT
ATOM      1  C   UNL d   1      -4.988  -5.814  -5.057  0.00  0.00     0.020 A 
ATOM      2  C1  UNL d   1      -3.969  -6.000  -5.991  0.00  0.00     0.020 A 
ATOM      3  C2  UNL d   1      -2.865  -5.144  -6.000  0.00  0.00     0.034 A 
ATOM      4  C3  UNL d   1      -2.778  -4.098  -5.074  0.00  0.00     0.017 A 
ATOM      5  C4  UNL d   1      -3.802  -3.912  -4.137  0.00  0.00     0.017 A 
ATOM      6  C5  UNL d   1      -4.904  -4.772  -4.133  0.00  0.00     0.034 A 
ATOM      7 Cl   UNL d   1      -3.765  -2.644  -2.964  0.00  0.00    -0.070 Cl
ATOM      8 Cl1  UNL d   1      -1.385  -3.078  -5.142  0.00  0.00    -0.070 Cl
ENDROOT
TORSDOF 0
ENDMDL
