MODEL 1
REMARK minimizedAffinity 18.1198425
REMARK minimizedRMSD -1
REMARK  0 active torsions:
REMARK  status: ('A' for Active; 'I' for Inactive)
ROOT
ATOM      1  C   UNL d   1      -0.133  -1.781  -2.801  0.00  0.00     0.020 A 
ATOM      2  C1  UNL d   1      -0.656  -1.491  -1.541  0.00  0.00     0.020 A 
ATOM      3  C2  UNL d   1       0.201  -1.158  -0.490  0.00  0.00     0.034 A 
ATOM      4  C3  UNL d   1       1.585  -1.115  -0.696  0.00  0.00     0.017 A 
ATOM      5  C4  UNL d   1       2.108  -1.407  -1.961  0.00  0.00     0.017 A 
ATOM      6  C5  UNL d   1       1.246  -1.739  -3.010  0.00  0.00     0.034 A 
ATOM      7 Cl   UNL d   1       3.804  -1.375  -2.292  0.00  0.00    -0.070 Cl
ATOM      8 Cl1  UNL d   1       2.585  -0.696   0.649  0.00  0.00    -0.070 Cl
ENDROOT
TORSDOF 0
ENDMDL
