MODEL 1
REMARK minimizedAffinity 24.7867489
REMARK minimizedRMSD -1
REMARK  0 active torsions:
REMARK  status: ('A' for Active; 'I' for Inactive)
ROOT
ATOM      1  C   UNL d   1       3.599   1.896  -4.473  0.00  0.00     0.020 A 
ATOM      2  C1  UNL d   1       4.926   1.898  -4.045  0.00  0.00     0.020 A 
ATOM      3  C2  UNL d   1       5.438   3.005  -3.365  0.00  0.00     0.034 A 
ATOM      4  C3  UNL d   1       4.623   4.115  -3.112  0.00  0.00     0.017 A 
ATOM      5  C4  UNL d   1       3.292   4.111  -3.542  0.00  0.00     0.017 A 
ATOM      6  C5  UNL d   1       2.784   3.000  -4.222  0.00  0.00     0.034 A 
ATOM      7 Cl   UNL d   1       2.225   5.443  -3.266  0.00  0.00    -0.070 Cl
ATOM      8 Cl1  UNL d   1       5.323   5.449  -2.266  0.00  0.00    -0.070 Cl
ENDROOT
TORSDOF 0
ENDMDL
