MODEL 1
REMARK minimizedAffinity 11.5116148
REMARK minimizedRMSD -1
REMARK  0 active torsions:
REMARK  status: ('A' for Active; 'I' for Inactive)
ROOT
ATOM      1  C   UNL d   1      -0.335  -1.439  -2.212  0.00  0.00     0.020 A 
ATOM      2  C1  UNL d   1       0.039  -1.994  -0.989  0.00  0.00     0.020 A 
ATOM      3  C2  UNL d   1       1.390  -2.171  -0.686  0.00  0.00     0.034 A 
ATOM      4  C3  UNL d   1       2.374  -1.793  -1.607  0.00  0.00     0.017 A 
ATOM      5  C4  UNL d   1       1.998  -1.236  -2.835  0.00  0.00     0.017 A 
ATOM      6  C5  UNL d   1       0.643  -1.061  -3.133  0.00  0.00     0.034 A 
ATOM      7 Cl   UNL d   1       3.154  -0.745  -4.023  0.00  0.00    -0.070 Cl
ATOM      8 Cl1  UNL d   1       4.026  -2.040  -1.166  0.00  0.00    -0.070 Cl
ENDROOT
TORSDOF 0
ENDMDL
