MODEL 1
REMARK minimizedAffinity 12.6154451
REMARK minimizedRMSD -1
REMARK  0 active torsions:
REMARK  status: ('A' for Active; 'I' for Inactive)
ROOT
ATOM      1  C   UNL d   1       4.872  -4.941   6.000  0.00  0.00     0.020 A 
ATOM      2  C1  UNL d   1       4.085  -5.911   5.381  0.00  0.00     0.020 A 
ATOM      3  C2  UNL d   1       3.005  -5.528   4.582  0.00  0.00     0.034 A 
ATOM      4  C3  UNL d   1       2.710  -4.173   4.400  0.00  0.00     0.017 A 
ATOM      5  C4  UNL d   1       3.501  -3.200   5.022  0.00  0.00     0.017 A 
ATOM      6  C5  UNL d   1       4.581  -3.588   5.821  0.00  0.00     0.034 A 
ATOM      7 Cl   UNL d   1       3.199  -1.507   4.844  0.00  0.00    -0.070 Cl
ATOM      8 Cl1  UNL d   1       1.360  -3.771   3.398  0.00  0.00    -0.070 Cl
ENDROOT
TORSDOF 0
ENDMDL
