MODEL 1
REMARK minimizedAffinity 11.3367109
REMARK minimizedRMSD -1
REMARK  0 active torsions:
REMARK  status: ('A' for Active; 'I' for Inactive)
ROOT
ATOM      1  C   UNL d   1       0.450  -2.238  -2.127  0.00  0.00     0.020 A 
ATOM      2  C1  UNL d   1       0.927  -1.565  -1.004  0.00  0.00     0.020 A 
ATOM      3  C2  UNL d   1       2.286  -1.262  -0.896  0.00  0.00     0.034 A 
ATOM      4  C3  UNL d   1       3.172  -1.632  -1.914  0.00  0.00     0.017 A 
ATOM      5  C4  UNL d   1       2.692  -2.308  -3.042  0.00  0.00     0.017 A 
ATOM      6  C5  UNL d   1       1.330  -2.609  -3.144  0.00  0.00     0.034 A 
ATOM      7 Cl   UNL d   1       3.724  -2.797  -4.339  0.00  0.00    -0.070 Cl
ATOM      8 Cl1  UNL d   1       4.840  -1.225  -1.715  0.00  0.00    -0.070 Cl
ENDROOT
TORSDOF 0
ENDMDL
