MODEL 1
REMARK minimizedAffinity 16.6615162
REMARK minimizedRMSD -1
REMARK  0 active torsions:
REMARK  status: ('A' for Active; 'I' for Inactive)
ROOT
ATOM      1  C   UNL d   1       5.999   5.755  -2.810  0.00  0.00     0.020 A 
ATOM      2  C1  UNL d   1       5.983   5.174  -1.542  0.00  0.00     0.020 A 
ATOM      3  C2  UNL d   1       4.768   4.838  -0.943  0.00  0.00     0.034 A 
ATOM      4  C3  UNL d   1       3.562   5.082  -1.611  0.00  0.00     0.017 A 
ATOM      5  C4  UNL d   1       3.579   5.665  -2.883  0.00  0.00     0.017 A 
ATOM      6  C5  UNL d   1       4.799   6.000  -3.479  0.00  0.00     0.034 A 
ATOM      7 Cl   UNL d   1       2.132   5.997  -3.769  0.00  0.00    -0.070 Cl
ATOM      8 Cl1  UNL d   1       2.096   4.640  -0.810  0.00  0.00    -0.070 Cl
ENDROOT
TORSDOF 0
ENDMDL
