MODEL 1
REMARK minimizedAffinity 5.88876963
REMARK minimizedRMSD -1
REMARK  0 active torsions:
REMARK  status: ('A' for Active; 'I' for Inactive)
ROOT
ATOM      1  C   UNL d   1       5.720  -0.684  -5.064  0.00  0.00     0.020 A 
ATOM      2  C1  UNL d   1       5.582  -1.732  -5.974  0.00  0.00     0.020 A 
ATOM      3  C2  UNL d   1       5.569  -3.052  -5.520  0.00  0.00     0.034 A 
ATOM      4  C3  UNL d   1       5.693  -3.329  -4.154  0.00  0.00     0.017 A 
ATOM      5  C4  UNL d   1       5.831  -2.276  -3.242  0.00  0.00     0.017 A 
ATOM      6  C5  UNL d   1       5.844  -0.956  -3.701  0.00  0.00     0.034 A 
ATOM      7 Cl   UNL d   1       5.990  -2.539  -1.541  0.00  0.00    -0.070 Cl
ATOM      8 Cl1  UNL d   1       5.668  -4.986  -3.664  0.00  0.00    -0.070 Cl
ENDROOT
TORSDOF 0
ENDMDL
