MODEL 1
REMARK minimizedAffinity 10.0209827
REMARK minimizedRMSD -1
REMARK  0 active torsions:
REMARK  status: ('A' for Active; 'I' for Inactive)
ROOT
ATOM      1  C2' OXE d   1       3.488  -2.887   3.798  0.00  0.00     0.078 C 
ATOM      2  C1' OXE d   1       2.561  -4.150   1.468  0.00  0.00     0.078 C 
ATOM      3  C1  OXE d   1       1.719  -3.043   2.051  0.00  0.00    -0.078 A 
ATOM      4  C2  OXE d   1       2.156  -2.463   3.217  0.00  0.00    -0.078 A 
ATOM      5  C3  OXE d   1       1.445  -1.400   3.768  0.00  0.00     0.003 A 
ATOM      6  C4  OXE d   1       0.209  -1.021   3.230  0.00  0.00    -0.002 A 
ATOM      7  C5  OXE d   1      -0.275  -1.626   2.065  0.00  0.00    -0.002 A 
ATOM      8  C6  OXE d   1       0.487  -2.607   1.441  0.00  0.00     0.003 A 
ENDROOT
TORSDOF 0
ENDMDL
