MODEL 1
REMARK minimizedAffinity 5.28537846
REMARK minimizedRMSD -1
REMARK  0 active torsions:
REMARK  status: ('A' for Active; 'I' for Inactive)
ROOT
ATOM      1  C2' OXE d   1      -4.416   1.157  -0.722  0.00  0.00     0.078 C 
ATOM      2  C1' OXE d   1      -2.740  -1.086  -0.518  0.00  0.00     0.078 C 
ATOM      3  C1  OXE d   1      -3.583  -0.949  -1.761  0.00  0.00    -0.078 A 
ATOM      4  C2  OXE d   1      -4.435   0.127  -1.832  0.00  0.00    -0.078 A 
ATOM      5  C3  OXE d   1      -5.195   0.331  -2.980  0.00  0.00     0.003 A 
ATOM      6  C4  OXE d   1      -5.214  -0.631  -3.997  0.00  0.00    -0.002 A 
ATOM      7  C5  OXE d   1      -4.384  -1.755  -3.927  0.00  0.00    -0.002 A 
ATOM      8  C6  OXE d   1      -3.532  -1.906  -2.838  0.00  0.00     0.003 A 
ENDROOT
TORSDOF 0
ENDMDL
