MODEL 1
REMARK minimizedAffinity 6.94176102
REMARK minimizedRMSD -1
REMARK  0 active torsions:
REMARK  status: ('A' for Active; 'I' for Inactive)
ROOT
ATOM      1  C2' OXE d   1       2.898  -2.413   3.545  0.00  0.00     0.078 C 
ATOM      2  C1' OXE d   1       4.225  -2.107   6.000  0.00  0.00     0.078 C 
ATOM      3  C1  OXE d   1       4.192  -3.484   5.385  0.00  0.00    -0.078 A 
ATOM      4  C2  OXE d   1       3.500  -3.633   4.207  0.00  0.00    -0.078 A 
ATOM      5  C3  OXE d   1       3.484  -4.871   3.570  0.00  0.00     0.003 A 
ATOM      6  C4  OXE d   1       4.034  -5.997   4.194  0.00  0.00    -0.002 A 
ATOM      7  C5  OXE d   1       4.709  -5.874   5.413  0.00  0.00    -0.002 A 
ATOM      8  C6  OXE d   1       4.833  -4.619   5.999  0.00  0.00     0.003 A 
ENDROOT
TORSDOF 0
ENDMDL
