MODEL 1
REMARK minimizedAffinity 12.2584476
REMARK minimizedRMSD -1
REMARK  0 active torsions:
REMARK  status: ('A' for Active; 'I' for Inactive)
ROOT
ATOM      1  C2' OXE d   1       1.198  -2.518   1.813  0.00  0.00     0.078 C 
ATOM      2  C1' OXE d   1       1.533  -0.074   3.153  0.00  0.00     0.078 C 
ATOM      3  C1  OXE d   1       0.131  -0.610   3.008  0.00  0.00    -0.078 A 
ATOM      4  C2  OXE d   1      -0.028  -1.784   2.310  0.00  0.00    -0.078 A 
ATOM      5  C3  OXE d   1      -1.294  -2.351   2.195  0.00  0.00     0.003 A 
ATOM      6  C4  OXE d   1      -2.425  -1.660   2.648  0.00  0.00    -0.002 A 
ATOM      7  C5  OXE d   1      -2.289  -0.444   3.326  0.00  0.00    -0.002 A 
ATOM      8  C6  OXE d   1      -1.017   0.072   3.551  0.00  0.00     0.003 A 
ENDROOT
TORSDOF 0
ENDMDL
