MODEL 1
REMARK minimizedAffinity -4.21360159
REMARK minimizedRMSD -1
REMARK  0 active torsions:
REMARK  status: ('A' for Active; 'I' for Inactive)
ROOT
ATOM      1  C2' OXE d   1       4.119  -5.225   5.221  0.00  0.00     0.078 C 
ATOM      2  C1' OXE d   1       3.995  -2.528   5.990  0.00  0.00     0.078 C 
ATOM      3  C1  OXE d   1       4.335  -2.835   4.553  0.00  0.00    -0.078 A 
ATOM      4  C2  OXE d   1       4.439  -4.158   4.196  0.00  0.00    -0.078 A 
ATOM      5  C3  OXE d   1       4.695  -4.496   2.871  0.00  0.00     0.003 A 
ATOM      6  C4  OXE d   1       5.000  -3.503   1.932  0.00  0.00    -0.002 A 
ATOM      7  C5  OXE d   1       4.938  -2.151   2.284  0.00  0.00    -0.002 A 
ATOM      8  C6  OXE d   1       4.566  -1.799   3.576  0.00  0.00     0.003 A 
ENDROOT
TORSDOF 0
ENDMDL
