MODEL 1
REMARK minimizedAffinity 11.895298
REMARK minimizedRMSD -1
REMARK  0 active torsions:
REMARK  status: ('A' for Active; 'I' for Inactive)
ROOT
ATOM      1  C2' OXE d   1       2.816  -4.745   1.149  0.00  0.00     0.078 C 
ATOM      2  C1' OXE d   1       3.918  -3.360   3.328  0.00  0.00     0.078 C 
ATOM      3  C1  OXE d   1       2.566  -2.919   2.825  0.00  0.00    -0.078 A 
ATOM      4  C2  OXE d   1       2.055  -3.572   1.729  0.00  0.00    -0.078 A 
ATOM      5  C3  OXE d   1       0.787  -3.242   1.258  0.00  0.00     0.003 A 
ATOM      6  C4  OXE d   1       0.095  -2.149   1.794  0.00  0.00    -0.002 A 
ATOM      7  C5  OXE d   1       0.615  -1.445   2.885  0.00  0.00    -0.002 A 
ATOM      8  C6  OXE d   1       1.827  -1.843   3.438  0.00  0.00     0.003 A 
ENDROOT
TORSDOF 0
ENDMDL
