MODEL 1
REMARK minimizedAffinity 2.5974865
REMARK minimizedRMSD -1
REMARK  0 active torsions:
REMARK  status: ('A' for Active; 'I' for Inactive)
ROOT
ATOM      1  C2' OXE d   1       2.453  -3.222   3.006  0.00  0.00     0.078 C 
ATOM      2  C1' OXE d   1       2.854  -6.000   2.947  0.00  0.00     0.078 C 
ATOM      3  C1  OXE d   1       3.532  -5.214   4.041  0.00  0.00    -0.078 A 
ATOM      4  C2  OXE d   1       3.368  -3.850   4.035  0.00  0.00    -0.078 A 
ATOM      5  C3  OXE d   1       3.928  -3.083   5.053  0.00  0.00     0.003 A 
ATOM      6  C4  OXE d   1       4.781  -3.671   5.995  0.00  0.00    -0.002 A 
ATOM      7  C5  OXE d   1       4.994  -5.053   5.996  0.00  0.00    -0.002 A 
ATOM      8  C6  OXE d   1       4.344  -5.843   5.054  0.00  0.00     0.003 A 
ENDROOT
TORSDOF 0
ENDMDL
