MODEL 1
REMARK minimizedAffinity 12.9735775
REMARK minimizedRMSD -1
REMARK  0 active torsions:
REMARK  status: ('A' for Active; 'I' for Inactive)
ROOT
ATOM      1  C2' OXE d   1      -2.428  -1.458  -1.343  0.00  0.00     0.078 C 
ATOM      2  C1' OXE d   1      -4.113   0.744  -0.905  0.00  0.00     0.078 C 
ATOM      3  C1  OXE d   1      -4.428  -0.163  -2.069  0.00  0.00    -0.078 A 
ATOM      4  C2  OXE d   1      -3.571  -1.211  -2.303  0.00  0.00    -0.078 A 
ATOM      5  C3  OXE d   1      -3.845  -2.109  -3.331  0.00  0.00     0.003 A 
ATOM      6  C4  OXE d   1      -4.899  -1.868  -4.221  0.00  0.00    -0.002 A 
ATOM      7  C5  OXE d   1      -5.760  -0.783  -4.023  0.00  0.00    -0.002 A 
ATOM      8  C6  OXE d   1      -5.564   0.053  -2.930  0.00  0.00     0.003 A 
ENDROOT
TORSDOF 0
ENDMDL
