MODEL 1
REMARK minimizedAffinity -6.1114254
REMARK minimizedRMSD -1
REMARK  1 active torsions:
REMARK  status: ('A' for Active; 'I' for Inactive)
REMARK    1  A    between atoms: C1_2  and  C2_3 
ROOT
ATOM      1  C2  UNL d   1       0.444   0.929   0.884  0.00  0.00    -0.073 A 
ATOM      2  C3  UNL d   1       0.528   2.074   1.683  0.00  0.00    -0.002 A 
ATOM      3  C4  UNL d   1       1.625   2.930   1.576  0.00  0.00     0.004 A 
ATOM      4  C5  UNL d   1       2.644   2.654   0.665  0.00  0.00    -0.004 A 
ATOM      5  C6  UNL d   1       2.572   1.520  -0.151  0.00  0.00    -0.075 A 
ATOM      6  C7  UNL d   1       3.662   1.208  -1.135  0.00  0.00     0.076 C 
ATOM      7  C8  UNL d   1       1.469   0.664  -0.036  0.00  0.00     0.001 A 
ENDROOT
BRANCH   1   8
ATOM      8  C1  UNL d   1      -0.742   0.005   0.991  0.00  0.00     0.053 C 
ATOM      9  C   UNL d   1      -0.512  -1.306   0.257  0.00  0.00     0.018 C 
ENDBRANCH   1   8
TORSDOF 1
ENDMDL
