MODEL 1
REMARK minimizedAffinity -6.09123373
REMARK minimizedRMSD -1
REMARK  1 active torsions:
REMARK  status: ('A' for Active; 'I' for Inactive)
REMARK    1  A    between atoms: C1_2  and  C2_3 
ROOT
ATOM      1  C2  UNL d   1       1.460   1.854   1.133  0.00  0.00    -0.073 A 
ATOM      2  C3  UNL d   1       0.674   2.033   2.277  0.00  0.00    -0.002 A 
ATOM      3  C4  UNL d   1      -0.408   1.188   2.528  0.00  0.00     0.004 A 
ATOM      4  C5  UNL d   1      -0.712   0.154   1.643  0.00  0.00    -0.004 A 
ATOM      5  C6  UNL d   1       0.069  -0.048   0.500  0.00  0.00    -0.075 A 
ATOM      6  C7  UNL d   1      -0.245  -1.155  -0.463  0.00  0.00     0.076 C 
ATOM      7  C8  UNL d   1       1.153   0.805   0.254  0.00  0.00     0.001 A 
ENDROOT
BRANCH   1   8
ATOM      8  C1  UNL d   1       2.634   2.759   0.862  0.00  0.00     0.053 C 
ATOM      9  C   UNL d   1       3.651   2.111  -0.063  0.00  0.00     0.018 C 
ENDBRANCH   1   8
TORSDOF 1
ENDMDL
