MODEL 1
REMARK minimizedAffinity -2.80714655
REMARK minimizedRMSD -1
REMARK  1 active torsions:
REMARK  status: ('A' for Active; 'I' for Inactive)
REMARK    1  A    between atoms: C1_2  and  C2_3 
ROOT
ATOM      1  C2  UNL d   1      -0.271   0.370   0.356  0.00  0.00    -0.073 A 
ATOM      2  C3  UNL d   1       0.477   1.324  -0.343  0.00  0.00    -0.002 A 
ATOM      3  C4  UNL d   1       1.318   2.201   0.343  0.00  0.00     0.004 A 
ATOM      4  C5  UNL d   1       1.424   2.129   1.732  0.00  0.00    -0.004 A 
ATOM      5  C6  UNL d   1       0.694   1.175   2.447  0.00  0.00    -0.075 A 
ATOM      6  C7  UNL d   1       0.795   1.086   3.941  0.00  0.00     0.076 C 
ATOM      7  C8  UNL d   1      -0.151   0.299   1.751  0.00  0.00     0.001 A 
ENDROOT
BRANCH   1   8
ATOM      8  C1  UNL d   1      -1.176  -0.583  -0.382  0.00  0.00     0.053 C 
ATOM      9  C   UNL d   1      -0.675  -0.871  -1.788  0.00  0.00     0.018 C 
ENDBRANCH   1   8
TORSDOF 1
ENDMDL
