MODEL 1
REMARK minimizedAffinity -5.37671614
REMARK minimizedRMSD -1
REMARK  1 active torsions:
REMARK  status: ('A' for Active; 'I' for Inactive)
REMARK    1  A    between atoms: C1_2  and  C2_3 
ROOT
ATOM      1  C2  UNL d   1       1.130   1.489   0.825  0.00  0.00    -0.073 A 
ATOM      2  C3  UNL d   1       1.529   0.698  -0.257  0.00  0.00    -0.002 A 
ATOM      3  C4  UNL d   1       0.842  -0.478  -0.562  0.00  0.00     0.004 A 
ATOM      4  C5  UNL d   1      -0.253  -0.871   0.206  0.00  0.00    -0.004 A 
ATOM      5  C6  UNL d   1      -0.675  -0.087   1.285  0.00  0.00    -0.075 A 
ATOM      6  C7  UNL d   1      -1.850  -0.496   2.123  0.00  0.00     0.076 C 
ATOM      7  C8  UNL d   1       0.022   1.091   1.587  0.00  0.00     0.001 A 
ENDROOT
BRANCH   1   8
ATOM      8  C1  UNL d   1       1.865   2.763   1.154  0.00  0.00     0.053 C 
ATOM      9  C   UNL d   1       3.325   2.508   1.494  0.00  0.00     0.018 C 
ENDBRANCH   1   8
TORSDOF 1
ENDMDL
