MODEL 1
REMARK minimizedAffinity -5.59109783
REMARK minimizedRMSD -1
REMARK  1 active torsions:
REMARK  status: ('A' for Active; 'I' for Inactive)
REMARK    1  A    between atoms: C1_2  and  C2_3 
ROOT
ATOM      1  C2  UNL d   1       1.922   1.505   2.141  0.00  0.00    -0.073 A 
ATOM      2  C3  UNL d   1       3.063   1.322   1.352  0.00  0.00    -0.002 A 
ATOM      3  C4  UNL d   1       2.947   0.859   0.041  0.00  0.00     0.004 A 
ATOM      4  C5  UNL d   1       1.690   0.581  -0.496  0.00  0.00    -0.004 A 
ATOM      5  C6  UNL d   1       0.537   0.768   0.273  0.00  0.00    -0.075 A 
ATOM      6  C7  UNL d   1      -0.822   0.471  -0.290  0.00  0.00     0.076 C 
ATOM      7  C8  UNL d   1       0.662   1.231   1.589  0.00  0.00     0.001 A 
ENDROOT
BRANCH   1   8
ATOM      8  C1  UNL d   1       2.042   2.011   3.556  0.00  0.00     0.053 C 
ATOM      9  C   UNL d   1       2.904   1.100   4.416  0.00  0.00     0.018 C 
ENDBRANCH   1   8
TORSDOF 1
ENDMDL
