MODEL 1
REMARK minimizedAffinity -0.891475856
REMARK minimizedRMSD -1
REMARK  1 active torsions:
REMARK  status: ('A' for Active; 'I' for Inactive)
REMARK    1  A    between atoms: C1_2  and  C2_3 
ROOT
ATOM      1  C2  UNL d   1      -0.093  -0.989  -0.580  0.00  0.00    -0.073 A 
ATOM      2  C3  UNL d   1      -0.888  -0.447   0.435  0.00  0.00    -0.002 A 
ATOM      3  C4  UNL d   1      -0.517   0.743   1.062  0.00  0.00     0.004 A 
ATOM      4  C5  UNL d   1       0.648   1.406   0.676  0.00  0.00    -0.004 A 
ATOM      5  C6  UNL d   1       1.450   0.886  -0.346  0.00  0.00    -0.075 A 
ATOM      6  C7  UNL d   1       2.707   1.586  -0.771  0.00  0.00     0.076 C 
ATOM      7  C8  UNL d   1       1.071  -0.311  -0.968  0.00  0.00     0.001 A 
ENDROOT
BRANCH   1   8
ATOM      8  C1  UNL d   1      -0.494  -2.270  -1.265  0.00  0.00     0.053 C 
ATOM      9  C   UNL d   1      -1.951  -2.253  -1.700  0.00  0.00     0.018 C 
ENDBRANCH   1   8
TORSDOF 1
ENDMDL
