MODEL 1
REMARK minimizedAffinity -5.42114258
REMARK minimizedRMSD -1
REMARK  1 active torsions:
REMARK  status: ('A' for Active; 'I' for Inactive)
REMARK    1  A    between atoms: C1_2  and  C2_3 
ROOT
ATOM      1  C2  UNL d   1      -0.162  -0.028  -0.046  0.00  0.00    -0.073 A 
ATOM      2  C3  UNL d   1      -0.765   0.768   0.935  0.00  0.00    -0.002 A 
ATOM      3  C4  UNL d   1      -0.032   1.763   1.583  0.00  0.00     0.004 A 
ATOM      4  C5  UNL d   1       1.307   1.977   1.253  0.00  0.00    -0.004 A 
ATOM      5  C6  UNL d   1       1.923   1.200   0.267  0.00  0.00    -0.075 A 
ATOM      6  C7  UNL d   1       3.362   1.416  -0.098  0.00  0.00     0.076 C 
ATOM      7  C8  UNL d   1       1.181   0.201  -0.378  0.00  0.00     0.001 A 
ENDROOT
BRANCH   1   8
ATOM      8  C1  UNL d   1      -0.952  -1.099  -0.754  0.00  0.00     0.053 C 
ATOM      9  C   UNL d   1      -1.298  -0.703  -2.180  0.00  0.00     0.018 C 
ENDBRANCH   1   8
TORSDOF 1
ENDMDL
