MODEL 1
REMARK minimizedAffinity -4.600945
REMARK minimizedRMSD -1
REMARK  1 active torsions:
REMARK  status: ('A' for Active; 'I' for Inactive)
REMARK    1  A    between atoms: C1_2  and  C2_3 
ROOT
ATOM      1  C2  UNL d   1       0.004  -0.049   0.195  0.00  0.00    -0.073 A 
ATOM      2  C3  UNL d   1      -1.133   0.266   0.948  0.00  0.00    -0.002 A 
ATOM      3  C4  UNL d   1      -1.115   1.343   1.835  0.00  0.00     0.004 A 
ATOM      4  C5  UNL d   1       0.036   2.119   1.974  0.00  0.00    -0.004 A 
ATOM      5  C6  UNL d   1       1.178   1.828   1.222  0.00  0.00    -0.075 A 
ATOM      6  C7  UNL d   1       2.424   2.652   1.361  0.00  0.00     0.076 C 
ATOM      7  C8  UNL d   1       1.153   0.743   0.335  0.00  0.00     0.001 A 
ENDROOT
BRANCH   1   8
ATOM      8  C1  UNL d   1      -0.012  -1.207  -0.769  0.00  0.00     0.053 C 
ATOM      9  C   UNL d   1      -1.112  -1.067  -1.809  0.00  0.00     0.018 C 
ENDBRANCH   1   8
TORSDOF 1
ENDMDL
