MODEL 1
REMARK minimizedAffinity -4.59794998
REMARK minimizedRMSD -1
REMARK  1 active torsions:
REMARK  status: ('A' for Active; 'I' for Inactive)
REMARK    1  A    between atoms: C1_2  and  C2_3 
ROOT
ATOM      1  C2  UNL d   1      -0.059   0.065   0.306  0.00  0.00    -0.073 A 
ATOM      2  C3  UNL d   1      -0.547   1.065   1.155  0.00  0.00    -0.002 A 
ATOM      3  C4  UNL d   1       0.267   2.138   1.521  0.00  0.00     0.004 A 
ATOM      4  C5  UNL d   1       1.573   2.226   1.036  0.00  0.00    -0.004 A 
ATOM      5  C6  UNL d   1       2.074   1.243   0.177  0.00  0.00    -0.075 A 
ATOM      6  C7  UNL d   1       3.477   1.322  -0.350  0.00  0.00     0.076 C 
ATOM      7  C8  UNL d   1       1.251   0.167  -0.183  0.00  0.00     0.001 A 
ENDROOT
BRANCH   1   8
ATOM      8  C1  UNL d   1      -0.936  -1.091  -0.097  0.00  0.00     0.053 C 
ATOM      9  C   UNL d   1      -0.889  -1.348  -1.595  0.00  0.00     0.018 C 
ENDBRANCH   1   8
TORSDOF 1
ENDMDL
