MODEL 1
REMARK minimizedAffinity -6.47062111
REMARK minimizedRMSD -1
REMARK  1 active torsions:
REMARK  status: ('A' for Active; 'I' for Inactive)
REMARK    1  A    between atoms: C1_2  and  C2_3 
ROOT
ATOM      1  C2  UNL d   1       0.017   0.697   0.846  0.00  0.00    -0.073 A 
ATOM      2  C3  UNL d   1      -0.539   1.889   1.324  0.00  0.00    -0.002 A 
ATOM      3  C4  UNL d   1       0.233   3.049   1.393  0.00  0.00     0.004 A 
ATOM      4  C5  UNL d   1       1.565   3.032   0.979  0.00  0.00    -0.004 A 
ATOM      5  C6  UNL d   1       2.135   1.853   0.488  0.00  0.00    -0.075 A 
ATOM      6  C7  UNL d   1       3.567   1.817   0.041  0.00  0.00     0.076 C 
ATOM      7  C8  UNL d   1       1.354   0.691   0.424  0.00  0.00     0.001 A 
ENDROOT
BRANCH   1   8
ATOM      8  C1  UNL d   1      -0.815  -0.557   0.764  0.00  0.00     0.053 C 
ATOM      9  C   UNL d   1      -0.420  -1.426  -0.419  0.00  0.00     0.018 C 
ENDBRANCH   1   8
TORSDOF 1
ENDMDL
