MODEL 1
REMARK minimizedAffinity -5.94605541
REMARK minimizedRMSD -1
REMARK  1 active torsions:
REMARK  status: ('A' for Active; 'I' for Inactive)
REMARK    1  A    between atoms: C1_2  and  C2_3 
ROOT
ATOM      1  C2  UNL d   1       0.388  -0.219   0.329  0.00  0.00    -0.073 A 
ATOM      2  C3  UNL d   1      -0.475   0.334   1.283  0.00  0.00    -0.002 A 
ATOM      3  C4  UNL d   1      -0.088   1.457   2.015  0.00  0.00     0.004 A 
ATOM      4  C5  UNL d   1       1.159   2.042   1.797  0.00  0.00    -0.004 A 
ATOM      5  C6  UNL d   1       2.030   1.511   0.840  0.00  0.00    -0.075 A 
ATOM      6  C7  UNL d   1       3.376   2.128   0.595  0.00  0.00     0.076 C 
ATOM      7  C8  UNL d   1       1.636   0.381   0.111  0.00  0.00     0.001 A 
ENDROOT
BRANCH   1   8
ATOM      8  C1  UNL d   1      -0.028  -1.429  -0.468  0.00  0.00     0.053 C 
ATOM      9  C   UNL d   1      -0.914  -1.057  -1.646  0.00  0.00     0.018 C 
ENDBRANCH   1   8
TORSDOF 1
ENDMDL
