MODEL 1
REMARK minimizedAffinity -4.00014877
REMARK minimizedRMSD -1
REMARK  1 active torsions:
REMARK  status: ('A' for Active; 'I' for Inactive)
REMARK    1  A    between atoms: C1_2  and  C2_3 
ROOT
ATOM      1  C2  UNL d   1       0.429   1.349   1.008  0.00  0.00    -0.073 A 
ATOM      2  C3  UNL d   1       0.532   2.609   1.608  0.00  0.00    -0.002 A 
ATOM      3  C4  UNL d   1       1.755   3.280   1.633  0.00  0.00     0.004 A 
ATOM      4  C5  UNL d   1       2.885   2.702   1.054  0.00  0.00    -0.004 A 
ATOM      5  C6  UNL d   1       2.799   1.448   0.439  0.00  0.00    -0.075 A 
ATOM      6  C7  UNL d   1       4.005   0.812  -0.187  0.00  0.00     0.076 C 
ATOM      7  C8  UNL d   1       1.568   0.780   0.420  0.00  0.00     0.001 A 
ENDROOT
BRANCH   1   8
ATOM      8  C1  UNL d   1      -0.892   0.624   0.973  0.00  0.00     0.053 C 
ATOM      9  C   UNL d   1      -0.842  -0.609   0.084  0.00  0.00     0.018 C 
ENDBRANCH   1   8
TORSDOF 1
ENDMDL
