MODEL 1
REMARK minimizedAffinity -4.37900257
REMARK minimizedRMSD -1
REMARK  0 active torsions:
REMARK  status: ('A' for Active; 'I' for Inactive)
ROOT
ATOM      1  C   UNL d   1      -1.553   2.181   1.132  0.00  0.00     0.078 C 
ATOM      2  C1  UNL d   1      -0.821   1.275   0.188  0.00  0.00    -0.077 A 
ATOM      3  C2  UNL d   1      -0.227   0.090   0.640  0.00  0.00    -0.001 A 
ATOM      4  C3  UNL d   1       0.459  -0.739  -0.249  0.00  0.00     0.003 A 
ATOM      5  C4  UNL d   1       0.559  -0.392  -1.595  0.00  0.00    -0.005 A 
ATOM      6  C5  UNL d   1      -0.026   0.786  -2.053  0.00  0.00     0.003 A 
ATOM      7  C6  UNL d   1      -0.713   1.617  -1.166  0.00  0.00    -0.001 A 
ENDROOT
TORSDOF 0
ENDMDL
