MODEL 1
REMARK minimizedAffinity -4.85029125
REMARK minimizedRMSD -1
REMARK  0 active torsions:
REMARK  status: ('A' for Active; 'I' for Inactive)
ROOT
ATOM      1  C   UNL d   1       0.046  -1.049  -0.691  0.00  0.00     0.078 C 
ATOM      2  C1  UNL d   1      -0.383   0.207   0.009  0.00  0.00    -0.077 A 
ATOM      3  C2  UNL d   1      -1.034   1.233  -0.686  0.00  0.00    -0.001 A 
ATOM      4  C3  UNL d   1      -1.418   2.400  -0.024  0.00  0.00     0.003 A 
ATOM      5  C4  UNL d   1      -1.154   2.553   1.336  0.00  0.00    -0.005 A 
ATOM      6  C5  UNL d   1      -0.505   1.537   2.035  0.00  0.00     0.003 A 
ATOM      7  C6  UNL d   1      -0.120   0.370   1.375  0.00  0.00    -0.001 A 
ENDROOT
TORSDOF 0
ENDMDL
