MODEL 1
REMARK minimizedAffinity -4.71838808
REMARK minimizedRMSD -1
REMARK  0 active torsions:
REMARK  status: ('A' for Active; 'I' for Inactive)
ROOT
ATOM      1  C   UNL d   1      -0.318  -1.333  -0.288  0.00  0.00     0.078 C 
ATOM      2  C1  UNL d   1      -0.497  -0.011   0.396  0.00  0.00    -0.077 A 
ATOM      3  C2  UNL d   1       0.262   0.327   1.522  0.00  0.00    -0.001 A 
ATOM      4  C3  UNL d   1       0.078   1.558   2.155  0.00  0.00     0.003 A 
ATOM      5  C4  UNL d   1      -0.867   2.459   1.669  0.00  0.00    -0.005 A 
ATOM      6  C5  UNL d   1      -1.630   2.131   0.550  0.00  0.00     0.003 A 
ATOM      7  C6  UNL d   1      -1.446   0.901  -0.084  0.00  0.00    -0.001 A 
ENDROOT
TORSDOF 0
ENDMDL
