MODEL 1
REMARK minimizedAffinity -5.22192049
REMARK minimizedRMSD -1
REMARK  0 active torsions:
REMARK  status: ('A' for Active; 'I' for Inactive)
ROOT
ATOM      1  C   UNL d   1       0.064   0.002   0.750  0.00  0.00     0.078 C 
ATOM      2  C1  UNL d   1      -0.290  -1.207  -0.065  0.00  0.00    -0.077 A 
ATOM      3  C2  UNL d   1      -1.615  -1.650  -0.159  0.00  0.00    -0.001 A 
ATOM      4  C3  UNL d   1      -1.928  -2.782  -0.913  0.00  0.00     0.003 A 
ATOM      5  C4  UNL d   1      -0.922  -3.481  -1.577  0.00  0.00    -0.005 A 
ATOM      6  C5  UNL d   1       0.400  -3.049  -1.487  0.00  0.00     0.003 A 
ATOM      7  C6  UNL d   1       0.715  -1.917  -0.734  0.00  0.00    -0.001 A 
ENDROOT
TORSDOF 0
ENDMDL
