MODEL 1
REMARK minimizedAffinity -4.95196295
REMARK minimizedRMSD -1
REMARK  0 active torsions:
REMARK  status: ('A' for Active; 'I' for Inactive)
ROOT
ATOM      1  C   UNL d   1       0.259  -0.125  -1.113  0.00  0.00     0.078 C 
ATOM      2  C1  UNL d   1      -0.392   1.056  -0.457  0.00  0.00    -0.077 A 
ATOM      3  C2  UNL d   1      -0.841   2.145  -1.215  0.00  0.00    -0.001 A 
ATOM      4  C3  UNL d   1      -1.436   3.242  -0.590  0.00  0.00     0.003 A 
ATOM      5  C4  UNL d   1      -1.586   3.262   0.795  0.00  0.00    -0.005 A 
ATOM      6  C5  UNL d   1      -1.141   2.184   1.558  0.00  0.00     0.003 A 
ATOM      7  C6  UNL d   1      -0.546   1.086   0.935  0.00  0.00    -0.001 A 
ENDROOT
TORSDOF 0
ENDMDL
