MODEL 1
REMARK minimizedAffinity 3.6509738
REMARK minimizedRMSD -1
REMARK  0 active torsions:
REMARK  status: ('A' for Active; 'I' for Inactive)
ROOT
ATOM      1  C   UNL d   1      -1.451  -2.862  -2.125  0.00  0.00     0.078 C 
ATOM      2  C1  UNL d   1      -1.238  -1.393  -1.911  0.00  0.00    -0.077 A 
ATOM      3  C2  UNL d   1      -2.232  -0.598  -1.329  0.00  0.00    -0.001 A 
ATOM      4  C3  UNL d   1      -2.024   0.770  -1.144  0.00  0.00     0.003 A 
ATOM      5  C4  UNL d   1      -0.822   1.354  -1.540  0.00  0.00    -0.005 A 
ATOM      6  C5  UNL d   1       0.173   0.571  -2.121  0.00  0.00     0.003 A 
ATOM      7  C6  UNL d   1      -0.034  -0.797  -2.307  0.00  0.00    -0.001 A 
ENDROOT
TORSDOF 0
ENDMDL
