MODEL 1
REMARK minimizedAffinity -4.38236141
REMARK minimizedRMSD -1
REMARK  0 active torsions:
REMARK  status: ('A' for Active; 'I' for Inactive)
ROOT
ATOM      1  C   UNL d   1       0.376  -1.061  -0.994  0.00  0.00     0.078 C 
ATOM      2  C1  UNL d   1       0.115   0.010   0.023  0.00  0.00    -0.077 A 
ATOM      3  C2  UNL d   1       0.757  -0.004   1.267  0.00  0.00    -0.001 A 
ATOM      4  C3  UNL d   1       0.497   0.994   2.207  0.00  0.00     0.003 A 
ATOM      5  C4  UNL d   1      -0.406   2.014   1.913  0.00  0.00    -0.005 A 
ATOM      6  C5  UNL d   1      -1.052   2.035   0.679  0.00  0.00     0.003 A 
ATOM      7  C6  UNL d   1      -0.793   1.038  -0.262  0.00  0.00    -0.001 A 
ENDROOT
TORSDOF 0
ENDMDL
