MODEL 1
REMARK minimizedAffinity -4.9778614
REMARK minimizedRMSD -1
REMARK  0 active torsions:
REMARK  status: ('A' for Active; 'I' for Inactive)
ROOT
ATOM      1  C   UNL d   1       0.562  -1.378  -0.621  0.00  0.00     0.078 C 
ATOM      2  C1  UNL d   1       0.047  -0.240   0.209  0.00  0.00    -0.077 A 
ATOM      3  C2  UNL d   1       0.702   0.150   1.383  0.00  0.00    -0.001 A 
ATOM      4  C3  UNL d   1       0.205   1.204   2.152  0.00  0.00     0.003 A 
ATOM      5  C4  UNL d   1      -0.949   1.876   1.755  0.00  0.00    -0.005 A 
ATOM      6  C5  UNL d   1      -1.609   1.493   0.589  0.00  0.00     0.003 A 
ATOM      7  C6  UNL d   1      -1.114   0.439  -0.181  0.00  0.00    -0.001 A 
ENDROOT
TORSDOF 0
ENDMDL
