MODEL 1
REMARK minimizedAffinity -3.5526495
REMARK minimizedRMSD -1
REMARK  0 active torsions:
REMARK  status: ('A' for Active; 'I' for Inactive)
ROOT
ATOM      1  C   UNL d   1       0.409  -1.055  -1.127  0.00  0.00     0.078 C 
ATOM      2  C1  UNL d   1       0.105  -0.047  -0.059  0.00  0.00    -0.077 A 
ATOM      3  C2  UNL d   1       0.803  -0.050   1.155  0.00  0.00    -0.001 A 
ATOM      4  C3  UNL d   1       0.502   0.889   2.144  0.00  0.00     0.003 A 
ATOM      5  C4  UNL d   1      -0.497   1.836   1.929  0.00  0.00    -0.005 A 
ATOM      6  C5  UNL d   1      -1.198   1.845   0.725  0.00  0.00     0.003 A 
ATOM      7  C6  UNL d   1      -0.899   0.908  -0.265  0.00  0.00    -0.001 A 
ENDROOT
TORSDOF 0
ENDMDL
