MODEL 1
REMARK minimizedAffinity -4.78364658
REMARK minimizedRMSD -1
REMARK  0 active torsions:
REMARK  status: ('A' for Active; 'I' for Inactive)
ROOT
ATOM      1  C   UNL d   1       0.367  -1.204  -0.790  0.00  0.00     0.078 C 
ATOM      2  C1  UNL d   1      -0.018  -0.113   0.163  0.00  0.00    -0.077 A 
ATOM      3  C2  UNL d   1       0.336  -0.179   1.517  0.00  0.00    -0.001 A 
ATOM      4  C3  UNL d   1      -0.037   0.840   2.394  0.00  0.00     0.003 A 
ATOM      5  C4  UNL d   1      -0.767   1.932   1.929  0.00  0.00    -0.005 A 
ATOM      6  C5  UNL d   1      -1.126   2.005   0.585  0.00  0.00     0.003 A 
ATOM      7  C6  UNL d   1      -0.753   0.987  -0.295  0.00  0.00    -0.001 A 
ENDROOT
TORSDOF 0
ENDMDL
