MODEL 1
REMARK minimizedAffinity -5.03564978
REMARK minimizedRMSD -1
REMARK  0 active torsions:
REMARK  status: ('A' for Active; 'I' for Inactive)
ROOT
ATOM      1  C   UNL d   1      -1.497   2.123   1.579  0.00  0.00     0.078 C 
ATOM      2  C1  UNL d   1      -0.679   1.245   0.679  0.00  0.00    -0.077 A 
ATOM      3  C2  UNL d   1      -0.830   1.299  -0.712  0.00  0.00    -0.001 A 
ATOM      4  C3  UNL d   1      -0.069   0.470  -1.537  0.00  0.00     0.003 A 
ATOM      5  C4  UNL d   1       0.847  -0.421  -0.980  0.00  0.00    -0.005 A 
ATOM      6  C5  UNL d   1       1.002  -0.483   0.403  0.00  0.00     0.003 A 
ATOM      7  C6  UNL d   1       0.242   0.346   1.229  0.00  0.00    -0.001 A 
ENDROOT
TORSDOF 0
ENDMDL
