MODEL 1
REMARK minimizedAffinity -4.77881575
REMARK minimizedRMSD -1
REMARK  0 active torsions:
REMARK  status: ('A' for Active; 'I' for Inactive)
ROOT
ATOM      1  C   UNL d   1       2.769  -1.375   1.849  0.00  0.00     0.077 C 
ATOM      2  C1  UNL d   1       1.604  -0.889   1.039  0.00  0.00    -0.074 A 
ATOM      3  C2  UNL d   1       1.157   0.432   1.144  0.00  0.00    -0.005 A 
ATOM      4  C3  UNL d   1       0.078   0.872   0.377  0.00  0.00     0.006 A 
ATOM      5  C4  UNL d   1      -0.565  -0.003  -0.499  0.00  0.00    -0.005 A 
ATOM      6  C5  UNL d   1      -0.132  -1.327  -0.617  0.00  0.00    -0.074 A 
ATOM      7  C6  UNL d   1      -0.805  -2.278  -1.562  0.00  0.00     0.077 C 
ATOM      8  C7  UNL d   1       0.958  -1.760   0.151  0.00  0.00    -0.001 A 
ENDROOT
TORSDOF 0
ENDMDL
