MODEL 1
REMARK minimizedAffinity -5.76562452
REMARK minimizedRMSD -1
REMARK  0 active torsions:
REMARK  status: ('A' for Active; 'I' for Inactive)
ROOT
ATOM      1  C   UNL d   1      -0.226  -1.915  -1.323  0.00  0.00     0.077 C 
ATOM      2  C1  UNL d   1       0.874  -1.114  -0.692  0.00  0.00    -0.074 A 
ATOM      3  C2  UNL d   1       2.029  -1.735  -0.208  0.00  0.00    -0.005 A 
ATOM      4  C3  UNL d   1       3.048  -0.976   0.368  0.00  0.00     0.006 A 
ATOM      5  C4  UNL d   1       2.921   0.410   0.466  0.00  0.00    -0.005 A 
ATOM      6  C5  UNL d   1       1.773   1.049  -0.013  0.00  0.00    -0.074 A 
ATOM      7  C6  UNL d   1       1.626   2.539   0.075  0.00  0.00     0.077 C 
ATOM      8  C7  UNL d   1       0.757   0.280  -0.597  0.00  0.00    -0.001 A 
ENDROOT
TORSDOF 0
ENDMDL
