MODEL 1
REMARK minimizedAffinity -5.019876
REMARK minimizedRMSD -1
REMARK  0 active torsions:
REMARK  status: ('A' for Active; 'I' for Inactive)
ROOT
ATOM      1  C   UNL d   1      -0.416  -1.742  -0.707  0.00  0.00     0.077 C 
ATOM      2  C1  UNL d   1       0.680  -0.795  -0.319  0.00  0.00    -0.074 A 
ATOM      3  C2  UNL d   1       0.451   0.583  -0.259  0.00  0.00    -0.005 A 
ATOM      4  C3  UNL d   1       1.478   1.451   0.113  0.00  0.00     0.006 A 
ATOM      5  C4  UNL d   1       2.742   0.950   0.429  0.00  0.00    -0.005 A 
ATOM      6  C5  UNL d   1       2.989  -0.426   0.375  0.00  0.00    -0.074 A 
ATOM      7  C6  UNL d   1       4.338  -0.982   0.720  0.00  0.00     0.077 C 
ATOM      8  C7  UNL d   1       1.950  -1.292   0.007  0.00  0.00    -0.001 A 
ENDROOT
TORSDOF 0
ENDMDL
