MODEL 1
REMARK minimizedAffinity -3.689821
REMARK minimizedRMSD -1
REMARK  0 active torsions:
REMARK  status: ('A' for Active; 'I' for Inactive)
ROOT
ATOM      1  C   UNL d   1       2.449  -1.365   0.834  0.00  0.00     0.077 C 
ATOM      2  C1  UNL d   1       1.513  -0.265   0.428  0.00  0.00    -0.074 A 
ATOM      3  C2  UNL d   1       1.989   1.024   0.168  0.00  0.00    -0.005 A 
ATOM      4  C3  UNL d   1       1.108   2.034  -0.218  0.00  0.00     0.006 A 
ATOM      5  C4  UNL d   1      -0.256   1.766  -0.347  0.00  0.00    -0.005 A 
ATOM      6  C5  UNL d   1      -0.750   0.483  -0.092  0.00  0.00    -0.074 A 
ATOM      7  C6  UNL d   1      -2.210   0.176  -0.236  0.00  0.00     0.077 C 
ATOM      8  C7  UNL d   1       0.143  -0.528   0.289  0.00  0.00    -0.001 A 
ENDROOT
TORSDOF 0
ENDMDL
