MODEL 1
REMARK minimizedAffinity -2.7690587
REMARK minimizedRMSD -1
REMARK  0 active torsions:
REMARK  status: ('A' for Active; 'I' for Inactive)
ROOT
ATOM      1  C   UNL d   1      -2.394   0.655  -0.284  0.00  0.00     0.077 C 
ATOM      2  C1  UNL d   1      -0.910   0.736  -0.084  0.00  0.00    -0.074 A 
ATOM      3  C2  UNL d   1      -0.229   1.949  -0.232  0.00  0.00    -0.005 A 
ATOM      4  C3  UNL d   1       1.150   2.010  -0.034  0.00  0.00     0.006 A 
ATOM      5  C4  UNL d   1       1.862   0.861   0.312  0.00  0.00    -0.005 A 
ATOM      6  C5  UNL d   1       1.198  -0.361   0.465  0.00  0.00    -0.074 A 
ATOM      7  C6  UNL d   1       1.947  -1.603   0.847  0.00  0.00     0.077 C 
ATOM      8  C7  UNL d   1      -0.189  -0.413   0.272  0.00  0.00    -0.001 A 
ENDROOT
TORSDOF 0
ENDMDL
