MODEL 1
REMARK minimizedAffinity -2.59042287
REMARK minimizedRMSD -1
REMARK  0 active torsions:
REMARK  status: ('A' for Active; 'I' for Inactive)
ROOT
ATOM      1  C   UNL d   1      -1.517   1.042  -0.032  0.00  0.00     0.077 C 
ATOM      2  C1  UNL d   1      -0.558  -0.111  -0.056  0.00  0.00    -0.074 A 
ATOM      3  C2  UNL d   1      -0.974  -1.383  -0.461  0.00  0.00    -0.005 A 
ATOM      4  C3  UNL d   1      -0.069  -2.444  -0.488  0.00  0.00     0.006 A 
ATOM      5  C4  UNL d   1       1.260  -2.244  -0.111  0.00  0.00    -0.005 A 
ATOM      6  C5  UNL d   1       1.694  -0.978   0.297  0.00  0.00    -0.074 A 
ATOM      7  C6  UNL d   1       3.121  -0.744   0.696  0.00  0.00     0.077 C 
ATOM      8  C7  UNL d   1       0.780   0.084   0.314  0.00  0.00    -0.001 A 
ENDROOT
TORSDOF 0
ENDMDL
