MODEL 1
REMARK minimizedAffinity -2.74667859
REMARK minimizedRMSD -1
REMARK  0 active torsions:
REMARK  status: ('A' for Active; 'I' for Inactive)
ROOT
ATOM      1  C   UNL d   1       2.970  -1.520   1.289  0.00  0.00     0.077 C 
ATOM      2  C1  UNL d   1       1.722  -0.955   0.677  0.00  0.00    -0.074 A 
ATOM      3  C2  UNL d   1       0.737  -1.795   0.147  0.00  0.00    -0.005 A 
ATOM      4  C3  UNL d   1      -0.422  -1.255  -0.410  0.00  0.00     0.006 A 
ATOM      5  C4  UNL d   1      -0.608   0.128  -0.443  0.00  0.00    -0.005 A 
ATOM      6  C5  UNL d   1       0.366   0.983   0.083  0.00  0.00    -0.074 A 
ATOM      7  C6  UNL d   1       0.177   2.471   0.064  0.00  0.00     0.077 C 
ATOM      8  C7  UNL d   1       1.525   0.433   0.647  0.00  0.00    -0.001 A 
ENDROOT
TORSDOF 0
ENDMDL
