MODEL 1
REMARK minimizedAffinity 4.75835562
REMARK minimizedRMSD -1
REMARK  1 active torsions:
REMARK  status: ('A' for Active; 'I' for Inactive)
REMARK    1  A    between atoms: C3_4  and  O_7 
ROOT
ATOM      1  C   UNL d   1       5.515  -5.999   1.256  0.00  0.00    -0.033 A 
ATOM      2  C1  UNL d   1       4.829  -5.862   0.047  0.00  0.00     0.039 A 
ATOM      3  C2  UNL d   1       3.864  -4.864  -0.100  0.00  0.00    -0.080 A 
ATOM      4  C3  UNL d   1       3.594  -4.011   0.966  0.00  0.00     0.150 A 
ATOM      5  C4  UNL d   1       4.276  -4.140   2.172  0.00  0.00    -0.007 A 
ATOM      6  C5  UNL d   1       5.239  -5.137   2.318  0.00  0.00     0.039 A 
ENDROOT
BRANCH   4   7
ATOM      7  O   UNL d   1       2.657  -3.026   0.871  0.00  0.00    -0.526 OA
ATOM      8  H5  UNL d   1       2.247  -3.075  -0.009  0.00  0.00     0.418 HD
ENDBRANCH   4   7
TORSDOF 1
ENDMDL
