MODEL 1
REMARK minimizedAffinity -2.08060598
REMARK minimizedRMSD -1
REMARK  1 active torsions:
REMARK  status: ('A' for Active; 'I' for Inactive)
REMARK    1  A    between atoms: C3_4  and  O_7 
ROOT
ATOM      1  C   UNL d   1       2.803   2.151  -5.999  0.00  0.00    -0.033 A 
ATOM      2  C1  UNL d   1       4.188   2.328  -5.987  0.00  0.00     0.039 A 
ATOM      3  C2  UNL d   1       4.729   3.616  -5.981  0.00  0.00    -0.080 A 
ATOM      4  C3  UNL d   1       3.876   4.715  -5.985  0.00  0.00     0.150 A 
ATOM      5  C4  UNL d   1       2.495   4.546  -5.993  0.00  0.00    -0.007 A 
ATOM      6  C5  UNL d   1       1.957   3.260  -6.000  0.00  0.00     0.039 A 
ENDROOT
BRANCH   4   7
ATOM      7  O   UNL d   1       4.357   5.991  -5.984  0.00  0.00    -0.526 OA
ATOM      8  H5  UNL d   1       5.328   5.953  -6.008  0.00  0.00     0.418 HD
ENDBRANCH   4   7
TORSDOF 1
ENDMDL
