MODEL 1
REMARK minimizedAffinity 3.31387329
REMARK minimizedRMSD -1
REMARK  1 active torsions:
REMARK  status: ('A' for Active; 'I' for Inactive)
REMARK    1  A    between atoms: C3_4  and  O_7 
ROOT
ATOM      1  C   UNL d   1      -1.236  -0.298   0.284  0.00  0.00    -0.033 A 
ATOM      2  C1  UNL d   1      -0.273  -0.468  -0.712  0.00  0.00     0.039 A 
ATOM      3  C2  UNL d   1       1.035  -0.818  -0.369  0.00  0.00    -0.080 A 
ATOM      4  C3  UNL d   1       1.365  -0.995   0.972  0.00  0.00     0.150 A 
ATOM      5  C4  UNL d   1       0.409  -0.831   1.969  0.00  0.00    -0.007 A 
ATOM      6  C5  UNL d   1      -0.895  -0.482   1.624  0.00  0.00     0.039 A 
ENDROOT
BRANCH   4   7
ATOM      7  O   UNL d   1       2.629  -1.332   1.355  0.00  0.00    -0.526 OA
ATOM      8  H5  UNL d   1       3.188  -1.382   0.562  0.00  0.00     0.418 HD
ENDBRANCH   4   7
TORSDOF 1
ENDMDL
