MODEL 1
REMARK minimizedAffinity -1.91822028
REMARK minimizedRMSD -1
REMARK  1 active torsions:
REMARK  status: ('A' for Active; 'I' for Inactive)
REMARK    1  A    between atoms: C3_4  and  O_7 
ROOT
ATOM      1  C   UNL d   1      -0.748   1.734  -2.924  0.00  0.00    -0.033 A 
ATOM      2  C1  UNL d   1      -1.891   0.975  -2.669  0.00  0.00     0.039 A 
ATOM      3  C2  UNL d   1      -3.157   1.542  -2.828  0.00  0.00    -0.080 A 
ATOM      4  C3  UNL d   1      -3.266   2.866  -3.243  0.00  0.00     0.150 A 
ATOM      5  C4  UNL d   1      -2.131   3.627  -3.503  0.00  0.00    -0.007 A 
ATOM      6  C5  UNL d   1      -0.867   3.060  -3.343  0.00  0.00     0.039 A 
ENDROOT
BRANCH   4   7
ATOM      7  O   UNL d   1      -4.480   3.464  -3.408  0.00  0.00    -0.526 OA
ATOM      8  H5  UNL d   1      -5.172   2.828  -3.165  0.00  0.00     0.418 HD
ENDBRANCH   4   7
TORSDOF 1
ENDMDL
