MODEL 1
REMARK minimizedAffinity 1.66787279
REMARK minimizedRMSD -1
REMARK  1 active torsions:
REMARK  status: ('A' for Active; 'I' for Inactive)
REMARK    1  A    between atoms: C3_4  and  O_7 
ROOT
ATOM      1  C   UNL d   1       0.795  -0.558  -0.060  0.00  0.00    -0.033 A 
ATOM      2  C1  UNL d   1      -0.132  -0.682  -1.097  0.00  0.00     0.039 A 
ATOM      3  C2  UNL d   1      -1.497  -0.743  -0.811  0.00  0.00    -0.080 A 
ATOM      4  C3  UNL d   1      -1.922  -0.677   0.513  0.00  0.00     0.150 A 
ATOM      5  C4  UNL d   1      -1.004  -0.550   1.550  0.00  0.00    -0.007 A 
ATOM      6  C5  UNL d   1       0.359  -0.490   1.263  0.00  0.00     0.039 A 
ENDROOT
BRANCH   4   7
ATOM      7  O   UNL d   1      -3.244  -0.737   0.841  0.00  0.00    -0.526 OA
ATOM      8  H5  UNL d   1      -3.758  -0.854   0.025  0.00  0.00     0.418 HD
ENDBRANCH   4   7
TORSDOF 1
ENDMDL
