MODEL 1
REMARK minimizedAffinity 2.83757329
REMARK minimizedRMSD -1
REMARK  1 active torsions:
REMARK  status: ('A' for Active; 'I' for Inactive)
REMARK    1  A    between atoms: C3_4  and  O_7 
ROOT
ATOM      1  C   UNL d   1       4.878   5.998   1.113  0.00  0.00    -0.033 A 
ATOM      2  C1  UNL d   1       3.506   6.000   0.853  0.00  0.00     0.039 A 
ATOM      3  C2  UNL d   1       2.594   6.000   1.909  0.00  0.00    -0.080 A 
ATOM      4  C3  UNL d   1       3.065   5.998   3.219  0.00  0.00     0.150 A 
ATOM      5  C4  UNL d   1       4.430   6.000   3.486  0.00  0.00    -0.007 A 
ATOM      6  C5  UNL d   1       5.340   5.999   2.430  0.00  0.00     0.039 A 
ENDROOT
BRANCH   4   7
ATOM      7  O   UNL d   1       2.212   5.993   4.283  0.00  0.00    -0.526 OA
ATOM      8  H5  UNL d   1       1.301   5.963   3.947  0.00  0.00     0.418 HD
ENDBRANCH   4   7
TORSDOF 1
ENDMDL
