MODEL 1
REMARK minimizedAffinity -2.48102832
REMARK minimizedRMSD -1
REMARK  1 active torsions:
REMARK  status: ('A' for Active; 'I' for Inactive)
REMARK    1  A    between atoms: C3_4  and  O_7 
ROOT
ATOM      1  C   UNL d   1      -1.319  -0.442  -0.094  0.00  0.00    -0.033 A 
ATOM      2  C1  UNL d   1       0.058  -0.662  -0.170  0.00  0.00     0.039 A 
ATOM      3  C2  UNL d   1       0.809  -0.808   0.999  0.00  0.00    -0.080 A 
ATOM      4  C3  UNL d   1       0.172  -0.734   2.234  0.00  0.00     0.150 A 
ATOM      5  C4  UNL d   1      -1.200  -0.519   2.317  0.00  0.00    -0.007 A 
ATOM      6  C5  UNL d   1      -1.948  -0.372   1.149  0.00  0.00     0.039 A 
ENDROOT
BRANCH   4   7
ATOM      7  O   UNL d   1       0.863  -0.866   3.402  0.00  0.00    -0.526 OA
ATOM      8  H5  UNL d   1       1.805  -0.981   3.190  0.00  0.00     0.418 HD
ENDBRANCH   4   7
TORSDOF 1
ENDMDL
