MODEL 1
REMARK minimizedAffinity 3.36813927
REMARK minimizedRMSD -1
REMARK  0 active torsions:
REMARK  status: ('A' for Active; 'I' for Inactive)
ROOT
ATOM      1  C1  BNZ d   1       0.337   1.758  -0.937  0.00  0.00     0.000 A 
ATOM      2  C2  BNZ d   1      -0.804   2.025  -1.644  0.00  0.00     0.000 A 
ATOM      3  C3  BNZ d   1      -1.963   1.349  -1.384  0.00  0.00     0.000 A 
ATOM      4  C4  BNZ d   1      -1.969   0.380  -0.446  0.00  0.00     0.000 A 
ATOM      5  C5  BNZ d   1      -0.824   0.092   0.270  0.00  0.00     0.000 A 
ATOM      6  C6  BNZ d   1       0.331   0.802   0.032  0.00  0.00     0.000 A 
ENDROOT
TORSDOF 0
ENDMDL
