MODEL 1
REMARK minimizedAffinity 1.15375853
REMARK minimizedRMSD -1
REMARK  0 active torsions:
REMARK  status: ('A' for Active; 'I' for Inactive)
ROOT
ATOM      1  C1  BNZ d   1      -5.999   3.350  -4.140  0.00  0.00     0.000 A 
ATOM      2  C2  BNZ d   1      -5.301   2.926  -3.040  0.00  0.00     0.000 A 
ATOM      3  C3  BNZ d   1      -4.525   1.802  -3.094  0.00  0.00     0.000 A 
ATOM      4  C4  BNZ d   1      -4.479   1.082  -4.233  0.00  0.00     0.000 A 
ATOM      5  C5  BNZ d   1      -5.183   1.491  -5.348  0.00  0.00     0.000 A 
ATOM      6  C6  BNZ d   1      -5.933   2.644  -5.302  0.00  0.00     0.000 A 
ENDROOT
TORSDOF 0
ENDMDL
