MODEL 1
REMARK minimizedAffinity -0.0212277509
REMARK minimizedRMSD -1
REMARK  0 active torsions:
REMARK  status: ('A' for Active; 'I' for Inactive)
ROOT
ATOM      1  C1  BNZ d   1       3.433  -4.016  -2.805  0.00  0.00     0.000 A 
ATOM      2  C2  BNZ d   1       2.315  -4.085  -2.017  0.00  0.00     0.000 A 
ATOM      3  C3  BNZ d   1       1.070  -3.905  -2.551  0.00  0.00     0.000 A 
ATOM      4  C4  BNZ d   1       0.947  -3.616  -3.862  0.00  0.00     0.000 A 
ATOM      5  C5  BNZ d   1       2.065  -3.533  -4.668  0.00  0.00     0.000 A 
ATOM      6  C6  BNZ d   1       3.314  -3.754  -4.135  0.00  0.00     0.000 A 
ENDROOT
TORSDOF 0
ENDMDL
