MODEL 1
REMARK minimizedAffinity -0.964199007
REMARK minimizedRMSD -1
REMARK  0 active torsions:
REMARK  status: ('A' for Active; 'I' for Inactive)
ROOT
ATOM      1  C1  BNZ d   1      -5.256   1.843  -3.866  0.00  0.00     0.000 A 
ATOM      2  C2  BNZ d   1      -5.273   1.754  -5.232  0.00  0.00     0.000 A 
ATOM      3  C3  BNZ d   1      -5.626   2.828  -6.000  0.00  0.00     0.000 A 
ATOM      4  C4  BNZ d   1      -6.000   3.977  -5.400  0.00  0.00     0.000 A 
ATOM      5  C5  BNZ d   1      -5.997   4.080  -4.023  0.00  0.00     0.000 A 
ATOM      6  C6  BNZ d   1      -5.604   3.008  -3.255  0.00  0.00     0.000 A 
ENDROOT
TORSDOF 0
ENDMDL
