MODEL 1
REMARK minimizedAffinity -3.09126091
REMARK minimizedRMSD -1
REMARK  0 active torsions:
REMARK  status: ('A' for Active; 'I' for Inactive)
ROOT
ATOM      1  C1  BNZ d   1      -4.945   3.172  -4.377  0.00  0.00     0.000 A 
ATOM      2  C2  BNZ d   1      -4.632   1.961  -3.821  0.00  0.00     0.000 A 
ATOM      3  C3  BNZ d   1      -4.799   1.740  -2.483  0.00  0.00     0.000 A 
ATOM      4  C4  BNZ d   1      -5.240   2.743  -1.696  0.00  0.00     0.000 A 
ATOM      5  C5  BNZ d   1      -5.551   3.973  -2.240  0.00  0.00     0.000 A 
ATOM      6  C6  BNZ d   1      -5.419   4.179  -3.594  0.00  0.00     0.000 A 
ENDROOT
TORSDOF 0
ENDMDL
