MODEL 1
REMARK minimizedAffinity -1.5928905
REMARK minimizedRMSD -1
REMARK  0 active torsions:
REMARK  status: ('A' for Active; 'I' for Inactive)
ROOT
ATOM      1  C1  BNZ d   1      -4.518   1.820  -4.899  0.00  0.00     0.000 A 
ATOM      2  C2  BNZ d   1      -5.231   2.215  -6.000  0.00  0.00     0.000 A 
ATOM      3  C3  BNZ d   1      -5.955   3.373  -5.986  0.00  0.00     0.000 A 
ATOM      4  C4  BNZ d   1      -6.000   4.115  -4.861  0.00  0.00     0.000 A 
ATOM      5  C5  BNZ d   1      -5.295   3.725  -3.739  0.00  0.00     0.000 A 
ATOM      6  C6  BNZ d   1      -4.535   2.579  -3.769  0.00  0.00     0.000 A 
ENDROOT
TORSDOF 0
ENDMDL
