MODEL 1
REMARK minimizedAffinity 3.19045568
REMARK minimizedRMSD -1
REMARK  0 active torsions:
REMARK  status: ('A' for Active; 'I' for Inactive)
ROOT
ATOM      1  C1  BNZ d   1      -4.860   2.572  -4.784  0.00  0.00     0.000 A 
ATOM      2  C2  BNZ d   1      -6.000   3.067  -5.359  0.00  0.00     0.000 A 
ATOM      3  C3  BNZ d   1      -5.998   4.284  -5.983  0.00  0.00     0.000 A 
ATOM      4  C4  BNZ d   1      -4.868   5.020  -5.995  0.00  0.00     0.000 A 
ATOM      5  C5  BNZ d   1      -3.713   4.539  -5.412  0.00  0.00     0.000 A 
ATOM      6  C6  BNZ d   1      -3.709   3.297  -4.819  0.00  0.00     0.000 A 
ENDROOT
TORSDOF 0
ENDMDL
