MODEL 1
REMARK minimizedAffinity 4.23589945
REMARK minimizedRMSD -1
REMARK  0 active torsions:
REMARK  status: ('A' for Active; 'I' for Inactive)
ROOT
ATOM      1  C1  BNZ d   1      -6.000   0.329  -4.735  0.00  0.00     0.000 A 
ATOM      2  C2  BNZ d   1      -5.999   1.684  -4.937  0.00  0.00     0.000 A 
ATOM      3  C3  BNZ d   1      -4.909   2.440  -4.607  0.00  0.00     0.000 A 
ATOM      4  C4  BNZ d   1      -3.838   1.847  -4.041  0.00  0.00     0.000 A 
ATOM      5  C5  BNZ d   1      -3.827   0.484  -3.823  0.00  0.00     0.000 A 
ATOM      6  C6  BNZ d   1      -4.911  -0.279  -4.192  0.00  0.00     0.000 A 
ENDROOT
TORSDOF 0
ENDMDL
