MODEL 1
REMARK minimizedAffinity 0.477612257
REMARK minimizedRMSD -1
REMARK  0 active torsions:
REMARK  status: ('A' for Active; 'I' for Inactive)
ROOT
ATOM      1  C1  BNZ d   1       0.033   2.217  -1.942  0.00  0.00     0.000 A 
ATOM      2  C2  BNZ d   1       1.073   1.710  -1.209  0.00  0.00     0.000 A 
ATOM      3  C3  BNZ d   1       0.891   0.634  -0.387  0.00  0.00     0.000 A 
ATOM      4  C4  BNZ d   1      -0.338   0.091  -0.267  0.00  0.00     0.000 A 
ATOM      5  C5  BNZ d   1      -1.399   0.596  -0.992  0.00  0.00     0.000 A 
ATOM      6  C6  BNZ d   1      -1.203   1.655  -1.849  0.00  0.00     0.000 A 
ENDROOT
TORSDOF 0
ENDMDL
