MODEL 1
REMARK minimizedAffinity -3.52491164
REMARK minimizedRMSD -1
REMARK  0 active torsions:
REMARK  status: ('A' for Active; 'I' for Inactive)
ROOT
ATOM      1  C1  BNZ d   1      -5.031   0.777  -5.275  0.00  0.00     0.000 A 
ATOM      2  C2  BNZ d   1      -4.393   0.859  -4.066  0.00  0.00     0.000 A 
ATOM      3  C3  BNZ d   1      -4.394   2.024  -3.351  0.00  0.00     0.000 A 
ATOM      4  C4  BNZ d   1      -4.999   3.115  -3.864  0.00  0.00     0.000 A 
ATOM      5  C5  BNZ d   1      -5.638   3.051  -5.086  0.00  0.00     0.000 A 
ATOM      6  C6  BNZ d   1      -5.668   1.866  -5.784  0.00  0.00     0.000 A 
ENDROOT
TORSDOF 0
ENDMDL
