MODEL 1
REMARK minimizedAffinity -1.81099439
REMARK minimizedRMSD -1
REMARK  0 active torsions:
REMARK  status: ('A' for Active; 'I' for Inactive)
ROOT
ATOM      1  C1  BNZ d   1       0.803   3.625   0.625  0.00  0.00     0.000 A 
ATOM      2  C2  BNZ d   1       1.150   4.815   0.043  0.00  0.00     0.000 A 
ATOM      3  C3  BNZ d   1       0.685   5.999   0.543  0.00  0.00     0.000 A 
ATOM      4  C4  BNZ d   1      -0.157   5.990   1.596  0.00  0.00     0.000 A 
ATOM      5  C5  BNZ d   1      -0.523   4.798   2.188  0.00  0.00     0.000 A 
ATOM      6  C6  BNZ d   1      -0.022   3.610   1.707  0.00  0.00     0.000 A 
ENDROOT
TORSDOF 0
ENDMDL
