MODEL 1
REMARK minimizedAffinity -1.33182466
REMARK minimizedRMSD -1
REMARK  0 active torsions:
REMARK  status: ('A' for Active; 'I' for Inactive)
ROOT
ATOM      1  C1  BNZ d   1       0.024   2.736   4.735  0.00  0.00     0.000 A 
ATOM      2  C2  BNZ d   1       0.514   4.001   4.543  0.00  0.00     0.000 A 
ATOM      3  C3  BNZ d   1       0.973   4.395   3.317  0.00  0.00     0.000 A 
ATOM      4  C4  BNZ d   1       0.980   3.513   2.297  0.00  0.00     0.000 A 
ATOM      5  C5  BNZ d   1       0.499   2.231   2.477  0.00  0.00     0.000 A 
ATOM      6  C6  BNZ d   1       0.001   1.850   3.702  0.00  0.00     0.000 A 
ENDROOT
TORSDOF 0
ENDMDL
