MODEL 1
REMARK minimizedAffinity 1.2275933
REMARK minimizedRMSD -1
REMARK  0 active torsions:
REMARK  status: ('A' for Active; 'I' for Inactive)
ROOT
ATOM      1  C1  BNZ d   1       0.524   3.435   3.102  0.00  0.00     0.000 A 
ATOM      2  C2  BNZ d   1       1.087   4.670   2.923  0.00  0.00     0.000 A 
ATOM      3  C3  BNZ d   1       1.252   5.189   1.669  0.00  0.00     0.000 A 
ATOM      4  C4  BNZ d   1       0.892   4.455   0.596  0.00  0.00     0.000 A 
ATOM      5  C5  BNZ d   1       0.332   3.204   0.760  0.00  0.00     0.000 A 
ATOM      6  C6  BNZ d   1       0.131   2.702   2.025  0.00  0.00     0.000 A 
ENDROOT
TORSDOF 0
ENDMDL
