MODEL 1
REMARK minimizedAffinity -4.00176048
REMARK minimizedRMSD -1
REMARK  0 active torsions:
REMARK  status: ('A' for Active; 'I' for Inactive)
ROOT
ATOM      1  C1  BNZ d   1      -6.000   3.318  -3.541  0.00  0.00     0.000 A 
ATOM      2  C2  BNZ d   1      -5.310   2.561  -2.632  0.00  0.00     0.000 A 
ATOM      3  C3  BNZ d   1      -4.605   1.459  -3.030  0.00  0.00     0.000 A 
ATOM      4  C4  BNZ d   1      -4.624   1.094  -4.328  0.00  0.00     0.000 A 
ATOM      5  C5  BNZ d   1      -5.322   1.842  -5.255  0.00  0.00     0.000 A 
ATOM      6  C6  BNZ d   1      -5.999   2.972  -4.857  0.00  0.00     0.000 A 
ENDROOT
TORSDOF 0
ENDMDL
