MODEL 1
REMARK minimizedAffinity -1.12066448
REMARK minimizedRMSD -1
REMARK  0 active torsions:
REMARK  status: ('A' for Active; 'I' for Inactive)
ROOT
ATOM      1  C1  BNZ d   1       0.266  -1.633   2.523  0.00  0.00     0.000 A 
ATOM      2  C2  BNZ d   1       1.538  -1.960   2.908  0.00  0.00     0.000 A 
ATOM      3  C3  BNZ d   1       1.762  -2.664   4.058  0.00  0.00     0.000 A 
ATOM      4  C4  BNZ d   1       0.717  -3.006   4.840  0.00  0.00     0.000 A 
ATOM      5  C5  BNZ d   1      -0.571  -2.675   4.470  0.00  0.00     0.000 A 
ATOM      6  C6  BNZ d   1      -0.795  -2.000   3.292  0.00  0.00     0.000 A 
ENDROOT
TORSDOF 0
ENDMDL
