MODEL 1
REMARK minimizedAffinity 0.267103553
REMARK minimizedRMSD -1
REMARK  0 active torsions:
REMARK  status: ('A' for Active; 'I' for Inactive)
ROOT
ATOM      1  C1  BNZ d   1      -5.997   1.654  -5.897  0.00  0.00     0.000 A 
ATOM      2  C2  BNZ d   1      -6.000   0.300  -5.689  0.00  0.00     0.000 A 
ATOM      3  C3  BNZ d   1      -5.096  -0.280  -4.844  0.00  0.00     0.000 A 
ATOM      4  C4  BNZ d   1      -4.167   0.488  -4.238  0.00  0.00     0.000 A 
ATOM      5  C5  BNZ d   1      -4.146   1.853  -4.444  0.00  0.00     0.000 A 
ATOM      6  C6  BNZ d   1      -5.081   2.438  -5.266  0.00  0.00     0.000 A 
ENDROOT
TORSDOF 0
ENDMDL
