MODEL 1
REMARK minimizedAffinity -1.07664537
REMARK minimizedRMSD -1
REMARK  0 active torsions:
REMARK  status: ('A' for Active; 'I' for Inactive)
ROOT
ATOM      1  C1  BNZ d   1      -0.038   0.781  -2.289  0.00  0.00     0.000 A 
ATOM      2  C2  BNZ d   1       0.378   1.052  -1.013  0.00  0.00     0.000 A 
ATOM      3  C3  BNZ d   1       0.731   0.041  -0.163  0.00  0.00     0.000 A 
ATOM      4  C4  BNZ d   1       0.630  -1.238  -0.576  0.00  0.00     0.000 A 
ATOM      5  C5  BNZ d   1       0.203  -1.528  -1.857  0.00  0.00     0.000 A 
ATOM      6  C6  BNZ d   1      -0.114  -0.506  -2.722  0.00  0.00     0.000 A 
ENDROOT
TORSDOF 0
ENDMDL
