MODEL 1
REMARK minimizedAffinity 0.629508197
REMARK minimizedRMSD -1
REMARK  0 active torsions:
REMARK  status: ('A' for Active; 'I' for Inactive)
ROOT
ATOM      1  C1  BNZ d   1      -4.860   5.583  -2.308  0.00  0.00     0.000 A 
ATOM      2  C2  BNZ d   1      -5.967   5.997  -3.000  0.00  0.00     0.000 A 
ATOM      3  C3  BNZ d   1      -6.000   5.943  -4.365  0.00  0.00     0.000 A 
ATOM      4  C4  BNZ d   1      -4.913   5.513  -5.038  0.00  0.00     0.000 A 
ATOM      5  C5  BNZ d   1      -3.786   5.100  -4.356  0.00  0.00     0.000 A 
ATOM      6  C6  BNZ d   1      -3.771   5.120  -2.980  0.00  0.00     0.000 A 
ENDROOT
TORSDOF 0
ENDMDL
