MODEL 1
REMARK minimizedAffinity -0.927942455
REMARK minimizedRMSD -1
REMARK  2 active torsions:
REMARK  status: ('A' for Active; 'I' for Inactive)
REMARK    1  A    between atoms: C1_2  and  C2_3 
REMARK    2  A    between atoms: C2_3  and  C3_4 
ROOT
ATOM      1  C3  UNL d   1       5.902  -2.761   3.352  0.00  0.00    -0.075 A 
ATOM      2  C4  UNL d   1       6.000  -4.129   3.646  0.00  0.00     0.002 A 
ATOM      3  C5  UNL d   1       5.883  -4.580   4.961  0.00  0.00     0.002 A 
ATOM      4  C6  UNL d   1       5.678  -3.672   5.997  0.00  0.00    -0.004 A 
ATOM      5  C7  UNL d   1       5.597  -2.309   5.718  0.00  0.00     0.002 A 
ATOM      6  C8  UNL d   1       5.709  -1.855   4.403  0.00  0.00     0.002 A 
ENDROOT
BRANCH   1   7
ATOM      7  C2  UNL d   1       5.998  -2.268   1.927  0.00  0.00     0.056 C 
BRANCH   7   8
ATOM      8  C1  UNL d   1       5.167  -3.081   0.929  0.00  0.00     0.007 C 
ATOM      9  C   UNL d   1       5.995  -4.074   0.126  0.00  0.00     0.009 C 
ENDBRANCH   7   8
ENDBRANCH   1   7
TORSDOF 2
ENDMDL
