MODEL 1
REMARK minimizedAffinity -2.14034128
REMARK minimizedRMSD -1
REMARK  2 active torsions:
REMARK  status: ('A' for Active; 'I' for Inactive)
REMARK    1  A    between atoms: C1_2  and  C2_3 
REMARK    2  A    between atoms: C2_3  and  C3_4 
ROOT
ATOM      1  C3  UNL d   1       5.246  -3.422   3.804  0.00  0.00    -0.075 A 
ATOM      2  C4  UNL d   1       6.000  -3.715   4.949  0.00  0.00     0.002 A 
ATOM      3  C5  UNL d   1       5.442  -4.450   5.996  0.00  0.00     0.002 A 
ATOM      4  C6  UNL d   1       4.124  -4.891   5.916  0.00  0.00    -0.004 A 
ATOM      5  C7  UNL d   1       3.360  -4.592   4.790  0.00  0.00     0.002 A 
ATOM      6  C8  UNL d   1       3.916  -3.860   3.739  0.00  0.00     0.002 A 
ENDROOT
BRANCH   1   7
ATOM      7  C2  UNL d   1       5.852  -2.652   2.655  0.00  0.00     0.056 C 
BRANCH   7   8
ATOM      8  C1  UNL d   1       5.698  -3.338   1.294  0.00  0.00     0.007 C 
ATOM      9  C   UNL d   1       6.000  -4.830   1.336  0.00  0.00     0.009 C 
ENDBRANCH   7   8
ENDBRANCH   1   7
TORSDOF 2
ENDMDL
