MODEL 1
REMARK minimizedAffinity -2.88472509
REMARK minimizedRMSD -1
REMARK  2 active torsions:
REMARK  status: ('A' for Active; 'I' for Inactive)
REMARK    1  A    between atoms: C1_2  and  C2_3 
REMARK    2  A    between atoms: C2_3  and  C3_4 
ROOT
ATOM      1  C3  UNL d   1       5.429  -4.354   3.488  0.00  0.00    -0.075 A 
ATOM      2  C4  UNL d   1       5.174  -5.282   4.508  0.00  0.00     0.002 A 
ATOM      3  C5  UNL d   1       4.712  -4.857   5.754  0.00  0.00     0.002 A 
ATOM      4  C6  UNL d   1       4.508  -3.501   5.999  0.00  0.00    -0.004 A 
ATOM      5  C7  UNL d   1       4.774  -2.568   4.998  0.00  0.00     0.002 A 
ATOM      6  C8  UNL d   1       5.232  -2.991   3.750  0.00  0.00     0.002 A 
ENDROOT
BRANCH   1   7
ATOM      7  C2  UNL d   1       5.901  -4.810   2.128  0.00  0.00     0.056 C 
BRANCH   7   8
ATOM      8  C1  UNL d   1       5.992  -3.686   1.091  0.00  0.00     0.007 C 
ATOM      9  C   UNL d   1       5.981  -4.193  -0.346  0.00  0.00     0.009 C 
ENDBRANCH   7   8
ENDBRANCH   1   7
TORSDOF 2
ENDMDL
