MODEL 1
REMARK minimizedAffinity -0.808720887
REMARK minimizedRMSD -1
REMARK  2 active torsions:
REMARK  status: ('A' for Active; 'I' for Inactive)
REMARK    1  A    between atoms: C1_2  and  C2_3 
REMARK    2  A    between atoms: C2_3  and  C3_4 
ROOT
ATOM      1  C3  UNL d   1       5.956  -3.309   4.183  0.00  0.00    -0.075 A 
ATOM      2  C4  UNL d   1       5.934  -1.927   3.946  0.00  0.00     0.002 A 
ATOM      3  C5  UNL d   1       5.929  -1.432   2.641  0.00  0.00     0.002 A 
ATOM      4  C6  UNL d   1       5.956  -2.310   1.560  0.00  0.00    -0.004 A 
ATOM      5  C7  UNL d   1       5.996  -3.684   1.784  0.00  0.00     0.002 A 
ATOM      6  C8  UNL d   1       5.996  -4.183   3.088  0.00  0.00     0.002 A 
ENDROOT
BRANCH   1   7
ATOM      7  C2  UNL d   1       5.932  -3.852   5.592  0.00  0.00     0.056 C 
BRANCH   7   8
ATOM      8  C1  UNL d   1       5.857  -5.380   5.670  0.00  0.00     0.007 C 
ATOM      9  C   UNL d   1       4.673  -5.963   4.910  0.00  0.00     0.009 C 
ENDBRANCH   7   8
ENDBRANCH   1   7
TORSDOF 2
ENDMDL
