MODEL 1
REMARK minimizedAffinity -0.706940889
REMARK minimizedRMSD -1
REMARK  2 active torsions:
REMARK  status: ('A' for Active; 'I' for Inactive)
REMARK    1  A    between atoms: C1_2  and  C2_3 
REMARK    2  A    between atoms: C2_3  and  C3_4 
ROOT
ATOM      1  C3  UNL d   1       5.691  -4.160   3.210  0.00  0.00    -0.075 A 
ATOM      2  C4  UNL d   1       5.985  -3.804   1.885  0.00  0.00     0.002 A 
ATOM      3  C5  UNL d   1       6.000  -2.463   1.499  0.00  0.00     0.002 A 
ATOM      4  C6  UNL d   1       5.712  -1.464   2.427  0.00  0.00    -0.004 A 
ATOM      5  C7  UNL d   1       5.403  -1.808   3.741  0.00  0.00     0.002 A 
ATOM      6  C8  UNL d   1       5.392  -3.148   4.132  0.00  0.00     0.002 A 
ENDROOT
BRANCH   1   7
ATOM      7  C2  UNL d   1       5.703  -5.607   3.641  0.00  0.00     0.056 C 
BRANCH   7   8
ATOM      8  C1  UNL d   1       5.528  -5.809   5.150  0.00  0.00     0.007 C 
ATOM      9  C   UNL d   1       4.075  -5.998   5.566  0.00  0.00     0.009 C 
ENDBRANCH   7   8
ENDBRANCH   1   7
TORSDOF 2
ENDMDL
