MODEL 1
REMARK minimizedAffinity -1.3616128
REMARK minimizedRMSD -1
REMARK  2 active torsions:
REMARK  status: ('A' for Active; 'I' for Inactive)
REMARK    1  A    between atoms: C1_2  and  C2_3 
REMARK    2  A    between atoms: C2_3  and  C3_4 
ROOT
ATOM      1  C3  UNL d   1       3.765  -3.180   3.056  0.00  0.00    -0.075 A 
ATOM      2  C4  UNL d   1       5.038  -2.670   2.761  0.00  0.00     0.002 A 
ATOM      3  C5  UNL d   1       6.000  -2.542   3.764  0.00  0.00     0.002 A 
ATOM      4  C6  UNL d   1       5.699  -2.912   5.073  0.00  0.00    -0.004 A 
ATOM      5  C7  UNL d   1       4.433  -3.405   5.380  0.00  0.00     0.002 A 
ATOM      6  C8  UNL d   1       3.470  -3.538   4.379  0.00  0.00     0.002 A 
ENDROOT
BRANCH   1   7
ATOM      7  C2  UNL d   1       2.730  -3.349   1.970  0.00  0.00     0.056 C 
BRANCH   7   8
ATOM      8  C1  UNL d   1       3.253  -3.059   0.559  0.00  0.00     0.007 C 
ATOM      9  C   UNL d   1       2.343  -3.593  -0.539  0.00  0.00     0.009 C 
ENDBRANCH   7   8
ENDBRANCH   1   7
TORSDOF 2
ENDMDL
