MODEL 1
REMARK minimizedAffinity -3.09827638
REMARK minimizedRMSD -1
REMARK  2 active torsions:
REMARK  status: ('A' for Active; 'I' for Inactive)
REMARK    1  A    between atoms: C1_2  and  C2_3 
REMARK    2  A    between atoms: C2_3  and  C3_4 
ROOT
ATOM      1  C3  UNL d   1       5.413  -4.129   4.634  0.00  0.00    -0.075 A 
ATOM      2  C4  UNL d   1       5.724  -4.914   3.514  0.00  0.00     0.002 A 
ATOM      3  C5  UNL d   1       5.995  -4.317   2.283  0.00  0.00     0.002 A 
ATOM      4  C6  UNL d   1       5.950  -2.930   2.153  0.00  0.00    -0.004 A 
ATOM      5  C7  UNL d   1       5.626  -2.141   3.254  0.00  0.00     0.002 A 
ATOM      6  C8  UNL d   1       5.358  -2.736   4.489  0.00  0.00     0.002 A 
ENDROOT
BRANCH   1   7
ATOM      7  C2  UNL d   1       5.148  -4.768   5.976  0.00  0.00     0.056 C 
BRANCH   7   8
ATOM      8  C1  UNL d   1       3.919  -5.683   5.999  0.00  0.00     0.007 C 
ATOM      9  C   UNL d   1       2.642  -4.985   5.550  0.00  0.00     0.009 C 
ENDBRANCH   7   8
ENDBRANCH   1   7
TORSDOF 2
ENDMDL
