MODEL 1
REMARK minimizedAffinity -1.12514102
REMARK minimizedRMSD -1
REMARK  2 active torsions:
REMARK  status: ('A' for Active; 'I' for Inactive)
REMARK    1  A    between atoms: C1_2  and  C2_3 
REMARK    2  A    between atoms: C2_3  and  C3_4 
ROOT
ATOM      1  C3  UNL d   1       5.465  -2.989   2.761  0.00  0.00    -0.075 A 
ATOM      2  C4  UNL d   1       5.726  -4.358   2.915  0.00  0.00     0.002 A 
ATOM      3  C5  UNL d   1       5.986  -4.892   4.177  0.00  0.00     0.002 A 
ATOM      4  C6  UNL d   1       6.000  -4.064   5.298  0.00  0.00    -0.004 A 
ATOM      5  C7  UNL d   1       5.758  -2.699   5.154  0.00  0.00     0.002 A 
ATOM      6  C8  UNL d   1       5.493  -2.164   3.892  0.00  0.00     0.002 A 
ENDROOT
BRANCH   1   7
ATOM      7  C2  UNL d   1       5.153  -2.410   1.401  0.00  0.00     0.056 C 
BRANCH   7   8
ATOM      8  C1  UNL d   1       4.190  -3.262   0.567  0.00  0.00     0.007 C 
ATOM      9  C   UNL d   1       3.111  -2.442  -0.128  0.00  0.00     0.009 C 
ENDBRANCH   7   8
ENDBRANCH   1   7
TORSDOF 2
ENDMDL
