MODEL 1
REMARK minimizedAffinity -2.84634566
REMARK minimizedRMSD -1
REMARK  2 active torsions:
REMARK  status: ('A' for Active; 'I' for Inactive)
REMARK    1  A    between atoms: C1_2  and  C2_3 
REMARK    2  A    between atoms: C2_3  and  C3_4 
ROOT
ATOM      1  C3  UNL d   1       5.614  -4.564   3.514  0.00  0.00    -0.075 A 
ATOM      2  C4  UNL d   1       5.152  -5.001   4.764  0.00  0.00     0.002 A 
ATOM      3  C5  UNL d   1       4.843  -4.081   5.767  0.00  0.00     0.002 A 
ATOM      4  C6  UNL d   1       5.002  -2.716   5.536  0.00  0.00    -0.004 A 
ATOM      5  C7  UNL d   1       5.475  -2.271   4.304  0.00  0.00     0.002 A 
ATOM      6  C8  UNL d   1       5.781  -3.189   3.298  0.00  0.00     0.002 A 
ENDROOT
BRANCH   1   7
ATOM      7  C2  UNL d   1       5.922  -5.553   2.416  0.00  0.00     0.056 C 
BRANCH   7   8
ATOM      8  C1  UNL d   1       5.996  -4.929   1.018  0.00  0.00     0.007 C 
ATOM      9  C   UNL d   1       6.000  -5.962  -0.101  0.00  0.00     0.009 C 
ENDBRANCH   7   8
ENDBRANCH   1   7
TORSDOF 2
ENDMDL
