MODEL 1
REMARK minimizedAffinity -0.403692186
REMARK minimizedRMSD -1
REMARK  2 active torsions:
REMARK  status: ('A' for Active; 'I' for Inactive)
REMARK    1  A    between atoms: C1_2  and  C2_3 
REMARK    2  A    between atoms: C2_3  and  C3_4 
ROOT
ATOM      1  C3  UNL d   1       5.949  -4.082   4.323  0.00  0.00    -0.075 A 
ATOM      2  C4  UNL d   1       5.900  -3.214   3.222  0.00  0.00     0.002 A 
ATOM      3  C5  UNL d   1       5.869  -3.720   1.923  0.00  0.00     0.002 A 
ATOM      4  C6  UNL d   1       5.895  -5.096   1.707  0.00  0.00    -0.004 A 
ATOM      5  C7  UNL d   1       5.960  -5.967   2.793  0.00  0.00     0.002 A 
ATOM      6  C8  UNL d   1       5.988  -5.463   4.094  0.00  0.00     0.002 A 
ENDROOT
BRANCH   1   7
ATOM      7  C2  UNL d   1       5.954  -3.541   5.733  0.00  0.00     0.056 C 
BRANCH   7   8
ATOM      8  C1  UNL d   1       4.898  -2.461   5.991  0.00  0.00     0.007 C 
ATOM      9  C   UNL d   1       3.472  -2.994   5.950  0.00  0.00     0.009 C 
ENDBRANCH   7   8
ENDBRANCH   1   7
TORSDOF 2
ENDMDL
