MODEL 1
REMARK minimizedAffinity -2.3802135
REMARK minimizedRMSD -1
REMARK  2 active torsions:
REMARK  status: ('A' for Active; 'I' for Inactive)
REMARK    1  A    between atoms: C1_2  and  C2_3 
REMARK    2  A    between atoms: C2_3  and  C3_4 
ROOT
ATOM      1  C3  UNL d   1       5.981  -4.266   2.660  0.00  0.00    -0.075 A 
ATOM      2  C4  UNL d   1       5.970  -4.248   1.258  0.00  0.00     0.002 A 
ATOM      3  C5  UNL d   1       5.980  -3.038   0.565  0.00  0.00     0.002 A 
ATOM      4  C6  UNL d   1       5.990  -1.832   1.263  0.00  0.00    -0.004 A 
ATOM      5  C7  UNL d   1       5.983  -1.838   2.656  0.00  0.00     0.002 A 
ATOM      6  C8  UNL d   1       5.978  -3.048   3.352  0.00  0.00     0.002 A 
ENDROOT
BRANCH   1   7
ATOM      7  C2  UNL d   1       6.000  -5.573   3.416  0.00  0.00     0.056 C 
BRANCH   7   8
ATOM      8  C1  UNL d   1       5.142  -5.572   4.686  0.00  0.00     0.007 C 
ATOM      9  C   UNL d   1       5.945  -5.840   5.953  0.00  0.00     0.009 C 
ENDBRANCH   7   8
ENDBRANCH   1   7
TORSDOF 2
ENDMDL
