MODEL 1
REMARK minimizedAffinity 0.570535779
REMARK minimizedRMSD -1
REMARK  2 active torsions:
REMARK  status: ('A' for Active; 'I' for Inactive)
REMARK    1  A    between atoms: C1_2  and  C2_3 
REMARK    2  A    between atoms: C2_3  and  C3_4 
ROOT
ATOM      1  C3  UNL d   1       5.564  -4.505   4.465  0.00  0.00    -0.075 A 
ATOM      2  C4  UNL d   1       5.532  -3.164   4.875  0.00  0.00     0.002 A 
ATOM      3  C5  UNL d   1       5.719  -2.136   3.951  0.00  0.00     0.002 A 
ATOM      4  C6  UNL d   1       5.950  -2.434   2.610  0.00  0.00    -0.004 A 
ATOM      5  C7  UNL d   1       6.000  -3.762   2.194  0.00  0.00     0.002 A 
ATOM      6  C8  UNL d   1       5.809  -4.793   3.115  0.00  0.00     0.002 A 
ENDROOT
BRANCH   1   7
ATOM      7  C2  UNL d   1       5.333  -5.621   5.454  0.00  0.00     0.056 C 
BRANCH   7   8
ATOM      8  C1  UNL d   1       3.859  -5.994   5.642  0.00  0.00     0.007 C 
ATOM      9  C   UNL d   1       3.069  -5.991   4.341  0.00  0.00     0.009 C 
ENDBRANCH   7   8
ENDBRANCH   1   7
TORSDOF 2
ENDMDL
