MODEL 1
REMARK minimizedAffinity 4.39914227
REMARK minimizedRMSD -1
REMARK  2 active torsions:
REMARK  status: ('A' for Active; 'I' for Inactive)
REMARK    1  A    between atoms: C1_2  and  C2_3 
REMARK    2  A    between atoms: C2_3  and  C3_4 
ROOT
ATOM      1  C3  UNL d   1       0.217   0.077   0.231  0.00  0.00    -0.075 A 
ATOM      2  C4  UNL d   1      -1.173  -0.084   0.128  0.00  0.00     0.002 A 
ATOM      3  C5  UNL d   1      -1.731  -1.355  -0.007  0.00  0.00     0.002 A 
ATOM      4  C6  UNL d   1      -0.908  -2.479  -0.052  0.00  0.00    -0.004 A 
ATOM      5  C7  UNL d   1       0.474  -2.330   0.032  0.00  0.00     0.002 A 
ATOM      6  C8  UNL d   1       1.035  -1.059   0.173  0.00  0.00     0.002 A 
ENDROOT
BRANCH   1   7
ATOM      7  C2  UNL d   1       0.825   1.447   0.408  0.00  0.00     0.056 C 
BRANCH   7   8
ATOM      8  C1  UNL d   1       0.740   1.988   1.839  0.00  0.00     0.007 C 
ATOM      9  C   UNL d   1       1.068   3.472   1.941  0.00  0.00     0.009 C 
ENDBRANCH   7   8
ENDBRANCH   1   7
TORSDOF 2
ENDMDL
