MODEL 1
REMARK minimizedAffinity 2.51328874
REMARK minimizedRMSD -1
REMARK  2 active torsions:
REMARK  status: ('A' for Active; 'I' for Inactive)
REMARK    1  A    between atoms: C1_2  and  C2_3 
REMARK    2  A    between atoms: C2_3  and  C3_4 
ROOT
ATOM      1  C3  UNL d   1       5.884  -4.210   4.086  0.00  0.00    -0.075 A 
ATOM      2  C4  UNL d   1       5.913  -4.478   2.710  0.00  0.00     0.002 A 
ATOM      3  C5  UNL d   1       5.966  -3.435   1.786  0.00  0.00     0.002 A 
ATOM      4  C6  UNL d   1       5.979  -2.112   2.224  0.00  0.00    -0.004 A 
ATOM      5  C7  UNL d   1       5.933  -1.834   3.588  0.00  0.00     0.002 A 
ATOM      6  C8  UNL d   1       5.885  -2.876   4.515  0.00  0.00     0.002 A 
ENDROOT
BRANCH   1   7
ATOM      7  C2  UNL d   1       5.858  -5.336   5.092  0.00  0.00     0.056 C 
BRANCH   7   8
ATOM      8  C1  UNL d   1       4.448  -5.757   5.520  0.00  0.00     0.007 C 
ATOM      9  C   UNL d   1       3.364  -5.297   4.554  0.00  0.00     0.009 C 
ENDBRANCH   7   8
ENDBRANCH   1   7
TORSDOF 2
ENDMDL
