MODEL 1
REMARK minimizedAffinity 5.53652477
REMARK minimizedRMSD -1
REMARK  1 active torsions:
REMARK  status: ('A' for Active; 'I' for Inactive)
REMARK    1  A    between atoms: C1_2  and  C2_3 
ROOT
ATOM      1  C2  UNL d   1      -2.424  -0.160   2.936  0.00  0.00    -0.076 A 
ATOM      2  C3  UNL d   1      -1.398   0.393   3.723  0.00  0.00     0.004 A 
ATOM      3  C4  UNL d   1      -0.158  -0.235   3.829  0.00  0.00    -0.003 A 
ATOM      4  C5  UNL d   1       0.077  -1.425   3.149  0.00  0.00     0.000 A 
ATOM      5  C6  UNL d   1      -0.923  -1.978   2.350  0.00  0.00     0.000 A 
ATOM      6  C7  UNL d   1      -2.174  -1.350   2.220  0.00  0.00    -0.073 A 
ATOM      7  C8  UNL d   1      -3.218  -1.994   1.350  0.00  0.00     0.078 C 
ENDROOT
BRANCH   1   8
ATOM      8  C1  UNL d   1      -3.757   0.551   2.881  0.00  0.00     0.053 C 
ATOM      9  C   UNL d   1      -3.997   1.434   4.096  0.00  0.00     0.018 C 
ENDBRANCH   1   8
TORSDOF 1
ENDMDL
