MODEL 1
REMARK minimizedAffinity 11.1757345
REMARK minimizedRMSD -1
REMARK  1 active torsions:
REMARK  status: ('A' for Active; 'I' for Inactive)
REMARK    1  A    between atoms: C1_2  and  C2_3 
ROOT
ATOM      1  C2  UNL d   1       0.898  -2.745   1.633  0.00  0.00    -0.076 A 
ATOM      2  C3  UNL d   1       1.417  -1.451   1.453  0.00  0.00     0.004 A 
ATOM      3  C4  UNL d   1       2.739  -1.256   1.057  0.00  0.00    -0.003 A 
ATOM      4  C5  UNL d   1       3.564  -2.353   0.835  0.00  0.00     0.000 A 
ATOM      5  C6  UNL d   1       3.062  -3.644   0.993  0.00  0.00     0.000 A 
ATOM      6  C7  UNL d   1       1.726  -3.858   1.375  0.00  0.00    -0.073 A 
ATOM      7  C8  UNL d   1       1.239  -5.272   1.536  0.00  0.00     0.078 C 
ENDROOT
BRANCH   1   8
ATOM      8  C1  UNL d   1      -0.536  -2.893   2.090  0.00  0.00     0.053 C 
ATOM      9  C   UNL d   1      -0.996  -1.728   2.952  0.00  0.00     0.018 C 
ENDBRANCH   1   8
TORSDOF 1
ENDMDL
