MODEL 1
REMARK minimizedAffinity 0.201818496
REMARK minimizedRMSD -1
REMARK  1 active torsions:
REMARK  status: ('A' for Active; 'I' for Inactive)
REMARK    1  A    between atoms: C1_2  and  C2_3 
ROOT
ATOM      1  C2  UNL d   1       3.012  -3.189   0.981  0.00  0.00    -0.076 A 
ATOM      2  C3  UNL d   1       4.331  -2.714   0.874  0.00  0.00     0.004 A 
ATOM      3  C4  UNL d   1       5.418  -3.575   1.015  0.00  0.00    -0.003 A 
ATOM      4  C5  UNL d   1       5.204  -4.926   1.265  0.00  0.00     0.000 A 
ATOM      5  C6  UNL d   1       3.902  -5.418   1.357  0.00  0.00     0.000 A 
ATOM      6  C7  UNL d   1       2.795  -4.566   1.201  0.00  0.00    -0.073 A 
ATOM      7  C8  UNL d   1       1.414  -5.150   1.315  0.00  0.00     0.078 C 
ENDROOT
BRANCH   1   8
ATOM      8  C1  UNL d   1       1.874  -2.203   0.846  0.00  0.00     0.053 C 
ATOM      9  C   UNL d   1       1.803  -1.582  -0.540  0.00  0.00     0.018 C 
ENDBRANCH   1   8
TORSDOF 1
ENDMDL
