MODEL 1
REMARK minimizedAffinity 8.91489697
REMARK minimizedRMSD -1
REMARK  2 active torsions:
REMARK  status: ('A' for Active; 'I' for Inactive)
REMARK    1  A    between atoms: C2'_3  and  C1'_4 
REMARK    2  A    between atoms: C1'_4  and  C1_5 
ROOT
ATOM      1  C1  I4B d   1       2.398  -4.803  -5.919  0.00  0.00    -0.075 A 
ATOM      2  C2  I4B d   1       2.696  -3.464  -5.936  0.00  0.00     0.003 A 
ATOM      3  C3  I4B d   1       4.044  -3.034  -5.999  0.00  0.00     0.002 A 
ATOM      4  C4  I4B d   1       5.057  -3.971  -5.992  0.00  0.00    -0.004 A 
ATOM      5  C5  I4B d   1       4.752  -5.329  -5.999  0.00  0.00     0.002 A 
ATOM      6  C6  I4B d   1       3.414  -5.749  -5.974  0.00  0.00     0.003 A 
ENDROOT
BRANCH   1   7
ATOM      7  C1' I4B d   1       0.965  -5.222  -5.819  0.00  0.00     0.060 C 
BRANCH   7   8
ATOM      8  C2' I4B d   1       0.607  -5.312  -4.350  0.00  0.00    -0.013 C 
ATOM      9  C4' I4B d   1       1.694  -5.998  -3.565  0.00  0.00     0.013 C 
ATOM     10  C3' I4B d   1       0.370  -3.920  -3.844  0.00  0.00     0.013 C 
ENDBRANCH   7   8
ENDBRANCH   1   7
TORSDOF 2
ENDMDL
