MODEL 1
REMARK minimizedAffinity 19.3761311
REMARK minimizedRMSD -1
REMARK  2 active torsions:
REMARK  status: ('A' for Active; 'I' for Inactive)
REMARK    1  A    between atoms: C2'_3  and  C1'_4 
REMARK    2  A    between atoms: C1'_4  and  C1_5 
ROOT
ATOM      1  C1  I4B d   1      -0.821   3.821  -2.922  0.00  0.00    -0.075 A 
ATOM      2  C2  I4B d   1      -0.432   5.137  -2.953  0.00  0.00     0.003 A 
ATOM      3  C3  I4B d   1      -0.915   6.000  -3.966  0.00  0.00     0.002 A 
ATOM      4  C4  I4B d   1      -1.739   5.496  -4.952  0.00  0.00    -0.004 A 
ATOM      5  C5  I4B d   1      -2.150   4.167  -4.907  0.00  0.00     0.002 A 
ATOM      6  C6  I4B d   1      -1.699   3.327  -3.878  0.00  0.00     0.003 A 
ENDROOT
BRANCH   1   7
ATOM      7  C1' I4B d   1      -0.266   2.930  -1.857  0.00  0.00     0.060 C 
BRANCH   7   8
ATOM      8  C2' I4B d   1       1.123   3.426  -1.511  0.00  0.00    -0.013 C 
ATOM      9  C4' I4B d   1       1.419   3.241  -0.046  0.00  0.00     0.013 C 
ATOM     10  C3' I4B d   1       2.107   2.678  -2.361  0.00  0.00     0.013 C 
ENDBRANCH   7   8
ENDBRANCH   1   7
TORSDOF 2
ENDMDL
