MODEL 1
REMARK minimizedAffinity 14.1617556
REMARK minimizedRMSD -1
REMARK  2 active torsions:
REMARK  status: ('A' for Active; 'I' for Inactive)
REMARK    1  A    between atoms: C2'_3  and  C1'_4 
REMARK    2  A    between atoms: C1'_4  and  C1_5 
ROOT
ATOM      1  C1  I4B d   1       2.341  -4.041  -5.270  0.00  0.00    -0.075 A 
ATOM      2  C2  I4B d   1       1.926  -5.127  -5.999  0.00  0.00     0.003 A 
ATOM      3  C3  I4B d   1       0.939  -5.999  -5.481  0.00  0.00     0.002 A 
ATOM      4  C4  I4B d   1       0.434  -5.779  -4.216  0.00  0.00    -0.004 A 
ATOM      5  C5  I4B d   1       0.839  -4.664  -3.487  0.00  0.00     0.002 A 
ATOM      6  C6  I4B d   1       1.790  -3.783  -4.022  0.00  0.00     0.003 A 
ENDROOT
BRANCH   1   7
ATOM      7  C1' I4B d   1       3.410  -3.159  -5.834  0.00  0.00     0.060 C 
BRANCH   7   8
ATOM      8  C2' I4B d   1       4.698  -3.453  -5.093  0.00  0.00    -0.013 C 
ATOM      9  C4' I4B d   1       5.711  -4.103  -5.998  0.00  0.00     0.013 C 
ATOM     10  C3' I4B d   1       5.217  -2.161  -4.537  0.00  0.00     0.013 C 
ENDBRANCH   7   8
ENDBRANCH   1   7
TORSDOF 2
ENDMDL
