MODEL 1
REMARK minimizedAffinity 4.84037781
REMARK minimizedRMSD -1
REMARK  2 active torsions:
REMARK  status: ('A' for Active; 'I' for Inactive)
REMARK    1  A    between atoms: C2'_3  and  C1'_4 
REMARK    2  A    between atoms: C1'_4  and  C1_5 
ROOT
ATOM      1  C1  I4B d   1       2.863  -4.811  -5.822  0.00  0.00    -0.075 A 
ATOM      2  C2  I4B d   1       3.518  -3.606  -5.845  0.00  0.00     0.003 A 
ATOM      3  C3  I4B d   1       4.929  -3.563  -5.961  0.00  0.00     0.002 A 
ATOM      4  C4  I4B d   1       5.643  -4.743  -6.000  0.00  0.00    -0.004 A 
ATOM      5  C5  I4B d   1       4.976  -5.964  -6.000  0.00  0.00     0.002 A 
ATOM      6  C6  I4B d   1       3.576  -5.999  -5.923  0.00  0.00     0.003 A 
ENDROOT
BRANCH   1   7
ATOM      7  C1' I4B d   1       1.375  -4.820  -5.666  0.00  0.00     0.060 C 
BRANCH   7   8
ATOM      8  C2' I4B d   1       1.056  -5.316  -4.270  0.00  0.00    -0.013 C 
ATOM      9  C4' I4B d   1       1.053  -4.184  -3.277  0.00  0.00     0.013 C 
ATOM     10  C3' I4B d   1      -0.278  -6.000  -4.316  0.00  0.00     0.013 C 
ENDBRANCH   7   8
ENDBRANCH   1   7
TORSDOF 2
ENDMDL
