MODEL 1
REMARK minimizedAffinity 9.22321129
REMARK minimizedRMSD -1
REMARK  2 active torsions:
REMARK  status: ('A' for Active; 'I' for Inactive)
REMARK    1  A    between atoms: C2'_3  and  C1'_4 
REMARK    2  A    between atoms: C1'_4  and  C1_5 
ROOT
ATOM      1  C1  I4B d   1      -3.749  -2.751   3.358  0.00  0.00    -0.075 A 
ATOM      2  C2  I4B d   1      -2.483  -2.982   2.880  0.00  0.00     0.003 A 
ATOM      3  C3  I4B d   1      -2.280  -3.265   1.507  0.00  0.00     0.002 A 
ATOM      4  C4  I4B d   1      -3.369  -3.355   0.664  0.00  0.00    -0.004 A 
ATOM      5  C5  I4B d   1      -4.649  -3.098   1.146  0.00  0.00     0.002 A 
ATOM      6  C6  I4B d   1      -4.839  -2.782   2.499  0.00  0.00     0.003 A 
ENDROOT
BRANCH   1   7
ATOM      7  C1' I4B d   1      -3.930  -2.489   4.819  0.00  0.00     0.060 C 
BRANCH   7   8
ATOM      8  C2' I4B d   1      -5.339  -2.898   5.196  0.00  0.00    -0.013 C 
ATOM      9  C4' I4B d   1      -5.342  -4.182   5.983  0.00  0.00     0.013 C 
ATOM     10  C3' I4B d   1      -5.952  -1.779   5.983  0.00  0.00     0.013 C 
ENDBRANCH   7   8
ENDBRANCH   1   7
TORSDOF 2
ENDMDL
