MODEL 1
REMARK minimizedAffinity 18.9145565
REMARK minimizedRMSD -1
REMARK  2 active torsions:
REMARK  status: ('A' for Active; 'I' for Inactive)
REMARK    1  A    between atoms: C2'_3  and  C1'_4 
REMARK    2  A    between atoms: C1'_4  and  C1_5 
ROOT
ATOM      1  C1  I4B d   1       0.952  -3.985   1.010  0.00  0.00    -0.075 A 
ATOM      2  C2  I4B d   1       1.227  -4.976   1.918  0.00  0.00     0.003 A 
ATOM      3  C3  I4B d   1       2.220  -5.946   1.636  0.00  0.00     0.002 A 
ATOM      4  C4  I4B d   1       2.872  -5.917   0.420  0.00  0.00    -0.004 A 
ATOM      5  C5  I4B d   1       2.609  -4.897  -0.489  0.00  0.00     0.002 A 
ATOM      6  C6  I4B d   1       1.651  -3.917  -0.188  0.00  0.00     0.003 A 
ENDROOT
BRANCH   1   7
ATOM      7  C1' I4B d   1      -0.125  -2.996   1.327  0.00  0.00     0.060 C 
BRANCH   7   8
ATOM      8  C2' I4B d   1      -1.460  -3.692   1.163  0.00  0.00    -0.013 C 
ATOM      9  C4' I4B d   1      -2.559  -2.935   1.861  0.00  0.00     0.013 C 
ATOM     10  C3' I4B d   1      -1.739  -3.821  -0.305  0.00  0.00     0.013 C 
ENDBRANCH   7   8
ENDBRANCH   1   7
TORSDOF 2
ENDMDL
