MODEL 1
REMARK minimizedAffinity 13.0054312
REMARK minimizedRMSD -1
REMARK  2 active torsions:
REMARK  status: ('A' for Active; 'I' for Inactive)
REMARK    1  A    between atoms: C2'_3  and  C1'_4 
REMARK    2  A    between atoms: C1'_4  and  C1_5 
ROOT
ATOM      1  C1  I4B d   1       3.154  -2.639  -4.421  0.00  0.00    -0.075 A 
ATOM      2  C2  I4B d   1       2.057  -3.414  -4.136  0.00  0.00     0.003 A 
ATOM      3  C3  I4B d   1       1.881  -4.664  -4.777  0.00  0.00     0.002 A 
ATOM      4  C4  I4B d   1       2.793  -5.075  -5.728  0.00  0.00    -0.004 A 
ATOM      5  C5  I4B d   1       3.916  -4.299  -5.999  0.00  0.00     0.002 A 
ATOM      6  C6  I4B d   1       4.105  -3.079  -5.333  0.00  0.00     0.003 A 
ENDROOT
BRANCH   1   7
ATOM      7  C1' I4B d   1       3.292  -1.310  -3.750  0.00  0.00     0.060 C 
BRANCH   7   8
ATOM      8  C2' I4B d   1       4.625  -1.286  -3.030  0.00  0.00    -0.013 C 
ATOM      9  C4' I4B d   1       5.193   0.108  -2.980  0.00  0.00     0.013 C 
ATOM     10  C3' I4B d   1       4.416  -1.836  -1.651  0.00  0.00     0.013 C 
ENDBRANCH   7   8
ENDBRANCH   1   7
TORSDOF 2
ENDMDL
