MODEL 1
REMARK minimizedAffinity 18.413229
REMARK minimizedRMSD -1
REMARK  2 active torsions:
REMARK  status: ('A' for Active; 'I' for Inactive)
REMARK    1  A    between atoms: C2'_3  and  C1'_4 
REMARK    2  A    between atoms: C1'_4  and  C1_5 
ROOT
ATOM      1  C1  I4B d   1      -3.057   3.092  -3.840  0.00  0.00    -0.075 A 
ATOM      2  C2  I4B d   1      -2.982   3.448  -5.164  0.00  0.00     0.003 A 
ATOM      3  C3  I4B d   1      -2.249   4.595  -5.554  0.00  0.00     0.002 A 
ATOM      4  C4  I4B d   1      -1.654   5.381  -4.588  0.00  0.00    -0.004 A 
ATOM      5  C5  I4B d   1      -1.711   5.007  -3.249  0.00  0.00     0.002 A 
ATOM      6  C6  I4B d   1      -2.407   3.848  -2.873  0.00  0.00     0.003 A 
ENDROOT
BRANCH   1   7
ATOM      7  C1' I4B d   1      -3.866   1.893  -3.461  0.00  0.00     0.060 C 
BRANCH   7   8
ATOM      8  C2' I4B d   1      -5.312   2.328  -3.331  0.00  0.00    -0.013 C 
ATOM      9  C4' I4B d   1      -5.999   2.342  -4.671  0.00  0.00     0.013 C 
ATOM     10  C3' I4B d   1      -5.995   1.389  -2.382  0.00  0.00     0.013 C 
ENDBRANCH   7   8
ENDBRANCH   1   7
TORSDOF 2
ENDMDL
