MODEL 1
REMARK minimizedAffinity 10.6914968
REMARK minimizedRMSD -1
REMARK  2 active torsions:
REMARK  status: ('A' for Active; 'I' for Inactive)
REMARK    1  A    between atoms: C2'_3  and  C1'_4 
REMARK    2  A    between atoms: C1'_4  and  C1_5 
ROOT
ATOM      1  C1  I4B d   1       2.052   0.843   0.753  0.00  0.00    -0.075 A 
ATOM      2  C2  I4B d   1       3.122   1.686   0.926  0.00  0.00     0.003 A 
ATOM      3  C3  I4B d   1       4.340   1.193   1.454  0.00  0.00     0.002 A 
ATOM      4  C4  I4B d   1       4.428  -0.129   1.840  0.00  0.00    -0.004 A 
ATOM      5  C5  I4B d   1       3.350  -0.988   1.642  0.00  0.00     0.002 A 
ATOM      6  C6  I4B d   1       2.158  -0.502   1.084  0.00  0.00     0.003 A 
ENDROOT
BRANCH   1   7
ATOM      7  C1' I4B d   1       0.771   1.404   0.224  0.00  0.00     0.060 C 
BRANCH   7   8
ATOM      8  C2' I4B d   1       1.106   2.609  -0.631  0.00  0.00    -0.013 C 
ATOM      9  C4' I4B d   1       0.304   2.612  -1.906  0.00  0.00     0.013 C 
ATOM     10  C3' I4B d   1       0.840   3.841   0.180  0.00  0.00     0.013 C 
ENDBRANCH   7   8
ENDBRANCH   1   7
TORSDOF 2
ENDMDL
