MODEL 1
REMARK minimizedAffinity 6.07519007
REMARK minimizedRMSD -1
REMARK  2 active torsions:
REMARK  status: ('A' for Active; 'I' for Inactive)
REMARK    1  A    between atoms: C2'_3  and  C1'_4 
REMARK    2  A    between atoms: C1'_4  and  C1_5 
ROOT
ATOM      1  C1  I4B d   1       0.750  -0.733   2.865  0.00  0.00    -0.075 A 
ATOM      2  C2  I4B d   1      -0.576  -0.745   3.218  0.00  0.00     0.003 A 
ATOM      3  C3  I4B d   1      -0.952  -0.681   4.582  0.00  0.00     0.002 A 
ATOM      4  C4  I4B d   1       0.025  -0.657   5.556  0.00  0.00    -0.004 A 
ATOM      5  C5  I4B d   1       1.369  -0.621   5.195  0.00  0.00     0.002 A 
ATOM      6  C6  I4B d   1       1.734  -0.647   3.841  0.00  0.00     0.003 A 
ENDROOT
BRANCH   1   7
ATOM      7  C1' I4B d   1       1.112  -0.835   1.418  0.00  0.00     0.060 C 
BRANCH   7   8
ATOM      8  C2' I4B d   1       1.949  -2.084   1.233  0.00  0.00    -0.013 C 
ATOM      9  C4' I4B d   1       1.112  -3.233   0.737  0.00  0.00     0.013 C 
ATOM     10  C3' I4B d   1       3.053  -1.763   0.270  0.00  0.00     0.013 C 
ENDBRANCH   7   8
ENDBRANCH   1   7
TORSDOF 2
ENDMDL
