MODEL 1
REMARK minimizedAffinity -4.01632452
REMARK minimizedRMSD -1
REMARK  0 active torsions:
REMARK  status: ('A' for Active; 'I' for Inactive)
ROOT
ATOM      1  C   UNL d   1       5.998  -2.122   1.125  0.00  0.00     0.077 C 
ATOM      2  C1  UNL d   1       5.783  -3.030   2.299  0.00  0.00    -0.074 A 
ATOM      3  C2  UNL d   1       5.971  -4.411   2.184  0.00  0.00    -0.005 A 
ATOM      4  C3  UNL d   1       5.777  -5.242   3.288  0.00  0.00     0.006 A 
ATOM      5  C4  UNL d   1       5.393  -4.701   4.515  0.00  0.00    -0.005 A 
ATOM      6  C5  UNL d   1       5.202  -3.322   4.650  0.00  0.00    -0.074 A 
ATOM      7  C6  UNL d   1       4.799  -2.723   5.965  0.00  0.00     0.077 C 
ATOM      8  C7  UNL d   1       5.406  -2.493   3.538  0.00  0.00    -0.001 A 
ENDROOT
TORSDOF 0
ENDMDL
