MODEL 1
REMARK minimizedAffinity -3.17707944
REMARK minimizedRMSD -1
REMARK  0 active torsions:
REMARK  status: ('A' for Active; 'I' for Inactive)
ROOT
ATOM      1  C   UNL d   1       5.961  -3.646   1.446  0.00  0.00     0.077 C 
ATOM      2  C1  UNL d   1       5.890  -3.503   2.937  0.00  0.00    -0.074 A 
ATOM      3  C2  UNL d   1       5.721  -2.249   3.532  0.00  0.00    -0.005 A 
ATOM      4  C3  UNL d   1       5.647  -2.133   4.920  0.00  0.00     0.006 A 
ATOM      5  C4  UNL d   1       5.739  -3.268   5.726  0.00  0.00    -0.005 A 
ATOM      6  C5  UNL d   1       5.907  -4.531   5.149  0.00  0.00    -0.074 A 
ATOM      7  C6  UNL d   1       5.999  -5.763   6.000  0.00  0.00     0.077 C 
ATOM      8  C7  UNL d   1       5.974  -4.640   3.753  0.00  0.00    -0.001 A 
ENDROOT
TORSDOF 0
ENDMDL
