MODEL 1
REMARK minimizedAffinity -3.63479209
REMARK minimizedRMSD -1
REMARK  0 active torsions:
REMARK  status: ('A' for Active; 'I' for Inactive)
ROOT
ATOM      1  C   UNL d   1       5.998  -4.316   1.568  0.00  0.00     0.077 C 
ATOM      2  C1  UNL d   1       5.646  -3.872   2.957  0.00  0.00    -0.074 A 
ATOM      3  C2  UNL d   1       6.000  -2.599   3.416  0.00  0.00    -0.005 A 
ATOM      4  C3  UNL d   1       5.657  -2.196   4.707  0.00  0.00     0.006 A 
ATOM      5  C4  UNL d   1       4.959  -3.060   5.550  0.00  0.00    -0.005 A 
ATOM      6  C5  UNL d   1       4.596  -4.337   5.109  0.00  0.00    -0.074 A 
ATOM      7  C6  UNL d   1       3.836  -5.275   5.999  0.00  0.00     0.077 C 
ATOM      8  C7  UNL d   1       4.938  -4.732   3.808  0.00  0.00    -0.001 A 
ENDROOT
TORSDOF 0
ENDMDL
