MODEL 1
REMARK minimizedAffinity -1.60236692
REMARK minimizedRMSD -1
REMARK  0 active torsions:
REMARK  status: ('A' for Active; 'I' for Inactive)
ROOT
ATOM      1  C   UNL d   1       4.846  -5.986   5.318  0.00  0.00     0.077 C 
ATOM      2  C1  UNL d   1       5.249  -5.266   4.065  0.00  0.00    -0.074 A 
ATOM      3  C2  UNL d   1       5.592  -5.973   2.908  0.00  0.00    -0.005 A 
ATOM      4  C3  UNL d   1       5.956  -5.290   1.748  0.00  0.00     0.006 A 
ATOM      5  C4  UNL d   1       5.981  -3.895   1.733  0.00  0.00    -0.005 A 
ATOM      6  C5  UNL d   1       5.641  -3.171   2.880  0.00  0.00    -0.074 A 
ATOM      7  C6  UNL d   1       5.653  -1.671   2.878  0.00  0.00     0.077 C 
ATOM      8  C7  UNL d   1       5.270  -3.864   4.040  0.00  0.00    -0.001 A 
ENDROOT
TORSDOF 0
ENDMDL
