MODEL 1
REMARK minimizedAffinity -3.14128876
REMARK minimizedRMSD -1
REMARK  0 active torsions:
REMARK  status: ('A' for Active; 'I' for Inactive)
ROOT
ATOM      1  C   UNL d   1       5.998  -4.623   5.856  0.00  0.00     0.077 C 
ATOM      2  C1  UNL d   1       5.853  -3.902   4.548  0.00  0.00    -0.074 A 
ATOM      3  C2  UNL d   1       5.606  -2.526   4.510  0.00  0.00    -0.005 A 
ATOM      4  C3  UNL d   1       5.483  -1.867   3.286  0.00  0.00     0.006 A 
ATOM      5  C4  UNL d   1       5.606  -2.577   2.091  0.00  0.00    -0.005 A 
ATOM      6  C5  UNL d   1       5.853  -3.953   2.110  0.00  0.00    -0.074 A 
ATOM      7  C6  UNL d   1       5.997  -4.729   0.835  0.00  0.00     0.077 C 
ATOM      8  C7  UNL d   1       5.983  -4.606   3.343  0.00  0.00    -0.001 A 
ENDROOT
TORSDOF 0
ENDMDL
