MODEL 1
REMARK minimizedAffinity -3.5359056
REMARK minimizedRMSD -1
REMARK  0 active torsions:
REMARK  status: ('A' for Active; 'I' for Inactive)
ROOT
ATOM      1  C   UNL d   1       5.990  -5.241   1.092  0.00  0.00     0.077 C 
ATOM      2  C1  UNL d   1       5.817  -4.465   2.363  0.00  0.00    -0.074 A 
ATOM      3  C2  UNL d   1       5.992  -3.077   2.387  0.00  0.00    -0.005 A 
ATOM      4  C3  UNL d   1       5.819  -2.367   3.575  0.00  0.00     0.006 A 
ATOM      5  C4  UNL d   1       5.469  -3.036   4.749  0.00  0.00    -0.005 A 
ATOM      6  C5  UNL d   1       5.289  -4.423   4.744  0.00  0.00    -0.074 A 
ATOM      7  C6  UNL d   1       4.903  -5.156   5.994  0.00  0.00     0.077 C 
ATOM      8  C7  UNL d   1       5.458  -5.128   3.545  0.00  0.00    -0.001 A 
ENDROOT
TORSDOF 0
ENDMDL
