MODEL 1
REMARK minimizedAffinity -3.89266944
REMARK minimizedRMSD -1
REMARK  0 active torsions:
REMARK  status: ('A' for Active; 'I' for Inactive)
ROOT
ATOM      1  C   UNL d   1       5.934  -3.024   1.871  0.00  0.00     0.077 C 
ATOM      2  C1  UNL d   1       5.532  -3.120   3.312  0.00  0.00    -0.074 A 
ATOM      3  C2  UNL d   1       5.999  -2.195   4.252  0.00  0.00    -0.005 A 
ATOM      4  C3  UNL d   1       5.608  -2.291   5.587  0.00  0.00     0.006 A 
ATOM      5  C4  UNL d   1       4.748  -3.311   5.996  0.00  0.00    -0.005 A 
ATOM      6  C5  UNL d   1       4.271  -4.245   5.071  0.00  0.00    -0.074 A 
ATOM      7  C6  UNL d   1       3.338  -5.342   5.492  0.00  0.00     0.077 C 
ATOM      8  C7  UNL d   1       4.662  -4.137   3.729  0.00  0.00    -0.001 A 
ENDROOT
TORSDOF 0
ENDMDL
