MODEL 1
REMARK minimizedAffinity -4.17908859
REMARK minimizedRMSD -1
REMARK  0 active torsions:
REMARK  status: ('A' for Active; 'I' for Inactive)
ROOT
ATOM      1  C   UNL d   1       6.000  -2.234   1.106  0.00  0.00     0.077 C 
ATOM      2  C1  UNL d   1       5.813  -3.074   2.335  0.00  0.00    -0.074 A 
ATOM      3  C2  UNL d   1       5.999  -4.460   2.294  0.00  0.00    -0.005 A 
ATOM      4  C3  UNL d   1       5.831  -5.226   3.447  0.00  0.00     0.006 A 
ATOM      5  C4  UNL d   1       5.475  -4.617   4.650  0.00  0.00    -0.005 A 
ATOM      6  C5  UNL d   1       5.284  -3.233   4.711  0.00  0.00    -0.074 A 
ATOM      7  C6  UNL d   1       4.911  -2.560   5.998  0.00  0.00     0.077 C 
ATOM      8  C7  UNL d   1       5.462  -2.468   3.549  0.00  0.00    -0.001 A 
ENDROOT
TORSDOF 0
ENDMDL
