MODEL 1
REMARK minimizedAffinity -1.05138242
REMARK minimizedRMSD -1
REMARK  0 active torsions:
REMARK  status: ('A' for Active; 'I' for Inactive)
ROOT
ATOM      1  C   UNL d   1       6.000  -2.721   2.096  0.00  0.00     0.077 C 
ATOM      2  C1  UNL d   1       5.515  -3.119   3.458  0.00  0.00    -0.074 A 
ATOM      3  C2  UNL d   1       4.610  -2.317   4.161  0.00  0.00    -0.005 A 
ATOM      4  C3  UNL d   1       4.160  -2.705   5.423  0.00  0.00     0.006 A 
ATOM      5  C4  UNL d   1       4.610  -3.896   5.994  0.00  0.00    -0.005 A 
ATOM      6  C5  UNL d   1       5.514  -4.711   5.305  0.00  0.00    -0.074 A 
ATOM      7  C6  UNL d   1       6.000  -5.999   5.900  0.00  0.00     0.077 C 
ATOM      8  C7  UNL d   1       5.956  -4.318   4.035  0.00  0.00    -0.001 A 
ENDROOT
TORSDOF 0
ENDMDL
