MODEL 1
REMARK minimizedAffinity -3.49361897
REMARK minimizedRMSD -1
REMARK  0 active torsions:
REMARK  status: ('A' for Active; 'I' for Inactive)
ROOT
ATOM      1  C   UNL d   1       4.494  -5.470   6.000  0.00  0.00     0.077 C 
ATOM      2  C1  UNL d   1       4.975  -4.339   5.139  0.00  0.00    -0.074 A 
ATOM      3  C2  UNL d   1       5.167  -3.061   5.673  0.00  0.00    -0.005 A 
ATOM      4  C3  UNL d   1       5.624  -2.022   4.863  0.00  0.00     0.006 A 
ATOM      5  C4  UNL d   1       5.893  -2.250   3.513  0.00  0.00    -0.005 A 
ATOM      6  C5  UNL d   1       5.707  -3.521   2.961  0.00  0.00    -0.074 A 
ATOM      7  C6  UNL d   1       6.000  -3.786   1.514  0.00  0.00     0.077 C 
ATOM      8  C7  UNL d   1       5.254  -4.562   3.784  0.00  0.00    -0.001 A 
ENDROOT
TORSDOF 0
ENDMDL
