MODEL 1
REMARK minimizedAffinity -3.7694428
REMARK minimizedRMSD -1
REMARK  0 active torsions:
REMARK  status: ('A' for Active; 'I' for Inactive)
ROOT
ATOM      1  C   UNL d   1       4.860  -5.402   5.997  0.00  0.00     0.077 C 
ATOM      2  C1  UNL d   1       5.251  -4.275   5.087  0.00  0.00    -0.074 A 
ATOM      3  C2  UNL d   1       5.451  -2.985   5.587  0.00  0.00    -0.005 A 
ATOM      4  C3  UNL d   1       5.823  -1.949   4.731  0.00  0.00     0.006 A 
ATOM      5  C4  UNL d   1       6.000  -2.192   3.368  0.00  0.00    -0.005 A 
ATOM      6  C5  UNL d   1       5.805  -3.477   2.851  0.00  0.00    -0.074 A 
ATOM      7  C6  UNL d   1       6.000  -3.758   1.390  0.00  0.00     0.077 C 
ATOM      8  C7  UNL d   1       5.437  -4.514   3.719  0.00  0.00    -0.001 A 
ENDROOT
TORSDOF 0
ENDMDL
