MODEL 1
REMARK minimizedAffinity -2.9126575
REMARK minimizedRMSD -1
REMARK  0 active torsions:
REMARK  status: ('A' for Active; 'I' for Inactive)
ROOT
ATOM      1  C   UNL d   1       5.308  -1.689   4.771  0.00  0.00     0.077 C 
ATOM      2  C1  UNL d   1       5.277  -3.188   4.752  0.00  0.00    -0.074 A 
ATOM      3  C2  UNL d   1       4.880  -3.912   5.881  0.00  0.00    -0.005 A 
ATOM      4  C3  UNL d   1       4.847  -5.306   5.846  0.00  0.00     0.006 A 
ATOM      5  C4  UNL d   1       5.210  -5.989   4.684  0.00  0.00    -0.005 A 
ATOM      6  C5  UNL d   1       5.608  -5.282   3.546  0.00  0.00    -0.074 A 
ATOM      7  C6  UNL d   1       5.991  -5.999   2.286  0.00  0.00     0.077 C 
ATOM      8  C7  UNL d   1       5.632  -3.881   3.586  0.00  0.00    -0.001 A 
ENDROOT
TORSDOF 0
ENDMDL
