MODEL 1
REMARK minimizedAffinity -3.70419455
REMARK minimizedRMSD -1
REMARK  0 active torsions:
REMARK  status: ('A' for Active; 'I' for Inactive)
ROOT
ATOM      1  C   UNL d   1       5.998  -3.099   1.733  0.00  0.00     0.077 C 
ATOM      2  C1  UNL d   1       5.831  -3.198   3.220  0.00  0.00    -0.074 A 
ATOM      3  C2  UNL d   1       5.505  -2.072   3.983  0.00  0.00    -0.005 A 
ATOM      4  C3  UNL d   1       5.343  -2.181   5.365  0.00  0.00     0.006 A 
ATOM      5  C4  UNL d   1       5.505  -3.415   5.995  0.00  0.00    -0.005 A 
ATOM      6  C5  UNL d   1       5.830  -4.552   5.249  0.00  0.00    -0.074 A 
ATOM      7  C6  UNL d   1       5.997  -5.888   5.910  0.00  0.00     0.077 C 
ATOM      8  C7  UNL d   1       5.984  -4.435   3.860  0.00  0.00    -0.001 A 
ENDROOT
TORSDOF 0
ENDMDL
