MODEL 1
REMARK minimizedAffinity -4.03231716
REMARK minimizedRMSD -1
REMARK  0 active torsions:
REMARK  status: ('A' for Active; 'I' for Inactive)
ROOT
ATOM      1  C   UNL d   1       4.536  -5.579   6.000  0.00  0.00     0.077 C 
ATOM      2  C1  UNL d   1       4.850  -4.532   4.972  0.00  0.00    -0.074 A 
ATOM      3  C2  UNL d   1       4.784  -3.172   5.289  0.00  0.00    -0.005 A 
ATOM      4  C3  UNL d   1       5.088  -2.210   4.325  0.00  0.00     0.006 A 
ATOM      5  C4  UNL d   1       5.459  -2.599   3.037  0.00  0.00    -0.005 A 
ATOM      6  C5  UNL d   1       5.531  -3.955   2.703  0.00  0.00    -0.074 A 
ATOM      7  C6  UNL d   1       5.938  -4.389   1.326  0.00  0.00     0.077 C 
ATOM      8  C7  UNL d   1       5.232  -4.915   3.679  0.00  0.00    -0.001 A 
ENDROOT
TORSDOF 0
ENDMDL
