MODEL 1
REMARK minimizedAffinity -3.58361125
REMARK minimizedRMSD -1
REMARK  0 active torsions:
REMARK  status: ('A' for Active; 'I' for Inactive)
ROOT
ATOM      1  C   UNL d   1       5.995  -3.042   1.641  0.00  0.00     0.077 C 
ATOM      2  C1  UNL d   1       5.869  -3.116   3.133  0.00  0.00    -0.074 A 
ATOM      3  C2  UNL d   1       5.617  -1.968   3.892  0.00  0.00    -0.005 A 
ATOM      4  C3  UNL d   1       5.494  -2.055   5.279  0.00  0.00     0.006 A 
ATOM      5  C4  UNL d   1       5.620  -3.288   5.920  0.00  0.00    -0.005 A 
ATOM      6  C5  UNL d   1       5.871  -4.446   5.178  0.00  0.00    -0.074 A 
ATOM      7  C6  UNL d   1       6.000  -5.781   5.850  0.00  0.00     0.077 C 
ATOM      8  C7  UNL d   1       5.987  -4.352   3.784  0.00  0.00    -0.001 A 
ENDROOT
TORSDOF 0
ENDMDL
