MODEL 1
REMARK minimizedAffinity -1.66063821
REMARK minimizedRMSD -1
REMARK  0 active torsions:
REMARK  status: ('A' for Active; 'I' for Inactive)
ROOT
ATOM      1  C   UNL d   1       6.000  -4.960   1.062  0.00  0.00     0.077 C 
ATOM      2  C1  UNL d   1       5.605  -4.409   2.400  0.00  0.00    -0.074 A 
ATOM      3  C2  UNL d   1       5.580  -3.029   2.630  0.00  0.00    -0.005 A 
ATOM      4  C3  UNL d   1       5.201  -2.531   3.877  0.00  0.00     0.006 A 
ATOM      5  C4  UNL d   1       4.844  -3.406   4.904  0.00  0.00    -0.005 A 
ATOM      6  C5  UNL d   1       4.862  -4.788   4.691  0.00  0.00    -0.074 A 
ATOM      7  C6  UNL d   1       4.471  -5.742   5.781  0.00  0.00     0.077 C 
ATOM      8  C7  UNL d   1       5.237  -5.281   3.434  0.00  0.00    -0.001 A 
ENDROOT
TORSDOF 0
ENDMDL
