MODEL 1
REMARK minimizedAffinity -2.57385468
REMARK minimizedRMSD -1
REMARK  0 active torsions:
REMARK  status: ('A' for Active; 'I' for Inactive)
ROOT
ATOM      1  C   UNL d   1       5.997  -4.124   0.984  0.00  0.00     0.077 C 
ATOM      2  C1  UNL d   1       5.860  -3.479   2.331  0.00  0.00    -0.074 A 
ATOM      3  C2  UNL d   1       5.589  -2.111   2.449  0.00  0.00    -0.005 A 
ATOM      4  C3  UNL d   1       5.455  -1.527   3.708  0.00  0.00     0.006 A 
ATOM      5  C4  UNL d   1       5.589  -2.302   4.860  0.00  0.00    -0.005 A 
ATOM      6  C5  UNL d   1       5.859  -3.671   4.763  0.00  0.00    -0.074 A 
ATOM      7  C6  UNL d   1       5.996  -4.520   5.991  0.00  0.00     0.077 C 
ATOM      8  C7  UNL d   1       5.985  -4.252   3.494  0.00  0.00    -0.001 A 
ENDROOT
TORSDOF 0
ENDMDL
