MODEL 1
REMARK minimizedAffinity -3.78413129
REMARK minimizedRMSD -1
REMARK  0 active torsions:
REMARK  status: ('A' for Active; 'I' for Inactive)
ROOT
ATOM      1  C   UNL d   1       5.583  -5.959   5.496  0.00  0.00     0.077 C 
ATOM      2  C1  UNL d   1       5.266  -4.536   5.143  0.00  0.00    -0.074 A 
ATOM      3  C2  UNL d   1       4.504  -3.735   6.000  0.00  0.00    -0.005 A 
ATOM      4  C3  UNL d   1       4.225  -2.411   5.662  0.00  0.00     0.006 A 
ATOM      5  C4  UNL d   1       4.704  -1.875   4.466  0.00  0.00    -0.005 A 
ATOM      6  C5  UNL d   1       5.468  -2.660   3.597  0.00  0.00    -0.074 A 
ATOM      7  C6  UNL d   1       5.999  -2.097   2.313  0.00  0.00     0.077 C 
ATOM      8  C7  UNL d   1       5.750  -3.988   3.947  0.00  0.00    -0.001 A 
ENDROOT
TORSDOF 0
ENDMDL
