MODEL 1
REMARK minimizedAffinity -3.88534331
REMARK minimizedRMSD -1
REMARK  0 active torsions:
REMARK  status: ('A' for Active; 'I' for Inactive)
ROOT
ATOM      1  C   UNL d   1       4.816  -4.320   5.986  0.00  0.00     0.077 C 
ATOM      2  C1  UNL d   1       5.234  -4.531   4.561  0.00  0.00    -0.074 A 
ATOM      3  C2  UNL d   1       5.426  -5.819   4.052  0.00  0.00    -0.005 A 
ATOM      4  C3  UNL d   1       5.805  -5.999   2.721  0.00  0.00     0.006 A 
ATOM      5  C4  UNL d   1       5.996  -4.896   1.889  0.00  0.00    -0.005 A 
ATOM      6  C5  UNL d   1       5.808  -3.600   2.381  0.00  0.00    -0.074 A 
ATOM      7  C6  UNL d   1       6.000  -2.404   1.498  0.00  0.00     0.077 C 
ATOM      8  C7  UNL d   1       5.420  -3.427   3.717  0.00  0.00    -0.001 A 
ENDROOT
TORSDOF 0
ENDMDL
