MODEL 1
REMARK minimizedAffinity 12.8842201
REMARK minimizedRMSD -1
REMARK  0 active torsions:
REMARK  status: ('A' for Active; 'I' for Inactive)
ROOT
ATOM      1  C   UNL d   1       2.413  -2.258   1.839  0.00  0.00     0.124 A 
ATOM      2  C1  UNL d   1       2.158  -2.583   0.513  0.00  0.00     0.062 A 
ATOM      3  C2  UNL d   1       3.057  -3.372  -0.198  0.00  0.00     0.162 A 
ATOM      4  C3  UNL d   1       4.219  -3.842   0.414  0.00  0.00    -0.034 A 
ATOM      5  C4  UNL d   1       4.469  -3.510   1.746  0.00  0.00     0.162 A 
ATOM      6  C5  UNL d   1       3.567  -2.721   2.454  0.00  0.00     0.062 A 
ATOM      7  F   UNL d   1       3.814  -2.408   3.734  0.00  0.00    -0.097 F 
ATOM      8  F1  UNL d   1       5.576  -3.945   2.366  0.00  0.00    -0.096 F 
ATOM      9  I   UNL d   1       5.566  -5.022  -0.647  0.00  0.00    -0.060 I 
ATOM     10  F2  UNL d   1       2.786  -3.671  -1.478  0.00  0.00    -0.096 F 
ATOM     11  F3  UNL d   1       1.044  -2.136  -0.083  0.00  0.00    -0.097 F 
ATOM     12  F4  UNL d   1       1.547  -1.498   2.521  0.00  0.00    -0.092 F 
ENDROOT
TORSDOF 0
ENDMDL
