MODEL 1
REMARK minimizedAffinity 7.15306759
REMARK minimizedRMSD -1
REMARK  0 active torsions:
REMARK  status: ('A' for Active; 'I' for Inactive)
ROOT
ATOM      1  C   UNL d   1      -2.435  -1.129  -4.367  0.00  0.00     0.124 A 
ATOM      2  C1  UNL d   1      -2.152   0.043  -5.054  0.00  0.00     0.062 A 
ATOM      3  C2  UNL d   1      -3.167   0.954  -5.334  0.00  0.00     0.162 A 
ATOM      4  C3  UNL d   1      -4.476   0.696  -4.925  0.00  0.00    -0.034 A 
ATOM      5  C4  UNL d   1      -4.753  -0.485  -4.235  0.00  0.00     0.162 A 
ATOM      6  C5  UNL d   1      -3.735  -1.392  -3.958  0.00  0.00     0.062 A 
ATOM      7  F   UNL d   1      -4.010  -2.524  -3.294  0.00  0.00    -0.097 F 
ATOM      8  F1  UNL d   1      -6.000  -0.765  -3.828  0.00  0.00    -0.096 F 
ATOM      9  I   UNL d   1      -5.996   2.054  -5.342  0.00  0.00    -0.060 I 
ATOM     10  F2  UNL d   1      -2.865   2.078  -6.000  0.00  0.00    -0.096 F 
ATOM     11  F3  UNL d   1      -0.897   0.300  -5.451  0.00  0.00    -0.097 F 
ATOM     12  F4  UNL d   1      -1.457  -2.003  -4.100  0.00  0.00    -0.092 F 
ENDROOT
TORSDOF 0
ENDMDL
