MODEL 1
REMARK minimizedAffinity 18.5430851
REMARK minimizedRMSD -1
REMARK  0 active torsions:
REMARK  status: ('A' for Active; 'I' for Inactive)
ROOT
ATOM      1  C   UNL d   1      -3.120   3.129  -3.711  0.00  0.00     0.124 A 
ATOM      2  C1  UNL d   1      -2.059   2.966  -2.832  0.00  0.00     0.062 A 
ATOM      3  C2  UNL d   1      -1.911   1.776  -2.126  0.00  0.00     0.162 A 
ATOM      4  C3  UNL d   1      -2.826   0.738  -2.297  0.00  0.00    -0.034 A 
ATOM      5  C4  UNL d   1      -3.892   0.909  -3.182  0.00  0.00     0.162 A 
ATOM      6  C5  UNL d   1      -4.036   2.101  -3.885  0.00  0.00     0.062 A 
ATOM      7  F   UNL d   1      -5.062   2.256  -4.734  0.00  0.00    -0.097 F 
ATOM      8  F1  UNL d   1      -4.791  -0.069  -3.371  0.00  0.00    -0.096 F 
ATOM      9  I   UNL d   1      -2.608  -1.044  -1.244  0.00  0.00    -0.060 I 
ATOM     10  F2  UNL d   1      -0.875   1.646  -1.283  0.00  0.00    -0.096 F 
ATOM     11  F3  UNL d   1      -1.173   3.959  -2.661  0.00  0.00    -0.097 F 
ATOM     12  F4  UNL d   1      -3.261   4.276  -4.388  0.00  0.00    -0.092 F 
ENDROOT
TORSDOF 0
ENDMDL
