MODEL 1
REMARK minimizedAffinity 25.2138844
REMARK minimizedRMSD -1
REMARK  0 active torsions:
REMARK  status: ('A' for Active; 'I' for Inactive)
ROOT
ATOM      1  C   UNL d   1      -3.379   1.052  -2.494  0.00  0.00     0.124 A 
ATOM      2  C1  UNL d   1      -4.362   0.435  -3.256  0.00  0.00     0.062 A 
ATOM      3  C2  UNL d   1      -5.019   1.144  -4.258  0.00  0.00     0.162 A 
ATOM      4  C3  UNL d   1      -4.695   2.478  -4.504  0.00  0.00    -0.034 A 
ATOM      5  C4  UNL d   1      -3.707   3.092  -3.732  0.00  0.00     0.162 A 
ATOM      6  C5  UNL d   1      -3.053   2.379  -2.732  0.00  0.00     0.062 A 
ATOM      7  F   UNL d   1      -2.104   2.977  -1.997  0.00  0.00    -0.097 F 
ATOM      8  F1  UNL d   1      -3.371   4.374  -3.942  0.00  0.00    -0.096 F 
ATOM      9  I   UNL d   1      -5.675   3.542  -6.000  0.00  0.00    -0.060 I 
ATOM     10  F2  UNL d   1      -5.964   0.522  -4.979  0.00  0.00    -0.096 F 
ATOM     11  F3  UNL d   1      -4.679  -0.848  -3.027  0.00  0.00    -0.097 F 
ATOM     12  F4  UNL d   1      -2.749   0.367  -1.530  0.00  0.00    -0.092 F 
ENDROOT
TORSDOF 0
ENDMDL
