MODEL 1
REMARK minimizedAffinity 26.0785904
REMARK minimizedRMSD -1
REMARK  0 active torsions:
REMARK  status: ('A' for Active; 'I' for Inactive)
ROOT
ATOM      1  C   UNL d   1      -3.693   3.344  -3.984  0.00  0.00     0.124 A 
ATOM      2  C1  UNL d   1      -2.996   2.493  -3.138  0.00  0.00     0.062 A 
ATOM      3  C2  UNL d   1      -3.308   1.137  -3.096  0.00  0.00     0.162 A 
ATOM      4  C3  UNL d   1      -4.321   0.623  -3.905  0.00  0.00    -0.034 A 
ATOM      5  C4  UNL d   1      -5.019   1.485  -4.753  0.00  0.00     0.162 A 
ATOM      6  C5  UNL d   1      -4.703   2.839  -4.791  0.00  0.00     0.062 A 
ATOM      7  F   UNL d   1      -5.378   3.660  -5.609  0.00  0.00    -0.097 F 
ATOM      8  F1  UNL d   1      -5.999   1.024  -5.544  0.00  0.00    -0.096 F 
ATOM      9  I   UNL d   1      -4.791  -1.404  -3.845  0.00  0.00    -0.060 I 
ATOM     10  F2  UNL d   1      -2.618   0.338  -2.269  0.00  0.00    -0.096 F 
ATOM     11  F3  UNL d   1      -2.020   2.978  -2.357  0.00  0.00    -0.097 F 
ATOM     12  F4  UNL d   1      -3.392   4.648  -4.022  0.00  0.00    -0.092 F 
ENDROOT
TORSDOF 0
ENDMDL
