MODEL 1
REMARK minimizedAffinity 23.3827019
REMARK minimizedRMSD -1
REMARK  0 active torsions:
REMARK  status: ('A' for Active; 'I' for Inactive)
ROOT
ATOM      1  C   UNL d   1      -2.173   2.369  -2.535  0.00  0.00     0.124 A 
ATOM      2  C1  UNL d   1      -3.008   3.032  -3.425  0.00  0.00     0.062 A 
ATOM      3  C2  UNL d   1      -4.101   2.374  -3.981  0.00  0.00     0.162 A 
ATOM      4  C3  UNL d   1      -4.366   1.045  -3.649  0.00  0.00    -0.034 A 
ATOM      5  C4  UNL d   1      -3.522   0.386  -2.754  0.00  0.00     0.162 A 
ATOM      6  C5  UNL d   1      -2.431   1.047  -2.201  0.00  0.00     0.062 A 
ATOM      7  F   UNL d   1      -1.625   0.406  -1.342  0.00  0.00    -0.097 F 
ATOM      8  F1  UNL d   1      -3.748  -0.892  -2.413  0.00  0.00    -0.096 F 
ATOM      9  I   UNL d   1      -6.000   0.058  -4.479  0.00  0.00    -0.060 I 
ATOM     10  F2  UNL d   1      -4.890   3.038  -4.838  0.00  0.00    -0.096 F 
ATOM     11  F3  UNL d   1      -2.760   4.309  -3.750  0.00  0.00    -0.097 F 
ATOM     12  F4  UNL d   1      -1.121   3.004  -2.002  0.00  0.00    -0.092 F 
ENDROOT
TORSDOF 0
ENDMDL
