MODEL 1
REMARK minimizedAffinity 6.54923916
REMARK minimizedRMSD -1
REMARK  0 active torsions:
REMARK  status: ('A' for Active; 'I' for Inactive)
ROOT
ATOM      1  C   UNL d   1      -4.577   2.584   2.499  0.00  0.00     0.172 C 
ATOM      2  N   UNL d   1      -4.276   1.694   1.402  0.00  0.00    -0.070 N 
ATOM      3  C1  UNL d   1      -5.188   0.944   0.708  0.00  0.00    -0.004 A 
ATOM      4  C2  UNL d   1      -4.504   0.234  -0.256  0.00  0.00    -0.047 A 
ATOM      5  C3  UNL d   1      -3.134   0.568  -0.136  0.00  0.00    -0.047 A 
ATOM      6  C4  UNL d   1      -3.021   1.473   0.898  0.00  0.00    -0.004 A 
ENDROOT
TORSDOF 0
ENDMDL
