MODEL 1
REMARK minimizedAffinity -2.42842841
REMARK minimizedRMSD -1
REMARK  0 active torsions:
REMARK  status: ('A' for Active; 'I' for Inactive)
ROOT
ATOM      1  C   UNL d   1       1.680   5.998   5.898  0.00  0.00     0.172 C 
ATOM      2  N   UNL d   1       2.886   5.462   5.314  0.00  0.00    -0.070 N 
ATOM      3  C1  UNL d   1       3.902   4.851   5.999  0.00  0.00    -0.004 A 
ATOM      4  C2  UNL d   1       4.866   4.483   5.086  0.00  0.00    -0.047 A 
ATOM      5  C3  UNL d   1       4.415   4.888   3.807  0.00  0.00    -0.047 A 
ATOM      6  C4  UNL d   1       3.187   5.491   3.977  0.00  0.00    -0.004 A 
ENDROOT
TORSDOF 0
ENDMDL
