MODEL 1
REMARK minimizedAffinity 2.42061806
REMARK minimizedRMSD -1
REMARK  0 active torsions:
REMARK  status: ('A' for Active; 'I' for Inactive)
ROOT
ATOM      1  C   UNL d   1       3.704   0.723  -0.746  0.00  0.00     0.172 C 
ATOM      2  N   UNL d   1       3.220  -0.605  -1.040  0.00  0.00    -0.070 N 
ATOM      3  C1  UNL d   1       3.184  -1.185  -2.280  0.00  0.00    -0.004 A 
ATOM      4  C2  UNL d   1       2.657  -2.451  -2.138  0.00  0.00    -0.047 A 
ATOM      5  C3  UNL d   1       2.364  -2.637  -0.766  0.00  0.00    -0.047 A 
ATOM      6  C4  UNL d   1       2.723  -1.478  -0.109  0.00  0.00    -0.004 A 
ENDROOT
TORSDOF 0
ENDMDL
