MODEL 1
REMARK minimizedAffinity 0.143378645
REMARK minimizedRMSD -1
REMARK  0 active torsions:
REMARK  status: ('A' for Active; 'I' for Inactive)
ROOT
ATOM      1  C   UNL d   1       0.409  -2.439  -1.540  0.00  0.00     0.172 C 
ATOM      2  N   UNL d   1       1.505  -1.731  -0.921  0.00  0.00    -0.070 N 
ATOM      3  C1  UNL d   1       1.866  -0.435  -1.179  0.00  0.00    -0.004 A 
ATOM      4  C2  UNL d   1       2.954  -0.135  -0.388  0.00  0.00    -0.047 A 
ATOM      5  C3  UNL d   1       3.258  -1.290   0.371  0.00  0.00    -0.047 A 
ATOM      6  C4  UNL d   1       2.345  -2.263   0.021  0.00  0.00    -0.004 A 
ENDROOT
TORSDOF 0
ENDMDL
