MODEL 1
REMARK minimizedAffinity -0.42259264
REMARK minimizedRMSD -1
REMARK  0 active torsions:
REMARK  status: ('A' for Active; 'I' for Inactive)
ROOT
ATOM      1  C   UNL d   1      -1.292   1.384  -1.155  0.00  0.00     0.172 C 
ATOM      2  N   UNL d   1      -2.518   1.484  -0.399  0.00  0.00    -0.070 N 
ATOM      3  C1  UNL d   1      -3.676   2.073  -0.830  0.00  0.00    -0.004 A 
ATOM      4  C2  UNL d   1      -4.608   1.961   0.179  0.00  0.00    -0.047 A 
ATOM      5  C3  UNL d   1      -3.988   1.282   1.254  0.00  0.00    -0.047 A 
ATOM      6  C4  UNL d   1      -2.694   0.998   0.870  0.00  0.00    -0.004 A 
ENDROOT
TORSDOF 0
ENDMDL
