MODEL 1
REMARK minimizedAffinity -2.96211243
REMARK minimizedRMSD -1
REMARK  0 active torsions:
REMARK  status: ('A' for Active; 'I' for Inactive)
ROOT
ATOM      1  C   UNL d   1       2.675   5.930   5.758  0.00  0.00     0.172 C 
ATOM      2  N   UNL d   1       3.058   4.670   5.165  0.00  0.00    -0.070 N 
ATOM      3  C1  UNL d   1       3.044   3.454   5.794  0.00  0.00    -0.004 A 
ATOM      4  C2  UNL d   1       3.478   2.507   4.891  0.00  0.00    -0.047 A 
ATOM      5  C3  UNL d   1       3.764   3.178   3.679  0.00  0.00    -0.047 A 
ATOM      6  C4  UNL d   1       3.495   4.516   3.876  0.00  0.00    -0.004 A 
ENDROOT
TORSDOF 0
ENDMDL
