MODEL 1
REMARK minimizedAffinity -1.92884231
REMARK minimizedRMSD -1
REMARK  0 active torsions:
REMARK  status: ('A' for Active; 'I' for Inactive)
ROOT
ATOM      1  C   UNL d   1       5.479   5.261   5.943  0.00  0.00     0.172 C 
ATOM      2  N   UNL d   1       4.090   5.044   5.612  0.00  0.00    -0.070 N 
ATOM      3  C1  UNL d   1       3.110   6.000   5.614  0.00  0.00    -0.004 A 
ATOM      4  C2  UNL d   1       1.929   5.394   5.243  0.00  0.00    -0.047 A 
ATOM      5  C3  UNL d   1       2.209   4.027   5.011  0.00  0.00    -0.047 A 
ATOM      6  C4  UNL d   1       3.554   3.837   5.246  0.00  0.00    -0.004 A 
ENDROOT
TORSDOF 0
ENDMDL
