MODEL 1
REMARK minimizedAffinity -2.78874469
REMARK minimizedRMSD -1
REMARK  3 active torsions:
REMARK  status: ('A' for Active; 'I' for Inactive)
REMARK    1  A    between atoms: C3'_2  and  C2'_3 
REMARK    2  A    between atoms: C2'_3  and  C1'_4 
REMARK    3  A    between atoms: C1'_4  and  C1_5 
ROOT
ATOM      1  C1  N4B d   1       0.030  -0.460   0.074  0.00  0.00    -0.075 A 
ATOM      2  C2  N4B d   1      -1.177  -1.123   0.387  0.00  0.00     0.002 A 
ATOM      3  C3  N4B d   1      -1.192  -2.488   0.536  0.00  0.00     0.002 A 
ATOM      4  C4  N4B d   1      -0.022  -3.210   0.358  0.00  0.00    -0.004 A 
ATOM      5  C5  N4B d   1       1.145  -2.561   0.081  0.00  0.00     0.002 A 
ATOM      6  C6  N4B d   1       1.176  -1.188  -0.068  0.00  0.00     0.002 A 
ENDROOT
BRANCH   1   7
ATOM      7  C1' N4B d   1       0.080   1.021  -0.183  0.00  0.00     0.057 C 
BRANCH   7   8
ATOM      8  C2' N4B d   1       0.023   1.763   1.149  0.00  0.00     0.009 C 
BRANCH   8   9
ATOM      9  C3' N4B d   1       0.368   3.234   0.996  0.00  0.00     0.004 C 
ATOM     10  C4' N4B d   1       0.784   3.871   2.288  0.00  0.00     0.003 C 
ENDBRANCH   8   9
ENDBRANCH   7   8
ENDBRANCH   1   7
TORSDOF 3
ENDMDL
