MODEL 1
REMARK minimizedAffinity -2.68845749
REMARK minimizedRMSD -1
REMARK  3 active torsions:
REMARK  status: ('A' for Active; 'I' for Inactive)
REMARK    1  A    between atoms: C3'_2  and  C2'_3 
REMARK    2  A    between atoms: C2'_3  and  C1'_4 
REMARK    3  A    between atoms: C1'_4  and  C1_5 
ROOT
ATOM      1  C1  N4B d   1      -0.205  -1.039   1.272  0.00  0.00    -0.075 A 
ATOM      2  C2  N4B d   1      -1.238  -1.878   0.800  0.00  0.00     0.002 A 
ATOM      3  C3  N4B d   1      -0.935  -3.107   0.268  0.00  0.00     0.002 A 
ATOM      4  C4  N4B d   1       0.389  -3.509   0.180  0.00  0.00    -0.004 A 
ATOM      5  C5  N4B d   1       1.379  -2.704   0.661  0.00  0.00     0.002 A 
ATOM      6  C6  N4B d   1       1.089  -1.468   1.203  0.00  0.00     0.002 A 
ENDROOT
BRANCH   1   7
ATOM      7  C1' N4B d   1      -0.479   0.349   1.783  0.00  0.00     0.057 C 
BRANCH   7   8
ATOM      8  C2' N4B d   1      -0.844   1.252   0.609  0.00  0.00     0.009 C 
BRANCH   8   9
ATOM      9  C3' N4B d   1       0.360   1.562  -0.265  0.00  0.00     0.004 C 
ATOM     10  C4' N4B d   1       0.338   0.820  -1.568  0.00  0.00     0.003 C 
ENDBRANCH   8   9
ENDBRANCH   7   8
ENDBRANCH   1   7
TORSDOF 3
ENDMDL
