MODEL 1
REMARK minimizedAffinity -3.23094177
REMARK minimizedRMSD -1
REMARK  3 active torsions:
REMARK  status: ('A' for Active; 'I' for Inactive)
REMARK    1  A    between atoms: C3'_2  and  C2'_3 
REMARK    2  A    between atoms: C2'_3  and  C1'_4 
REMARK    3  A    between atoms: C1'_4  and  C1_5 
ROOT
ATOM      1  C1  N4B d   1       0.469  -0.286   0.468  0.00  0.00    -0.075 A 
ATOM      2  C2  N4B d   1       0.932  -1.614   0.597  0.00  0.00     0.002 A 
ATOM      3  C3  N4B d   1       0.043  -2.630   0.850  0.00  0.00     0.002 A 
ATOM      4  C4  N4B d   1      -1.305  -2.340   0.995  0.00  0.00    -0.004 A 
ATOM      5  C5  N4B d   1      -1.748  -1.059   0.844  0.00  0.00     0.002 A 
ATOM      6  C6  N4B d   1      -0.866  -0.028   0.586  0.00  0.00     0.002 A 
ENDROOT
BRANCH   1   7
ATOM      7  C1' N4B d   1       1.414   0.869   0.277  0.00  0.00     0.057 C 
BRANCH   7   8
ATOM      8  C2' N4B d   1       0.608   2.135   0.000  0.00  0.00     0.009 C 
BRANCH   8   9
ATOM      9  C3' N4B d   1       1.223   3.356   0.661  0.00  0.00     0.004 C 
ATOM     10  C4' N4B d   1       2.715   3.405   0.517  0.00  0.00     0.003 C 
ENDBRANCH   8   9
ENDBRANCH   7   8
ENDBRANCH   1   7
TORSDOF 3
ENDMDL
