MODEL 1
REMARK minimizedAffinity -4.53863239
REMARK minimizedRMSD -1
REMARK  3 active torsions:
REMARK  status: ('A' for Active; 'I' for Inactive)
REMARK    1  A    between atoms: C3'_2  and  C2'_3 
REMARK    2  A    between atoms: C2'_3  and  C1'_4 
REMARK    3  A    between atoms: C1'_4  and  C1_5 
ROOT
ATOM      1  C1  N4B d   1       0.233  -0.621  -0.648  0.00  0.00    -0.075 A 
ATOM      2  C2  N4B d   1       0.021  -1.831   0.050  0.00  0.00     0.002 A 
ATOM      3  C3  N4B d   1       0.123  -3.031  -0.610  0.00  0.00     0.002 A 
ATOM      4  C4  N4B d   1       0.418  -3.046  -1.965  0.00  0.00    -0.004 A 
ATOM      5  C5  N4B d   1       0.647  -1.874  -2.626  0.00  0.00     0.002 A 
ATOM      6  C6  N4B d   1       0.551  -0.661  -1.974  0.00  0.00     0.002 A 
ENDROOT
BRANCH   1   7
ATOM      7  C1' N4B d   1       0.048   0.718   0.011  0.00  0.00     0.057 C 
BRANCH   7   8
ATOM      8  C2' N4B d   1       0.098   1.811  -1.053  0.00  0.00     0.009 C 
BRANCH   8   9
ATOM      9  C3' N4B d   1       0.844   3.042  -0.569  0.00  0.00     0.004 C 
ATOM     10  C4' N4B d   1       0.353   3.533   0.761  0.00  0.00     0.003 C 
ENDBRANCH   8   9
ENDBRANCH   7   8
ENDBRANCH   1   7
TORSDOF 3
ENDMDL
