MODEL 1
REMARK minimizedAffinity -3.74942493
REMARK minimizedRMSD -1
REMARK  3 active torsions:
REMARK  status: ('A' for Active; 'I' for Inactive)
REMARK    1  A    between atoms: C3'_2  and  C2'_3 
REMARK    2  A    between atoms: C2'_3  and  C1'_4 
REMARK    3  A    between atoms: C1'_4  and  C1_5 
ROOT
ATOM      1  C1  N4B d   1      -0.073   0.081  -0.182  0.00  0.00    -0.075 A 
ATOM      2  C2  N4B d   1       0.841  -0.991  -0.271  0.00  0.00     0.002 A 
ATOM      3  C3  N4B d   1       0.563  -2.184   0.350  0.00  0.00     0.002 A 
ATOM      4  C4  N4B d   1      -0.609  -2.321   1.078  0.00  0.00    -0.004 A 
ATOM      5  C5  N4B d   1      -1.499  -1.289   1.138  0.00  0.00     0.002 A 
ATOM      6  C6  N4B d   1      -1.235  -0.086   0.515  0.00  0.00     0.002 A 
ENDROOT
BRANCH   1   7
ATOM      7  C1' N4B d   1       0.227   1.432  -0.772  0.00  0.00     0.057 C 
BRANCH   7   8
ATOM      8  C2' N4B d   1       1.627   1.864  -0.348  0.00  0.00     0.009 C 
BRANCH   8   9
ATOM      9  C3' N4B d   1       1.613   3.193   0.387  0.00  0.00     0.004 C 
ATOM     10  C4' N4B d   1       0.226   3.709   0.630  0.00  0.00     0.003 C 
ENDBRANCH   8   9
ENDBRANCH   7   8
ENDBRANCH   1   7
TORSDOF 3
ENDMDL
