MODEL 1
REMARK minimizedAffinity -3.92576361
REMARK minimizedRMSD -1
REMARK  3 active torsions:
REMARK  status: ('A' for Active; 'I' for Inactive)
REMARK    1  A    between atoms: C3'_2  and  C2'_3 
REMARK    2  A    between atoms: C2'_3  and  C1'_4 
REMARK    3  A    between atoms: C1'_4  and  C1_5 
ROOT
ATOM      1  C1  N4B d   1      -0.211   0.090   0.154  0.00  0.00    -0.075 A 
ATOM      2  C2  N4B d   1      -1.285  -0.195   1.026  0.00  0.00     0.002 A 
ATOM      3  C3  N4B d   1      -1.568  -1.496   1.364  0.00  0.00     0.002 A 
ATOM      4  C4  N4B d   1      -0.805  -2.525   0.831  0.00  0.00    -0.004 A 
ATOM      5  C5  N4B d   1       0.246  -2.239   0.010  0.00  0.00     0.002 A 
ATOM      6  C6  N4B d   1       0.544  -0.936  -0.336  0.00  0.00     0.002 A 
ENDROOT
BRANCH   1   7
ATOM      7  C1' N4B d   1       0.083   1.489  -0.312  0.00  0.00     0.057 C 
BRANCH   7   8
ATOM      8  C2' N4B d   1       1.417   1.943   0.272  0.00  0.00     0.009 C 
BRANCH   8   9
ATOM      9  C3' N4B d   1       1.514   3.456   0.362  0.00  0.00     0.004 C 
ATOM     10  C4' N4B d   1       2.025   3.928   1.690  0.00  0.00     0.003 C 
ENDBRANCH   8   9
ENDBRANCH   7   8
ENDBRANCH   1   7
TORSDOF 3
ENDMDL
