MODEL 1
REMARK minimizedAffinity -5.81690311
REMARK minimizedRMSD -1
REMARK  3 active torsions:
REMARK  status: ('A' for Active; 'I' for Inactive)
REMARK    1  A    between atoms: C3'_2  and  C2'_3 
REMARK    2  A    between atoms: C2'_3  and  C1'_4 
REMARK    3  A    between atoms: C1'_4  and  C1_5 
ROOT
ATOM      1  C1  N4B d   1      -0.133  -1.373  -0.529  0.00  0.00    -0.075 A 
ATOM      2  C2  N4B d   1      -0.106  -1.443  -1.939  0.00  0.00     0.002 A 
ATOM      3  C3  N4B d   1       0.235  -2.619  -2.562  0.00  0.00     0.002 A 
ATOM      4  C4  N4B d   1       0.571  -3.727  -1.798  0.00  0.00    -0.004 A 
ATOM      5  C5  N4B d   1       0.518  -3.658  -0.437  0.00  0.00     0.002 A 
ATOM      6  C6  N4B d   1       0.173  -2.484   0.202  0.00  0.00     0.002 A 
ENDROOT
BRANCH   1   7
ATOM      7  C1' N4B d   1      -0.416  -0.086   0.197  0.00  0.00     0.057 C 
BRANCH   7   8
ATOM      8  C2' N4B d   1      -0.333   1.075  -0.790  0.00  0.00     0.009 C 
BRANCH   8   9
ATOM      9  C3' N4B d   1       0.063   2.373  -0.109  0.00  0.00     0.004 C 
ATOM     10  C4' N4B d   1       1.549   2.556  -0.024  0.00  0.00     0.003 C 
ENDBRANCH   8   9
ENDBRANCH   7   8
ENDBRANCH   1   7
TORSDOF 3
ENDMDL
