MODEL 1
REMARK minimizedAffinity -0.623739123
REMARK minimizedRMSD -1
REMARK  3 active torsions:
REMARK  status: ('A' for Active; 'I' for Inactive)
REMARK    1  A    between atoms: C3'_2  and  C2'_3 
REMARK    2  A    between atoms: C2'_3  and  C1'_4 
REMARK    3  A    between atoms: C1'_4  and  C1_5 
ROOT
ATOM      1  C1  N4B d   1       0.043  -0.500   0.147  0.00  0.00    -0.075 A 
ATOM      2  C2  N4B d   1      -1.208  -1.104   0.405  0.00  0.00     0.002 A 
ATOM      3  C3  N4B d   1      -1.295  -2.466   0.551  0.00  0.00     0.002 A 
ATOM      4  C4  N4B d   1      -0.154  -3.244   0.425  0.00  0.00    -0.004 A 
ATOM      5  C5  N4B d   1       1.054  -2.651   0.201  0.00  0.00     0.002 A 
ATOM      6  C6  N4B d   1       1.157  -1.283   0.056  0.00  0.00     0.002 A 
ENDROOT
BRANCH   1   7
ATOM      7  C1' N4B d   1       0.175   0.977  -0.105  0.00  0.00     0.057 C 
BRANCH   7   8
ATOM      8  C2' N4B d   1       1.513   1.461   0.446  0.00  0.00     0.009 C 
BRANCH   8   9
ATOM      9  C3' N4B d   1       1.637   2.974   0.387  0.00  0.00     0.004 C 
ATOM     10  C4' N4B d   1       1.461   3.624   1.727  0.00  0.00     0.003 C 
ENDBRANCH   8   9
ENDBRANCH   7   8
ENDBRANCH   1   7
TORSDOF 3
ENDMDL
