MODEL 1
REMARK minimizedAffinity -6.39530325
REMARK minimizedRMSD -1
REMARK  3 active torsions:
REMARK  status: ('A' for Active; 'I' for Inactive)
REMARK    1  A    between atoms: C3'_2  and  C2'_3 
REMARK    2  A    between atoms: C2'_3  and  C1'_4 
REMARK    3  A    between atoms: C1'_4  and  C1_5 
ROOT
ATOM      1  C1  N4B d   1       0.011  -0.464  -0.670  0.00  0.00    -0.075 A 
ATOM      2  C2  N4B d   1       0.250  -1.292  -1.789  0.00  0.00     0.002 A 
ATOM      3  C3  N4B d   1       0.189  -2.658  -1.659  0.00  0.00     0.002 A 
ATOM      4  C4  N4B d   1      -0.090  -3.216  -0.420  0.00  0.00    -0.004 A 
ATOM      5  C5  N4B d   1      -0.345  -2.409   0.650  0.00  0.00     0.002 A 
ATOM      6  C6  N4B d   1      -0.291  -1.035   0.532  0.00  0.00     0.002 A 
ENDROOT
BRANCH   1   7
ATOM      7  C1' N4B d   1       0.152   1.032  -0.745  0.00  0.00     0.057 C 
BRANCH   7   8
ATOM      8  C2' N4B d   1       0.207   1.600   0.670  0.00  0.00     0.009 C 
BRANCH   8   9
ATOM      9  C3' N4B d   1       0.520   3.087   0.673  0.00  0.00     0.004 C 
ATOM     10  C4' N4B d   1       1.974   3.374   0.450  0.00  0.00     0.003 C 
ENDBRANCH   8   9
ENDBRANCH   7   8
ENDBRANCH   1   7
TORSDOF 3
ENDMDL
