MODEL 1
REMARK minimizedAffinity -1.13537502
REMARK minimizedRMSD -1
REMARK  3 active torsions:
REMARK  status: ('A' for Active; 'I' for Inactive)
REMARK    1  A    between atoms: C3'_2  and  C2'_3 
REMARK    2  A    between atoms: C2'_3  and  C1'_4 
REMARK    3  A    between atoms: C1'_4  and  C1_5 
ROOT
ATOM      1  C1  N4B d   1       0.062  -0.480   0.156  0.00  0.00    -0.075 A 
ATOM      2  C2  N4B d   1      -1.088  -1.197   0.555  0.00  0.00     0.002 A 
ATOM      3  C3  N4B d   1      -1.038  -2.565   0.673  0.00  0.00     0.002 A 
ATOM      4  C4  N4B d   1       0.140  -3.235   0.379  0.00  0.00    -0.004 A 
ATOM      5  C5  N4B d   1       1.253  -2.533   0.019  0.00  0.00     0.002 A 
ATOM      6  C6  N4B d   1       1.218  -1.159  -0.099  0.00  0.00     0.002 A 
ENDROOT
BRANCH   1   7
ATOM      7  C1' N4B d   1       0.032   1.007  -0.069  0.00  0.00     0.057 C 
BRANCH   7   8
ATOM      8  C2' N4B d   1       1.434   1.487  -0.430  0.00  0.00     0.009 C 
BRANCH   8   9
ATOM      9  C3' N4B d   1       2.092   2.233   0.718  0.00  0.00     0.004 C 
ATOM     10  C4' N4B d   1       1.690   3.677   0.778  0.00  0.00     0.003 C 
ENDBRANCH   8   9
ENDBRANCH   7   8
ENDBRANCH   1   7
TORSDOF 3
ENDMDL
