MODEL 1
REMARK minimizedAffinity -5.50887156
REMARK minimizedRMSD -1
REMARK  3 active torsions:
REMARK  status: ('A' for Active; 'I' for Inactive)
REMARK    1  A    between atoms: C3'_2  and  C2'_3 
REMARK    2  A    between atoms: C2'_3  and  C1'_4 
REMARK    3  A    between atoms: C1'_4  and  C1_5 
ROOT
ATOM      1  C1  N4B d   1      -0.556  -0.580   1.096  0.00  0.00    -0.075 A 
ATOM      2  C2  N4B d   1      -1.231  -1.818   1.183  0.00  0.00     0.002 A 
ATOM      3  C3  N4B d   1      -0.712  -2.927   0.560  0.00  0.00     0.002 A 
ATOM      4  C4  N4B d   1       0.464  -2.819  -0.167  0.00  0.00    -0.004 A 
ATOM      5  C5  N4B d   1       1.122  -1.626  -0.224  0.00  0.00     0.002 A 
ATOM      6  C6  N4B d   1       0.615  -0.504   0.400  0.00  0.00     0.002 A 
ENDROOT
BRANCH   1   7
ATOM      7  C1' N4B d   1      -1.128   0.679   1.688  0.00  0.00     0.057 C 
BRANCH   7   8
ATOM      8  C2' N4B d   1      -2.640   0.525   1.828  0.00  0.00     0.009 C 
BRANCH   8   9
ATOM      9  C3' N4B d   1      -3.092   0.639   3.273  0.00  0.00     0.004 C 
ATOM     10  C4' N4B d   1      -4.456   1.245   3.409  0.00  0.00     0.003 C 
ENDBRANCH   8   9
ENDBRANCH   7   8
ENDBRANCH   1   7
TORSDOF 3
ENDMDL
