MODEL 1
REMARK minimizedAffinity -2.62009048
REMARK minimizedRMSD -1
REMARK  0 active torsions:
REMARK  status: ('A' for Active; 'I' for Inactive)
ROOT
ATOM      1  N1  IND d   1       1.471   0.365  -0.379  0.00  0.00    -0.196 N 
ATOM      2  C2  IND d   1       1.060  -0.260  -1.523  0.00  0.00     0.054 A 
ATOM      3  C3  IND d   1      -0.240  -0.620  -1.422  0.00  0.00    -0.031 A 
ATOM      4  C4  IND d   1      -1.911  -0.194   0.489  0.00  0.00     0.051 A 
ATOM      5  C5  IND d   1      -1.991   0.307   1.758  0.00  0.00    -0.031 A 
ATOM      6  C6  IND d   1      -0.900   0.867   2.392  0.00  0.00     0.015 A 
ATOM      7  C7  IND d   1       0.314   0.957   1.772  0.00  0.00    -0.016 A 
ATOM      8  C8  IND d   1       0.401   0.443   0.486  0.00  0.00    -0.047 A 
ATOM      9  C9  IND d   1      -0.691  -0.164  -0.146  0.00  0.00    -0.096 A 
ATOM     10  HN1 IND d   1       2.264   0.660  -0.225  0.00  0.00     0.298 HD
ENDROOT
TORSDOF 0
ENDMDL
