MODEL 1
REMARK minimizedAffinity -0.705492377
REMARK minimizedRMSD -1
REMARK  0 active torsions:
REMARK  status: ('A' for Active; 'I' for Inactive)
ROOT
ATOM      1  N1  IND d   1       2.087  -0.788   1.069  0.00  0.00    -0.196 N 
ATOM      2  C2  IND d   1       1.711  -0.781  -0.245  0.00  0.00     0.054 A 
ATOM      3  C3  IND d   1       0.438  -0.342  -0.367  0.00  0.00    -0.031 A 
ATOM      4  C4  IND d   1      -1.178   0.514   1.446  0.00  0.00     0.051 A 
ATOM      5  C5  IND d   1      -1.297   0.663   2.799  0.00  0.00    -0.031 A 
ATOM      6  C6  IND d   1      -0.273   0.331   3.662  0.00  0.00     0.015 A 
ATOM      7  C7  IND d   1       0.918  -0.153   3.201  0.00  0.00    -0.016 A 
ATOM      8  C8  IND d   1       1.041  -0.312   1.828  0.00  0.00    -0.047 A 
ATOM      9  C9  IND d   1      -0.010  -0.017   0.950  0.00  0.00    -0.096 A 
ATOM     10  HN1 IND d   1       2.850  -1.047   1.371  0.00  0.00     0.298 HD
ENDROOT
TORSDOF 0
ENDMDL
