MODEL 1
REMARK minimizedAffinity -3.60427761
REMARK minimizedRMSD -1
REMARK  0 active torsions:
REMARK  status: ('A' for Active; 'I' for Inactive)
ROOT
ATOM      1  N1  IND d   1       2.220  -1.240   0.746  0.00  0.00    -0.196 N 
ATOM      2  C2  IND d   1       1.691  -1.241  -0.515  0.00  0.00     0.054 A 
ATOM      3  C3  IND d   1       0.448  -0.708  -0.504  0.00  0.00    -0.031 A 
ATOM      4  C4  IND d   1      -0.873   0.320   1.451  0.00  0.00     0.051 A 
ATOM      5  C5  IND d   1      -0.820   0.516   2.802  0.00  0.00    -0.031 A 
ATOM      6  C6  IND d   1       0.273   0.132   3.552  0.00  0.00     0.015 A 
ATOM      7  C7  IND d   1       1.363  -0.456   2.974  0.00  0.00    -0.016 A 
ATOM      8  C8  IND d   1       1.309  -0.663   1.603  0.00  0.00    -0.047 A 
ATOM      9  C9  IND d   1       0.185  -0.313   0.843  0.00  0.00    -0.096 A 
ATOM     10  HN1 IND d   1       2.992  -1.548   0.966  0.00  0.00     0.298 HD
ENDROOT
TORSDOF 0
ENDMDL
