MODEL 1
REMARK minimizedAffinity -3.34923983
REMARK minimizedRMSD -1
REMARK  0 active torsions:
REMARK  status: ('A' for Active; 'I' for Inactive)
ROOT
ATOM      1  N1  IND d   1       1.327  -0.180   0.608  0.00  0.00    -0.196 N 
ATOM      2  C2  IND d   1       0.791  -0.609  -0.574  0.00  0.00     0.054 A 
ATOM      3  C3  IND d   1      -0.556  -0.497  -0.548  0.00  0.00    -0.031 A 
ATOM      4  C4  IND d   1      -2.082   0.458   1.293  0.00  0.00     0.051 A 
ATOM      5  C5  IND d   1      -2.056   0.940   2.571  0.00  0.00    -0.031 A 
ATOM      6  C6  IND d   1      -0.876   1.078   3.274  0.00  0.00     0.015 A 
ATOM      7  C7  IND d   1       0.327   0.749   2.718  0.00  0.00    -0.016 A 
ATOM      8  C8  IND d   1       0.304   0.253   1.422  0.00  0.00    -0.047 A 
ATOM      9  C9  IND d   1      -0.894   0.071   0.719  0.00  0.00    -0.096 A 
ATOM     10  HN1 IND d   1       2.163  -0.181   0.809  0.00  0.00     0.298 HD
ENDROOT
TORSDOF 0
ENDMDL
