MODEL 1
REMARK minimizedAffinity -3.55652356
REMARK minimizedRMSD -1
REMARK  0 active torsions:
REMARK  status: ('A' for Active; 'I' for Inactive)
ROOT
ATOM      1  N1  IND d   1      -0.260  -0.360  -0.628  0.00  0.00    -0.196 N 
ATOM      2  C2  IND d   1       0.980   0.109  -0.961  0.00  0.00     0.054 A 
ATOM      3  C3  IND d   1       1.479   0.871   0.038  0.00  0.00    -0.031 A 
ATOM      4  C4  IND d   1       0.476   1.397   2.350  0.00  0.00     0.051 A 
ATOM      5  C5  IND d   1      -0.654   1.222   3.099  0.00  0.00    -0.031 A 
ATOM      6  C6  IND d   1      -1.730   0.494   2.636  0.00  0.00     0.015 A 
ATOM      7  C7  IND d   1      -1.713  -0.099   1.405  0.00  0.00    -0.016 A 
ATOM      8  C8  IND d   1      -0.570   0.082   0.639  0.00  0.00    -0.047 A 
ATOM      9  C9  IND d   1       0.508   0.856   1.086  0.00  0.00    -0.096 A 
ATOM     10  HN1 IND d   1      -0.761  -0.850  -1.126  0.00  0.00     0.298 HD
ENDROOT
TORSDOF 0
ENDMDL
