MODEL 1
REMARK minimizedAffinity -3.66087866
REMARK minimizedRMSD -1
REMARK  0 active torsions:
REMARK  status: ('A' for Active; 'I' for Inactive)
ROOT
ATOM      1  N1  IND d   1       1.810  -0.904   1.892  0.00  0.00    -0.196 N 
ATOM      2  C2  IND d   1       1.726  -0.722   3.244  0.00  0.00     0.054 A 
ATOM      3  C3  IND d   1       0.527  -0.191   3.574  0.00  0.00    -0.031 A 
ATOM      4  C4  IND d   1      -1.485   0.365   2.067  0.00  0.00     0.051 A 
ATOM      5  C5  IND d   1      -1.870   0.406   0.756  0.00  0.00    -0.031 A 
ATOM      6  C6  IND d   1      -1.033   0.002  -0.263  0.00  0.00     0.015 A 
ATOM      7  C7  IND d   1       0.223  -0.471  -0.008  0.00  0.00    -0.016 A 
ATOM      8  C8  IND d   1       0.621  -0.508   1.321  0.00  0.00    -0.047 A 
ATOM      9  C9  IND d   1      -0.209  -0.059   2.357  0.00  0.00    -0.096 A 
ATOM     10  HN1 IND d   1       2.492  -1.213   1.469  0.00  0.00     0.298 HD
ENDROOT
TORSDOF 0
ENDMDL
