MODEL 1
REMARK minimizedAffinity -1.50664234
REMARK minimizedRMSD -1
REMARK  0 active torsions:
REMARK  status: ('A' for Active; 'I' for Inactive)
ROOT
ATOM      1  N1  IND d   1      -1.526   0.573  -5.462  0.00  0.00    -0.196 N 
ATOM      2  C2  IND d   1      -2.431  -0.397  -5.135  0.00  0.00     0.054 A 
ATOM      3  C3  IND d   1      -1.964  -1.153  -4.116  0.00  0.00    -0.031 A 
ATOM      4  C4  IND d   1       0.215  -0.912  -2.767  0.00  0.00     0.051 A 
ATOM      5  C5  IND d   1       1.378  -0.196  -2.718  0.00  0.00    -0.031 A 
ATOM      6  C6  IND d   1       1.637   0.835  -3.598  0.00  0.00     0.015 A 
ATOM      7  C7  IND d   1       0.733   1.198  -4.555  0.00  0.00    -0.016 A 
ATOM      8  C8  IND d   1      -0.446   0.469  -4.612  0.00  0.00    -0.047 A 
ATOM      9  C9  IND d   1      -0.696  -0.606  -3.750  0.00  0.00    -0.096 A 
ATOM     10  HN1 IND d   1      -1.615   1.152  -6.092  0.00  0.00     0.298 HD
ENDROOT
TORSDOF 0
ENDMDL
