MODEL 1
REMARK minimizedAffinity -5.27127552
REMARK minimizedRMSD -1
REMARK  0 active torsions:
REMARK  status: ('A' for Active; 'I' for Inactive)
ROOT
ATOM      1  N1  IND d   1      -1.640   0.077   0.731  0.00  0.00    -0.196 N 
ATOM      2  C2  IND d   1      -1.760   0.908   1.810  0.00  0.00     0.054 A 
ATOM      3  C3  IND d   1      -0.604   0.940   2.511  0.00  0.00    -0.031 A 
ATOM      4  C4  IND d   1       1.643  -0.212   2.011  0.00  0.00     0.051 A 
ATOM      5  C5  IND d   1       2.231  -1.101   1.156  0.00  0.00    -0.031 A 
ATOM      6  C6  IND d   1       1.546  -1.653   0.093  0.00  0.00     0.015 A 
ATOM      7  C7  IND d   1       0.245  -1.324  -0.163  0.00  0.00    -0.016 A 
ATOM      8  C8  IND d   1      -0.358  -0.427   0.707  0.00  0.00    -0.047 A 
ATOM      9  C9  IND d   1       0.320   0.103   1.813  0.00  0.00    -0.096 A 
ATOM     10  HN1 IND d   1      -2.260  -0.101   0.163  0.00  0.00     0.298 HD
ENDROOT
TORSDOF 0
ENDMDL
