MODEL 1
REMARK minimizedAffinity 6.0768218
REMARK minimizedRMSD -1
REMARK  1 active torsions:
REMARK  status: ('A' for Active; 'I' for Inactive)
REMARK    1  A    between atoms: C1_2  and  C2_3 
ROOT
ATOM      1  C2  UNL d   1       1.280  -2.861   1.449  0.00  0.00    -0.076 A 
ATOM      2  C3  UNL d   1       1.486  -4.252   1.472  0.00  0.00     0.004 A 
ATOM      3  C4  UNL d   1       2.133  -4.863   2.545  0.00  0.00    -0.003 A 
ATOM      4  C5  UNL d   1       2.584  -4.094   3.612  0.00  0.00     0.000 A 
ATOM      5  C6  UNL d   1       2.372  -2.716   3.614  0.00  0.00     0.000 A 
ATOM      6  C7  UNL d   1       1.707  -2.086   2.548  0.00  0.00    -0.073 A 
ATOM      7  C8  UNL d   1       1.511  -0.595   2.599  0.00  0.00     0.078 C 
ENDROOT
BRANCH   1   8
ATOM      8  C1  UNL d   1       0.596  -2.251   0.246  0.00  0.00     0.053 C 
ATOM      9  C   UNL d   1      -0.869  -2.645   0.147  0.00  0.00     0.018 C 
ENDBRANCH   1   8
TORSDOF 1
ENDMDL
