MODEL 1
REMARK minimizedAffinity 1.62607598
REMARK minimizedRMSD -1
REMARK  1 active torsions:
REMARK  status: ('A' for Active; 'I' for Inactive)
REMARK    1  A    between atoms: C1_2  and  C2_3 
ROOT
ATOM      1  C2  UNL d   1       2.735  -2.032   3.417  0.00  0.00    -0.076 A 
ATOM      2  C3  UNL d   1       1.406  -2.489   3.451  0.00  0.00     0.004 A 
ATOM      3  C4  UNL d   1       1.098  -3.769   3.910  0.00  0.00    -0.003 A 
ATOM      4  C5  UNL d   1       2.115  -4.612   4.344  0.00  0.00     0.000 A 
ATOM      5  C6  UNL d   1       3.437  -4.169   4.335  0.00  0.00     0.000 A 
ATOM      6  C7  UNL d   1       3.763  -2.876   3.890  0.00  0.00    -0.073 A 
ATOM      7  C8  UNL d   1       5.206  -2.453   3.896  0.00  0.00     0.078 C 
ENDROOT
BRANCH   1   8
ATOM      8  C1  UNL d   1       3.011  -0.645   2.883  0.00  0.00     0.053 C 
ATOM      9  C   UNL d   1       1.919  -0.154   1.944  0.00  0.00     0.018 C 
ENDBRANCH   1   8
TORSDOF 1
ENDMDL
