MODEL 1
REMARK minimizedAffinity -4.69432878
REMARK minimizedRMSD -1
REMARK  1 active torsions:
REMARK  status: ('A' for Active; 'I' for Inactive)
REMARK    1  A    between atoms: C1_2  and  C2_3 
ROOT
ATOM      1  C2  UNL d   1       0.952  -2.880   1.525  0.00  0.00    -0.076 A 
ATOM      2  C3  UNL d   1       0.976  -1.807   2.433  0.00  0.00     0.004 A 
ATOM      3  C4  UNL d   1       1.497  -1.965   3.716  0.00  0.00    -0.003 A 
ATOM      4  C5  UNL d   1       2.003  -3.198   4.112  0.00  0.00     0.000 A 
ATOM      5  C6  UNL d   1       2.004  -4.269   3.218  0.00  0.00     0.000 A 
ATOM      6  C7  UNL d   1       1.497  -4.122   1.915  0.00  0.00    -0.073 A 
ATOM      7  C8  UNL d   1       1.517  -5.312   0.995  0.00  0.00     0.078 C 
ENDROOT
BRANCH   1   8
ATOM      8  C1  UNL d   1       0.350  -2.657   0.156  0.00  0.00     0.053 C 
ATOM      9  C   UNL d   1      -1.142  -2.368   0.216  0.00  0.00     0.018 C 
ENDBRANCH   1   8
TORSDOF 1
ENDMDL
