MODEL 1
REMARK minimizedAffinity 5.79861069
REMARK minimizedRMSD -1
REMARK  1 active torsions:
REMARK  status: ('A' for Active; 'I' for Inactive)
REMARK    1  A    between atoms: C1_2  and  C2_3 
ROOT
ATOM      1  C2  UNL d   1       1.313  -2.536   2.122  0.00  0.00    -0.076 A 
ATOM      2  C3  UNL d   1       1.426  -3.876   1.714  0.00  0.00     0.004 A 
ATOM      3  C4  UNL d   1       2.135  -4.801   2.478  0.00  0.00    -0.003 A 
ATOM      4  C5  UNL d   1       2.742  -4.400   3.664  0.00  0.00     0.000 A 
ATOM      5  C6  UNL d   1       2.625  -3.079   4.092  0.00  0.00     0.000 A 
ATOM      6  C7  UNL d   1       1.900  -2.137   3.342  0.00  0.00    -0.073 A 
ATOM      7  C8  UNL d   1       1.812  -0.724   3.848  0.00  0.00     0.078 C 
ENDROOT
BRANCH   1   8
ATOM      8  C1  UNL d   1       0.554  -1.571   1.238  0.00  0.00     0.053 C 
ATOM      9  C   UNL d   1      -0.820  -2.095   0.850  0.00  0.00     0.018 C 
ENDBRANCH   1   8
TORSDOF 1
ENDMDL
