MODEL 1
REMARK minimizedAffinity 4.03463078
REMARK minimizedRMSD -1
REMARK  1 active torsions:
REMARK  status: ('A' for Active; 'I' for Inactive)
REMARK    1  A    between atoms: C1_2  and  C2_3 
ROOT
ATOM      1  C2  UNL d   1      -1.679  -1.842  -1.298  0.00  0.00    -0.076 A 
ATOM      2  C3  UNL d   1      -1.727  -0.558  -1.870  0.00  0.00     0.004 A 
ATOM      3  C4  UNL d   1      -2.793  -0.173  -2.681  0.00  0.00    -0.003 A 
ATOM      4  C5  UNL d   1      -3.829  -1.066  -2.933  0.00  0.00     0.000 A 
ATOM      5  C6  UNL d   1      -3.807  -2.337  -2.360  0.00  0.00     0.000 A 
ATOM      6  C7  UNL d   1      -2.747  -2.735  -1.526  0.00  0.00    -0.073 A 
ATOM      7  C8  UNL d   1      -2.772  -4.119  -0.939  0.00  0.00     0.078 C 
ENDROOT
BRANCH   1   8
ATOM      8  C1  UNL d   1      -0.484  -2.212  -0.449  0.00  0.00     0.053 C 
ATOM      9  C   UNL d   1       0.816  -2.205  -1.238  0.00  0.00     0.018 C 
ENDBRANCH   1   8
TORSDOF 1
ENDMDL
