MODEL 1
REMARK minimizedAffinity -2.57815003
REMARK minimizedRMSD -1
REMARK  0 active torsions:
REMARK  status: ('A' for Active; 'I' for Inactive)
ROOT
ATOM      1  C4' PXY d   1      -1.828   1.056  -0.451  0.00  0.00     0.077 C 
ATOM      2  C1' PXY d   1       3.025  -1.612   1.206  0.00  0.00     0.077 C 
ATOM      3  C1  PXY d   1       1.753  -0.905   0.782  0.00  0.00    -0.082 A 
ATOM      4  C2  PXY d   1       0.887  -1.529   0.000  0.00  0.00     0.003 A 
ATOM      5  C3  PXY d   1      -0.253  -0.892  -0.419  0.00  0.00     0.003 A 
ATOM      6  C4  PXY d   1      -0.535   0.377   0.010  0.00  0.00    -0.082 A 
ATOM      7  C5  PXY d   1       0.338   1.016   0.816  0.00  0.00     0.003 A 
ATOM      8  C6  PXY d   1       1.510   0.368   1.197  0.00  0.00     0.003 A 
ENDROOT
TORSDOF 0
ENDMDL
