MODEL 1
REMARK minimizedAffinity -2.25505662
REMARK minimizedRMSD -1
REMARK  0 active torsions:
REMARK  status: ('A' for Active; 'I' for Inactive)
ROOT
ATOM      1  C4' PXY d   1      -1.283  -1.154  -2.155  0.00  0.00     0.077 C 
ATOM      2  C1' PXY d   1       3.109  -1.547   1.582  0.00  0.00     0.077 C 
ATOM      3  C1  PXY d   1       1.949  -1.441   0.612  0.00  0.00    -0.082 A 
ATOM      4  C2  PXY d   1       1.995  -2.097  -0.536  0.00  0.00     0.003 A 
ATOM      5  C3  PXY d   1       0.969  -1.987  -1.439  0.00  0.00     0.003 A 
ATOM      6  C4  PXY d   1      -0.139  -1.239  -1.141  0.00  0.00    -0.082 A 
ATOM      7  C5  PXY d   1      -0.198  -0.576   0.033  0.00  0.00     0.003 A 
ATOM      8  C6  PXY d   1       0.872  -0.668   0.918  0.00  0.00     0.003 A 
ENDROOT
TORSDOF 0
ENDMDL
