MODEL 1
REMARK minimizedAffinity -3.75608397
REMARK minimizedRMSD -1
REMARK  0 active torsions:
REMARK  status: ('A' for Active; 'I' for Inactive)
ROOT
ATOM      1  C4' PXY d   1      -2.469   1.038   0.169  0.00  0.00     0.077 C 
ATOM      2  C1' PXY d   1       2.680  -1.536  -0.357  0.00  0.00     0.077 C 
ATOM      3  C1  PXY d   1       1.335  -0.850  -0.219  0.00  0.00    -0.082 A 
ATOM      4  C2  PXY d   1       0.319  -1.503   0.320  0.00  0.00     0.003 A 
ATOM      5  C3  PXY d   1      -0.912  -0.908   0.423  0.00  0.00     0.003 A 
ATOM      6  C4  PXY d   1      -1.091   0.387   0.018  0.00  0.00    -0.082 A 
ATOM      7  C5  PXY d   1      -0.057   1.064  -0.523  0.00  0.00     0.003 A 
ATOM      8  C6  PXY d   1       1.174   0.429  -0.657  0.00  0.00     0.003 A 
ENDROOT
TORSDOF 0
ENDMDL
