MODEL 1
REMARK minimizedAffinity -4.79517555
REMARK minimizedRMSD -1
REMARK  0 active torsions:
REMARK  status: ('A' for Active; 'I' for Inactive)
ROOT
ATOM      1  C4' PXY d   1      -1.855   0.783  -0.317  0.00  0.00     0.077 C 
ATOM      2  C1' PXY d   1       3.731  -0.668   0.009  0.00  0.00     0.077 C 
ATOM      3  C1  PXY d   1       2.268  -0.276  -0.070  0.00  0.00    -0.082 A 
ATOM      4  C2  PXY d   1       1.347  -1.215  -0.216  0.00  0.00     0.003 A 
ATOM      5  C3  PXY d   1       0.022  -0.876  -0.321  0.00  0.00     0.003 A 
ATOM      6  C4  PXY d   1      -0.368   0.433  -0.223  0.00  0.00    -0.082 A 
ATOM      7  C5  PXY d   1       0.565   1.395  -0.064  0.00  0.00     0.003 A 
ATOM      8  C6  PXY d   1       1.908   1.034  -0.001  0.00  0.00     0.003 A 
ENDROOT
TORSDOF 0
ENDMDL
