MODEL 1
REMARK minimizedAffinity -4.72207308
REMARK minimizedRMSD -1
REMARK  0 active torsions:
REMARK  status: ('A' for Active; 'I' for Inactive)
ROOT
ATOM      1  C4' PXY d   1      -2.594   1.255   0.006  0.00  0.00     0.077 C 
ATOM      2  C1' PXY d   1       2.243  -1.909   0.069  0.00  0.00     0.077 C 
ATOM      3  C1  PXY d   1       0.978  -1.073   0.063  0.00  0.00    -0.082 A 
ATOM      4  C2  PXY d   1      -0.098  -1.520  -0.563  0.00  0.00     0.003 A 
ATOM      5  C3  PXY d   1      -1.240  -0.763  -0.606  0.00  0.00     0.003 A 
ATOM      6  C4  PXY d   1      -1.298   0.441   0.045  0.00  0.00    -0.082 A 
ATOM      7  C5  PXY d   1      -0.207   0.898   0.696  0.00  0.00     0.003 A 
ATOM      8  C6  PXY d   1       0.955   0.133   0.692  0.00  0.00     0.003 A 
ENDROOT
TORSDOF 0
ENDMDL
