MODEL 1
REMARK minimizedAffinity -5.81326628
REMARK minimizedRMSD -1
REMARK  0 active torsions:
REMARK  status: ('A' for Active; 'I' for Inactive)
ROOT
ATOM      1  C4' PXY d   1       3.721  -0.904   0.831  0.00  0.00     0.077 C 
ATOM      2  C1' PXY d   1      -1.551   1.092  -0.448  0.00  0.00     0.077 C 
ATOM      3  C1  PXY d   1      -0.164   0.581  -0.115  0.00  0.00    -0.082 A 
ATOM      4  C2  PXY d   1       0.091  -0.716  -0.190  0.00  0.00     0.003 A 
ATOM      5  C3  PXY d   1       1.331  -1.199   0.138  0.00  0.00     0.003 A 
ATOM      6  C4  PXY d   1       2.337  -0.341   0.495  0.00  0.00    -0.082 A 
ATOM      7  C5  PXY d   1       2.088   0.984   0.564  0.00  0.00     0.003 A 
ATOM      8  C6  PXY d   1       0.811   1.450   0.266  0.00  0.00     0.003 A 
ENDROOT
TORSDOF 0
ENDMDL
