MODEL 1
REMARK minimizedAffinity -3.52871919
REMARK minimizedRMSD -1
REMARK  0 active torsions:
REMARK  status: ('A' for Active; 'I' for Inactive)
ROOT
ATOM      1  C4' PXY d   1      -2.323   0.890  -0.032  0.00  0.00     0.077 C 
ATOM      2  C1' PXY d   1       2.823  -1.696  -0.530  0.00  0.00     0.077 C 
ATOM      3  C1  PXY d   1       1.470  -1.023  -0.411  0.00  0.00    -0.082 A 
ATOM      4  C2  PXY d   1       1.336   0.046   0.358  0.00  0.00     0.003 A 
ATOM      5  C3  PXY d   1       0.113   0.648   0.502  0.00  0.00     0.003 A 
ATOM      6  C4  PXY d   1      -0.974   0.184  -0.190  0.00  0.00    -0.082 A 
ATOM      7  C5  PXY d   1      -0.843  -0.900  -0.984  0.00  0.00     0.003 A 
ATOM      8  C6  PXY d   1       0.398  -1.521  -1.085  0.00  0.00     0.003 A 
ENDROOT
TORSDOF 0
ENDMDL
