MODEL 1
REMARK minimizedAffinity -2.69418335
REMARK minimizedRMSD -1
REMARK  0 active torsions:
REMARK  status: ('A' for Active; 'I' for Inactive)
ROOT
ATOM      1  C1  BNZ d   1      -1.564  -4.007  -0.249  0.00  0.00     0.000 A 
ATOM      2  C2  BNZ d   1      -1.916  -5.319  -0.423  0.00  0.00     0.000 A 
ATOM      3  C3  BNZ d   1      -2.605  -5.993   0.547  0.00  0.00     0.000 A 
ATOM      4  C4  BNZ d   1      -2.905  -5.367   1.703  0.00  0.00     0.000 A 
ATOM      5  C5  BNZ d   1      -2.549  -4.048   1.897  0.00  0.00     0.000 A 
ATOM      6  C6  BNZ d   1      -1.891  -3.361   0.903  0.00  0.00     0.000 A 
ENDROOT
TORSDOF 0
ENDMDL
