MODEL 1
REMARK minimizedAffinity -3.67534828
REMARK minimizedRMSD -1
REMARK  0 active torsions:
REMARK  status: ('A' for Active; 'I' for Inactive)
ROOT
ATOM      1  C1  BNZ d   1       2.382  -1.823   3.623  0.00  0.00     0.000 A 
ATOM      2  C2  BNZ d   1       2.240  -2.764   4.608  0.00  0.00     0.000 A 
ATOM      3  C3  BNZ d   1       1.221  -3.675   4.564  0.00  0.00     0.000 A 
ATOM      4  C4  BNZ d   1       0.324  -3.618   3.559  0.00  0.00     0.000 A 
ATOM      5  C5  BNZ d   1       0.448  -2.669   2.564  0.00  0.00     0.000 A 
ATOM      6  C6  BNZ d   1       1.497  -1.779   2.590  0.00  0.00     0.000 A 
ENDROOT
TORSDOF 0
ENDMDL
