MODEL 1
REMARK minimizedAffinity -3.52873302
REMARK minimizedRMSD -1
REMARK  0 active torsions:
REMARK  status: ('A' for Active; 'I' for Inactive)
ROOT
ATOM      1  C1  BNZ d   1      -3.043  -5.656  -1.701  0.00  0.00     0.000 A 
ATOM      2  C2  BNZ d   1      -1.888  -5.140  -1.177  0.00  0.00     0.000 A 
ATOM      3  C3  BNZ d   1      -0.790  -4.937  -1.965  0.00  0.00     0.000 A 
ATOM      4  C4  BNZ d   1      -0.835  -5.286  -3.267  0.00  0.00     0.000 A 
ATOM      5  C5  BNZ d   1      -1.989  -5.816  -3.809  0.00  0.00     0.000 A 
ATOM      6  C6  BNZ d   1      -3.105  -5.983  -3.021  0.00  0.00     0.000 A 
ENDROOT
TORSDOF 0
ENDMDL
