MODEL 1
REMARK minimizedAffinity 1.39974689
REMARK minimizedRMSD -1
REMARK  0 active torsions:
REMARK  status: ('A' for Active; 'I' for Inactive)
ROOT
ATOM      1  C1  BNZ d   1       1.024   0.062   0.332  0.00  0.00     0.000 A 
ATOM      2  C2  BNZ d   1       0.287  -0.104  -0.810  0.00  0.00     0.000 A 
ATOM      3  C3  BNZ d   1      -0.328  -1.295  -1.078  0.00  0.00     0.000 A 
ATOM      4  C4  BNZ d   1      -0.173  -2.329  -0.226  0.00  0.00     0.000 A 
ATOM      5  C5  BNZ d   1       0.575  -2.179   0.925  0.00  0.00     0.000 A 
ATOM      6  C6  BNZ d   1       1.161  -0.967   1.211  0.00  0.00     0.000 A 
ENDROOT
TORSDOF 0
ENDMDL
