MODEL 1
REMARK minimizedAffinity -3.77584577
REMARK minimizedRMSD -1
REMARK  0 active torsions:
REMARK  status: ('A' for Active; 'I' for Inactive)
ROOT
ATOM      1  C1  BNZ d   1      -4.437  -5.986  -1.970  0.00  0.00     0.000 A 
ATOM      2  C2  BNZ d   1      -3.898  -5.979  -3.229  0.00  0.00     0.000 A 
ATOM      3  C3  BNZ d   1      -2.543  -5.998  -3.410  0.00  0.00     0.000 A 
ATOM      4  C4  BNZ d   1      -1.730  -5.982  -2.334  0.00  0.00     0.000 A 
ATOM      5  C5  BNZ d   1      -2.259  -5.979  -1.059  0.00  0.00     0.000 A 
ATOM      6  C6  BNZ d   1      -3.623  -6.000  -0.880  0.00  0.00     0.000 A 
ENDROOT
TORSDOF 0
ENDMDL
