MODEL 1
REMARK minimizedAffinity -2.58207798
REMARK minimizedRMSD -1
REMARK  0 active torsions:
REMARK  status: ('A' for Active; 'I' for Inactive)
ROOT
ATOM      1  C1  BNZ d   1      -1.837  -6.000  -3.467  0.00  0.00     0.000 A 
ATOM      2  C2  BNZ d   1      -0.484  -5.982  -3.679  0.00  0.00     0.000 A 
ATOM      3  C3  BNZ d   1       0.026  -5.933  -4.946  0.00  0.00     0.000 A 
ATOM      4  C4  BNZ d   1      -0.816  -5.943  -6.000  0.00  0.00     0.000 A 
ATOM      5  C5  BNZ d   1      -2.182  -5.970  -5.803  0.00  0.00     0.000 A 
ATOM      6  C6  BNZ d   1      -2.692  -5.980  -4.525  0.00  0.00     0.000 A 
ENDROOT
TORSDOF 0
ENDMDL
