MODEL 1
REMARK minimizedAffinity -4.96751356
REMARK minimizedRMSD -1
REMARK  0 active torsions:
REMARK  status: ('A' for Active; 'I' for Inactive)
ROOT
ATOM      1  C1  BNZ d   1       0.835  -2.609   1.564  0.00  0.00     0.000 A 
ATOM      2  C2  BNZ d   1       1.627  -1.646   2.130  0.00  0.00     0.000 A 
ATOM      3  C3  BNZ d   1       2.116  -1.798   3.397  0.00  0.00     0.000 A 
ATOM      4  C4  BNZ d   1       1.781  -2.892   4.111  0.00  0.00     0.000 A 
ATOM      5  C5  BNZ d   1       0.975  -3.868   3.557  0.00  0.00     0.000 A 
ATOM      6  C6  BNZ d   1       0.517  -3.730   2.267  0.00  0.00     0.000 A 
ENDROOT
TORSDOF 0
ENDMDL
