MODEL 1
REMARK minimizedAffinity -4.73813105
REMARK minimizedRMSD -1
REMARK  0 active torsions:
REMARK  status: ('A' for Active; 'I' for Inactive)
ROOT
ATOM      1  C1  BNZ d   1       1.712  -1.976   3.263  0.00  0.00     0.000 A 
ATOM      2  C2  BNZ d   1       1.315  -2.896   4.196  0.00  0.00     0.000 A 
ATOM      3  C3  BNZ d   1       0.592  -3.997   3.830  0.00  0.00     0.000 A 
ATOM      4  C4  BNZ d   1       0.232  -4.154   2.540  0.00  0.00     0.000 A 
ATOM      5  C5  BNZ d   1       0.616  -3.230   1.589  0.00  0.00     0.000 A 
ATOM      6  C6  BNZ d   1       1.377  -2.143   1.955  0.00  0.00     0.000 A 
ENDROOT
TORSDOF 0
ENDMDL
