MODEL 1
REMARK minimizedAffinity -0.297822893
REMARK minimizedRMSD -1
REMARK  0 active torsions:
REMARK  status: ('A' for Active; 'I' for Inactive)
ROOT
ATOM      1  C1  BNZ d   1      -4.872  -5.070   2.246  0.00  0.00     0.000 A 
ATOM      2  C2  BNZ d   1      -3.666  -4.431   2.359  0.00  0.00     0.000 A 
ATOM      3  C3  BNZ d   1      -2.861  -4.258   1.268  0.00  0.00     0.000 A 
ATOM      4  C4  BNZ d   1      -3.243  -4.759   0.076  0.00  0.00     0.000 A 
ATOM      5  C5  BNZ d   1      -4.452  -5.414  -0.052  0.00  0.00     0.000 A 
ATOM      6  C6  BNZ d   1      -5.277  -5.552   1.039  0.00  0.00     0.000 A 
ENDROOT
TORSDOF 0
ENDMDL
