MODEL 1
REMARK minimizedAffinity -2.53505254
REMARK minimizedRMSD -1
REMARK  0 active torsions:
REMARK  status: ('A' for Active; 'I' for Inactive)
ROOT
ATOM      1  C1  BNZ d   1       2.095  -4.167   3.058  0.00  0.00     0.000 A 
ATOM      2  C2  BNZ d   1       2.047  -4.693   4.321  0.00  0.00     0.000 A 
ATOM      3  C3  BNZ d   1       1.750  -3.904   5.397  0.00  0.00     0.000 A 
ATOM      4  C4  BNZ d   1       1.542  -2.584   5.214  0.00  0.00     0.000 A 
ATOM      5  C5  BNZ d   1       1.595  -2.037   3.948  0.00  0.00     0.000 A 
ATOM      6  C6  BNZ d   1       1.856  -2.842   2.862  0.00  0.00     0.000 A 
ENDROOT
TORSDOF 0
ENDMDL
