MODEL 1
REMARK minimizedAffinity -3.72291398
REMARK minimizedRMSD -1
REMARK  0 active torsions:
REMARK  status: ('A' for Active; 'I' for Inactive)
ROOT
ATOM      1  C1  BNZ d   1       1.262  -5.267  -3.454  0.00  0.00     0.000 A 
ATOM      2  C2  BNZ d   1       0.031  -5.820  -3.685  0.00  0.00     0.000 A 
ATOM      3  C3  BNZ d   1      -0.428  -6.000  -4.960  0.00  0.00     0.000 A 
ATOM      4  C4  BNZ d   1       0.326  -5.590  -6.000  0.00  0.00     0.000 A 
ATOM      5  C5  BNZ d   1       1.566  -5.022  -5.784  0.00  0.00     0.000 A 
ATOM      6  C6  BNZ d   1       2.041  -4.878  -4.500  0.00  0.00     0.000 A 
ENDROOT
TORSDOF 0
ENDMDL
