MODEL 1
REMARK minimizedAffinity 2.66947889
REMARK minimizedRMSD -1
REMARK  0 active torsions:
REMARK  status: ('A' for Active; 'I' for Inactive)
ROOT
ATOM      1  C1  BNZ d   1      -4.926   1.038  -0.564  0.00  0.00     0.000 A 
ATOM      2  C2  BNZ d   1      -5.315   1.302  -1.850  0.00  0.00     0.000 A 
ATOM      3  C3  BNZ d   1      -5.306   0.320  -2.801  0.00  0.00     0.000 A 
ATOM      4  C4  BNZ d   1      -4.869  -0.914  -2.475  0.00  0.00     0.000 A 
ATOM      5  C5  BNZ d   1      -4.464  -1.194  -1.185  0.00  0.00     0.000 A 
ATOM      6  C6  BNZ d   1      -4.512  -0.213  -0.222  0.00  0.00     0.000 A 
ENDROOT
TORSDOF 0
ENDMDL
