MODEL 1
REMARK minimizedAffinity -2.19257951
REMARK minimizedRMSD -1
REMARK  0 active torsions:
REMARK  status: ('A' for Active; 'I' for Inactive)
ROOT
ATOM      1  C1  BNZ d   1      -4.433  -1.620  -1.344  0.00  0.00     0.000 A 
ATOM      2  C2  BNZ d   1      -4.269  -1.164  -2.625  0.00  0.00     0.000 A 
ATOM      3  C3  BNZ d   1      -4.202   0.175  -2.889  0.00  0.00     0.000 A 
ATOM      4  C4  BNZ d   1      -4.339   1.057  -1.878  0.00  0.00     0.000 A 
ATOM      5  C5  BNZ d   1      -4.515   0.614  -0.582  0.00  0.00     0.000 A 
ATOM      6  C6  BNZ d   1      -4.543  -0.735  -0.315  0.00  0.00     0.000 A 
ENDROOT
TORSDOF 0
ENDMDL
