MODEL 1
REMARK minimizedAffinity -2.08577967
REMARK minimizedRMSD -1
REMARK  0 active torsions:
REMARK  status: ('A' for Active; 'I' for Inactive)
ROOT
ATOM      1  C1  BNZ d   1       0.501  -4.738  -4.004  0.00  0.00     0.000 A 
ATOM      2  C2  BNZ d   1       1.869  -4.676  -4.005  0.00  0.00     0.000 A 
ATOM      3  C3  BNZ d   1       2.595  -5.251  -5.010  0.00  0.00     0.000 A 
ATOM      4  C4  BNZ d   1       1.955  -5.921  -5.990  0.00  0.00     0.000 A 
ATOM      5  C5  BNZ d   1       0.577  -6.000  -5.999  0.00  0.00     0.000 A 
ATOM      6  C6  BNZ d   1      -0.152  -5.387  -5.006  0.00  0.00     0.000 A 
ENDROOT
TORSDOF 0
ENDMDL
