MODEL 1
REMARK minimizedAffinity 3.59936094
REMARK minimizedRMSD -1
REMARK  0 active torsions:
REMARK  status: ('A' for Active; 'I' for Inactive)
ROOT
ATOM      1  C1  BNZ d   1       3.210  -1.312   2.377  0.00  0.00     0.000 A 
ATOM      2  C2  BNZ d   1       4.272  -0.873   1.633  0.00  0.00     0.000 A 
ATOM      3  C3  BNZ d   1       5.479  -0.614   2.221  0.00  0.00     0.000 A 
ATOM      4  C4  BNZ d   1       5.610  -0.754   3.556  0.00  0.00     0.000 A 
ATOM      5  C5  BNZ d   1       4.545  -1.186   4.321  0.00  0.00     0.000 A 
ATOM      6  C6  BNZ d   1       3.343  -1.484   3.720  0.00  0.00     0.000 A 
ENDROOT
TORSDOF 0
ENDMDL
