MODEL 1
REMARK minimizedAffinity 9.04151726
REMARK minimizedRMSD -1
REMARK  1 active torsions:
REMARK  status: ('A' for Active; 'I' for Inactive)
REMARK    1  A    between atoms: C3_4  and  O_7 
ROOT
ATOM      1  C   UNL d   1      -2.208   1.018   2.445  0.00  0.00    -0.033 A 
ATOM      2  C1  UNL d   1      -3.368   0.414   2.933  0.00  0.00     0.039 A 
ATOM      3  C2  UNL d   1      -4.359   1.189   3.538  0.00  0.00    -0.080 A 
ATOM      4  C3  UNL d   1      -4.179   2.565   3.648  0.00  0.00     0.150 A 
ATOM      5  C4  UNL d   1      -3.027   3.174   3.160  0.00  0.00    -0.007 A 
ATOM      6  C5  UNL d   1      -2.038   2.398   2.557  0.00  0.00     0.039 A 
ENDROOT
BRANCH   4   7
ATOM      7  O   UNL d   1      -5.116   3.362   4.235  0.00  0.00    -0.526 OA
ATOM      8  H5  UNL d   1      -5.844   2.800   4.550  0.00  0.00     0.418 HD
ENDBRANCH   4   7
TORSDOF 1
ENDMDL
