MODEL 1
REMARK minimizedAffinity -3.44026279
REMARK minimizedRMSD -1
REMARK  1 active torsions:
REMARK  status: ('A' for Active; 'I' for Inactive)
REMARK    1  A    between atoms: C3_4  and  O_7 
ROOT
ATOM      1  C   UNL d   1       3.017  -3.789  -3.386  0.00  0.00    -0.033 A 
ATOM      2  C1  UNL d   1       4.333  -4.124  -3.065  0.00  0.00     0.039 A 
ATOM      3  C2  UNL d   1       4.685  -4.391  -1.740  0.00  0.00    -0.080 A 
ATOM      4  C3  UNL d   1       3.711  -4.320  -0.748  0.00  0.00     0.150 A 
ATOM      5  C4  UNL d   1       2.397  -3.990  -1.061  0.00  0.00    -0.007 A 
ATOM      6  C5  UNL d   1       2.048  -3.723  -2.384  0.00  0.00     0.039 A 
ENDROOT
BRANCH   4   7
ATOM      7  O   UNL d   1       4.008  -4.567   0.560  0.00  0.00    -0.526 OA
ATOM      8  H5  UNL d   1       4.959  -4.753   0.630  0.00  0.00     0.418 HD
ENDBRANCH   4   7
TORSDOF 1
ENDMDL
