MODEL 1
REMARK minimizedAffinity 2.70094228
REMARK minimizedRMSD -1
REMARK  1 active torsions:
REMARK  status: ('A' for Active; 'I' for Inactive)
REMARK    1  A    between atoms: C3_4  and  O_7 
ROOT
ATOM      1  C   UNL d   1       2.143  -0.723  -0.568  0.00  0.00    -0.033 A 
ATOM      2  C1  UNL d   1       1.318  -1.487  -1.395  0.00  0.00     0.039 A 
ATOM      3  C2  UNL d   1       1.061  -1.071  -2.703  0.00  0.00    -0.080 A 
ATOM      4  C3  UNL d   1       1.635   0.108  -3.171  0.00  0.00     0.150 A 
ATOM      5  C4  UNL d   1       2.462   0.871  -2.353  0.00  0.00    -0.007 A 
ATOM      6  C5  UNL d   1       2.716   0.455  -1.047  0.00  0.00     0.039 A 
ENDROOT
BRANCH   4   7
ATOM      7  O   UNL d   1       1.410   0.556  -4.438  0.00  0.00    -0.526 OA
ATOM      8  H5  UNL d   1       0.798  -0.057  -4.878  0.00  0.00     0.418 HD
ENDBRANCH   4   7
TORSDOF 1
ENDMDL
