MODEL 1
REMARK minimizedAffinity 12.878787
REMARK minimizedRMSD -1
REMARK  1 active torsions:
REMARK  status: ('A' for Active; 'I' for Inactive)
REMARK    1  A    between atoms: C3_4  and  O_7 
ROOT
ATOM      1  C   UNL d   1       2.726   0.439  -0.182  0.00  0.00    -0.033 A 
ATOM      2  C1  UNL d   1       3.262   1.190   0.866  0.00  0.00     0.039 A 
ATOM      3  C2  UNL d   1       2.483   1.484   1.986  0.00  0.00    -0.080 A 
ATOM      4  C3  UNL d   1       1.171   1.022   2.047  0.00  0.00     0.150 A 
ATOM      5  C4  UNL d   1       0.632   0.271   1.008  0.00  0.00    -0.007 A 
ATOM      6  C5  UNL d   1       1.411  -0.022  -0.110  0.00  0.00     0.039 A 
ENDROOT
BRANCH   4   7
ATOM      7  O   UNL d   1       0.371   1.288   3.118  0.00  0.00    -0.526 OA
ATOM      8  H5  UNL d   1       0.868   1.841   3.744  0.00  0.00     0.418 HD
ENDBRANCH   4   7
TORSDOF 1
ENDMDL
