MODEL 1
REMARK minimizedAffinity 1.08074641
REMARK minimizedRMSD -1
REMARK  1 active torsions:
REMARK  status: ('A' for Active; 'I' for Inactive)
REMARK    1  A    between atoms: C3_4  and  O_7 
ROOT
ATOM      1  C   UNL d   1       0.793  -1.233  -1.940  0.00  0.00    -0.033 A 
ATOM      2  C1  UNL d   1       1.849  -0.355  -2.193  0.00  0.00     0.039 A 
ATOM      3  C2  UNL d   1       3.064  -0.511  -1.523  0.00  0.00    -0.080 A 
ATOM      4  C3  UNL d   1       3.211  -1.548  -0.606  0.00  0.00     0.150 A 
ATOM      5  C4  UNL d   1       2.165  -2.429  -0.352  0.00  0.00    -0.007 A 
ATOM      6  C5  UNL d   1       0.952  -2.271  -1.021  0.00  0.00     0.039 A 
ENDROOT
BRANCH   4   7
ATOM      7  O   UNL d   1       4.377  -1.737   0.075  0.00  0.00    -0.526 OA
ATOM      8  H5  UNL d   1       5.000  -1.036  -0.181  0.00  0.00     0.418 HD
ENDBRANCH   4   7
TORSDOF 1
ENDMDL
