MODEL 1
REMARK minimizedAffinity -1.66839039
REMARK minimizedRMSD -1
REMARK  1 active torsions:
REMARK  status: ('A' for Active; 'I' for Inactive)
REMARK    1  A    between atoms: C3_4  and  O_7 
ROOT
ATOM      1  C   UNL d   1       1.556   3.025  -1.309  0.00  0.00    -0.033 A 
ATOM      2  C1  UNL d   1       1.057   2.120  -0.370  0.00  0.00     0.039 A 
ATOM      3  C2  UNL d   1       1.387   0.766  -0.458  0.00  0.00    -0.080 A 
ATOM      4  C3  UNL d   1       2.217   0.331  -1.487  0.00  0.00     0.150 A 
ATOM      5  C4  UNL d   1       2.722   1.227  -2.423  0.00  0.00    -0.007 A 
ATOM      6  C5  UNL d   1       2.390   2.579  -2.335  0.00  0.00     0.039 A 
ENDROOT
BRANCH   4   7
ATOM      7  O   UNL d   1       2.563  -0.981  -1.617  0.00  0.00    -0.526 OA
ATOM      8  H5  UNL d   1       2.118  -1.488  -0.917  0.00  0.00     0.418 HD
ENDBRANCH   4   7
TORSDOF 1
ENDMDL
