MODEL 1
REMARK minimizedAffinity -2.09989667
REMARK minimizedRMSD -1
REMARK  1 active torsions:
REMARK  status: ('A' for Active; 'I' for Inactive)
REMARK    1  A    between atoms: C3_4  and  O_7 
ROOT
ATOM      1  C   UNL d   1       2.007   1.608  -1.287  0.00  0.00    -0.033 A 
ATOM      2  C1  UNL d   1       1.230   2.021  -0.203  0.00  0.00     0.039 A 
ATOM      3  C2  UNL d   1       0.933   3.375  -0.030  0.00  0.00    -0.080 A 
ATOM      4  C3  UNL d   1       1.417   4.303  -0.948  0.00  0.00     0.150 A 
ATOM      5  C4  UNL d   1       2.189   3.898  -2.032  0.00  0.00    -0.007 A 
ATOM      6  C5  UNL d   1       2.486   2.547  -2.202  0.00  0.00     0.039 A 
ENDROOT
BRANCH   4   7
ATOM      7  O   UNL d   1       1.157   5.635  -0.818  0.00  0.00    -0.526 OA
ATOM      8  H5  UNL d   1       0.638   5.770  -0.008  0.00  0.00     0.418 HD
ENDBRANCH   4   7
TORSDOF 1
ENDMDL
