MODEL 1
REMARK minimizedAffinity 1.60732996
REMARK minimizedRMSD -1
REMARK  1 active torsions:
REMARK  status: ('A' for Active; 'I' for Inactive)
REMARK    1  A    between atoms: C3_4  and  O_7 
ROOT
ATOM      1  C   UNL d   1       0.106   6.000  -0.027  0.00  0.00    -0.033 A 
ATOM      2  C1  UNL d   1       1.452   5.870  -0.374  0.00  0.00     0.039 A 
ATOM      3  C2  UNL d   1       1.948   4.640  -0.810  0.00  0.00    -0.080 A 
ATOM      4  C3  UNL d   1       1.087   3.549  -0.896  0.00  0.00     0.150 A 
ATOM      5  C4  UNL d   1      -0.256   3.671  -0.556  0.00  0.00    -0.007 A 
ATOM      6  C5  UNL d   1      -0.748   4.901  -0.120  0.00  0.00     0.039 A 
ENDROOT
BRANCH   4   7
ATOM      7  O   UNL d   1       1.526   2.326  -1.311  0.00  0.00    -0.526 OA
ATOM      8  H5  UNL d   1       2.480   2.384  -1.485  0.00  0.00     0.418 HD
ENDBRANCH   4   7
TORSDOF 1
ENDMDL
