MODEL 1
REMARK minimizedAffinity 4.52738619
REMARK minimizedRMSD -1
REMARK  1 active torsions:
REMARK  status: ('A' for Active; 'I' for Inactive)
REMARK    1  A    between atoms: C3_4  and  O_7 
ROOT
ATOM      1  C   UNL d   1      -5.998  -2.395   2.846  0.00  0.00    -0.033 A 
ATOM      2  C1  UNL d   1      -4.814  -1.872   3.368  0.00  0.00     0.039 A 
ATOM      3  C2  UNL d   1      -3.630  -2.608   3.293  0.00  0.00    -0.080 A 
ATOM      4  C3  UNL d   1      -3.643  -3.864   2.693  0.00  0.00     0.150 A 
ATOM      5  C4  UNL d   1      -4.819  -4.390   2.167  0.00  0.00    -0.007 A 
ATOM      6  C5  UNL d   1      -6.000  -3.654   2.244  0.00  0.00     0.039 A 
ENDROOT
BRANCH   4   7
ATOM      7  O   UNL d   1      -2.514  -4.622   2.601  0.00  0.00    -0.526 OA
ATOM      8  H5  UNL d   1      -1.786  -4.144   3.032  0.00  0.00     0.418 HD
ENDBRANCH   4   7
TORSDOF 1
ENDMDL
