MODEL 1
REMARK minimizedAffinity 3.09705424
REMARK minimizedRMSD -1
REMARK  1 active torsions:
REMARK  status: ('A' for Active; 'I' for Inactive)
REMARK    1  A    between atoms: C3_4  and  O_7 
ROOT
ATOM      1  C   UNL d   1      -2.694  -3.108  -5.599  0.00  0.00    -0.033 A 
ATOM      2  C1  UNL d   1      -2.811  -4.498  -5.526  0.00  0.00     0.039 A 
ATOM      3  C2  UNL d   1      -2.515  -5.164  -4.335  0.00  0.00    -0.080 A 
ATOM      4  C3  UNL d   1      -2.104  -4.430  -3.226  0.00  0.00     0.150 A 
ATOM      5  C4  UNL d   1      -1.988  -3.045  -3.290  0.00  0.00    -0.007 A 
ATOM      6  C5  UNL d   1      -2.284  -2.382  -4.480  0.00  0.00     0.039 A 
ENDROOT
BRANCH   4   7
ATOM      7  O   UNL d   1      -1.799  -5.036  -2.043  0.00  0.00    -0.526 OA
ATOM      8  H5  UNL d   1      -1.896  -5.996  -2.156  0.00  0.00     0.418 HD
ENDBRANCH   4   7
TORSDOF 1
ENDMDL
