MODEL 1
REMARK minimizedAffinity 5.92800426
REMARK minimizedRMSD -1
REMARK  1 active torsions:
REMARK  status: ('A' for Active; 'I' for Inactive)
REMARK    1  A    between atoms: C3_4  and  O_7 
ROOT
ATOM      1  C   UNL d   1       1.609   1.176  -2.483  0.00  0.00    -0.033 A 
ATOM      2  C1  UNL d   1       2.472   1.372  -1.403  0.00  0.00     0.039 A 
ATOM      3  C2  UNL d   1       2.571   2.630  -0.805  0.00  0.00    -0.080 A 
ATOM      4  C3  UNL d   1       1.801   3.681  -1.294  0.00  0.00     0.150 A 
ATOM      5  C4  UNL d   1       0.936   3.493  -2.367  0.00  0.00    -0.007 A 
ATOM      6  C5  UNL d   1       0.839   2.236  -2.964  0.00  0.00     0.039 A 
ENDROOT
BRANCH   4   7
ATOM      7  O   UNL d   1       1.867   4.928  -0.746  0.00  0.00    -0.526 OA
ATOM      8  H5  UNL d   1       2.527   4.916  -0.033  0.00  0.00     0.418 HD
ENDBRANCH   4   7
TORSDOF 1
ENDMDL
