MODEL 1
REMARK minimizedAffinity 6.50587368
REMARK minimizedRMSD -1
REMARK  1 active torsions:
REMARK  status: ('A' for Active; 'I' for Inactive)
REMARK    1  A    between atoms: C3_4  and  O_7 
ROOT
ATOM      1  C   UNL d   1      -1.923  -2.735  -2.457  0.00  0.00    -0.033 A 
ATOM      2  C1  UNL d   1      -1.888  -4.130  -2.413  0.00  0.00     0.039 A 
ATOM      3  C2  UNL d   1      -1.933  -4.869  -3.597  0.00  0.00    -0.080 A 
ATOM      4  C3  UNL d   1      -2.012  -4.202  -4.816  0.00  0.00     0.150 A 
ATOM      5  C4  UNL d   1      -2.045  -2.813  -4.868  0.00  0.00    -0.007 A 
ATOM      6  C5  UNL d   1      -2.000  -2.076  -3.685  0.00  0.00     0.039 A 
ENDROOT
BRANCH   4   7
ATOM      7  O   UNL d   1      -2.064  -4.881  -5.998  0.00  0.00    -0.526 OA
ATOM      8  H5  UNL d   1      -2.062  -5.833  -5.806  0.00  0.00     0.418 HD
ENDBRANCH   4   7
TORSDOF 1
ENDMDL
