MODEL 1
REMARK minimizedAffinity 5.07686758
REMARK minimizedRMSD -1
REMARK  1 active torsions:
REMARK  status: ('A' for Active; 'I' for Inactive)
REMARK    1  A    between atoms: C3_4  and  O_7 
ROOT
ATOM      1  C   UNL d   1      -0.414  -2.754   3.379  0.00  0.00    -0.033 A 
ATOM      2  C1  UNL d   1      -0.724  -3.651   2.354  0.00  0.00     0.039 A 
ATOM      3  C2  UNL d   1      -2.056  -3.968   2.081  0.00  0.00    -0.080 A 
ATOM      4  C3  UNL d   1      -3.067  -3.381   2.837  0.00  0.00     0.150 A 
ATOM      5  C4  UNL d   1      -2.766  -2.483   3.856  0.00  0.00    -0.007 A 
ATOM      6  C5  UNL d   1      -1.435  -2.169   4.128  0.00  0.00     0.039 A 
ENDROOT
BRANCH   4   7
ATOM      7  O   UNL d   1      -4.382  -3.663   2.610  0.00  0.00    -0.526 OA
ATOM      8  H5  UNL d   1      -4.437  -4.320   1.896  0.00  0.00     0.418 HD
ENDBRANCH   4   7
TORSDOF 1
ENDMDL
