MODEL 1
REMARK minimizedAffinity 4.06297636
REMARK minimizedRMSD -1
REMARK  1 active torsions:
REMARK  status: ('A' for Active; 'I' for Inactive)
REMARK    1  A    between atoms: C3_4  and  O_7 
ROOT
ATOM      1  C   UNL d   1       1.625   1.878  -1.380  0.00  0.00    -0.033 A 
ATOM      2  C1  UNL d   1       1.598   2.429  -0.098  0.00  0.00     0.039 A 
ATOM      3  C2  UNL d   1       1.597   3.816   0.067  0.00  0.00    -0.080 A 
ATOM      4  C3  UNL d   1       1.622   4.638  -1.056  0.00  0.00     0.150 A 
ATOM      5  C4  UNL d   1       1.645   4.095  -2.336  0.00  0.00    -0.007 A 
ATOM      6  C5  UNL d   1       1.647   2.710  -2.499  0.00  0.00     0.039 A 
ENDROOT
BRANCH   4   7
ATOM      7  O   UNL d   1       1.626   5.997  -0.944  0.00  0.00    -0.526 OA
ATOM      8  H5  UNL d   1       1.638   6.228  -0.001  0.00  0.00     0.418 HD
ENDBRANCH   4   7
TORSDOF 1
ENDMDL
