MODEL 1
REMARK minimizedAffinity 3.69882846
REMARK minimizedRMSD -1
REMARK  1 active torsions:
REMARK  status: ('A' for Active; 'I' for Inactive)
REMARK    1  A    between atoms: C3_4  and  O_7 
ROOT
ATOM      1  C   UNL d   1      -0.651  -3.628  -0.785  0.00  0.00    -0.033 A 
ATOM      2  C1  UNL d   1      -1.907  -3.926  -0.253  0.00  0.00     0.039 A 
ATOM      3  C2  UNL d   1      -2.160  -3.717   1.104  0.00  0.00    -0.080 A 
ATOM      4  C3  UNL d   1      -1.150  -3.209   1.917  0.00  0.00     0.150 A 
ATOM      5  C4  UNL d   1       0.103  -2.907   1.393  0.00  0.00    -0.007 A 
ATOM      6  C5  UNL d   1       0.353  -3.117   0.037  0.00  0.00     0.039 A 
ENDROOT
BRANCH   4   7
ATOM      7  O   UNL d   1      -1.348  -2.992   3.248  0.00  0.00    -0.526 OA
ATOM      8  H5  UNL d   1      -2.250  -3.274   3.475  0.00  0.00     0.418 HD
ENDBRANCH   4   7
TORSDOF 1
ENDMDL
