MODEL 1
REMARK minimizedAffinity -5.02623892
REMARK minimizedRMSD -1
REMARK  0 active torsions:
REMARK  status: ('A' for Active; 'I' for Inactive)
ROOT
ATOM      1  C   UNL d   1       1.176   2.665   0.588  0.00  0.00     0.020 A 
ATOM      2  C1  UNL d   1       0.066   2.504   1.415  0.00  0.00     0.020 A 
ATOM      3  C2  UNL d   1      -0.440   1.226   1.664  0.00  0.00     0.034 A 
ATOM      4  C3  UNL d   1       0.165   0.104   1.085  0.00  0.00     0.017 A 
ATOM      5  C4  UNL d   1       1.280   0.267   0.255  0.00  0.00     0.017 A 
ATOM      6  C5  UNL d   1       1.782   1.549   0.010  0.00  0.00     0.034 A 
ATOM      7 Cl   UNL d   1       2.081  -1.069  -0.494  0.00  0.00    -0.070 Cl
ATOM      8 Cl1  UNL d   1      -0.513  -1.445   1.437  0.00  0.00    -0.070 Cl
ENDROOT
TORSDOF 0
ENDMDL
