MODEL 1
REMARK minimizedAffinity -4.62231684
REMARK minimizedRMSD -1
REMARK  0 active torsions:
REMARK  status: ('A' for Active; 'I' for Inactive)
ROOT
ATOM      1  C   UNL d   1       1.222  -1.012  -0.604  0.00  0.00     0.020 A 
ATOM      2  C1  UNL d   1       2.281  -0.175  -0.953  0.00  0.00     0.020 A 
ATOM      3  C2  UNL d   1       2.471   1.031  -0.276  0.00  0.00     0.034 A 
ATOM      4  C3  UNL d   1       1.600   1.405   0.754  0.00  0.00     0.017 A 
ATOM      5  C4  UNL d   1       0.537   0.564   1.104  0.00  0.00     0.017 A 
ATOM      6  C5  UNL d   1       0.352  -0.642   0.423  0.00  0.00     0.034 A 
ATOM      7 Cl   UNL d   1      -0.578   0.957   2.364  0.00  0.00    -0.070 Cl
ATOM      8 Cl1  UNL d   1       1.895   2.910   1.549  0.00  0.00    -0.070 Cl
ENDROOT
TORSDOF 0
ENDMDL
