MODEL 1
REMARK minimizedAffinity -2.68836093
REMARK minimizedRMSD -1
REMARK  0 active torsions:
REMARK  status: ('A' for Active; 'I' for Inactive)
ROOT
ATOM      1  C   UNL d   1      -1.258   0.604   2.012  0.00  0.00     0.020 A 
ATOM      2  C1  UNL d   1      -0.894  -0.472   1.203  0.00  0.00     0.020 A 
ATOM      3  C2  UNL d   1       0.242  -0.385   0.395  0.00  0.00     0.034 A 
ATOM      4  C3  UNL d   1       1.017   0.781   0.393  0.00  0.00     0.017 A 
ATOM      5  C4  UNL d   1       0.650   1.860   1.205  0.00  0.00     0.017 A 
ATOM      6  C5  UNL d   1      -0.487   1.768   2.013  0.00  0.00     0.034 A 
ATOM      7 Cl   UNL d   1       1.557   3.331   1.256  0.00  0.00    -0.070 Cl
ATOM      8 Cl1  UNL d   1       2.408   0.819  -0.632  0.00  0.00    -0.070 Cl
ENDROOT
TORSDOF 0
ENDMDL
