MODEL 1
REMARK minimizedAffinity 4.27997875
REMARK minimizedRMSD -1
REMARK  0 active torsions:
REMARK  status: ('A' for Active; 'I' for Inactive)
ROOT
ATOM      1  C   UNL d   1       2.024  -0.860  -1.627  0.00  0.00     0.020 A 
ATOM      2  C1  UNL d   1       3.022   0.048  -1.276  0.00  0.00     0.020 A 
ATOM      3  C2  UNL d   1       2.795   0.975  -0.256  0.00  0.00     0.034 A 
ATOM      4  C3  UNL d   1       1.568   0.995   0.416  0.00  0.00     0.017 A 
ATOM      5  C4  UNL d   1       0.566   0.084   0.063  0.00  0.00     0.017 A 
ATOM      6  C5  UNL d   1       0.799  -0.842  -0.959  0.00  0.00     0.034 A 
ATOM      7 Cl   UNL d   1      -0.974   0.048   0.846  0.00  0.00    -0.070 Cl
ATOM      8 Cl1  UNL d   1       1.357   2.168   1.668  0.00  0.00    -0.070 Cl
ENDROOT
TORSDOF 0
ENDMDL
