MODEL 1
REMARK minimizedAffinity -0.875230849
REMARK minimizedRMSD -1
REMARK  0 active torsions:
REMARK  status: ('A' for Active; 'I' for Inactive)
ROOT
ATOM      1  C   UNL d   1      -0.226   1.836   1.890  0.00  0.00     0.020 A 
ATOM      2  C1  UNL d   1       1.085   1.569   2.281  0.00  0.00     0.020 A 
ATOM      3  C2  UNL d   1       1.914   0.798   1.463  0.00  0.00     0.034 A 
ATOM      4  C3  UNL d   1       1.433   0.291   0.251  0.00  0.00     0.017 A 
ATOM      5  C4  UNL d   1       0.116   0.560  -0.141  0.00  0.00     0.017 A 
ATOM      6  C5  UNL d   1      -0.709   1.332   0.681  0.00  0.00     0.034 A 
ATOM      7 Cl   UNL d   1      -0.549  -0.031  -1.623  0.00  0.00    -0.070 Cl
ATOM      8 Cl1  UNL d   1       2.513  -0.655  -0.711  0.00  0.00    -0.070 Cl
ENDROOT
TORSDOF 0
ENDMDL
