MODEL 1
REMARK minimizedAffinity -0.8806867
REMARK minimizedRMSD -1
REMARK  0 active torsions:
REMARK  status: ('A' for Active; 'I' for Inactive)
ROOT
ATOM      1  C   UNL d   1       1.743   1.345   0.699  0.00  0.00     0.020 A 
ATOM      2  C1  UNL d   1       1.391   1.958  -0.503  0.00  0.00     0.020 A 
ATOM      3  C2  UNL d   1       0.169   1.658  -1.107  0.00  0.00     0.034 A 
ATOM      4  C3  UNL d   1      -0.706   0.743  -0.510  0.00  0.00     0.017 A 
ATOM      5  C4  UNL d   1      -0.352   0.129   0.697  0.00  0.00     0.017 A 
ATOM      6  C5  UNL d   1       0.874   0.433   1.298  0.00  0.00     0.034 A 
ATOM      7 Cl   UNL d   1      -1.379  -1.010   1.494  0.00  0.00    -0.070 Cl
ATOM      8 Cl1  UNL d   1      -2.202   0.420  -1.313  0.00  0.00    -0.070 Cl
ENDROOT
TORSDOF 0
ENDMDL
