MODEL 1
REMARK minimizedAffinity 0.127250448
REMARK minimizedRMSD -1
REMARK  0 active torsions:
REMARK  status: ('A' for Active; 'I' for Inactive)
ROOT
ATOM      1  C   UNL d   1       0.863   2.148   0.981  0.00  0.00     0.020 A 
ATOM      2  C1  UNL d   1       0.602   1.989   2.342  0.00  0.00     0.020 A 
ATOM      3  C2  UNL d   1      -0.081   0.858   2.794  0.00  0.00     0.034 A 
ATOM      4  C3  UNL d   1      -0.505  -0.118   1.885  0.00  0.00     0.017 A 
ATOM      5  C4  UNL d   1      -0.243   0.043   0.520  0.00  0.00     0.017 A 
ATOM      6  C5  UNL d   1       0.441   1.177   0.072  0.00  0.00     0.034 A 
ATOM      7 Cl   UNL d   1      -0.735  -1.119  -0.662  0.00  0.00    -0.070 Cl
ATOM      8 Cl1  UNL d   1      -1.344  -1.492   2.514  0.00  0.00    -0.070 Cl
ENDROOT
TORSDOF 0
ENDMDL
