MODEL 1
REMARK minimizedAffinity -1.89921117
REMARK minimizedRMSD -1
REMARK  0 active torsions:
REMARK  status: ('A' for Active; 'I' for Inactive)
ROOT
ATOM      1  C   UNL d   1       0.739   2.481  -0.285  0.00  0.00     0.020 A 
ATOM      2  C1  UNL d   1       1.192   1.927   0.911  0.00  0.00     0.020 A 
ATOM      3  C2  UNL d   1       0.773   0.650   1.292  0.00  0.00     0.034 A 
ATOM      4  C3  UNL d   1      -0.101  -0.076   0.476  0.00  0.00     0.017 A 
ATOM      5  C4  UNL d   1      -0.555   0.481  -0.725  0.00  0.00     0.017 A 
ATOM      6  C5  UNL d   1      -0.133   1.759  -1.102  0.00  0.00     0.034 A 
ATOM      7 Cl   UNL d   1      -1.635  -0.355  -1.785  0.00  0.00    -0.070 Cl
ATOM      8 Cl1  UNL d   1      -0.578  -1.649   1.009  0.00  0.00    -0.070 Cl
ENDROOT
TORSDOF 0
ENDMDL
