MODEL 1
REMARK minimizedAffinity 3.46423531
REMARK minimizedRMSD -1
REMARK  0 active torsions:
REMARK  status: ('A' for Active; 'I' for Inactive)
ROOT
ATOM      1  C   UNL d   1       0.287  -0.577   0.287  0.00  0.00     0.020 A 
ATOM      2  C1  UNL d   1       0.684   0.429  -0.593  0.00  0.00     0.020 A 
ATOM      3  C2  UNL d   1       1.103   1.665  -0.097  0.00  0.00     0.034 A 
ATOM      4  C3  UNL d   1       1.126   1.899   1.283  0.00  0.00     0.017 A 
ATOM      5  C4  UNL d   1       0.728   0.888   2.166  0.00  0.00     0.017 A 
ATOM      6  C5  UNL d   1       0.309  -0.348   1.663  0.00  0.00     0.034 A 
ATOM      7 Cl   UNL d   1       0.729   1.102   3.881  0.00  0.00    -0.070 Cl
ATOM      8 Cl1  UNL d   1       1.656   3.451   1.827  0.00  0.00    -0.070 Cl
ENDROOT
TORSDOF 0
ENDMDL
