MODEL 1
REMARK minimizedAffinity -0.101963811
REMARK minimizedRMSD -1
REMARK  0 active torsions:
REMARK  status: ('A' for Active; 'I' for Inactive)
ROOT
ATOM      1  C   UNL d   1       1.056  -1.179  -0.841  0.00  0.00     0.020 A 
ATOM      2  C1  UNL d   1       2.241  -0.462  -0.675  0.00  0.00     0.020 A 
ATOM      3  C2  UNL d   1       2.297   0.593   0.238  0.00  0.00     0.034 A 
ATOM      4  C3  UNL d   1       1.166   0.934   0.989  0.00  0.00     0.017 A 
ATOM      5  C4  UNL d   1      -0.023   0.214   0.822  0.00  0.00     0.017 A 
ATOM      6  C5  UNL d   1      -0.073  -0.841  -0.094  0.00  0.00     0.034 A 
ATOM      7 Cl   UNL d   1      -1.459   0.576   1.713  0.00  0.00    -0.070 Cl
ATOM      8 Cl1  UNL d   1       1.307   2.250   2.101  0.00  0.00    -0.070 Cl
ENDROOT
TORSDOF 0
ENDMDL
