MODEL 1
REMARK minimizedAffinity -3.6937232
REMARK minimizedRMSD -1
REMARK  0 active torsions:
REMARK  status: ('A' for Active; 'I' for Inactive)
ROOT
ATOM      1  C   UNL d   1       0.906   2.349   2.099  0.00  0.00     0.020 A 
ATOM      2  C1  UNL d   1       1.155   2.515   0.737  0.00  0.00     0.020 A 
ATOM      3  C2  UNL d   1       0.683   1.573  -0.179  0.00  0.00     0.034 A 
ATOM      4  C3  UNL d   1      -0.041   0.460   0.266  0.00  0.00     0.017 A 
ATOM      5  C4  UNL d   1      -0.290   0.295   1.633  0.00  0.00     0.017 A 
ATOM      6  C5  UNL d   1       0.185   1.242   2.546  0.00  0.00     0.034 A 
ATOM      7 Cl   UNL d   1      -1.176  -1.052   2.257  0.00  0.00    -0.070 Cl
ATOM      8 Cl1  UNL d   1      -0.595  -0.665  -0.923  0.00  0.00    -0.070 Cl
ENDROOT
TORSDOF 0
ENDMDL
