MODEL 1
REMARK minimizedAffinity -3.92118645
REMARK minimizedRMSD -1
REMARK  0 active torsions:
REMARK  status: ('A' for Active; 'I' for Inactive)
ROOT
ATOM      1  C   UNL d   1       1.696  -0.172  -1.115  0.00  0.00     0.020 A 
ATOM      2  C1  UNL d   1       0.557  -0.930  -0.847  0.00  0.00     0.020 A 
ATOM      3  C2  UNL d   1      -0.339  -0.518   0.142  0.00  0.00     0.034 A 
ATOM      4  C3  UNL d   1      -0.097   0.656   0.866  0.00  0.00     0.017 A 
ATOM      5  C4  UNL d   1       1.047   1.416   0.596  0.00  0.00     0.017 A 
ATOM      6  C5  UNL d   1       1.940   0.998  -0.396  0.00  0.00     0.034 A 
ATOM      7 Cl   UNL d   1       1.413   2.874   1.448  0.00  0.00    -0.070 Cl
ATOM      8 Cl1  UNL d   1      -1.247   1.105   2.075  0.00  0.00    -0.070 Cl
ENDROOT
TORSDOF 0
ENDMDL
