MODEL 1
REMARK minimizedAffinity 6.89154816
REMARK minimizedRMSD -1
REMARK  0 active torsions:
REMARK  status: ('A' for Active; 'I' for Inactive)
ROOT
ATOM      1  C   UNL d   1       5.991   3.514  -4.121  0.00  0.00     0.020 A 
ATOM      2  C1  UNL d   1       5.613   3.309  -2.795  0.00  0.00     0.020 A 
ATOM      3  C2  UNL d   1       4.263   3.347  -2.440  0.00  0.00     0.034 A 
ATOM      4  C3  UNL d   1       3.286   3.591  -3.412  0.00  0.00     0.017 A 
ATOM      5  C4  UNL d   1       3.666   3.797  -4.743  0.00  0.00     0.017 A 
ATOM      6  C5  UNL d   1       5.020   3.758  -5.093  0.00  0.00     0.034 A 
ATOM      7 Cl   UNL d   1       2.519   4.103  -5.999  0.00  0.00    -0.070 Cl
ATOM      8 Cl1  UNL d   1       1.635   3.624  -2.902  0.00  0.00    -0.070 Cl
ENDROOT
TORSDOF 0
ENDMDL
