MODEL 1
REMARK minimizedAffinity -1.9799335
REMARK minimizedRMSD -1
REMARK  0 active torsions:
REMARK  status: ('A' for Active; 'I' for Inactive)
ROOT
ATOM      1  C   UNL d   1       4.198   4.274  -5.053  0.00  0.00     0.020 A 
ATOM      2  C1  UNL d   1       4.102   4.083  -3.676  0.00  0.00     0.020 A 
ATOM      3  C2  UNL d   1       2.952   4.486  -2.994  0.00  0.00     0.034 A 
ATOM      4  C3  UNL d   1       1.893   5.081  -3.689  0.00  0.00     0.017 A 
ATOM      5  C4  UNL d   1       1.991   5.272  -5.072  0.00  0.00     0.017 A 
ATOM      6  C5  UNL d   1       3.145   4.867  -5.750  0.00  0.00     0.034 A 
ATOM      7 Cl   UNL d   1       0.726   6.000  -5.998  0.00  0.00    -0.070 Cl
ATOM      8 Cl1  UNL d   1       0.501   5.554  -2.782  0.00  0.00    -0.070 Cl
ENDROOT
TORSDOF 0
ENDMDL
