MODEL 1
REMARK minimizedAffinity -2.62556338
REMARK minimizedRMSD -1
REMARK  0 active torsions:
REMARK  status: ('A' for Active; 'I' for Inactive)
ROOT
ATOM      1  C   UNL d   1       0.753   1.387   4.698  0.00  0.00     0.020 A 
ATOM      2  C1  UNL d   1       2.099   1.347   5.059  0.00  0.00     0.020 A 
ATOM      3  C2  UNL d   1       3.085   1.294   4.071  0.00  0.00     0.034 A 
ATOM      4  C3  UNL d   1       2.726   1.282   2.718  0.00  0.00     0.017 A 
ATOM      5  C4  UNL d   1       1.374   1.322   2.358  0.00  0.00     0.017 A 
ATOM      6  C5  UNL d   1       0.391   1.375   3.351  0.00  0.00     0.034 A 
ATOM      7 Cl   UNL d   1       0.853   1.311   0.709  0.00  0.00    -0.070 Cl
ATOM      8 Cl1  UNL d   1       3.997   1.217   1.550  0.00  0.00    -0.070 Cl
ENDROOT
TORSDOF 0
ENDMDL
