MODEL 1
REMARK minimizedAffinity -0.836181641
REMARK minimizedRMSD -1
REMARK  0 active torsions:
REMARK  status: ('A' for Active; 'I' for Inactive)
ROOT
ATOM      1  C   UNL d   1       2.085   1.885   2.644  0.00  0.00     0.020 A 
ATOM      2  C1  UNL d   1       1.326   1.689   3.797  0.00  0.00     0.020 A 
ATOM      3  C2  UNL d   1       0.199   0.865   3.759  0.00  0.00     0.034 A 
ATOM      4  C3  UNL d   1      -0.171   0.233   2.566  0.00  0.00     0.017 A 
ATOM      5  C4  UNL d   1       0.592   0.431   1.410  0.00  0.00     0.017 A 
ATOM      6  C5  UNL d   1       1.719   1.257   1.453  0.00  0.00     0.034 A 
ATOM      7 Cl   UNL d   1       0.198  -0.314  -0.099  0.00  0.00    -0.070 Cl
ATOM      8 Cl1  UNL d   1      -1.576  -0.772   2.592  0.00  0.00    -0.070 Cl
ENDROOT
TORSDOF 0
ENDMDL
