MODEL 1
REMARK minimizedAffinity 2.49895787
REMARK minimizedRMSD -1
REMARK  0 active torsions:
REMARK  status: ('A' for Active; 'I' for Inactive)
ROOT
ATOM      1  C   UNL d   1      -3.385  -1.970  -3.439  0.00  0.00     0.020 A 
ATOM      2  C1  UNL d   1      -3.056  -1.837  -2.091  0.00  0.00     0.020 A 
ATOM      3  C2  UNL d   1      -1.980  -1.031  -1.712  0.00  0.00     0.034 A 
ATOM      4  C3  UNL d   1      -1.229  -0.356  -2.682  0.00  0.00     0.017 A 
ATOM      5  C4  UNL d   1      -1.561  -0.491  -4.035  0.00  0.00     0.017 A 
ATOM      6  C5  UNL d   1      -2.639  -1.299  -4.409  0.00  0.00     0.034 A 
ATOM      7 Cl   UNL d   1      -0.682   0.310  -5.289  0.00  0.00    -0.070 Cl
ATOM      8 Cl1  UNL d   1       0.087   0.623  -2.141  0.00  0.00    -0.070 Cl
ENDROOT
TORSDOF 0
ENDMDL
