MODEL 1
REMARK minimizedAffinity 6.98463297
REMARK minimizedRMSD -1
REMARK  0 active torsions:
REMARK  status: ('A' for Active; 'I' for Inactive)
ROOT
ATOM      1  C   UNL d   1      -0.828  -0.951  -5.053  0.00  0.00     0.020 A 
ATOM      2  C1  UNL d   1      -0.487   0.297  -5.573  0.00  0.00     0.020 A 
ATOM      3  C2  UNL d   1       0.435   1.104  -4.903  0.00  0.00     0.034 A 
ATOM      4  C3  UNL d   1       1.018   0.664  -3.709  0.00  0.00     0.017 A 
ATOM      5  C4  UNL d   1       0.675  -0.589  -3.188  0.00  0.00     0.017 A 
ATOM      6  C5  UNL d   1      -0.248  -1.393  -3.863  0.00  0.00     0.034 A 
ATOM      7 Cl   UNL d   1       1.353  -1.199  -1.720  0.00  0.00    -0.070 Cl
ATOM      8 Cl1  UNL d   1       2.150   1.714  -2.933  0.00  0.00    -0.070 Cl
ENDROOT
TORSDOF 0
ENDMDL
