MODEL 1
REMARK minimizedAffinity -1.03991377
REMARK minimizedRMSD -1
REMARK  0 active torsions:
REMARK  status: ('A' for Active; 'I' for Inactive)
ROOT
ATOM      1  C   UNL d   1      -2.844   5.798  -2.245  0.00  0.00     0.020 A 
ATOM      2  C1  UNL d   1      -3.428   5.984  -3.497  0.00  0.00     0.020 A 
ATOM      3  C2  UNL d   1      -2.631   6.000  -4.644  0.00  0.00     0.034 A 
ATOM      4  C3  UNL d   1      -1.245   5.830  -4.540  0.00  0.00     0.017 A 
ATOM      5  C4  UNL d   1      -0.660   5.643  -3.282  0.00  0.00     0.017 A 
ATOM      6  C5  UNL d   1      -1.463   5.628  -2.138  0.00  0.00     0.034 A 
ATOM      7 Cl   UNL d   1       1.042   5.427  -3.075  0.00  0.00    -0.070 Cl
ATOM      8 Cl1  UNL d   1      -0.321   5.860  -5.999  0.00  0.00    -0.070 Cl
ENDROOT
TORSDOF 0
ENDMDL
