MODEL 1
REMARK minimizedAffinity 9.23693752
REMARK minimizedRMSD -1
REMARK  0 active torsions:
REMARK  status: ('A' for Active; 'I' for Inactive)
ROOT
ATOM      1  C   UNL d   1      -2.170  -0.627  -2.209  0.00  0.00    -0.002 A 
ATOM      2  C1  UNL d   1      -2.219  -0.885  -3.571  0.00  0.00     0.010 A 
ATOM      3  C2  UNL d   1      -2.652   0.097  -4.464  0.00  0.00     0.041 A 
ATOM      4  C3  UNL d   1      -3.039   1.355  -3.960  0.00  0.00    -0.075 A 
ATOM      5  S   UNL d   1      -3.602   2.709  -4.866  0.00  0.00     0.015 SA
ATOM      6  C4  UNL d   1      -3.791   3.661  -3.465  0.00  0.00     0.022 A 
ATOM      7  C5  UNL d   1      -3.438   2.978  -2.326  0.00  0.00     0.026 A 
ATOM      8  C6  UNL d   1      -2.998   1.638  -2.592  0.00  0.00    -0.082 A 
ATOM      9  C7  UNL d   1      -2.554   0.621  -1.712  0.00  0.00     0.045 A 
ENDROOT
TORSDOF 0
ENDMDL
