MODEL 1
REMARK minimizedAffinity 28.9845581
REMARK minimizedRMSD -1
REMARK  0 active torsions:
REMARK  status: ('A' for Active; 'I' for Inactive)
ROOT
ATOM      1  C   UNL d   1      -2.794   0.802  -3.553  0.00  0.00    -0.002 A 
ATOM      2  C1  UNL d   1      -2.497  -0.544  -3.394  0.00  0.00     0.010 A 
ATOM      3  C2  UNL d   1      -1.941  -1.012  -2.202  0.00  0.00     0.041 A 
ATOM      4  C3  UNL d   1      -1.687  -0.096  -1.162  0.00  0.00    -0.075 A 
ATOM      5  S   UNL d   1      -1.012  -0.442   0.387  0.00  0.00     0.015 SA
ATOM      6  C4  UNL d   1      -1.103   1.189   0.873  0.00  0.00     0.022 A 
ATOM      7  C5  UNL d   1      -1.633   1.992  -0.110  0.00  0.00     0.026 A 
ATOM      8  C6  UNL d   1      -1.979   1.264  -1.298  0.00  0.00    -0.082 A 
ATOM      9  C7  UNL d   1      -2.541   1.708  -2.520  0.00  0.00     0.045 A 
ENDROOT
TORSDOF 0
ENDMDL
