MODEL 1
REMARK minimizedAffinity 17.4978371
REMARK minimizedRMSD -1
REMARK  0 active torsions:
REMARK  status: ('A' for Active; 'I' for Inactive)
ROOT
ATOM      1  C   UNL d   1      -2.508   0.380  -3.829  0.00  0.00    -0.002 A 
ATOM      2  C1  UNL d   1      -2.187  -0.901  -3.403  0.00  0.00     0.010 A 
ATOM      3  C2  UNL d   1      -1.857  -1.144  -2.068  0.00  0.00     0.041 A 
ATOM      4  C3  UNL d   1      -1.857  -0.067  -1.159  0.00  0.00    -0.075 A 
ATOM      5  S   UNL d   1      -1.487  -0.127   0.523  0.00  0.00     0.015 SA
ATOM      6  C4  UNL d   1      -1.747   1.547   0.716  0.00  0.00     0.022 A 
ATOM      7  C5  UNL d   1      -2.108   2.152  -0.464  0.00  0.00     0.026 A 
ATOM      8  C6  UNL d   1      -2.178   1.232  -1.565  0.00  0.00    -0.082 A 
ATOM      9  C7  UNL d   1      -2.507   1.445  -2.925  0.00  0.00     0.045 A 
ENDROOT
TORSDOF 0
ENDMDL
