MODEL 1
REMARK minimizedAffinity -1.59761846
REMARK minimizedRMSD -1
REMARK  0 active torsions:
REMARK  status: ('A' for Active; 'I' for Inactive)
ROOT
ATOM      1  C   UNL d   1       2.430  -1.426   2.932  0.00  0.00    -0.002 A 
ATOM      2  C1  UNL d   1       1.514  -2.356   2.461  0.00  0.00     0.010 A 
ATOM      3  C2  UNL d   1       0.623  -2.022   1.440  0.00  0.00     0.041 A 
ATOM      4  C3  UNL d   1       0.668  -0.725   0.893  0.00  0.00    -0.075 A 
ATOM      5  S   UNL d   1      -0.326  -0.092  -0.365  0.00  0.00     0.015 SA
ATOM      6  C4  UNL d   1       0.442   1.429  -0.309  0.00  0.00     0.022 A 
ATOM      7  C5  UNL d   1       1.435   1.470   0.641  0.00  0.00     0.026 A 
ATOM      8  C6  UNL d   1       1.582   0.229   1.349  0.00  0.00    -0.082 A 
ATOM      9  C7  UNL d   1       2.473  -0.140   2.386  0.00  0.00     0.045 A 
ENDROOT
TORSDOF 0
ENDMDL
