MODEL 1
REMARK minimizedAffinity 22.0426388
REMARK minimizedRMSD -1
REMARK  0 active torsions:
REMARK  status: ('A' for Active; 'I' for Inactive)
ROOT
ATOM      1  C   UNL d   1       1.757   1.572   4.572  0.00  0.00    -0.002 A 
ATOM      2  C1  UNL d   1       2.084   0.742   5.635  0.00  0.00     0.010 A 
ATOM      3  C2  UNL d   1       1.962  -0.644   5.518  0.00  0.00     0.041 A 
ATOM      4  C3  UNL d   1       1.502  -1.187   4.302  0.00  0.00    -0.075 A 
ATOM      5  S   UNL d   1       1.275  -2.855   3.929  0.00  0.00     0.015 SA
ATOM      6  C4  UNL d   1       0.738  -2.505   2.350  0.00  0.00     0.022 A 
ATOM      7  C5  UNL d   1       0.726  -1.154   2.096  0.00  0.00     0.026 A 
ATOM      8  C6  UNL d   1       1.167  -0.372   3.217  0.00  0.00    -0.082 A 
ATOM      9  C7  UNL d   1       1.301   1.030   3.368  0.00  0.00     0.045 A 
ENDROOT
TORSDOF 0
ENDMDL
