MODEL 1
REMARK minimizedAffinity 20.8628101
REMARK minimizedRMSD -1
REMARK  0 active torsions:
REMARK  status: ('A' for Active; 'I' for Inactive)
ROOT
ATOM      1  C   UNL d   1      -1.815  -1.097  -2.519  0.00  0.00    -0.002 A 
ATOM      2  C1  UNL d   1      -1.866  -0.931  -3.896  0.00  0.00     0.010 A 
ATOM      3  C2  UNL d   1      -2.272   0.284  -4.450  0.00  0.00     0.041 A 
ATOM      4  C3  UNL d   1      -2.628   1.341  -3.589  0.00  0.00    -0.075 A 
ATOM      5  S   UNL d   1      -3.156   2.918  -4.042  0.00  0.00     0.015 SA
ATOM      6  C4  UNL d   1      -3.325   3.409  -2.419  0.00  0.00     0.022 A 
ATOM      7  C5  UNL d   1      -2.992   2.407  -1.539  0.00  0.00     0.026 A 
ATOM      8  C6  UNL d   1      -2.584   1.198  -2.199  0.00  0.00    -0.082 A 
ATOM      9  C7  UNL d   1      -2.169  -0.047  -1.668  0.00  0.00     0.045 A 
ENDROOT
TORSDOF 0
ENDMDL
