MODEL 1
REMARK minimizedAffinity 10.6771212
REMARK minimizedRMSD -1
REMARK  0 active torsions:
REMARK  status: ('A' for Active; 'I' for Inactive)
ROOT
ATOM      1  C   UNL d   1      -1.087  -1.493  -2.835  0.00  0.00    -0.002 A 
ATOM      2  C1  UNL d   1      -0.958  -1.129  -4.168  0.00  0.00     0.010 A 
ATOM      3  C2  UNL d   1      -1.458   0.094  -4.621  0.00  0.00     0.041 A 
ATOM      4  C3  UNL d   1      -2.094   0.953  -3.704  0.00  0.00    -0.075 A 
ATOM      5  S   UNL d   1      -2.782   2.499  -4.032  0.00  0.00     0.015 SA
ATOM      6  C4  UNL d   1      -3.263   2.712  -2.411  0.00  0.00     0.022 A 
ATOM      7  C5  UNL d   1      -2.916   1.639  -1.625  0.00  0.00     0.026 A 
ATOM      8  C6  UNL d   1      -2.236   0.608  -2.356  0.00  0.00    -0.082 A 
ATOM      9  C7  UNL d   1      -1.719  -0.639  -1.928  0.00  0.00     0.045 A 
ENDROOT
TORSDOF 0
ENDMDL
