MODEL 1
REMARK minimizedAffinity 6.27128172
REMARK minimizedRMSD -1
REMARK  0 active torsions:
REMARK  status: ('A' for Active; 'I' for Inactive)
ROOT
ATOM      1  C   UNL d   1      -3.261  -2.195  -4.688  0.00  0.00    -0.002 A 
ATOM      2  C1  UNL d   1      -4.120  -1.495  -3.853  0.00  0.00     0.010 A 
ATOM      3  C2  UNL d   1      -3.618  -0.608  -2.899  0.00  0.00     0.041 A 
ATOM      4  C3  UNL d   1      -2.223  -0.434  -2.798  0.00  0.00    -0.075 A 
ATOM      5  S   UNL d   1      -1.381   0.599  -1.704  0.00  0.00     0.015 SA
ATOM      6  C4  UNL d   1       0.139   0.136  -2.320  0.00  0.00     0.022 A 
ATOM      7  C5  UNL d   1       0.026  -0.784  -3.336  0.00  0.00     0.026 A 
ATOM      8  C6  UNL d   1      -1.338  -1.127  -3.628  0.00  0.00    -0.082 A 
ATOM      9  C7  UNL d   1      -1.879  -2.019  -4.585  0.00  0.00     0.045 A 
ENDROOT
TORSDOF 0
ENDMDL
