MODEL 1
REMARK minimizedAffinity -4.9078145
REMARK minimizedRMSD -1
REMARK  2 active torsions:
REMARK  status: ('A' for Active; 'I' for Inactive)
REMARK    1  A    between atoms: C1_2  and  C2_3 
REMARK    2  A    between atoms: C2_3  and  C3_4 
ROOT
ATOM      1  C3  UNL d   1      -0.244   0.893   0.629  0.00  0.00    -0.075 A 
ATOM      2  C4  UNL d   1      -0.070   1.269  -0.711  0.00  0.00     0.002 A 
ATOM      3  C5  UNL d   1      -0.641   2.446  -1.196  0.00  0.00     0.002 A 
ATOM      4  C6  UNL d   1      -1.400   3.254  -0.354  0.00  0.00    -0.004 A 
ATOM      5  C7  UNL d   1      -1.593   2.882   0.975  0.00  0.00     0.002 A 
ATOM      6  C8  UNL d   1      -1.019   1.708   1.465  0.00  0.00     0.002 A 
ENDROOT
BRANCH   1   7
ATOM      7  C2  UNL d   1       0.396  -0.364   1.168  0.00  0.00     0.056 C 
BRANCH   7   8
ATOM      8  C1  UNL d   1       1.882  -0.210   1.510  0.00  0.00     0.007 C 
ATOM      9  C   UNL d   1       2.238  -0.739   2.893  0.00  0.00     0.009 C 
ENDBRANCH   7   8
ENDBRANCH   1   7
TORSDOF 2
ENDMDL
