MODEL 1
REMARK minimizedAffinity -3.60360003
REMARK minimizedRMSD -1
REMARK  2 active torsions:
REMARK  status: ('A' for Active; 'I' for Inactive)
REMARK    1  A    between atoms: C1_2  and  C2_3 
REMARK    2  A    between atoms: C2_3  and  C3_4 
ROOT
ATOM      1  C3  UNL d   1       0.087  -0.031  -0.079  0.00  0.00    -0.075 A 
ATOM      2  C4  UNL d   1       0.770   0.202   1.124  0.00  0.00     0.002 A 
ATOM      3  C5  UNL d   1       0.355   1.215   1.989  0.00  0.00     0.002 A 
ATOM      4  C6  UNL d   1      -0.739   2.013   1.659  0.00  0.00    -0.004 A 
ATOM      5  C7  UNL d   1      -1.414   1.801   0.458  0.00  0.00     0.002 A 
ATOM      6  C8  UNL d   1      -1.004   0.785  -0.407  0.00  0.00     0.002 A 
ENDROOT
BRANCH   1   7
ATOM      7  C2  UNL d   1       0.513  -1.145  -1.005  0.00  0.00     0.056 C 
BRANCH   7   8
ATOM      8  C1  UNL d   1      -0.615  -2.115  -1.374  0.00  0.00     0.007 C 
ATOM      9  C   UNL d   1      -0.192  -3.577  -1.316  0.00  0.00     0.009 C 
ENDBRANCH   7   8
ENDBRANCH   1   7
TORSDOF 2
ENDMDL
