MODEL 1
REMARK minimizedAffinity -4.13639116
REMARK minimizedRMSD -1
REMARK  2 active torsions:
REMARK  status: ('A' for Active; 'I' for Inactive)
REMARK    1  A    between atoms: C1_2  and  C2_3 
REMARK    2  A    between atoms: C2_3  and  C3_4 
ROOT
ATOM      1  C3  UNL d   1      -0.083  -0.201  -0.017  0.00  0.00    -0.075 A 
ATOM      2  C4  UNL d   1      -0.997   0.812  -0.342  0.00  0.00     0.002 A 
ATOM      3  C5  UNL d   1      -1.370   1.762   0.609  0.00  0.00     0.002 A 
ATOM      4  C6  UNL d   1      -0.843   1.706   1.897  0.00  0.00    -0.004 A 
ATOM      5  C7  UNL d   1       0.052   0.694   2.237  0.00  0.00     0.002 A 
ATOM      6  C8  UNL d   1       0.431  -0.255   1.286  0.00  0.00     0.002 A 
ENDROOT
BRANCH   1   7
ATOM      7  C2  UNL d   1       0.347  -1.215  -1.050  0.00  0.00     0.056 C 
BRANCH   7   8
ATOM      8  C1  UNL d   1      -0.382  -2.559  -0.946  0.00  0.00     0.007 C 
ATOM      9  C   UNL d   1      -0.496  -3.284  -2.281  0.00  0.00     0.009 C 
ENDBRANCH   7   8
ENDBRANCH   1   7
TORSDOF 2
ENDMDL
