MODEL 1
REMARK minimizedAffinity -4.68673038
REMARK minimizedRMSD -1
REMARK  2 active torsions:
REMARK  status: ('A' for Active; 'I' for Inactive)
REMARK    1  A    between atoms: C1_2  and  C2_3 
REMARK    2  A    between atoms: C2_3  and  C3_4 
ROOT
ATOM      1  C3  UNL d   1      -0.181   0.538  -0.420  0.00  0.00    -0.075 A 
ATOM      2  C4  UNL d   1      -0.070   0.398   0.971  0.00  0.00     0.002 A 
ATOM      3  C5  UNL d   1      -0.287   1.490   1.812  0.00  0.00     0.002 A 
ATOM      4  C6  UNL d   1      -0.607   2.735   1.274  0.00  0.00    -0.004 A 
ATOM      5  C7  UNL d   1      -0.704   2.888  -0.107  0.00  0.00     0.002 A 
ATOM      6  C8  UNL d   1      -0.491   1.797  -0.951  0.00  0.00     0.002 A 
ENDROOT
BRANCH   1   7
ATOM      7  C2  UNL d   1       0.024  -0.647  -1.334  0.00  0.00     0.056 C 
BRANCH   7   8
ATOM      8  C1  UNL d   1      -0.150  -2.004  -0.645  0.00  0.00     0.007 C 
ATOM      9  C   UNL d   1      -0.647  -3.095  -1.584  0.00  0.00     0.009 C 
ENDBRANCH   7   8
ENDBRANCH   1   7
TORSDOF 2
ENDMDL
