MODEL 1
REMARK minimizedAffinity -6.16460943
REMARK minimizedRMSD -1
REMARK  2 active torsions:
REMARK  status: ('A' for Active; 'I' for Inactive)
REMARK    1  A    between atoms: C1_2  and  C2_3 
REMARK    2  A    between atoms: C2_3  and  C3_4 
ROOT
ATOM      1  C3  UNL d   1       0.054   1.340   0.537  0.00  0.00    -0.075 A 
ATOM      2  C4  UNL d   1       0.040   2.205  -0.567  0.00  0.00     0.002 A 
ATOM      3  C5  UNL d   1      -0.549   3.466  -0.472  0.00  0.00     0.002 A 
ATOM      4  C6  UNL d   1      -1.140   3.874   0.723  0.00  0.00    -0.004 A 
ATOM      5  C7  UNL d   1      -1.146   3.016   1.820  0.00  0.00     0.002 A 
ATOM      6  C8  UNL d   1      -0.554   1.756   1.729  0.00  0.00     0.002 A 
ENDROOT
BRANCH   1   7
ATOM      7  C2  UNL d   1       0.716  -0.014   0.448  0.00  0.00     0.056 C 
BRANCH   7   8
ATOM      8  C1  UNL d   1       0.999  -0.478  -0.984  0.00  0.00     0.007 C 
ATOM      9  C   UNL d   1       0.650  -1.941  -1.222  0.00  0.00     0.009 C 
ENDBRANCH   7   8
ENDBRANCH   1   7
TORSDOF 2
ENDMDL
