MODEL 1
REMARK minimizedAffinity -4.79007053
REMARK minimizedRMSD -1
REMARK  2 active torsions:
REMARK  status: ('A' for Active; 'I' for Inactive)
REMARK    1  A    between atoms: C1_2  and  C2_3 
REMARK    2  A    between atoms: C2_3  and  C3_4 
ROOT
ATOM      1  C3  UNL d   1      -0.074   0.599   0.167  0.00  0.00    -0.075 A 
ATOM      2  C4  UNL d   1      -0.450   0.666   1.517  0.00  0.00     0.002 A 
ATOM      3  C5  UNL d   1      -0.845   1.878   2.082  0.00  0.00     0.002 A 
ATOM      4  C6  UNL d   1      -0.860   3.038   1.311  0.00  0.00    -0.004 A 
ATOM      5  C7  UNL d   1      -0.472   2.986  -0.026  0.00  0.00     0.002 A 
ATOM      6  C8  UNL d   1      -0.081   1.774  -0.596  0.00  0.00     0.002 A 
ENDROOT
BRANCH   1   7
ATOM      7  C2  UNL d   1       0.327  -0.716  -0.459  0.00  0.00     0.056 C 
BRANCH   7   8
ATOM      8  C1  UNL d   1      -0.687  -1.845  -0.242  0.00  0.00     0.007 C 
ATOM      9  C   UNL d   1      -0.329  -3.124  -0.987  0.00  0.00     0.009 C 
ENDBRANCH   7   8
ENDBRANCH   1   7
TORSDOF 2
ENDMDL
