MODEL 1
REMARK minimizedAffinity -5.69267416
REMARK minimizedRMSD -1
REMARK  2 active torsions:
REMARK  status: ('A' for Active; 'I' for Inactive)
REMARK    1  A    between atoms: C1_2  and  C2_3 
REMARK    2  A    between atoms: C2_3  and  C3_4 
ROOT
ATOM      1  C3  UNL d   1      -0.440   0.837   0.226  0.00  0.00    -0.075 A 
ATOM      2  C4  UNL d   1      -0.383   1.512  -1.002  0.00  0.00     0.002 A 
ATOM      3  C5  UNL d   1      -0.534   2.897  -1.056  0.00  0.00     0.002 A 
ATOM      4  C6  UNL d   1      -0.756   3.623   0.112  0.00  0.00    -0.004 A 
ATOM      5  C7  UNL d   1      -0.831   2.961   1.335  0.00  0.00     0.002 A 
ATOM      6  C8  UNL d   1      -0.675   1.575   1.393  0.00  0.00     0.002 A 
ENDROOT
BRANCH   1   7
ATOM      7  C2  UNL d   1      -0.247  -0.659   0.295  0.00  0.00     0.056 C 
BRANCH   7   8
ATOM      8  C1  UNL d   1       0.280  -1.281  -1.003  0.00  0.00     0.007 C 
ATOM      9  C   UNL d   1       0.258  -2.803  -0.992  0.00  0.00     0.009 C 
ENDBRANCH   7   8
ENDBRANCH   1   7
TORSDOF 2
ENDMDL
