MODEL 1
REMARK minimizedAffinity -4.78513718
REMARK minimizedRMSD -1
REMARK  2 active torsions:
REMARK  status: ('A' for Active; 'I' for Inactive)
REMARK    1  A    between atoms: C1_2  and  C2_3 
REMARK    2  A    between atoms: C2_3  and  C3_4 
ROOT
ATOM      1  C3  UNL d   1      -0.348   0.664   0.177  0.00  0.00    -0.075 A 
ATOM      2  C4  UNL d   1      -0.248   1.597  -0.865  0.00  0.00     0.002 A 
ATOM      3  C5  UNL d   1      -0.694   2.907  -0.688  0.00  0.00     0.002 A 
ATOM      4  C6  UNL d   1      -1.254   3.297   0.527  0.00  0.00    -0.004 A 
ATOM      5  C7  UNL d   1      -1.374   2.374   1.563  0.00  0.00     0.002 A 
ATOM      6  C8  UNL d   1      -0.925   1.064   1.390  0.00  0.00     0.002 A 
ENDROOT
BRANCH   1   7
ATOM      7  C2  UNL d   1       0.159  -0.748   0.002  0.00  0.00     0.056 C 
BRANCH   7   8
ATOM      8  C1  UNL d   1      -0.898  -1.732  -0.510  0.00  0.00     0.007 C 
ATOM      9  C   UNL d   1      -0.469  -3.188  -0.391  0.00  0.00     0.009 C 
ENDBRANCH   7   8
ENDBRANCH   1   7
TORSDOF 2
ENDMDL
