MODEL 1
REMARK minimizedAffinity -3.01588368
REMARK minimizedRMSD -1
REMARK  0 active torsions:
REMARK  status: ('A' for Active; 'I' for Inactive)
ROOT
ATOM      1  C   UNL d   1       0.362   1.192  -0.237  0.00  0.00     0.078 C 
ATOM      2  C1  UNL d   1       0.011  -0.264  -0.181  0.00  0.00    -0.077 A 
ATOM      3  C2  UNL d   1      -0.618  -0.812   0.944  0.00  0.00    -0.001 A 
ATOM      4  C3  UNL d   1      -0.930  -2.171   0.987  0.00  0.00     0.003 A 
ATOM      5  C4  UNL d   1      -0.615  -2.996  -0.092  0.00  0.00    -0.005 A 
ATOM      6  C5  UNL d   1       0.013  -2.461  -1.215  0.00  0.00     0.003 A 
ATOM      7  C6  UNL d   1       0.326  -1.101  -1.259  0.00  0.00    -0.001 A 
ENDROOT
TORSDOF 0
ENDMDL
