MODEL 1
REMARK minimizedAffinity -3.87241769
REMARK minimizedRMSD -1
REMARK  0 active torsions:
REMARK  status: ('A' for Active; 'I' for Inactive)
ROOT
ATOM      1  C   UNL d   1       0.267  -0.599  -2.465  0.00  0.00     0.078 C 
ATOM      2  C1  UNL d   1      -0.056  -0.764  -1.010  0.00  0.00    -0.077 A 
ATOM      3  C2  UNL d   1      -0.856  -1.822  -0.564  0.00  0.00    -0.001 A 
ATOM      4  C3  UNL d   1      -1.156  -1.958   0.793  0.00  0.00     0.003 A 
ATOM      5  C4  UNL d   1      -0.660  -1.037   1.714  0.00  0.00    -0.005 A 
ATOM      6  C5  UNL d   1       0.136   0.021   1.279  0.00  0.00     0.003 A 
ATOM      7  C6  UNL d   1       0.437   0.158  -0.077  0.00  0.00    -0.001 A 
ENDROOT
TORSDOF 0
ENDMDL
