MODEL 1
REMARK minimizedAffinity -3.41615772
REMARK minimizedRMSD -1
REMARK  0 active torsions:
REMARK  status: ('A' for Active; 'I' for Inactive)
ROOT
ATOM      1  C   UNL d   1      -1.239  -2.859   0.716  0.00  0.00     0.078 C 
ATOM      2  C1  UNL d   1      -0.889  -1.472   0.268  0.00  0.00    -0.077 A 
ATOM      3  C2  UNL d   1      -1.194  -0.359   1.062  0.00  0.00    -0.001 A 
ATOM      4  C3  UNL d   1      -0.870   0.927   0.629  0.00  0.00     0.003 A 
ATOM      5  C4  UNL d   1      -0.242   1.114  -0.600  0.00  0.00    -0.005 A 
ATOM      6  C5  UNL d   1       0.063   0.014  -1.399  0.00  0.00     0.003 A 
ATOM      7  C6  UNL d   1      -0.259  -1.274  -0.967  0.00  0.00    -0.001 A 
ENDROOT
TORSDOF 0
ENDMDL
