MODEL 1
REMARK minimizedAffinity -4.84783077
REMARK minimizedRMSD -1
REMARK  0 active torsions:
REMARK  status: ('A' for Active; 'I' for Inactive)
ROOT
ATOM      1  C   UNL d   1       0.525   1.056  -0.032  0.00  0.00     0.078 C 
ATOM      2  C1  UNL d   1       0.309  -0.425   0.063  0.00  0.00    -0.077 A 
ATOM      3  C2  UNL d   1       0.356  -1.235  -1.078  0.00  0.00    -0.001 A 
ATOM      4  C3  UNL d   1       0.143  -2.611  -0.977  0.00  0.00     0.003 A 
ATOM      5  C4  UNL d   1      -0.120  -3.189   0.264  0.00  0.00    -0.005 A 
ATOM      6  C5  UNL d   1      -0.171  -2.390   1.405  0.00  0.00     0.003 A 
ATOM      7  C6  UNL d   1       0.042  -1.014   1.305  0.00  0.00    -0.001 A 
ENDROOT
TORSDOF 0
ENDMDL
