MODEL 1
REMARK minimizedAffinity -3.70741916
REMARK minimizedRMSD -1
REMARK  0 active torsions:
REMARK  status: ('A' for Active; 'I' for Inactive)
ROOT
ATOM      1  C   UNL d   1      -1.313  -3.248  -0.024  0.00  0.00     0.078 C 
ATOM      2  C1  UNL d   1      -0.916  -1.826  -0.285  0.00  0.00    -0.077 A 
ATOM      3  C2  UNL d   1      -0.455  -1.425  -1.545  0.00  0.00    -0.001 A 
ATOM      4  C3  UNL d   1      -0.080  -0.100  -1.771  0.00  0.00     0.003 A 
ATOM      5  C4  UNL d   1      -0.161   0.835  -0.742  0.00  0.00    -0.005 A 
ATOM      6  C5  UNL d   1      -0.617   0.446   0.516  0.00  0.00     0.003 A 
ATOM      7  C6  UNL d   1      -0.992  -0.879   0.744  0.00  0.00    -0.001 A 
ENDROOT
TORSDOF 0
ENDMDL
