MODEL 1
REMARK minimizedAffinity -4.46329832
REMARK minimizedRMSD -1
REMARK  0 active torsions:
REMARK  status: ('A' for Active; 'I' for Inactive)
ROOT
ATOM      1  C   UNL d   1      -0.102   1.186  -0.311  0.00  0.00     0.078 C 
ATOM      2  C1  UNL d   1      -0.235  -0.307  -0.282  0.00  0.00    -0.077 A 
ATOM      3  C2  UNL d   1      -0.686  -0.969   0.867  0.00  0.00    -0.001 A 
ATOM      4  C3  UNL d   1      -0.795  -2.360   0.883  0.00  0.00     0.003 A 
ATOM      5  C4  UNL d   1      -0.453  -3.102  -0.246  0.00  0.00    -0.005 A 
ATOM      6  C5  UNL d   1      -0.001  -2.452  -1.393  0.00  0.00     0.003 A 
ATOM      7  C6  UNL d   1       0.109  -1.061  -1.411  0.00  0.00    -0.001 A 
ENDROOT
TORSDOF 0
ENDMDL
