MODEL 1
REMARK minimizedAffinity -3.6618197
REMARK minimizedRMSD -1
REMARK  0 active torsions:
REMARK  status: ('A' for Active; 'I' for Inactive)
ROOT
ATOM      1  C   UNL d   1       0.286   1.598  -0.133  0.00  0.00     0.078 C 
ATOM      2  C1  UNL d   1      -0.088   0.172  -0.411  0.00  0.00    -0.077 A 
ATOM      3  C2  UNL d   1       0.111  -0.392  -1.677  0.00  0.00    -0.001 A 
ATOM      4  C3  UNL d   1      -0.250  -1.717  -1.924  0.00  0.00     0.003 A 
ATOM      5  C4  UNL d   1      -0.814  -2.489  -0.910  0.00  0.00    -0.005 A 
ATOM      6  C5  UNL d   1      -1.018  -1.936   0.352  0.00  0.00     0.003 A 
ATOM      7  C6  UNL d   1      -0.657  -0.611   0.601  0.00  0.00    -0.001 A 
ENDROOT
TORSDOF 0
ENDMDL
