MODEL 1
REMARK minimizedAffinity -3.00580645
REMARK minimizedRMSD -1
REMARK  0 active torsions:
REMARK  status: ('A' for Active; 'I' for Inactive)
ROOT
ATOM      1  C   UNL d   1      -1.304  -1.957   1.134  0.00  0.00     0.078 C 
ATOM      2  C1  UNL d   1      -0.582  -0.707   0.728  0.00  0.00    -0.077 A 
ATOM      3  C2  UNL d   1       0.418  -0.156   1.539  0.00  0.00    -0.001 A 
ATOM      4  C3  UNL d   1       1.075   1.013   1.154  0.00  0.00     0.003 A 
ATOM      5  C4  UNL d   1       0.741   1.641  -0.044  0.00  0.00    -0.005 A 
ATOM      6  C5  UNL d   1      -0.254   1.102  -0.857  0.00  0.00     0.003 A 
ATOM      7  C6  UNL d   1      -0.913  -0.067  -0.473  0.00  0.00    -0.001 A 
ENDROOT
TORSDOF 0
ENDMDL
