MODEL 1
REMARK minimizedAffinity -3.60050607
REMARK minimizedRMSD -1
REMARK  0 active torsions:
REMARK  status: ('A' for Active; 'I' for Inactive)
ROOT
ATOM      1  C   UNL d   1       0.373  -3.157  -0.742  0.00  0.00     0.078 C 
ATOM      2  C1  UNL d   1       0.422  -1.659  -0.787  0.00  0.00    -0.077 A 
ATOM      3  C2  UNL d   1       0.449  -0.903   0.392  0.00  0.00    -0.001 A 
ATOM      4  C3  UNL d   1       0.484   0.491   0.335  0.00  0.00     0.003 A 
ATOM      5  C4  UNL d   1       0.492   1.142  -0.897  0.00  0.00    -0.005 A 
ATOM      6  C5  UNL d   1       0.464   0.398  -2.075  0.00  0.00     0.003 A 
ATOM      7  C6  UNL d   1       0.428  -0.997  -2.021  0.00  0.00    -0.001 A 
ENDROOT
TORSDOF 0
ENDMDL
