MODEL 1
REMARK minimizedAffinity -2.38334084
REMARK minimizedRMSD -1
REMARK  0 active torsions:
REMARK  status: ('A' for Active; 'I' for Inactive)
ROOT
ATOM      1  C   UNL d   1       0.094   0.341  -1.817  0.00  0.00     0.078 C 
ATOM      2  C1  UNL d   1      -0.322  -0.555  -0.690  0.00  0.00    -0.077 A 
ATOM      3  C2  UNL d   1      -0.738  -1.871  -0.930  0.00  0.00    -0.001 A 
ATOM      4  C3  UNL d   1      -1.132  -2.691   0.128  0.00  0.00     0.003 A 
ATOM      5  C4  UNL d   1      -1.116  -2.205   1.434  0.00  0.00    -0.005 A 
ATOM      6  C5  UNL d   1      -0.705  -0.897   1.682  0.00  0.00     0.003 A 
ATOM      7  C6  UNL d   1      -0.311  -0.075   0.626  0.00  0.00    -0.001 A 
ENDROOT
TORSDOF 0
ENDMDL
