MODEL 1
REMARK minimizedAffinity -3.84892845
REMARK minimizedRMSD -1
REMARK  0 active torsions:
REMARK  status: ('A' for Active; 'I' for Inactive)
ROOT
ATOM      1  C   UNL d   1       0.753   1.649   0.238  0.00  0.00     0.078 C 
ATOM      2  C1  UNL d   1       0.096   0.307   0.360  0.00  0.00    -0.077 A 
ATOM      3  C2  UNL d   1      -0.111  -0.284   1.613  0.00  0.00    -0.001 A 
ATOM      4  C3  UNL d   1      -0.714  -1.539   1.710  0.00  0.00     0.003 A 
ATOM      5  C4  UNL d   1      -1.115  -2.214   0.559  0.00  0.00    -0.005 A 
ATOM      6  C5  UNL d   1      -0.912  -1.635  -0.692  0.00  0.00     0.003 A 
ATOM      7  C6  UNL d   1      -0.308  -0.380  -0.792  0.00  0.00    -0.001 A 
ENDROOT
TORSDOF 0
ENDMDL
