MODEL 1
REMARK minimizedAffinity -2.70458531
REMARK minimizedRMSD -1
REMARK  0 active torsions:
REMARK  status: ('A' for Active; 'I' for Inactive)
ROOT
ATOM      1  C   UNL d   1      -1.218  -2.244   0.984  0.00  0.00     0.078 C 
ATOM      2  C1  UNL d   1      -0.627  -0.892   0.716  0.00  0.00    -0.077 A 
ATOM      3  C2  UNL d   1       0.044  -0.186   1.722  0.00  0.00    -0.001 A 
ATOM      4  C3  UNL d   1       0.580   1.076   1.461  0.00  0.00     0.003 A 
ATOM      5  C4  UNL d   1       0.449   1.644   0.195  0.00  0.00    -0.005 A 
ATOM      6  C5  UNL d   1      -0.219   0.949  -0.812  0.00  0.00     0.003 A 
ATOM      7  C6  UNL d   1      -0.756  -0.313  -0.553  0.00  0.00    -0.001 A 
ENDROOT
TORSDOF 0
ENDMDL
