MODEL 1
REMARK minimizedAffinity -1.96370232
REMARK minimizedRMSD -1
REMARK  0 active torsions:
REMARK  status: ('A' for Active; 'I' for Inactive)
ROOT
ATOM      1  C   UNL d   1      -0.068   0.843   0.100  0.00  0.00     0.078 C 
ATOM      2  C1  UNL d   1       0.827   1.989   0.465  0.00  0.00    -0.077 A 
ATOM      3  C2  UNL d   1       0.341   3.302   0.498  0.00  0.00    -0.001 A 
ATOM      4  C3  UNL d   1       1.188   4.360   0.830  0.00  0.00     0.003 A 
ATOM      5  C4  UNL d   1       2.527   4.117   1.130  0.00  0.00    -0.005 A 
ATOM      6  C5  UNL d   1       3.020   2.815   1.097  0.00  0.00     0.003 A 
ATOM      7  C6  UNL d   1       2.175   1.755   0.765  0.00  0.00    -0.001 A 
ENDROOT
TORSDOF 0
ENDMDL
