MODEL 1
REMARK minimizedAffinity -2.35515833
REMARK minimizedRMSD -1
REMARK  1 active torsions:
REMARK  status: ('A' for Active; 'I' for Inactive)
REMARK    1  A    between atoms: N_2  and  C1_3 
ROOT
ATOM      1  C1  UNL d   1       0.253  -0.624  -0.007  0.00  0.00     0.143 A 
ATOM      2  C2  UNL d   1       1.243  -1.609  -0.088  0.00  0.00    -0.057 A 
ATOM      3  C3  UNL d   1       0.939  -2.962   0.104  0.00  0.00     0.033 A 
ATOM      4  C4  UNL d   1      -0.360  -3.353   0.412  0.00  0.00    -0.042 A 
ATOM      5  C5  UNL d   1      -1.355  -2.389   0.523  0.00  0.00     0.033 A 
ATOM      6  C6  UNL d   1      -1.047  -1.040   0.323  0.00  0.00    -0.057 A 
ENDROOT
BRANCH   1   7
ATOM      7  N   UNL d   1       0.510   0.746  -0.091  0.00  0.00    -0.732 N 
ATOM      8  C   UNL d   1      -0.231   1.686   0.723  0.00  0.00     0.284 C 
ATOM      9  H3  UNL d   1       1.504   0.951  -0.163  0.00  0.00     0.395 HD
ENDBRANCH   1   7
TORSDOF 1
ENDMDL
