MODEL 1
REMARK minimizedAffinity -2.50563502
REMARK minimizedRMSD -1
REMARK  1 active torsions:
REMARK  status: ('A' for Active; 'I' for Inactive)
REMARK    1  A    between atoms: N_2  and  C1_3 
ROOT
ATOM      1  C1  UNL d   1      -0.020   0.042   0.129  0.00  0.00     0.143 A 
ATOM      2  C2  UNL d   1      -1.291  -0.201   0.660  0.00  0.00    -0.057 A 
ATOM      3  C3  UNL d   1      -1.656  -1.472   1.120  0.00  0.00     0.033 A 
ATOM      4  C4  UNL d   1      -0.761  -2.533   1.030  0.00  0.00    -0.042 A 
ATOM      5  C5  UNL d   1       0.499  -2.321   0.484  0.00  0.00     0.033 A 
ATOM      6  C6  UNL d   1       0.860  -1.048   0.032  0.00  0.00    -0.057 A 
ENDROOT
BRANCH   1   7
ATOM      7  N   UNL d   1       0.368   1.259  -0.435  0.00  0.00    -0.732 N 
ATOM      8  C   UNL d   1       1.093   2.237   0.348  0.00  0.00     0.284 C 
ATOM      9  H3  UNL d   1       0.709   1.155  -1.388  0.00  0.00     0.395 HD
ENDBRANCH   1   7
TORSDOF 1
ENDMDL
