MODEL 1
REMARK minimizedAffinity -4.92763281
REMARK minimizedRMSD -1
REMARK  1 active torsions:
REMARK  status: ('A' for Active; 'I' for Inactive)
REMARK    1  A    between atoms: N_2  and  C1_3 
ROOT
ATOM      1  C1  UNL d   1      -0.084   0.397   0.398  0.00  0.00     0.143 A 
ATOM      2  C2  UNL d   1      -1.146  -0.330   0.946  0.00  0.00    -0.057 A 
ATOM      3  C3  UNL d   1      -1.152  -1.730   0.932  0.00  0.00     0.033 A 
ATOM      4  C4  UNL d   1      -0.105  -2.430   0.341  0.00  0.00    -0.042 A 
ATOM      5  C5  UNL d   1       0.949  -1.728  -0.232  0.00  0.00     0.033 A 
ATOM      6  C6  UNL d   1       0.952  -0.330  -0.208  0.00  0.00    -0.057 A 
ENDROOT
BRANCH   1   7
ATOM      7  N   UNL d   1      -0.066   1.790   0.294  0.00  0.00    -0.732 N 
ATOM      8  C   UNL d   1       1.135   2.483  -0.119  0.00  0.00     0.284 C 
ATOM      9  H3  UNL d   1      -0.921   2.159  -0.116  0.00  0.00     0.395 HD
ENDBRANCH   1   7
TORSDOF 1
ENDMDL
