MODEL 1
REMARK minimizedAffinity -2.12480044
REMARK minimizedRMSD -1
REMARK  1 active torsions:
REMARK  status: ('A' for Active; 'I' for Inactive)
REMARK    1  A    between atoms: N_2  and  C1_3 
ROOT
ATOM      1  C1  UNL d   1       0.235   1.124  -0.051  0.00  0.00     0.143 A 
ATOM      2  C2  UNL d   1       0.830   0.373  -1.070  0.00  0.00    -0.057 A 
ATOM      3  C3  UNL d   1       0.835  -1.027  -1.033  0.00  0.00     0.033 A 
ATOM      4  C4  UNL d   1       0.268  -1.702   0.043  0.00  0.00    -0.042 A 
ATOM      5  C5  UNL d   1      -0.307  -0.976   1.080  0.00  0.00     0.033 A 
ATOM      6  C6  UNL d   1      -0.314   0.422   1.034  0.00  0.00    -0.057 A 
ENDROOT
BRANCH   1   7
ATOM      7  N   UNL d   1       0.284   2.518   0.018  0.00  0.00    -0.732 N 
ATOM      8  C   UNL d   1       1.322   3.182   0.778  0.00  0.00     0.284 C 
ATOM      9  H3  UNL d   1       0.076   2.959  -0.875  0.00  0.00     0.395 HD
ENDBRANCH   1   7
TORSDOF 1
ENDMDL
