MODEL 1
REMARK minimizedAffinity -2.81132174
REMARK minimizedRMSD -1
REMARK  1 active torsions:
REMARK  status: ('A' for Active; 'I' for Inactive)
REMARK    1  A    between atoms: N_2  and  C1_3 
ROOT
ATOM      1  C1  UNL d   1      -0.005   0.008  -0.260  0.00  0.00     0.143 A 
ATOM      2  C2  UNL d   1       0.856  -1.094  -0.306  0.00  0.00    -0.057 A 
ATOM      3  C3  UNL d   1       0.542  -2.288   0.354  0.00  0.00     0.033 A 
ATOM      4  C4  UNL d   1      -0.628  -2.392   1.098  0.00  0.00    -0.042 A 
ATOM      5  C5  UNL d   1      -1.487  -1.302   1.178  0.00  0.00     0.033 A 
ATOM      6  C6  UNL d   1      -1.172  -0.114   0.512  0.00  0.00    -0.057 A 
ENDROOT
BRANCH   1   7
ATOM      7  N   UNL d   1       0.297   1.255  -0.813  0.00  0.00    -0.732 N 
ATOM      8  C   UNL d   1       1.339   2.081  -0.243  0.00  0.00     0.284 C 
ATOM      9  H3  UNL d   1       0.287   1.241  -1.830  0.00  0.00     0.395 HD
ENDBRANCH   1   7
TORSDOF 1
ENDMDL
