MODEL 1
REMARK minimizedAffinity -3.55775428
REMARK minimizedRMSD -1
REMARK  1 active torsions:
REMARK  status: ('A' for Active; 'I' for Inactive)
REMARK    1  A    between atoms: N_2  and  C1_3 
ROOT
ATOM      1  C1  UNL d   1      -0.146   0.090   0.122  0.00  0.00     0.143 A 
ATOM      2  C2  UNL d   1      -1.231  -0.234   0.944  0.00  0.00    -0.057 A 
ATOM      3  C3  UNL d   1      -1.503  -1.562   1.298  0.00  0.00     0.033 A 
ATOM      4  C4  UNL d   1      -0.708  -2.594   0.810  0.00  0.00    -0.042 A 
ATOM      5  C5  UNL d   1       0.361  -2.297  -0.028  0.00  0.00     0.033 A 
ATOM      6  C6  UNL d   1       0.631  -0.969  -0.372  0.00  0.00    -0.057 A 
ENDROOT
BRANCH   1   7
ATOM      7  N   UNL d   1       0.117   1.380  -0.345  0.00  0.00    -0.732 N 
ATOM      8  C   UNL d   1       1.338   2.063   0.026  0.00  0.00     0.284 C 
ATOM      9  H3  UNL d   1      -0.148   1.502  -1.319  0.00  0.00     0.395 HD
ENDBRANCH   1   7
TORSDOF 1
ENDMDL
