MODEL 1
REMARK minimizedAffinity 0.410814196
REMARK minimizedRMSD -1
REMARK  1 active torsions:
REMARK  status: ('A' for Active; 'I' for Inactive)
REMARK    1  A    between atoms: N_2  and  C1_3 
ROOT
ATOM      1  C1  UNL d   1       0.751   2.513  -0.022  0.00  0.00     0.143 A 
ATOM      2  C2  UNL d   1       0.665   3.149   1.221  0.00  0.00    -0.057 A 
ATOM      3  C3  UNL d   1       1.712   3.944   1.703  0.00  0.00     0.033 A 
ATOM      4  C4  UNL d   1       2.879   4.093   0.961  0.00  0.00    -0.042 A 
ATOM      5  C5  UNL d   1       2.996   3.450  -0.266  0.00  0.00     0.033 A 
ATOM      6  C6  UNL d   1       1.945   2.663  -0.745  0.00  0.00    -0.057 A 
ENDROOT
BRANCH   1   7
ATOM      7  N   UNL d   1      -0.215   1.631  -0.513  0.00  0.00    -0.732 N 
ATOM      8  C   UNL d   1       0.175   0.434  -1.227  0.00  0.00     0.284 C 
ATOM      9  H3  UNL d   1      -0.983   1.493   0.140  0.00  0.00     0.395 HD
ENDBRANCH   1   7
TORSDOF 1
ENDMDL
