MODEL 1
REMARK minimizedAffinity -5.46393919
REMARK minimizedRMSD -1
REMARK  1 active torsions:
REMARK  status: ('A' for Active; 'I' for Inactive)
REMARK    1  A    between atoms: N_2  and  C1_3 
ROOT
ATOM      1  C1  UNL d   1      -0.083  -1.283  -0.527  0.00  0.00     0.143 A 
ATOM      2  C2  UNL d   1       0.199  -2.445   0.198  0.00  0.00    -0.057 A 
ATOM      3  C3  UNL d   1       0.512  -3.647  -0.448  0.00  0.00     0.033 A 
ATOM      4  C4  UNL d   1       0.520  -3.715  -1.837  0.00  0.00    -0.042 A 
ATOM      5  C5  UNL d   1       0.218  -2.578  -2.579  0.00  0.00     0.033 A 
ATOM      6  C6  UNL d   1      -0.087  -1.379  -1.928  0.00  0.00    -0.057 A 
ENDROOT
BRANCH   1   7
ATOM      7  N   UNL d   1      -0.497  -0.083   0.056  0.00  0.00    -0.732 N 
ATOM      8  C   UNL d   1      -0.437   1.158  -0.688  0.00  0.00     0.284 C 
ATOM      9  H3  UNL d   1      -1.341  -0.193   0.613  0.00  0.00     0.395 HD
ENDBRANCH   1   7
TORSDOF 1
ENDMDL
