MODEL 1
REMARK minimizedAffinity -1.26774859
REMARK minimizedRMSD -1
REMARK  1 active torsions:
REMARK  status: ('A' for Active; 'I' for Inactive)
REMARK    1  A    between atoms: N_2  and  C1_3 
ROOT
ATOM      1  C1  UNL d   1      -0.079  -0.618   0.170  0.00  0.00     0.143 A 
ATOM      2  C2  UNL d   1      -1.268  -1.320   0.391  0.00  0.00    -0.057 A 
ATOM      3  C3  UNL d   1      -1.272  -2.712   0.546  0.00  0.00     0.033 A 
ATOM      4  C4  UNL d   1      -0.085  -3.431   0.454  0.00  0.00    -0.042 A 
ATOM      5  C5  UNL d   1       1.106  -2.757   0.210  0.00  0.00     0.033 A 
ATOM      6  C6  UNL d   1       1.104  -1.367   0.063  0.00  0.00    -0.057 A 
ENDROOT
BRANCH   1   7
ATOM      7  N   UNL d   1      -0.022   0.753  -0.090  0.00  0.00    -0.732 N 
ATOM      8  C   UNL d   1       1.225   1.476   0.037  0.00  0.00     0.284 C 
ATOM      9  H3  UNL d   1      -0.575   1.018  -0.902  0.00  0.00     0.395 HD
ENDBRANCH   1   7
TORSDOF 1
ENDMDL
