MODEL 1
REMARK minimizedAffinity -4.44979191
REMARK minimizedRMSD -1
REMARK  1 active torsions:
REMARK  status: ('A' for Active; 'I' for Inactive)
REMARK    1  A    between atoms: N_2  and  C1_3 
ROOT
ATOM      1  C1  UNL d   1      -0.428  -0.146   0.777  0.00  0.00     0.143 A 
ATOM      2  C2  UNL d   1      -1.232  -1.133   1.357  0.00  0.00    -0.057 A 
ATOM      3  C3  UNL d   1      -1.041  -2.489   1.066  0.00  0.00     0.033 A 
ATOM      4  C4  UNL d   1      -0.058  -2.881   0.164  0.00  0.00    -0.042 A 
ATOM      5  C5  UNL d   1       0.737  -1.915  -0.443  0.00  0.00     0.033 A 
ATOM      6  C6  UNL d   1       0.546  -0.563  -0.143  0.00  0.00    -0.057 A 
ENDROOT
BRANCH   1   7
ATOM      7  N   UNL d   1      -0.632   1.225   0.950  0.00  0.00    -0.732 N 
ATOM      8  C   UNL d   1      -0.040   2.180   0.038  0.00  0.00     0.284 C 
ATOM      9  H3  UNL d   1      -1.589   1.445   1.218  0.00  0.00     0.395 HD
ENDBRANCH   1   7
TORSDOF 1
ENDMDL
