MODEL 1
REMARK minimizedAffinity 1.79502285
REMARK minimizedRMSD -1
REMARK  0 active torsions:
REMARK  status: ('A' for Active; 'I' for Inactive)
ROOT
ATOM      1  C   UNL d   1      -0.451  -0.564   3.665  0.00  0.00    -0.002 A 
ATOM      2  C1  UNL d   1       0.720  -0.685   2.930  0.00  0.00     0.010 A 
ATOM      3  C2  UNL d   1       0.728  -0.422   1.559  0.00  0.00     0.041 A 
ATOM      4  C3  UNL d   1      -0.472  -0.030   0.933  0.00  0.00    -0.075 A 
ATOM      5  S   UNL d   1      -0.701   0.345  -0.734  0.00  0.00     0.015 SA
ATOM      6  C4  UNL d   1      -2.358   0.675  -0.510  0.00  0.00     0.022 A 
ATOM      7  C5  UNL d   1      -2.744   0.507   0.799  0.00  0.00     0.026 A 
ATOM      8  C6  UNL d   1      -1.663   0.099   1.652  0.00  0.00    -0.082 A 
ATOM      9  C7  UNL d   1      -1.639  -0.175   3.041  0.00  0.00     0.045 A 
ENDROOT
TORSDOF 0
ENDMDL
