MODEL 1
REMARK minimizedAffinity 6.28146791
REMARK minimizedRMSD -1
REMARK  0 active torsions:
REMARK  status: ('A' for Active; 'I' for Inactive)
ROOT
ATOM      1  C   UNL d   1       0.007  -1.457   4.417  0.00  0.00    -0.002 A 
ATOM      2  C1  UNL d   1       1.213  -1.346   3.740  0.00  0.00     0.010 A 
ATOM      3  C2  UNL d   1       1.256  -0.821   2.447  0.00  0.00     0.041 A 
ATOM      4  C3  UNL d   1       0.055  -0.404   1.841  0.00  0.00    -0.075 A 
ATOM      5  S   UNL d   1      -0.134   0.270   0.265  0.00  0.00     0.015 SA
ATOM      6  C4  UNL d   1      -1.821   0.428   0.454  0.00  0.00     0.022 A 
ATOM      7  C5  UNL d   1      -2.246  -0.019   1.683  0.00  0.00     0.026 A 
ATOM      8  C6  UNL d   1      -1.172  -0.505   2.503  0.00  0.00    -0.082 A 
ATOM      9  C7  UNL d   1      -1.182  -1.042   3.812  0.00  0.00     0.045 A 
ENDROOT
TORSDOF 0
ENDMDL
