MODEL 1
REMARK minimizedAffinity 9.49878979
REMARK minimizedRMSD -1
REMARK  0 active torsions:
REMARK  status: ('A' for Active; 'I' for Inactive)
ROOT
ATOM      1  C   UNL d   1       2.982   2.307   0.729  0.00  0.00    -0.002 A 
ATOM      2  C1  UNL d   1       3.300   2.904  -0.482  0.00  0.00     0.010 A 
ATOM      3  C2  UNL d   1       2.630   2.539  -1.652  0.00  0.00     0.041 A 
ATOM      4  C3  UNL d   1       1.625   1.555  -1.582  0.00  0.00    -0.075 A 
ATOM      5  S   UNL d   1       0.671   0.949  -2.885  0.00  0.00     0.015 SA
ATOM      6  C4  UNL d   1      -0.182  -0.116  -1.863  0.00  0.00     0.022 A 
ATOM      7  C5  UNL d   1       0.238  -0.025  -0.557  0.00  0.00     0.026 A 
ATOM      8  C6  UNL d   1       1.286   0.940  -0.374  0.00  0.00    -0.082 A 
ATOM      9  C7  UNL d   1       1.984   1.331   0.794  0.00  0.00     0.045 A 
ENDROOT
TORSDOF 0
ENDMDL
