MODEL 1
REMARK minimizedAffinity 11.3253193
REMARK minimizedRMSD -1
REMARK  0 active torsions:
REMARK  status: ('A' for Active; 'I' for Inactive)
ROOT
ATOM      1  C   UNL d   1      -3.333   0.192   0.513  0.00  0.00    -0.002 A 
ATOM      2  C1  UNL d   1      -3.032   0.284   1.864  0.00  0.00     0.010 A 
ATOM      3  C2  UNL d   1      -1.720   0.120   2.312  0.00  0.00     0.041 A 
ATOM      4  C3  UNL d   1      -0.705  -0.139   1.370  0.00  0.00    -0.075 A 
ATOM      5  S   UNL d   1       0.973  -0.374   1.688  0.00  0.00     0.015 SA
ATOM      6  C4  UNL d   1       1.330  -0.602   0.037  0.00  0.00     0.022 A 
ATOM      7  C5  UNL d   1       0.208  -0.505  -0.751  0.00  0.00     0.026 A 
ATOM      8  C6  UNL d   1      -0.983  -0.236   0.004  0.00  0.00    -0.082 A 
ATOM      9  C7  UNL d   1      -2.324  -0.066  -0.419  0.00  0.00     0.045 A 
ENDROOT
TORSDOF 0
ENDMDL
