MODEL 1
REMARK minimizedAffinity 3.97487545
REMARK minimizedRMSD -1
REMARK  0 active torsions:
REMARK  status: ('A' for Active; 'I' for Inactive)
ROOT
ATOM      1  C   UNL d   1      -2.533  -1.645   4.433  0.00  0.00    -0.002 A 
ATOM      2  C1  UNL d   1      -3.484  -1.329   3.472  0.00  0.00     0.010 A 
ATOM      3  C2  UNL d   1      -3.105  -0.739   2.265  0.00  0.00     0.041 A 
ATOM      4  C3  UNL d   1      -1.741  -0.472   2.036  0.00  0.00    -0.075 A 
ATOM      5  S   UNL d   1      -1.044   0.244   0.630  0.00  0.00     0.015 SA
ATOM      6  C4  UNL d   1       0.532   0.147   1.271  0.00  0.00     0.022 A 
ATOM      7  C5  UNL d   1       0.545  -0.415   2.526  0.00  0.00     0.026 A 
ATOM      8  C6  UNL d   1      -0.765  -0.781   2.987  0.00  0.00    -0.082 A 
ATOM      9  C7  UNL d   1      -1.181  -1.378   4.202  0.00  0.00     0.045 A 
ENDROOT
TORSDOF 0
ENDMDL
