MODEL 1
REMARK minimizedAffinity -3.98919344
REMARK minimizedRMSD -1
REMARK  0 active torsions:
REMARK  status: ('A' for Active; 'I' for Inactive)
ROOT
ATOM      1  C4' PXY d   1       1.731  -2.352   4.164  0.00  0.00     0.077 C 
ATOM      2  C1' PXY d   1      -1.634   0.819   0.694  0.00  0.00     0.077 C 
ATOM      3  C1  PXY d   1      -0.760  -0.012   1.613  0.00  0.00    -0.082 A 
ATOM      4  C2  PXY d   1       0.545  -0.064   1.405  0.00  0.00     0.003 A 
ATOM      5  C3  PXY d   1       1.346  -0.835   2.207  0.00  0.00     0.003 A 
ATOM      6  C4  PXY d   1       0.812  -1.519   3.266  0.00  0.00    -0.082 A 
ATOM      7  C5  PXY d   1      -0.518  -1.462   3.492  0.00  0.00     0.003 A 
ATOM      8  C6  PXY d   1      -1.319  -0.706   2.641  0.00  0.00     0.003 A 
ENDROOT
TORSDOF 0
ENDMDL
