MODEL 1
REMARK minimizedAffinity -0.64621985
REMARK minimizedRMSD -1
REMARK  0 active torsions:
REMARK  status: ('A' for Active; 'I' for Inactive)
ROOT
ATOM      1  C4' PXY d   1       2.603  -4.550  -1.520  0.00  0.00     0.077 C 
ATOM      2  C1' PXY d   1      -0.751  -5.999  -5.999  0.00  0.00     0.077 C 
ATOM      3  C1  PXY d   1       0.138  -5.626  -4.829  0.00  0.00    -0.082 A 
ATOM      4  C2  PXY d   1      -0.409  -5.292  -3.672  0.00  0.00     0.003 A 
ATOM      5  C3  PXY d   1       0.379  -4.920  -2.613  0.00  0.00     0.003 A 
ATOM      6  C4  PXY d   1       1.744  -4.943  -2.725  0.00  0.00    -0.082 A 
ATOM      7  C5  PXY d   1       2.310  -5.293  -3.899  0.00  0.00     0.003 A 
ATOM      8  C6  PXY d   1       1.491  -5.626  -4.974  0.00  0.00     0.003 A 
ENDROOT
TORSDOF 0
ENDMDL
