MODEL 1
REMARK minimizedAffinity -1.13839412
REMARK minimizedRMSD -1
REMARK  0 active torsions:
REMARK  status: ('A' for Active; 'I' for Inactive)
ROOT
ATOM      1  C4' PXY d   1      -2.449  -1.219   3.197  0.00  0.00     0.077 C 
ATOM      2  C1' PXY d   1       3.013  -0.398   1.495  0.00  0.00     0.077 C 
ATOM      3  C1  PXY d   1       1.584  -0.624   1.948  0.00  0.00    -0.082 A 
ATOM      4  C2  PXY d   1       0.585  -0.141   1.227  0.00  0.00     0.003 A 
ATOM      5  C3  PXY d   1      -0.712  -0.309   1.639  0.00  0.00     0.003 A 
ATOM      6  C4  PXY d   1      -0.991  -1.023   2.773  0.00  0.00    -0.082 A 
ATOM      7  C5  PXY d   1       0.022  -1.528   3.509  0.00  0.00     0.003 A 
ATOM      8  C6  PXY d   1       1.333  -1.311   3.095  0.00  0.00     0.003 A 
ENDROOT
TORSDOF 0
ENDMDL
