MODEL 1
REMARK minimizedAffinity -0.873769641
REMARK minimizedRMSD -1
REMARK  0 active torsions:
REMARK  status: ('A' for Active; 'I' for Inactive)
ROOT
ATOM      1  C4' PXY d   1      -3.470  -1.376   2.800  0.00  0.00     0.077 C 
ATOM      2  C1' PXY d   1       2.094  -1.483   4.365  0.00  0.00     0.077 C 
ATOM      3  C1  PXY d   1       0.636  -1.442   3.952  0.00  0.00    -0.082 A 
ATOM      4  C2  PXY d   1      -0.209  -2.334   4.444  0.00  0.00     0.003 A 
ATOM      5  C3  PXY d   1      -1.524  -2.331   4.056  0.00  0.00     0.003 A 
ATOM      6  C4  PXY d   1      -1.991  -1.373   3.197  0.00  0.00    -0.082 A 
ATOM      7  C5  PXY d   1      -1.138  -0.454   2.698  0.00  0.00     0.003 A 
ATOM      8  C6  PXY d   1       0.202  -0.499   3.072  0.00  0.00     0.003 A 
ENDROOT
TORSDOF 0
ENDMDL
