MODEL 1
REMARK minimizedAffinity -4.04910469
REMARK minimizedRMSD -1
REMARK  0 active torsions:
REMARK  status: ('A' for Active; 'I' for Inactive)
ROOT
ATOM      1  C4' PXY d   1      -1.148  -0.315  -0.380  0.00  0.00     0.077 C 
ATOM      2  C1' PXY d   1       0.588  -1.270   5.050  0.00  0.00     0.077 C 
ATOM      3  C1  PXY d   1       0.120  -1.024   3.629  0.00  0.00    -0.082 A 
ATOM      4  C2  PXY d   1       0.996  -1.055   2.638  0.00  0.00     0.003 A 
ATOM      5  C3  PXY d   1       0.596  -0.802   1.351  0.00  0.00     0.003 A 
ATOM      6  C4  PXY d   1      -0.723  -0.568   1.069  0.00  0.00    -0.082 A 
ATOM      7  C5  PXY d   1      -1.624  -0.544   2.074  0.00  0.00     0.003 A 
ATOM      8  C6  PXY d   1      -1.191  -0.763   3.378  0.00  0.00     0.003 A 
ENDROOT
TORSDOF 0
ENDMDL
