MODEL 1
REMARK minimizedAffinity 2.22619677
REMARK minimizedRMSD -1
REMARK  0 active torsions:
REMARK  status: ('A' for Active; 'I' for Inactive)
ROOT
ATOM      1  C4' PXY d   1       2.570  -4.515  -1.486  0.00  0.00     0.077 C 
ATOM      2  C1' PXY d   1      -0.722  -5.997  -6.000  0.00  0.00     0.077 C 
ATOM      3  C1  PXY d   1       0.152  -5.607  -4.824  0.00  0.00    -0.082 A 
ATOM      4  C2  PXY d   1      -0.188  -5.987  -3.603  0.00  0.00     0.003 A 
ATOM      5  C3  PXY d   1       0.574  -5.616  -2.525  0.00  0.00     0.003 A 
ATOM      6  C4  PXY d   1       1.723  -4.894  -2.704  0.00  0.00    -0.082 A 
ATOM      7  C5  PXY d   1       2.082  -4.512  -3.948  0.00  0.00     0.003 A 
ATOM      8  C6  PXY d   1       1.273  -4.864  -5.025  0.00  0.00     0.003 A 
ENDROOT
TORSDOF 0
ENDMDL
