MODEL 1
REMARK minimizedAffinity 3.02325654
REMARK minimizedRMSD -1
REMARK  0 active torsions:
REMARK  status: ('A' for Active; 'I' for Inactive)
ROOT
ATOM      1  C4' PXY d   1      -1.042  -6.000  -2.250  0.00  0.00     0.077 C 
ATOM      2  C1' PXY d   1       3.208  -4.862  -6.000  0.00  0.00     0.077 C 
ATOM      3  C1  PXY d   1       2.085  -5.159  -5.026  0.00  0.00    -0.082 A 
ATOM      4  C2  PXY d   1       2.259  -4.926  -3.735  0.00  0.00     0.003 A 
ATOM      5  C3  PXY d   1       1.265  -5.219  -2.837  0.00  0.00     0.003 A 
ATOM      6  C4  PXY d   1       0.061  -5.706  -3.271  0.00  0.00    -0.082 A 
ATOM      7  C5  PXY d   1      -0.129  -5.936  -4.587  0.00  0.00     0.003 A 
ATOM      8  C6  PXY d   1       0.907  -5.670  -5.478  0.00  0.00     0.003 A 
ENDROOT
TORSDOF 0
ENDMDL
