MODEL 1
REMARK minimizedAffinity -5.47976017
REMARK minimizedRMSD -1
REMARK  0 active torsions:
REMARK  status: ('A' for Active; 'I' for Inactive)
ROOT
ATOM      1  C4' PXY d   1       1.713   0.723   1.385  0.00  0.00     0.077 C 
ATOM      2  C1' PXY d   1      -1.172  -2.324   5.360  0.00  0.00     0.077 C 
ATOM      3  C1  PXY d   1      -0.404  -1.527   4.324  0.00  0.00    -0.082 A 
ATOM      4  C2  PXY d   1      -1.037  -0.624   3.593  0.00  0.00     0.003 A 
ATOM      5  C3  PXY d   1      -0.365   0.083   2.630  0.00  0.00     0.003 A 
ATOM      6  C4  PXY d   1       0.980  -0.098   2.449  0.00  0.00    -0.082 A 
ATOM      7  C5  PXY d   1       1.635  -1.010   3.199  0.00  0.00     0.003 A 
ATOM      8  C6  PXY d   1       0.926  -1.747   4.143  0.00  0.00     0.003 A 
ENDROOT
TORSDOF 0
ENDMDL
