MODEL 1
REMARK minimizedAffinity 2.23841572
REMARK minimizedRMSD -1
REMARK  0 active torsions:
REMARK  status: ('A' for Active; 'I' for Inactive)
ROOT
ATOM      1  C4' PXY d   1       1.876  -2.261   4.457  0.00  0.00     0.077 C 
ATOM      2  C1' PXY d   1      -1.568   0.764   0.935  0.00  0.00     0.077 C 
ATOM      3  C1  PXY d   1      -0.674  -0.029   1.868  0.00  0.00    -0.082 A 
ATOM      4  C2  PXY d   1       0.637  -0.003   1.696  0.00  0.00     0.003 A 
ATOM      5  C3  PXY d   1       1.458  -0.740   2.511  0.00  0.00     0.003 A 
ATOM      6  C4  PXY d   1       0.935  -1.468   3.545  0.00  0.00    -0.082 A 
ATOM      7  C5  PXY d   1      -0.401  -1.491   3.734  0.00  0.00     0.003 A 
ATOM      8  C6  PXY d   1      -1.220  -0.770   2.870  0.00  0.00     0.003 A 
ENDROOT
TORSDOF 0
ENDMDL
