MODEL 1
REMARK minimizedAffinity 2.13504362
REMARK minimizedRMSD -1
REMARK  0 active torsions:
REMARK  status: ('A' for Active; 'I' for Inactive)
ROOT
ATOM      1  C4' PXY d   1       4.906   0.372  -5.570  0.00  0.00     0.077 C 
ATOM      2  C1' PXY d   1      -0.811  -0.454  -5.813  0.00  0.00     0.077 C 
ATOM      3  C1  PXY d   1       0.690  -0.249  -5.744  0.00  0.00    -0.082 A 
ATOM      4  C2  PXY d   1       1.183   0.978  -5.741  0.00  0.00     0.003 A 
ATOM      5  C3  PXY d   1       2.539   1.181  -5.711  0.00  0.00     0.003 A 
ATOM      6  C4  PXY d   1       3.397   0.118  -5.630  0.00  0.00    -0.082 A 
ATOM      7  C5  PXY d   1       2.901  -1.138  -5.621  0.00  0.00     0.003 A 
ATOM      8  C6  PXY d   1       1.524  -1.324  -5.694  0.00  0.00     0.003 A 
ENDROOT
TORSDOF 0
ENDMDL
