MODEL 1
REMARK minimizedAffinity -0.511473298
REMARK minimizedRMSD -1
REMARK  0 active torsions:
REMARK  status: ('A' for Active; 'I' for Inactive)
ROOT
ATOM      1  C4' PXY d   1      -0.855   0.500   0.085  0.00  0.00     0.077 C 
ATOM      2  C1' PXY d   1       0.967  -1.729   5.098  0.00  0.00     0.077 C 
ATOM      3  C1  PXY d   1       0.502  -1.143   3.780  0.00  0.00    -0.082 A 
ATOM      4  C2  PXY d   1      -0.716  -0.634   3.684  0.00  0.00     0.003 A 
ATOM      5  C3  PXY d   1      -1.164  -0.128   2.491  0.00  0.00     0.003 A 
ATOM      6  C4  PXY d   1      -0.339  -0.095   1.399  0.00  0.00    -0.082 A 
ATOM      7  C5  PXY d   1       0.908  -0.602   1.491  0.00  0.00     0.003 A 
ATOM      8  C6  PXY d   1       1.330  -1.148   2.700  0.00  0.00     0.003 A 
ENDROOT
TORSDOF 0
ENDMDL
