MODEL 1
REMARK minimizedAffinity -2.30585909
REMARK minimizedRMSD -1
REMARK  1 active torsions:
REMARK  status: ('A' for Active; 'I' for Inactive)
REMARK    1  A    between atoms: N_2  and  C1_3 
ROOT
ATOM      1  C1  UNL d   1       0.208  -2.532   0.372  0.00  0.00     0.143 A 
ATOM      2  C2  UNL d   1       0.603  -1.675  -0.661  0.00  0.00    -0.057 A 
ATOM      3  C3  UNL d   1       0.565  -2.086  -1.999  0.00  0.00     0.033 A 
ATOM      4  C4  UNL d   1       0.158  -3.375  -2.326  0.00  0.00    -0.042 A 
ATOM      5  C5  UNL d   1      -0.215  -4.252  -1.314  0.00  0.00     0.033 A 
ATOM      6  C6  UNL d   1      -0.182  -3.833   0.020  0.00  0.00    -0.057 A 
ENDROOT
BRANCH   1   7
ATOM      7  N   UNL d   1       0.317  -2.216   1.728  0.00  0.00    -0.732 N 
ATOM      8  C   UNL d   1      -0.666  -1.368   2.368  0.00  0.00     0.284 C 
ATOM      9  H3  UNL d   1       0.608  -3.012   2.291  0.00  0.00     0.395 HD
ENDBRANCH   1   7
TORSDOF 1
ENDMDL
