MODEL 1
REMARK minimizedAffinity -0.374981105
REMARK minimizedRMSD -1
REMARK  1 active torsions:
REMARK  status: ('A' for Active; 'I' for Inactive)
REMARK    1  A    between atoms: N_2  and  C1_3 
ROOT
ATOM      1  C1  UNL d   1       4.711  -3.542   4.800  0.00  0.00     0.143 A 
ATOM      2  C2  UNL d   1       4.245  -2.988   5.997  0.00  0.00    -0.057 A 
ATOM      3  C3  UNL d   1       3.322  -1.935   5.999  0.00  0.00     0.033 A 
ATOM      4  C4  UNL d   1       2.870  -1.396   4.799  0.00  0.00    -0.042 A 
ATOM      5  C5  UNL d   1       3.339  -1.914   3.597  0.00  0.00     0.033 A 
ATOM      6  C6  UNL d   1       4.256  -2.970   3.602  0.00  0.00    -0.057 A 
ENDROOT
BRANCH   1   7
ATOM      7  N   UNL d   1       5.703  -4.523   4.731  0.00  0.00    -0.732 N 
ATOM      8  C   UNL d   1       5.885  -5.465   5.815  0.00  0.00     0.284 C 
ATOM      9  H3  UNL d   1       5.777  -4.937   3.804  0.00  0.00     0.395 HD
ENDBRANCH   1   7
TORSDOF 1
ENDMDL
