MODEL 1
REMARK minimizedAffinity 7.12384558
REMARK minimizedRMSD -1
REMARK  1 active torsions:
REMARK  status: ('A' for Active; 'I' for Inactive)
REMARK    1  A    between atoms: N_2  and  C1_3 
ROOT
ATOM      1  C1  UNL d   1       0.255  -1.701  -0.956  0.00  0.00     0.143 A 
ATOM      2  C2  UNL d   1      -0.914  -1.832  -0.198  0.00  0.00    -0.057 A 
ATOM      3  C3  UNL d   1      -1.098  -2.913   0.672  0.00  0.00     0.033 A 
ATOM      4  C4  UNL d   1      -0.125  -3.902   0.777  0.00  0.00    -0.042 A 
ATOM      5  C5  UNL d   1       1.033  -3.806   0.014  0.00  0.00     0.033 A 
ATOM      6  C6  UNL d   1       1.214  -2.720  -0.848  0.00  0.00    -0.057 A 
ENDROOT
BRANCH   1   7
ATOM      7  N   UNL d   1       0.454  -0.701  -1.911  0.00  0.00    -0.732 N 
ATOM      8  C   UNL d   1       0.293   0.694  -1.562  0.00  0.00     0.284 C 
ATOM      9  H3  UNL d   1       1.255  -0.890  -2.510  0.00  0.00     0.395 HD
ENDBRANCH   1   7
TORSDOF 1
ENDMDL
