MODEL 1
REMARK minimizedAffinity 7.93217516
REMARK minimizedRMSD -1
REMARK  1 active torsions:
REMARK  status: ('A' for Active; 'I' for Inactive)
REMARK    1  A    between atoms: N_2  and  C1_3 
ROOT
ATOM      1  C1  UNL d   1       0.429  -2.057  -1.031  0.00  0.00     0.143 A 
ATOM      2  C2  UNL d   1      -0.737  -1.951  -0.264  0.00  0.00    -0.057 A 
ATOM      3  C3  UNL d   1      -1.045  -2.896   0.722  0.00  0.00     0.033 A 
ATOM      4  C4  UNL d   1      -0.206  -3.983   0.939  0.00  0.00    -0.042 A 
ATOM      5  C5  UNL d   1       0.946  -4.123   0.172  0.00  0.00     0.033 A 
ATOM      6  C6  UNL d   1       1.252  -3.172  -0.806  0.00  0.00    -0.057 A 
ENDROOT
BRANCH   1   7
ATOM      7  N   UNL d   1       0.741  -1.205  -2.092  0.00  0.00    -0.732 N 
ATOM      8  C   UNL d   1       0.678   0.231  -1.928  0.00  0.00     0.284 C 
ATOM      9  H3  UNL d   1       1.546  -1.527  -2.625  0.00  0.00     0.395 HD
ENDBRANCH   1   7
TORSDOF 1
ENDMDL
