MODEL 1
REMARK minimizedAffinity 7.7783432
REMARK minimizedRMSD -1
REMARK  1 active torsions:
REMARK  status: ('A' for Active; 'I' for Inactive)
REMARK    1  A    between atoms: N_2  and  C1_3 
ROOT
ATOM      1  C1  UNL d   1       0.512  -2.034  -1.674  0.00  0.00     0.143 A 
ATOM      2  C2  UNL d   1       1.040  -3.324  -1.793  0.00  0.00    -0.057 A 
ATOM      3  C3  UNL d   1       0.877  -4.271  -0.775  0.00  0.00     0.033 A 
ATOM      4  C4  UNL d   1       0.207  -3.934   0.397  0.00  0.00    -0.042 A 
ATOM      5  C5  UNL d   1      -0.304  -2.650   0.547  0.00  0.00     0.033 A 
ATOM      6  C6  UNL d   1      -0.144  -1.710  -0.476  0.00  0.00    -0.057 A 
ENDROOT
BRANCH   1   7
ATOM      7  N   UNL d   1       0.725  -1.017  -2.608  0.00  0.00    -0.732 N 
ATOM      8  C   UNL d   1       0.882   0.356  -2.180  0.00  0.00     0.284 C 
ATOM      9  H3  UNL d   1       1.365  -1.298  -3.348  0.00  0.00     0.395 HD
ENDBRANCH   1   7
TORSDOF 1
ENDMDL
