MODEL 1
REMARK minimizedAffinity 0.407453448
REMARK minimizedRMSD -1
REMARK  1 active torsions:
REMARK  status: ('A' for Active; 'I' for Inactive)
REMARK    1  A    between atoms: N_2  and  C1_3 
ROOT
ATOM      1  C1  UNL d   1       3.927   3.562  -3.101  0.00  0.00     0.143 A 
ATOM      2  C2  UNL d   1       3.288   4.799  -2.969  0.00  0.00    -0.057 A 
ATOM      3  C3  UNL d   1       3.981   5.999  -3.169  0.00  0.00     0.033 A 
ATOM      4  C4  UNL d   1       5.337   5.983  -3.477  0.00  0.00    -0.042 A 
ATOM      5  C5  UNL d   1       5.998   4.765  -3.589  0.00  0.00     0.033 A 
ATOM      6  C6  UNL d   1       5.299   3.570  -3.395  0.00  0.00    -0.057 A 
ENDROOT
BRANCH   1   7
ATOM      7  N   UNL d   1       3.316   2.337  -2.819  0.00  0.00    -0.732 N 
ATOM      8  C   UNL d   1       3.043   1.947  -1.452  0.00  0.00     0.284 C 
ATOM      9  H3  UNL d   1       2.568   2.116  -3.472  0.00  0.00     0.395 HD
ENDBRANCH   1   7
TORSDOF 1
ENDMDL
