MODEL 1
REMARK minimizedAffinity 9.98506546
REMARK minimizedRMSD -1
REMARK  1 active torsions:
REMARK  status: ('A' for Active; 'I' for Inactive)
REMARK    1  A    between atoms: N_2  and  C1_3 
ROOT
ATOM      1  C1  UNL d   1       3.941  -4.814  -5.262  0.00  0.00     0.143 A 
ATOM      2  C2  UNL d   1       2.945  -4.151  -5.986  0.00  0.00    -0.057 A 
ATOM      3  C3  UNL d   1       2.265  -3.052  -5.447  0.00  0.00     0.033 A 
ATOM      4  C4  UNL d   1       2.552  -2.613  -4.158  0.00  0.00    -0.042 A 
ATOM      5  C5  UNL d   1       3.521  -3.273  -3.411  0.00  0.00     0.033 A 
ATOM      6  C6  UNL d   1       4.200  -4.366  -3.957  0.00  0.00    -0.057 A 
ENDROOT
BRANCH   1   7
ATOM      7  N   UNL d   1       4.583  -5.973  -5.704  0.00  0.00    -0.732 N 
ATOM      8  C   UNL d   1       6.000  -5.964  -6.000  0.00  0.00     0.284 C 
ATOM      9  H3  UNL d   1       4.267  -6.805  -5.210  0.00  0.00     0.395 HD
ENDBRANCH   1   7
TORSDOF 1
ENDMDL
