MODEL 1
REMARK minimizedAffinity 0.221666858
REMARK minimizedRMSD -1
REMARK  1 active torsions:
REMARK  status: ('A' for Active; 'I' for Inactive)
REMARK    1  A    between atoms: N_2  and  C1_3 
ROOT
ATOM      1  C1  UNL d   1      -0.508  -1.508  -0.812  0.00  0.00     0.143 A 
ATOM      2  C2  UNL d   1      -0.464  -2.792  -0.257  0.00  0.00    -0.057 A 
ATOM      3  C3  UNL d   1      -0.803  -3.015   1.083  0.00  0.00     0.033 A 
ATOM      4  C4  UNL d   1      -1.165  -1.951   1.902  0.00  0.00    -0.042 A 
ATOM      5  C5  UNL d   1      -1.192  -0.663   1.378  0.00  0.00     0.033 A 
ATOM      6  C6  UNL d   1      -0.859  -0.447   0.037  0.00  0.00    -0.057 A 
ENDROOT
BRANCH   1   7
ATOM      7  N   UNL d   1      -0.088  -1.207  -2.110  0.00  0.00    -0.732 N 
ATOM      8  C   UNL d   1       0.332   0.133  -2.457  0.00  0.00     0.284 C 
ATOM      9  H3  UNL d   1       0.492  -1.941  -2.511  0.00  0.00     0.395 HD
ENDBRANCH   1   7
TORSDOF 1
ENDMDL
