MODEL 1
REMARK minimizedAffinity -4.87362957
REMARK minimizedRMSD -1
REMARK  1 active torsions:
REMARK  status: ('A' for Active; 'I' for Inactive)
REMARK    1  A    between atoms: N_2  and  C1_3 
ROOT
ATOM      1  C1  UNL d   1      -0.244  -1.365   0.237  0.00  0.00     0.143 A 
ATOM      2  C2  UNL d   1      -0.795  -2.649   0.312  0.00  0.00    -0.057 A 
ATOM      3  C3  UNL d   1      -0.099  -3.767  -0.162  0.00  0.00     0.033 A 
ATOM      4  C4  UNL d   1       1.153  -3.617  -0.749  0.00  0.00    -0.042 A 
ATOM      5  C5  UNL d   1       1.710  -2.348  -0.856  0.00  0.00     0.033 A 
ATOM      6  C6  UNL d   1       1.013  -1.236  -0.375  0.00  0.00    -0.057 A 
ENDROOT
BRANCH   1   7
ATOM      7  N   UNL d   1      -0.927  -0.203   0.602  0.00  0.00    -0.732 N 
ATOM      8  C   UNL d   1      -0.644   1.055  -0.056  0.00  0.00     0.284 C 
ATOM      9  H3  UNL d   1      -1.916  -0.370   0.770  0.00  0.00     0.395 HD
ENDBRANCH   1   7
TORSDOF 1
ENDMDL
