MODEL 1
REMARK minimizedAffinity 5.91829014
REMARK minimizedRMSD -1
REMARK  1 active torsions:
REMARK  status: ('A' for Active; 'I' for Inactive)
REMARK    1  A    between atoms: N_2  and  C1_3 
ROOT
ATOM      1  C1  UNL d   1       4.800  -2.744   5.751  0.00  0.00     0.143 A 
ATOM      2  C2  UNL d   1       5.991  -3.463   5.896  0.00  0.00    -0.057 A 
ATOM      3  C3  UNL d   1       5.988  -4.860   5.996  0.00  0.00     0.033 A 
ATOM      4  C4  UNL d   1       4.788  -5.562   5.982  0.00  0.00    -0.042 A 
ATOM      5  C5  UNL d   1       3.590  -4.866   5.863  0.00  0.00     0.033 A 
ATOM      6  C6  UNL d   1       3.600  -3.472   5.757  0.00  0.00    -0.057 A 
ENDROOT
BRANCH   1   7
ATOM      7  N   UNL d   1       4.730  -1.349   5.745  0.00  0.00    -0.732 N 
ATOM      8  C   UNL d   1       5.911  -0.550   5.994  0.00  0.00     0.284 C 
ATOM      9  H3  UNL d   1       4.136  -0.993   5.000  0.00  0.00     0.395 HD
ENDBRANCH   1   7
TORSDOF 1
ENDMDL
