MODEL 1
REMARK minimizedAffinity -0.68688941
REMARK minimizedRMSD -1
REMARK  1 active torsions:
REMARK  status: ('A' for Active; 'I' for Inactive)
REMARK    1  A    between atoms: N_2  and  C1_3 
ROOT
ATOM      1  C1  UNL d   1      -0.931  -2.266  -0.379  0.00  0.00     0.143 A 
ATOM      2  C2  UNL d   1      -0.793  -1.999   0.987  0.00  0.00    -0.057 A 
ATOM      3  C3  UNL d   1      -0.224  -0.802   1.439  0.00  0.00     0.033 A 
ATOM      4  C4  UNL d   1       0.244   0.140   0.529  0.00  0.00    -0.042 A 
ATOM      5  C5  UNL d   1       0.140  -0.115  -0.834  0.00  0.00     0.033 A 
ATOM      6  C6  UNL d   1      -0.435  -1.309  -1.279  0.00  0.00    -0.057 A 
ENDROOT
BRANCH   1   7
ATOM      7  N   UNL d   1      -1.398  -3.479  -0.892  0.00  0.00    -0.732 N 
ATOM      8  C   UNL d   1      -1.829  -3.580  -2.269  0.00  0.00     0.284 C 
ATOM      9  H3  UNL d   1      -0.850  -4.273  -0.568  0.00  0.00     0.395 HD
ENDBRANCH   1   7
TORSDOF 1
ENDMDL
