MODEL 1
REMARK minimizedAffinity 4.1486659
REMARK minimizedRMSD -1
REMARK  3 active torsions:
REMARK  status: ('A' for Active; 'I' for Inactive)
REMARK    1  A    between atoms: C3'_2  and  C2'_3 
REMARK    2  A    between atoms: C2'_3  and  C1'_4 
REMARK    3  A    between atoms: C1'_4  and  C1_5 
ROOT
ATOM      1  C1  N4B d   1       4.716  -5.195  -3.668  0.00  0.00    -0.075 A 
ATOM      2  C2  N4B d   1       4.806  -3.814  -3.389  0.00  0.00     0.002 A 
ATOM      3  C3  N4B d   1       4.148  -3.288  -2.304  0.00  0.00     0.002 A 
ATOM      4  C4  N4B d   1       3.382  -4.118  -1.499  0.00  0.00    -0.004 A 
ATOM      5  C5  N4B d   1       3.322  -5.456  -1.761  0.00  0.00     0.002 A 
ATOM      6  C6  N4B d   1       3.981  -5.998  -2.845  0.00  0.00     0.002 A 
ENDROOT
BRANCH   1   7
ATOM      7  C1' N4B d   1       5.348  -5.800  -4.892  0.00  0.00     0.057 C 
BRANCH   7   8
ATOM      8  C2' N4B d   1       4.291  -5.946  -5.982  0.00  0.00     0.009 C 
BRANCH   8   9
ATOM      9  C3' N4B d   1       3.038  -5.147  -5.668  0.00  0.00     0.004 C 
ATOM     10  C4' N4B d   1       1.791  -5.978  -5.717  0.00  0.00     0.003 C 
ENDBRANCH   8   9
ENDBRANCH   7   8
ENDBRANCH   1   7
TORSDOF 3
ENDMDL
