MODEL 1
REMARK minimizedAffinity 6.25252914
REMARK minimizedRMSD -1
REMARK  3 active torsions:
REMARK  status: ('A' for Active; 'I' for Inactive)
REMARK    1  A    between atoms: C3'_2  and  C2'_3 
REMARK    2  A    between atoms: C2'_3  and  C1'_4 
REMARK    3  A    between atoms: C1'_4  and  C1_5 
ROOT
ATOM      1  C1  N4B d   1       3.183  -5.716  -3.610  0.00  0.00    -0.075 A 
ATOM      2  C2  N4B d   1       2.079  -5.524  -2.752  0.00  0.00     0.002 A 
ATOM      3  C3  N4B d   1       2.269  -5.446  -1.394  0.00  0.00     0.002 A 
ATOM      4  C4  N4B d   1       3.548  -5.576  -0.873  0.00  0.00    -0.004 A 
ATOM      5  C5  N4B d   1       4.613  -5.737  -1.710  0.00  0.00     0.002 A 
ATOM      6  C6  N4B d   1       4.436  -5.812  -3.077  0.00  0.00     0.002 A 
ENDROOT
BRANCH   1   7
ATOM      7  C1' N4B d   1       3.014  -5.893  -5.094  0.00  0.00     0.057 C 
BRANCH   7   8
ATOM      8  C2' N4B d   1       3.380  -4.590  -5.799  0.00  0.00     0.009 C 
BRANCH   8   9
ATOM      9  C3' N4B d   1       4.880  -4.448  -5.988  0.00  0.00     0.004 C 
ATOM     10  C4' N4B d   1       5.607  -5.754  -5.873  0.00  0.00     0.003 C 
ENDBRANCH   8   9
ENDBRANCH   7   8
ENDBRANCH   1   7
TORSDOF 3
ENDMDL
