MODEL 1
REMARK minimizedAffinity 2.65549231
REMARK minimizedRMSD -1
REMARK  3 active torsions:
REMARK  status: ('A' for Active; 'I' for Inactive)
REMARK    1  A    between atoms: C3'_2  and  C2'_3 
REMARK    2  A    between atoms: C2'_3  and  C1'_4 
REMARK    3  A    between atoms: C1'_4  and  C1_5 
ROOT
ATOM      1  C1  N4B d   1       3.869  -5.371  -3.779  0.00  0.00    -0.075 A 
ATOM      2  C2  N4B d   1       3.820  -5.994  -5.045  0.00  0.00     0.002 A 
ATOM      3  C3  N4B d   1       4.861  -5.839  -5.927  0.00  0.00     0.002 A 
ATOM      4  C4  N4B d   1       5.949  -5.054  -5.573  0.00  0.00    -0.004 A 
ATOM      5  C5  N4B d   1       6.000  -4.477  -4.338  0.00  0.00     0.002 A 
ATOM      6  C6  N4B d   1       4.962  -4.628  -3.440  0.00  0.00     0.002 A 
ENDROOT
BRANCH   1   7
ATOM      7  C1' N4B d   1       2.716  -5.441  -2.815  0.00  0.00     0.057 C 
BRANCH   7   8
ATOM      8  C2' N4B d   1       1.411  -5.240  -3.579  0.00  0.00     0.009 C 
BRANCH   8   9
ATOM      9  C3' N4B d   1       1.502  -5.755  -5.005  0.00  0.00     0.004 C 
ATOM     10  C4' N4B d   1       0.871  -4.827  -5.999  0.00  0.00     0.003 C 
ENDBRANCH   8   9
ENDBRANCH   7   8
ENDBRANCH   1   7
TORSDOF 3
ENDMDL
