MODEL 1
REMARK minimizedAffinity -1.40334165
REMARK minimizedRMSD -1
REMARK  3 active torsions:
REMARK  status: ('A' for Active; 'I' for Inactive)
REMARK    1  A    between atoms: C3'_2  and  C2'_3 
REMARK    2  A    between atoms: C2'_3  and  C1'_4 
REMARK    3  A    between atoms: C1'_4  and  C1_5 
ROOT
ATOM      1  C1  N4B d   1      -3.256   3.255  -5.805  0.00  0.00    -0.075 A 
ATOM      2  C2  N4B d   1      -3.813   4.540  -5.986  0.00  0.00     0.002 A 
ATOM      3  C3  N4B d   1      -5.177   4.702  -5.998  0.00  0.00     0.002 A 
ATOM      4  C4  N4B d   1      -6.000   3.596  -5.851  0.00  0.00    -0.004 A 
ATOM      5  C5  N4B d   1      -5.454   2.362  -5.651  0.00  0.00     0.002 A 
ATOM      6  C6  N4B d   1      -4.085   2.185  -5.632  0.00  0.00     0.002 A 
ENDROOT
BRANCH   1   7
ATOM      7  C1' N4B d   1      -1.772   3.017  -5.870  0.00  0.00     0.057 C 
BRANCH   7   8
ATOM      8  C2' N4B d   1      -1.204   3.003  -4.454  0.00  0.00     0.009 C 
BRANCH   8   9
ATOM      9  C3' N4B d   1       0.313   2.946  -4.450  0.00  0.00     0.004 C 
ATOM     10  C4' N4B d   1       0.849   1.777  -3.679  0.00  0.00     0.003 C 
ENDBRANCH   8   9
ENDBRANCH   7   8
ENDBRANCH   1   7
TORSDOF 3
ENDMDL
