MODEL 1
REMARK minimizedAffinity 5.61878586
REMARK minimizedRMSD -1
REMARK  3 active torsions:
REMARK  status: ('A' for Active; 'I' for Inactive)
REMARK    1  A    between atoms: C3'_2  and  C2'_3 
REMARK    2  A    between atoms: C2'_3  and  C1'_4 
REMARK    3  A    between atoms: C1'_4  and  C1_5 
ROOT
ATOM      1  C1  N4B d   1       1.980   1.942   1.025  0.00  0.00    -0.075 A 
ATOM      2  C2  N4B d   1       3.048   1.227   0.440  0.00  0.00     0.002 A 
ATOM      3  C3  N4B d   1       4.345   1.545   0.762  0.00  0.00     0.002 A 
ATOM      4  C4  N4B d   1       4.597   2.582   1.647  0.00  0.00    -0.004 A 
ATOM      5  C5  N4B d   1       3.560   3.251   2.227  0.00  0.00     0.002 A 
ATOM      6  C6  N4B d   1       2.251   2.940   1.916  0.00  0.00     0.002 A 
ENDROOT
BRANCH   1   7
ATOM      7  C1' N4B d   1       0.548   1.688   0.639  0.00  0.00     0.057 C 
BRANCH   7   8
ATOM      8  C2' N4B d   1      -0.350   2.685   1.364  0.00  0.00     0.009 C 
BRANCH   8   9
ATOM      9  C3' N4B d   1      -1.209   3.484   0.399  0.00  0.00     0.004 C 
ATOM     10  C4' N4B d   1      -2.645   3.055   0.406  0.00  0.00     0.003 C 
ENDBRANCH   8   9
ENDBRANCH   7   8
ENDBRANCH   1   7
TORSDOF 3
ENDMDL
