MODEL 1
REMARK minimizedAffinity -1.09790075
REMARK minimizedRMSD -1
REMARK  3 active torsions:
REMARK  status: ('A' for Active; 'I' for Inactive)
REMARK    1  A    between atoms: C3'_2  and  C2'_3 
REMARK    2  A    between atoms: C2'_3  and  C1'_4 
REMARK    3  A    between atoms: C1'_4  and  C1_5 
ROOT
ATOM      1  C1  N4B d   1      -3.221   2.965  -5.431  0.00  0.00    -0.075 A 
ATOM      2  C2  N4B d   1      -4.080   3.932  -6.000  0.00  0.00     0.002 A 
ATOM      3  C3  N4B d   1      -5.441   3.769  -5.925  0.00  0.00     0.002 A 
ATOM      4  C4  N4B d   1      -5.965   2.644  -5.306  0.00  0.00    -0.004 A 
ATOM      5  C5  N4B d   1      -5.129   1.728  -4.737  0.00  0.00     0.002 A 
ATOM      6  C6  N4B d   1      -3.759   1.881  -4.801  0.00  0.00     0.002 A 
ENDROOT
BRANCH   1   7
ATOM      7  C1' N4B d   1      -1.725   3.056  -5.563  0.00  0.00     0.057 C 
BRANCH   7   8
ATOM      8  C2' N4B d   1      -1.092   2.932  -4.180  0.00  0.00     0.009 C 
BRANCH   8   9
ATOM      9  C3' N4B d   1      -0.173   1.726  -4.083  0.00  0.00     0.004 C 
ATOM     10  C4' N4B d   1       1.255   2.058  -4.396  0.00  0.00     0.003 C 
ENDBRANCH   8   9
ENDBRANCH   7   8
ENDBRANCH   1   7
TORSDOF 3
ENDMDL
