MODEL 1
REMARK minimizedAffinity 0.314330786
REMARK minimizedRMSD -1
REMARK  3 active torsions:
REMARK  status: ('A' for Active; 'I' for Inactive)
REMARK    1  A    between atoms: C3'_2  and  C2'_3 
REMARK    2  A    between atoms: C2'_3  and  C1'_4 
REMARK    3  A    between atoms: C1'_4  and  C1_5 
ROOT
ATOM      1  C1  N4B d   1       3.235  -5.696  -4.138  0.00  0.00    -0.075 A 
ATOM      2  C2  N4B d   1       3.901  -5.917  -5.364  0.00  0.00     0.002 A 
ATOM      3  C3  N4B d   1       5.273  -5.901  -5.412  0.00  0.00     0.002 A 
ATOM      4  C4  N4B d   1       5.997  -5.648  -4.257  0.00  0.00    -0.004 A 
ATOM      5  C5  N4B d   1       5.347  -5.461  -3.072  0.00  0.00     0.002 A 
ATOM      6  C6  N4B d   1       3.969  -5.479  -3.008  0.00  0.00     0.002 A 
ENDROOT
BRANCH   1   7
ATOM      7  C1' N4B d   1       1.735  -5.620  -4.052  0.00  0.00     0.057 C 
BRANCH   7   8
ATOM      8  C2' N4B d   1       1.339  -5.107  -2.670  0.00  0.00     0.009 C 
BRANCH   8   9
ATOM      9  C3' N4B d   1       0.120  -4.202  -2.729  0.00  0.00     0.004 C 
ATOM     10  C4' N4B d   1      -0.786  -4.370  -1.546  0.00  0.00     0.003 C 
ENDBRANCH   8   9
ENDBRANCH   7   8
ENDBRANCH   1   7
TORSDOF 3
ENDMDL
