MODEL 1
REMARK minimizedAffinity 2.18916154
REMARK minimizedRMSD -1
REMARK  3 active torsions:
REMARK  status: ('A' for Active; 'I' for Inactive)
REMARK    1  A    between atoms: C3'_2  and  C2'_3 
REMARK    2  A    between atoms: C2'_3  and  C1'_4 
REMARK    3  A    between atoms: C1'_4  and  C1_5 
ROOT
ATOM      1  C1  N4B d   1       0.569   2.156   1.485  0.00  0.00    -0.075 A 
ATOM      2  C2  N4B d   1       0.442   2.526   2.842  0.00  0.00     0.002 A 
ATOM      3  C3  N4B d   1      -0.692   3.169   3.275  0.00  0.00     0.002 A 
ATOM      4  C4  N4B d   1      -1.700   3.467   2.369  0.00  0.00    -0.004 A 
ATOM      5  C5  N4B d   1      -1.580   3.083   1.066  0.00  0.00     0.002 A 
ATOM      6  C6  N4B d   1      -0.448   2.433   0.617  0.00  0.00     0.002 A 
ENDROOT
BRANCH   1   7
ATOM      7  C1' N4B d   1       1.826   1.528   0.948  0.00  0.00     0.057 C 
BRANCH   7   8
ATOM      8  C2' N4B d   1       2.999   2.476   1.183  0.00  0.00     0.009 C 
BRANCH   8   9
ATOM      9  C3' N4B d   1       2.537   3.904   1.417  0.00  0.00     0.004 C 
ATOM     10  C4' N4B d   1       3.639   4.906   1.242  0.00  0.00     0.003 C 
ENDBRANCH   8   9
ENDBRANCH   7   8
ENDBRANCH   1   7
TORSDOF 3
ENDMDL
