MODEL 1
REMARK minimizedAffinity 2.56623626
REMARK minimizedRMSD -1
REMARK  3 active torsions:
REMARK  status: ('A' for Active; 'I' for Inactive)
REMARK    1  A    between atoms: C3'_2  and  C2'_3 
REMARK    2  A    between atoms: C2'_3  and  C1'_4 
REMARK    3  A    between atoms: C1'_4  and  C1_5 
ROOT
ATOM      1  C1  N4B d   1       2.394   2.934   1.482  0.00  0.00    -0.075 A 
ATOM      2  C2  N4B d   1       1.004   2.684   1.447  0.00  0.00     0.002 A 
ATOM      3  C3  N4B d   1       0.513   1.645   0.695  0.00  0.00     0.002 A 
ATOM      4  C4  N4B d   1       1.386   0.858  -0.042  0.00  0.00    -0.004 A 
ATOM      5  C5  N4B d   1       2.729   1.091   0.018  0.00  0.00     0.002 A 
ATOM      6  C6  N4B d   1       3.237   2.129   0.772  0.00  0.00     0.002 A 
ENDROOT
BRANCH   1   7
ATOM      7  C1' N4B d   1       2.970   4.111   2.221  0.00  0.00     0.057 C 
BRANCH   7   8
ATOM      8  C2' N4B d   1       3.207   5.253   1.237  0.00  0.00     0.009 C 
BRANCH   8   9
ATOM      9  C3' N4B d   1       4.498   5.998   1.531  0.00  0.00     0.004 C 
ATOM     10  C4' N4B d   1       4.857   5.984   2.987  0.00  0.00     0.003 C 
ENDBRANCH   8   9
ENDBRANCH   7   8
ENDBRANCH   1   7
TORSDOF 3
ENDMDL
