MODEL 1
REMARK minimizedAffinity 3.54167843
REMARK minimizedRMSD -1
REMARK  1 active torsions:
REMARK  status: ('A' for Active; 'I' for Inactive)
REMARK    1  A    between atoms: C1_2  and  C2_3 
ROOT
ATOM      1  C2  UNL d   1      -0.004  -0.110   0.222  0.00  0.00    -0.076 A 
ATOM      2  C3  UNL d   1      -1.322  -0.487   0.536  0.00  0.00     0.004 A 
ATOM      3  C4  UNL d   1      -1.618  -1.785   0.949  0.00  0.00    -0.003 A 
ATOM      4  C5  UNL d   1      -0.601  -2.728   1.054  0.00  0.00     0.000 A 
ATOM      5  C6  UNL d   1       0.714  -2.367   0.763  0.00  0.00     0.000 A 
ATOM      6  C7  UNL d   1       1.032  -1.058   0.362  0.00  0.00    -0.073 A 
ATOM      7  C8  UNL d   1       2.467  -0.725   0.055  0.00  0.00     0.078 C 
ENDROOT
BRANCH   1   8
ATOM      8  C1  UNL d   1       0.252   1.304  -0.246  0.00  0.00     0.053 C 
ATOM      9  C   UNL d   1      -0.451   2.340   0.617  0.00  0.00     0.018 C 
ENDBRANCH   1   8
TORSDOF 1
ENDMDL
