MODEL 1
REMARK minimizedAffinity -2.02939367
REMARK minimizedRMSD -1
REMARK  1 active torsions:
REMARK  status: ('A' for Active; 'I' for Inactive)
REMARK    1  A    between atoms: C1_2  and  C2_3 
ROOT
ATOM      1  C2  UNL d   1      -1.536  -0.145  -1.165  0.00  0.00    -0.076 A 
ATOM      2  C3  UNL d   1      -1.889  -0.855  -0.004  0.00  0.00     0.004 A 
ATOM      3  C4  UNL d   1      -0.933  -1.179   0.958  0.00  0.00    -0.003 A 
ATOM      4  C5  UNL d   1       0.391  -0.797   0.774  0.00  0.00     0.000 A 
ATOM      5  C6  UNL d   1       0.756  -0.078  -0.363  0.00  0.00     0.000 A 
ATOM      6  C7  UNL d   1      -0.198   0.271  -1.334  0.00  0.00    -0.073 A 
ATOM      7  C8  UNL d   1       0.252   1.043  -2.544  0.00  0.00     0.078 C 
ENDROOT
BRANCH   1   8
ATOM      8  C1  UNL d   1      -2.610   0.154  -2.185  0.00  0.00     0.053 C 
ATOM      9  C   UNL d   1      -2.832  -0.999  -3.153  0.00  0.00     0.018 C 
ENDBRANCH   1   8
TORSDOF 1
ENDMDL
