MODEL 1
REMARK minimizedAffinity 0.373206854
REMARK minimizedRMSD -1
REMARK  1 active torsions:
REMARK  status: ('A' for Active; 'I' for Inactive)
REMARK    1  A    between atoms: C1_2  and  C2_3 
ROOT
ATOM      1  C2  UNL d   1       0.826  -0.679   0.636  0.00  0.00    -0.076 A 
ATOM      2  C3  UNL d   1       2.113  -1.243   0.649  0.00  0.00     0.004 A 
ATOM      3  C4  UNL d   1       3.225  -0.487   1.017  0.00  0.00    -0.003 A 
ATOM      4  C5  UNL d   1       3.067   0.846   1.378  0.00  0.00     0.000 A 
ATOM      5  C6  UNL d   1       1.796   1.418   1.388  0.00  0.00     0.000 A 
ATOM      6  C7  UNL d   1       0.662   0.665   1.036  0.00  0.00    -0.073 A 
ATOM      7  C8  UNL d   1      -0.685   1.334   1.058  0.00  0.00     0.078 C 
ENDROOT
BRANCH   1   8
ATOM      8  C1  UNL d   1      -0.338  -1.540   0.203  0.00  0.00     0.053 C 
ATOM      9  C   UNL d   1      -0.863  -2.420   1.327  0.00  0.00     0.018 C 
ENDBRANCH   1   8
TORSDOF 1
ENDMDL
