MODEL 1
REMARK minimizedAffinity -4.98185492
REMARK minimizedRMSD -1
REMARK  1 active torsions:
REMARK  status: ('A' for Active; 'I' for Inactive)
REMARK    1  A    between atoms: C1_2  and  C2_3 
ROOT
ATOM      1  C2  UNL d   1       0.825   1.695   0.557  0.00  0.00    -0.076 A 
ATOM      2  C3  UNL d   1       2.080   1.658   1.191  0.00  0.00     0.004 A 
ATOM      3  C4  UNL d   1       2.833   0.486   1.222  0.00  0.00    -0.003 A 
ATOM      4  C5  UNL d   1       2.345  -0.668   0.620  0.00  0.00     0.000 A 
ATOM      5  C6  UNL d   1       1.110  -0.645  -0.029  0.00  0.00     0.000 A 
ATOM      6  C7  UNL d   1       0.345   0.533  -0.084  0.00  0.00    -0.073 A 
ATOM      7  C8  UNL d   1      -0.982   0.500  -0.791  0.00  0.00     0.078 C 
ENDROOT
BRANCH   1   8
ATOM      8  C1  UNL d   1       0.041   2.988   0.579  0.00  0.00     0.053 C 
ATOM      9  C   UNL d   1      -0.965   3.040   1.718  0.00  0.00     0.018 C 
ENDBRANCH   1   8
TORSDOF 1
ENDMDL
