MODEL 1
REMARK minimizedAffinity -4.06336546
REMARK minimizedRMSD -1
REMARK  1 active torsions:
REMARK  status: ('A' for Active; 'I' for Inactive)
REMARK    1  A    between atoms: C1_2  and  C2_3 
ROOT
ATOM      1  C2  UNL d   1       0.970  -0.200  -0.028  0.00  0.00    -0.076 A 
ATOM      2  C3  UNL d   1       1.705  -1.389  -0.181  0.00  0.00     0.004 A 
ATOM      3  C4  UNL d   1       2.932  -1.561   0.457  0.00  0.00    -0.003 A 
ATOM      4  C5  UNL d   1       3.445  -0.546   1.258  0.00  0.00     0.000 A 
ATOM      5  C6  UNL d   1       2.722   0.633   1.434  0.00  0.00     0.000 A 
ATOM      6  C7  UNL d   1       1.475   0.815   0.812  0.00  0.00    -0.073 A 
ATOM      7  C8  UNL d   1       0.741   2.110   1.032  0.00  0.00     0.078 C 
ENDROOT
BRANCH   1   8
ATOM      8  C1  UNL d   1      -0.342  -0.060  -0.766  0.00  0.00     0.053 C 
ATOM      9  C   UNL d   1      -1.486  -0.770  -0.060  0.00  0.00     0.018 C 
ENDBRANCH   1   8
TORSDOF 1
ENDMDL
