MODEL 1
REMARK minimizedAffinity -3.31947613
REMARK minimizedRMSD -1
REMARK  1 active torsions:
REMARK  status: ('A' for Active; 'I' for Inactive)
REMARK    1  A    between atoms: C1_2  and  C2_3 
ROOT
ATOM      1  C2  UNL d   1       0.002  -0.182   0.110  0.00  0.00    -0.073 A 
ATOM      2  C3  UNL d   1      -0.680   0.748   0.903  0.00  0.00    -0.002 A 
ATOM      3  C4  UNL d   1       0.026   1.719   1.614  0.00  0.00     0.004 A 
ATOM      4  C5  UNL d   1       1.417   1.775   1.535  0.00  0.00    -0.004 A 
ATOM      5  C6  UNL d   1       2.116   0.862   0.739  0.00  0.00    -0.075 A 
ATOM      6  C7  UNL d   1       3.612   0.908   0.644  0.00  0.00     0.076 C 
ATOM      7  C8  UNL d   1       1.400  -0.112   0.030  0.00  0.00     0.001 A 
ENDROOT
BRANCH   1   8
ATOM      8  C1  UNL d   1      -0.756  -1.229  -0.665  0.00  0.00     0.053 C 
ATOM      9  C   UNL d   1      -1.671  -0.613  -1.710  0.00  0.00     0.018 C 
ENDBRANCH   1   8
TORSDOF 1
ENDMDL
