MODEL 1
REMARK minimizedAffinity -3.52555084
REMARK minimizedRMSD -1
REMARK  1 active torsions:
REMARK  status: ('A' for Active; 'I' for Inactive)
REMARK    1  A    between atoms: C1_2  and  C2_3 
ROOT
ATOM      1  C2  UNL d   1      -0.696  -0.917  -0.255  0.00  0.00    -0.073 A 
ATOM      2  C3  UNL d   1      -1.291  -0.062   0.679  0.00  0.00    -0.002 A 
ATOM      3  C4  UNL d   1      -0.525   0.898   1.343  0.00  0.00     0.004 A 
ATOM      4  C5  UNL d   1       0.839   1.016   1.076  0.00  0.00    -0.004 A 
ATOM      5  C6  UNL d   1       1.449   0.178   0.137  0.00  0.00    -0.075 A 
ATOM      6  C7  UNL d   1       2.915   0.291  -0.160  0.00  0.00     0.076 C 
ATOM      7  C8  UNL d   1       0.674  -0.785  -0.524  0.00  0.00     0.001 A 
ENDROOT
BRANCH   1   8
ATOM      8  C1  UNL d   1      -1.520  -1.950  -0.980  0.00  0.00     0.053 C 
ATOM      9  C   UNL d   1      -1.875  -1.509  -2.391  0.00  0.00     0.018 C 
ENDBRANCH   1   8
TORSDOF 1
ENDMDL
