MODEL 1
REMARK minimizedAffinity -0.939701557
REMARK minimizedRMSD -1
REMARK  1 active torsions:
REMARK  status: ('A' for Active; 'I' for Inactive)
REMARK    1  A    between atoms: C1_2  and  C2_3 
ROOT
ATOM      1  C2  UNL d   1      -1.360  -1.515  -1.399  0.00  0.00    -0.073 A 
ATOM      2  C3  UNL d   1      -0.105  -2.066  -1.114  0.00  0.00    -0.002 A 
ATOM      3  C4  UNL d   1       0.744  -1.447  -0.196  0.00  0.00     0.004 A 
ATOM      4  C5  UNL d   1       0.347  -0.276   0.449  0.00  0.00    -0.004 A 
ATOM      5  C6  UNL d   1      -0.907   0.284   0.186  0.00  0.00    -0.075 A 
ATOM      6  C7  UNL d   1      -1.349   1.544   0.870  0.00  0.00     0.076 C 
ATOM      7  C8  UNL d   1      -1.754  -0.342  -0.739  0.00  0.00     0.001 A 
ENDROOT
BRANCH   1   8
ATOM      8  C1  UNL d   1      -2.283  -2.183  -2.385  0.00  0.00     0.053 C 
ATOM      9  C   UNL d   1      -2.225  -1.528  -3.756  0.00  0.00     0.018 C 
ENDBRANCH   1   8
TORSDOF 1
ENDMDL
