MODEL 1
REMARK minimizedAffinity -2.68804312
REMARK minimizedRMSD -1
REMARK  1 active torsions:
REMARK  status: ('A' for Active; 'I' for Inactive)
REMARK    1  A    between atoms: C1_2  and  C2_3 
ROOT
ATOM      1  C2  UNL d   1       1.707   1.209   1.187  0.00  0.00    -0.073 A 
ATOM      2  C3  UNL d   1       0.979   1.961   2.115  0.00  0.00    -0.002 A 
ATOM      3  C4  UNL d   1      -0.416   1.956   2.088  0.00  0.00     0.004 A 
ATOM      4  C5  UNL d   1      -1.096   1.194   1.139  0.00  0.00    -0.004 A 
ATOM      5  C6  UNL d   1      -0.387   0.426   0.210  0.00  0.00    -0.075 A 
ATOM      6  C7  UNL d   1      -1.104  -0.398  -0.820  0.00  0.00     0.076 C 
ATOM      7  C8  UNL d   1       1.014   0.439   0.242  0.00  0.00     0.001 A 
ENDROOT
BRANCH   1   8
ATOM      8  C1  UNL d   1       3.214   1.207   1.216  0.00  0.00     0.053 C 
ATOM      9  C   UNL d   1       3.808   0.582  -0.037  0.00  0.00     0.018 C 
ENDBRANCH   1   8
TORSDOF 1
ENDMDL
