MODEL 1
REMARK minimizedAffinity -3.0645709
REMARK minimizedRMSD -1
REMARK  1 active torsions:
REMARK  status: ('A' for Active; 'I' for Inactive)
REMARK    1  A    between atoms: C1_2  and  C2_3 
ROOT
ATOM      1  C2  UNL d   1      -1.181  -1.274  -0.829  0.00  0.00    -0.073 A 
ATOM      2  C3  UNL d   1       0.160  -1.507  -1.156  0.00  0.00    -0.002 A 
ATOM      3  C4  UNL d   1       1.174  -0.778  -0.534  0.00  0.00     0.004 A 
ATOM      4  C5  UNL d   1       0.860   0.185   0.425  0.00  0.00    -0.004 A 
ATOM      5  C6  UNL d   1      -0.473   0.423   0.774  0.00  0.00    -0.075 A 
ATOM      6  C7  UNL d   1      -0.828   1.457   1.802  0.00  0.00     0.076 C 
ATOM      7  C8  UNL d   1      -1.486  -0.311   0.143  0.00  0.00     0.001 A 
ENDROOT
BRANCH   1   8
ATOM      8  C1  UNL d   1      -2.279  -2.064  -1.494  0.00  0.00     0.053 C 
ATOM      9  C   UNL d   1      -2.749  -1.411  -2.784  0.00  0.00     0.018 C 
ENDBRANCH   1   8
TORSDOF 1
ENDMDL
