MODEL 1
REMARK minimizedAffinity -2.0232079
REMARK minimizedRMSD -1
REMARK  1 active torsions:
REMARK  status: ('A' for Active; 'I' for Inactive)
REMARK    1  A    between atoms: C1_2  and  C2_3 
ROOT
ATOM      1  C2  UNL d   1      -0.777  -1.161  -0.631  0.00  0.00    -0.073 A 
ATOM      2  C3  UNL d   1       0.511  -1.413  -1.117  0.00  0.00    -0.002 A 
ATOM      3  C4  UNL d   1       1.602  -0.693  -0.628  0.00  0.00     0.004 A 
ATOM      4  C5  UNL d   1       1.419   0.280   0.355  0.00  0.00    -0.004 A 
ATOM      5  C6  UNL d   1       0.141   0.538   0.862  0.00  0.00    -0.075 A 
ATOM      6  C7  UNL d   1      -0.074   1.582   1.917  0.00  0.00     0.076 C 
ATOM      7  C8  UNL d   1      -0.950  -0.187   0.364  0.00  0.00     0.001 A 
ENDROOT
BRANCH   1   8
ATOM      8  C1  UNL d   1      -1.957  -1.940  -1.151  0.00  0.00     0.053 C 
ATOM      9  C   UNL d   1      -2.274  -1.596  -2.598  0.00  0.00     0.018 C 
ENDBRANCH   1   8
TORSDOF 1
ENDMDL
