MODEL 1
REMARK minimizedAffinity -4.79088974
REMARK minimizedRMSD -1
REMARK  1 active torsions:
REMARK  status: ('A' for Active; 'I' for Inactive)
REMARK    1  A    between atoms: C1_2  and  C2_3 
ROOT
ATOM      1  C2  UNL d   1      -1.038  -1.129  -0.890  0.00  0.00    -0.073 A 
ATOM      2  C3  UNL d   1      -0.681  -1.259  -2.237  0.00  0.00    -0.002 A 
ATOM      3  C4  UNL d   1      -1.588  -1.782  -3.159  0.00  0.00     0.004 A 
ATOM      4  C5  UNL d   1      -2.862  -2.173  -2.746  0.00  0.00    -0.004 A 
ATOM      5  C6  UNL d   1      -3.241  -2.040  -1.407  0.00  0.00    -0.075 A 
ATOM      6  C7  UNL d   1      -4.607  -2.458  -0.946  0.00  0.00     0.076 C 
ATOM      7  C8  UNL d   1      -2.324  -1.516  -0.486  0.00  0.00     0.001 A 
ENDROOT
BRANCH   1   8
ATOM      8  C1  UNL d   1      -0.064  -0.558   0.108  0.00  0.00     0.053 C 
ATOM      9  C   UNL d   1      -0.770   0.123   1.269  0.00  0.00     0.018 C 
ENDBRANCH   1   8
TORSDOF 1
ENDMDL
