MODEL 1
REMARK minimizedAffinity -4.45068836
REMARK minimizedRMSD -1
REMARK  1 active torsions:
REMARK  status: ('A' for Active; 'I' for Inactive)
REMARK    1  A    between atoms: C1_2  and  C2_3 
ROOT
ATOM      1  C2  UNL d   1      -0.243  -1.228  -0.464  0.00  0.00    -0.073 A 
ATOM      2  C3  UNL d   1       1.046  -1.422  -0.974  0.00  0.00    -0.002 A 
ATOM      3  C4  UNL d   1       2.104  -0.623  -0.538  0.00  0.00     0.004 A 
ATOM      4  C5  UNL d   1       1.886   0.372   0.415  0.00  0.00    -0.004 A 
ATOM      5  C6  UNL d   1       0.608   0.573   0.945  0.00  0.00    -0.075 A 
ATOM      6  C7  UNL d   1       0.357   1.641   1.970  0.00  0.00     0.076 C 
ATOM      7  C8  UNL d   1      -0.450  -0.231   0.501  0.00  0.00     0.001 A 
ENDROOT
BRANCH   1   8
ATOM      8  C1  UNL d   1      -1.387  -2.092  -0.926  0.00  0.00     0.053 C 
ATOM      9  C   UNL d   1      -1.651  -1.940  -2.416  0.00  0.00     0.018 C 
ENDBRANCH   1   8
TORSDOF 1
ENDMDL
