MODEL 1
REMARK minimizedAffinity -1.53724861
REMARK minimizedRMSD -1
REMARK  1 active torsions:
REMARK  status: ('A' for Active; 'I' for Inactive)
REMARK    1  A    between atoms: C1_2  and  C2_3 
ROOT
ATOM      1  C2  UNL d   1      -0.188  -0.846  -0.612  0.00  0.00    -0.073 A 
ATOM      2  C3  UNL d   1       0.494  -1.583  -1.587  0.00  0.00    -0.002 A 
ATOM      3  C4  UNL d   1      -0.211  -2.383  -2.487  0.00  0.00     0.004 A 
ATOM      4  C5  UNL d   1      -1.602  -2.449  -2.427  0.00  0.00    -0.004 A 
ATOM      5  C6  UNL d   1      -2.303  -1.710  -1.469  0.00  0.00    -0.075 A 
ATOM      6  C7  UNL d   1      -3.800  -1.772  -1.390  0.00  0.00     0.076 C 
ATOM      7  C8  UNL d   1      -1.588  -0.911  -0.566  0.00  0.00     0.001 A 
ENDROOT
BRANCH   1   8
ATOM      8  C1  UNL d   1       0.568   0.025   0.358  0.00  0.00     0.053 C 
ATOM      9  C   UNL d   1      -0.366   0.841   1.238  0.00  0.00     0.018 C 
ENDBRANCH   1   8
TORSDOF 1
ENDMDL
