MODEL 1
REMARK minimizedAffinity -4.47331572
REMARK minimizedRMSD -1
REMARK  1 active torsions:
REMARK  status: ('A' for Active; 'I' for Inactive)
REMARK    1  A    between atoms: C1_2  and  C2_3 
ROOT
ATOM      1  C2  UNL d   1      -0.233   0.075   0.274  0.00  0.00    -0.073 A 
ATOM      2  C3  UNL d   1      -0.944   0.983   1.067  0.00  0.00    -0.002 A 
ATOM      3  C4  UNL d   1      -0.266   1.862   1.913  0.00  0.00     0.004 A 
ATOM      4  C5  UNL d   1       1.128   1.846   1.970  0.00  0.00    -0.004 A 
ATOM      5  C6  UNL d   1       1.856   0.954   1.176  0.00  0.00    -0.075 A 
ATOM      6  C7  UNL d   1       3.355   0.923   1.227  0.00  0.00     0.076 C 
ATOM      7  C8  UNL d   1       1.168   0.073   0.331  0.00  0.00     0.001 A 
ENDROOT
BRANCH   1   8
ATOM      8  C1  UNL d   1      -0.961  -0.871  -0.646  0.00  0.00     0.053 C 
ATOM      9  C   UNL d   1      -1.623  -0.143  -1.805  0.00  0.00     0.018 C 
ENDBRANCH   1   8
TORSDOF 1
ENDMDL
