MODEL 1
REMARK minimizedAffinity -4.79965162
REMARK minimizedRMSD -1
REMARK  0 active torsions:
REMARK  status: ('A' for Active; 'I' for Inactive)
ROOT
ATOM      1  C   UNL d   1       1.229  -0.015  -0.729  0.00  0.00     0.078 C 
ATOM      2  C1  UNL d   1       1.211   1.477  -0.580  0.00  0.00    -0.077 A 
ATOM      3  C2  UNL d   1       1.103   2.075   0.682  0.00  0.00    -0.001 A 
ATOM      4  C3  UNL d   1       1.078   3.465   0.804  0.00  0.00     0.003 A 
ATOM      5  C4  UNL d   1       1.160   4.269  -0.331  0.00  0.00    -0.005 A 
ATOM      6  C5  UNL d   1       1.266   3.684  -1.590  0.00  0.00     0.003 A 
ATOM      7  C6  UNL d   1       1.291   2.294  -1.715  0.00  0.00    -0.001 A 
ENDROOT
TORSDOF 0
ENDMDL
