MODEL 1
REMARK minimizedAffinity -1.45843136
REMARK minimizedRMSD -1
REMARK  0 active torsions:
REMARK  status: ('A' for Active; 'I' for Inactive)
ROOT
ATOM      1  C   UNL d   1       3.755   1.496   1.125  0.00  0.00     0.078 C 
ATOM      2  C1  UNL d   1       2.895   1.695  -0.087  0.00  0.00    -0.077 A 
ATOM      3  C2  UNL d   1       2.236   0.617  -0.689  0.00  0.00    -0.001 A 
ATOM      4  C3  UNL d   1       1.446   0.816  -1.823  0.00  0.00     0.003 A 
ATOM      5  C4  UNL d   1       1.309   2.092  -2.364  0.00  0.00    -0.005 A 
ATOM      6  C5  UNL d   1       1.962   3.171  -1.773  0.00  0.00     0.003 A 
ATOM      7  C6  UNL d   1       2.753   2.974  -0.640  0.00  0.00    -0.001 A 
ENDROOT
TORSDOF 0
ENDMDL
