MODEL 1
REMARK minimizedAffinity 3.06263208
REMARK minimizedRMSD -1
REMARK  0 active torsions:
REMARK  status: ('A' for Active; 'I' for Inactive)
ROOT
ATOM      1  C   UNL d   1       1.223  -0.340  -1.139  0.00  0.00     0.078 C 
ATOM      2  C1  UNL d   1       1.217   1.104  -0.738  0.00  0.00    -0.077 A 
ATOM      3  C2  UNL d   1       1.298   1.479   0.608  0.00  0.00    -0.001 A 
ATOM      4  C3  UNL d   1       1.281   2.828   0.968  0.00  0.00     0.003 A 
ATOM      5  C4  UNL d   1       1.183   3.812  -0.013  0.00  0.00    -0.005 A 
ATOM      6  C5  UNL d   1       1.100   3.449  -1.356  0.00  0.00     0.003 A 
ATOM      7  C6  UNL d   1       1.116   2.101  -1.717  0.00  0.00    -0.001 A 
ENDROOT
TORSDOF 0
ENDMDL
