MODEL 1
REMARK minimizedAffinity -1.39343083
REMARK minimizedRMSD -1
REMARK  0 active torsions:
REMARK  status: ('A' for Active; 'I' for Inactive)
ROOT
ATOM      1  C   UNL d   1       1.297   0.146  -1.745  0.00  0.00     0.078 C 
ATOM      2  C1  UNL d   1       1.216   1.513  -1.133  0.00  0.00    -0.077 A 
ATOM      3  C2  UNL d   1       0.963   2.642  -1.921  0.00  0.00    -0.001 A 
ATOM      4  C3  UNL d   1       0.900   3.909  -1.339  0.00  0.00     0.003 A 
ATOM      5  C4  UNL d   1       1.090   4.059   0.034  0.00  0.00    -0.005 A 
ATOM      6  C5  UNL d   1       1.344   2.941   0.825  0.00  0.00     0.003 A 
ATOM      7  C6  UNL d   1       1.407   1.673   0.245  0.00  0.00    -0.001 A 
ENDROOT
TORSDOF 0
ENDMDL
