MODEL 1
REMARK minimizedAffinity -0.442562938
REMARK minimizedRMSD -1
REMARK  0 active torsions:
REMARK  status: ('A' for Active; 'I' for Inactive)
ROOT
ATOM      1  C   UNL d   1       1.519  -2.004  -0.925  0.00  0.00     0.078 C 
ATOM      2  C1  UNL d   1       1.464  -0.516  -1.104  0.00  0.00    -0.077 A 
ATOM      3  C2  UNL d   1       1.188   0.331  -0.024  0.00  0.00    -0.001 A 
ATOM      4  C3  UNL d   1       1.130   1.714  -0.207  0.00  0.00     0.003 A 
ATOM      5  C4  UNL d   1       1.345   2.261  -1.471  0.00  0.00    -0.005 A 
ATOM      6  C5  UNL d   1       1.618   1.426  -2.552  0.00  0.00     0.003 A 
ATOM      7  C6  UNL d   1       1.676   0.044  -2.370  0.00  0.00    -0.001 A 
ENDROOT
TORSDOF 0
ENDMDL
