MODEL 1
REMARK minimizedAffinity 4.25879049
REMARK minimizedRMSD -1
REMARK  0 active torsions:
REMARK  status: ('A' for Active; 'I' for Inactive)
ROOT
ATOM      1  C   UNL d   1       1.251   3.867  -1.503  0.00  0.00     0.078 C 
ATOM      2  C1  UNL d   1       1.222   2.370  -1.424  0.00  0.00    -0.077 A 
ATOM      3  C2  UNL d   1       1.951   1.685  -0.444  0.00  0.00    -0.001 A 
ATOM      4  C3  UNL d   1       1.922   0.290  -0.389  0.00  0.00     0.003 A 
ATOM      5  C4  UNL d   1       1.167  -0.431  -1.311  0.00  0.00    -0.005 A 
ATOM      6  C5  UNL d   1       0.440   0.242  -2.291  0.00  0.00     0.003 A 
ATOM      7  C6  UNL d   1       0.467   1.636  -2.348  0.00  0.00    -0.001 A 
ENDROOT
TORSDOF 0
ENDMDL
