MODEL 1
REMARK minimizedAffinity 0.777763128
REMARK minimizedRMSD -1
REMARK  0 active torsions:
REMARK  status: ('A' for Active; 'I' for Inactive)
ROOT
ATOM      1  C   UNL d   1       0.498   3.278  -1.934  0.00  0.00     0.078 C 
ATOM      2  C1  UNL d   1       0.839   2.063  -1.123  0.00  0.00    -0.077 A 
ATOM      3  C2  UNL d   1       1.109   2.164   0.247  0.00  0.00    -0.001 A 
ATOM      4  C3  UNL d   1       1.435   1.027   0.988  0.00  0.00     0.003 A 
ATOM      5  C4  UNL d   1       1.496  -0.219   0.367  0.00  0.00    -0.005 A 
ATOM      6  C5  UNL d   1       1.232  -0.329  -0.997  0.00  0.00     0.003 A 
ATOM      7  C6  UNL d   1       0.905   0.807  -1.739  0.00  0.00    -0.001 A 
ENDROOT
TORSDOF 0
ENDMDL
