MODEL 1
REMARK minimizedAffinity -1.93184912
REMARK minimizedRMSD -1
REMARK  0 active torsions:
REMARK  status: ('A' for Active; 'I' for Inactive)
ROOT
ATOM      1  C   UNL d   1       0.783  -0.638  -0.390  0.00  0.00     0.078 C 
ATOM      2  C1  UNL d   1       0.929   0.819  -0.714  0.00  0.00    -0.077 A 
ATOM      3  C2  UNL d   1       1.252   1.241  -2.010  0.00  0.00    -0.001 A 
ATOM      4  C3  UNL d   1       1.394   2.599  -2.295  0.00  0.00     0.003 A 
ATOM      5  C4  UNL d   1       1.217   3.548  -1.290  0.00  0.00    -0.005 A 
ATOM      6  C5  UNL d   1       0.897   3.138   0.003  0.00  0.00     0.003 A 
ATOM      7  C6  UNL d   1       0.755   1.779   0.290  0.00  0.00    -0.001 A 
ENDROOT
TORSDOF 0
ENDMDL
