MODEL 1
REMARK minimizedAffinity -4.06332779
REMARK minimizedRMSD -1
REMARK  0 active torsions:
REMARK  status: ('A' for Active; 'I' for Inactive)
ROOT
ATOM      1  C   UNL d   1       1.743  -0.672  -0.036  0.00  0.00     0.078 C 
ATOM      2  C1  UNL d   1       1.370   0.722  -0.444  0.00  0.00    -0.077 A 
ATOM      3  C2  UNL d   1       1.384   1.108  -1.790  0.00  0.00    -0.001 A 
ATOM      4  C3  UNL d   1       1.043   2.411  -2.154  0.00  0.00     0.003 A 
ATOM      5  C4  UNL d   1       0.687   3.340  -1.179  0.00  0.00    -0.005 A 
ATOM      6  C5  UNL d   1       0.671   2.966   0.163  0.00  0.00     0.003 A 
ATOM      7  C6  UNL d   1       1.012   1.663   0.530  0.00  0.00    -0.001 A 
ENDROOT
TORSDOF 0
ENDMDL
