MODEL 1
REMARK minimizedAffinity -0.253327966
REMARK minimizedRMSD -1
REMARK  0 active torsions:
REMARK  status: ('A' for Active; 'I' for Inactive)
ROOT
ATOM      1  C   UNL d   1       3.908  -1.123   0.071  0.00  0.00     0.078 C 
ATOM      2  C1  UNL d   1       2.828  -0.192  -0.394  0.00  0.00    -0.077 A 
ATOM      3  C2  UNL d   1       1.786   0.188   0.462  0.00  0.00    -0.001 A 
ATOM      4  C3  UNL d   1       0.782   1.048   0.012  0.00  0.00     0.003 A 
ATOM      5  C4  UNL d   1       0.809   1.533  -1.294  0.00  0.00    -0.005 A 
ATOM      6  C5  UNL d   1       1.840   1.158  -2.152  0.00  0.00     0.003 A 
ATOM      7  C6  UNL d   1       2.845   0.299  -1.705  0.00  0.00    -0.001 A 
ENDROOT
TORSDOF 0
ENDMDL
