MODEL 1
REMARK minimizedAffinity 3.77891922
REMARK minimizedRMSD -1
REMARK  0 active torsions:
REMARK  status: ('A' for Active; 'I' for Inactive)
ROOT
ATOM      1  C   UNL d   1       0.430   3.417  -2.273  0.00  0.00     0.078 C 
ATOM      2  C1  UNL d   1       0.737   2.213  -1.434  0.00  0.00    -0.077 A 
ATOM      3  C2  UNL d   1       0.769   2.297  -0.037  0.00  0.00    -0.001 A 
ATOM      4  C3  UNL d   1       1.067   1.170   0.732  0.00  0.00     0.003 A 
ATOM      5  C4  UNL d   1       1.335  -0.048   0.112  0.00  0.00    -0.005 A 
ATOM      6  C5  UNL d   1       1.308  -0.141  -1.278  0.00  0.00     0.003 A 
ATOM      7  C6  UNL d   1       1.011   0.985  -2.048  0.00  0.00    -0.001 A 
ENDROOT
TORSDOF 0
ENDMDL
