MODEL 1
REMARK minimizedAffinity -2.60586834
REMARK minimizedRMSD -1
REMARK  0 active torsions:
REMARK  status: ('A' for Active; 'I' for Inactive)
ROOT
ATOM      1  C   UNL d   1       1.255   1.605   1.998  0.00  0.00     0.078 C 
ATOM      2  C1  UNL d   1       1.223   1.834   0.517  0.00  0.00    -0.077 A 
ATOM      3  C2  UNL d   1       1.257   3.129  -0.014  0.00  0.00    -0.001 A 
ATOM      4  C3  UNL d   1       1.216   3.328  -1.395  0.00  0.00     0.003 A 
ATOM      5  C4  UNL d   1       1.141   2.236  -2.257  0.00  0.00    -0.005 A 
ATOM      6  C5  UNL d   1       1.104   0.943  -1.738  0.00  0.00     0.003 A 
ATOM      7  C6  UNL d   1       1.144   0.742  -0.357  0.00  0.00    -0.001 A 
ENDROOT
TORSDOF 0
ENDMDL
