MODEL 1
REMARK minimizedAffinity 3.69740057
REMARK minimizedRMSD -1
REMARK  0 active torsions:
REMARK  status: ('A' for Active; 'I' for Inactive)
ROOT
ATOM      1  C   UNL d   1       0.292   2.266  -0.013  0.00  0.00     0.078 C 
ATOM      2  C1  UNL d   1       1.348   1.206   0.085  0.00  0.00    -0.077 A 
ATOM      3  C2  UNL d   1       2.568   1.461   0.723  0.00  0.00    -0.001 A 
ATOM      4  C3  UNL d   1       3.546   0.468   0.798  0.00  0.00     0.003 A 
ATOM      5  C4  UNL d   1       3.315  -0.787   0.237  0.00  0.00    -0.005 A 
ATOM      6  C5  UNL d   1       2.104  -1.049  -0.402  0.00  0.00     0.003 A 
ATOM      7  C6  UNL d   1       1.125  -0.057  -0.478  0.00  0.00    -0.001 A 
ENDROOT
TORSDOF 0
ENDMDL
