MODEL 1
REMARK minimizedAffinity 0.0707945824
REMARK minimizedRMSD -1
REMARK  0 active torsions:
REMARK  status: ('A' for Active; 'I' for Inactive)
ROOT
ATOM      1  C   UNL d   1       0.731   3.508  -1.948  0.00  0.00     0.078 C 
ATOM      2  C1  UNL d   1       0.881   2.147  -1.335  0.00  0.00    -0.077 A 
ATOM      3  C2  UNL d   1       1.247   1.997   0.008  0.00  0.00    -0.001 A 
ATOM      4  C3  UNL d   1       1.392   0.725   0.563  0.00  0.00     0.003 A 
ATOM      5  C4  UNL d   1       1.173  -0.408  -0.219  0.00  0.00    -0.005 A 
ATOM      6  C5  UNL d   1       0.810  -0.269  -1.557  0.00  0.00     0.003 A 
ATOM      7  C6  UNL d   1       0.665   1.003  -2.113  0.00  0.00    -0.001 A 
ENDROOT
TORSDOF 0
ENDMDL
