MODEL 1
REMARK minimizedAffinity 15.4418755
REMARK minimizedRMSD -1
REMARK  0 active torsions:
REMARK  status: ('A' for Active; 'I' for Inactive)
ROOT
ATOM      1  C2' OXE d   1       5.828   2.105   3.809  0.00  0.00     0.078 C 
ATOM      2  C1' OXE d   1       3.842   1.923   5.785  0.00  0.00     0.078 C 
ATOM      3  C1  OXE d   1       4.332   3.298   5.403  0.00  0.00    -0.078 A 
ATOM      4  C2  OXE d   1       5.336   3.375   4.469  0.00  0.00    -0.078 A 
ATOM      5  C3  OXE d   1       5.787   4.621   4.042  0.00  0.00     0.003 A 
ATOM      6  C4  OXE d   1       5.334   5.790   4.665  0.00  0.00    -0.002 A 
ATOM      7  C5  OXE d   1       4.339   5.732   5.647  0.00  0.00    -0.002 A 
ATOM      8  C6  OXE d   1       3.798   4.499   5.997  0.00  0.00     0.003 A 
ENDROOT
TORSDOF 0
ENDMDL
