MODEL 1
REMARK minimizedAffinity 21.4791546
REMARK minimizedRMSD -1
REMARK  0 active torsions:
REMARK  status: ('A' for Active; 'I' for Inactive)
ROOT
ATOM      1  C2' OXE d   1       4.924   6.000   5.620  0.00  0.00     0.078 C 
ATOM      2  C1' OXE d   1       2.137   5.967   5.961  0.00  0.00     0.078 C 
ATOM      3  C1  OXE d   1       2.852   4.641   5.881  0.00  0.00    -0.078 A 
ATOM      4  C2  OXE d   1       4.209   4.666   5.668  0.00  0.00    -0.078 A 
ATOM      5  C3  OXE d   1       4.925   3.473   5.641  0.00  0.00     0.003 A 
ATOM      6  C4  OXE d   1       4.256   2.244   5.675  0.00  0.00    -0.002 A 
ATOM      7  C5  OXE d   1       2.869   2.196   5.852  0.00  0.00    -0.002 A 
ATOM      8  C6  OXE d   1       2.159   3.382   6.000  0.00  0.00     0.003 A 
ENDROOT
TORSDOF 0
ENDMDL
