MODEL 1
REMARK minimizedAffinity 7.99349499
REMARK minimizedRMSD -1
REMARK  0 active torsions:
REMARK  status: ('A' for Active; 'I' for Inactive)
ROOT
ATOM      1  C2' OXE d   1       5.875   5.457   5.995  0.00  0.00     0.078 C 
ATOM      2  C1' OXE d   1       3.101   5.886   5.988  0.00  0.00     0.078 C 
ATOM      3  C1  OXE d   1       3.655   4.851   5.042  0.00  0.00    -0.078 A 
ATOM      4  C2  OXE d   1       5.018   4.681   5.018  0.00  0.00    -0.078 A 
ATOM      5  C3  OXE d   1       5.577   3.701   4.203  0.00  0.00     0.003 A 
ATOM      6  C4  OXE d   1       4.778   2.994   3.296  0.00  0.00    -0.002 A 
ATOM      7  C5  OXE d   1       3.392   3.180   3.275  0.00  0.00    -0.002 A 
ATOM      8  C6  OXE d   1       2.811   4.072   4.169  0.00  0.00     0.003 A 
ENDROOT
TORSDOF 0
ENDMDL
