MODEL 1
REMARK minimizedAffinity 4.30052948
REMARK minimizedRMSD -1
REMARK  0 active torsions:
REMARK  status: ('A' for Active; 'I' for Inactive)
ROOT
ATOM      1  C2' OXE d   1       5.985   2.238   5.729  0.00  0.00     0.078 C 
ATOM      2  C1' OXE d   1       3.191   2.192   5.997  0.00  0.00     0.078 C 
ATOM      3  C1  OXE d   1       3.868   3.537   5.924  0.00  0.00    -0.078 A 
ATOM      4  C2  OXE d   1       5.240   3.551   5.840  0.00  0.00    -0.078 A 
ATOM      5  C3  OXE d   1       5.911   4.764   5.714  0.00  0.00     0.003 A 
ATOM      6  C4  OXE d   1       5.216   5.974   5.828  0.00  0.00    -0.002 A 
ATOM      7  C5  OXE d   1       3.822   5.983   5.954  0.00  0.00    -0.002 A 
ATOM      8  C6  OXE d   1       3.131   4.776   5.961  0.00  0.00     0.003 A 
ENDROOT
TORSDOF 0
ENDMDL
