MODEL 1
REMARK minimizedAffinity 22.8465652
REMARK minimizedRMSD -1
REMARK  0 active torsions:
REMARK  status: ('A' for Active; 'I' for Inactive)
ROOT
ATOM      1  C2' OXE d   1      -3.283  -0.766  -2.930  0.00  0.00     0.078 C 
ATOM      2  C1' OXE d   1      -4.053   1.030  -0.915  0.00  0.00     0.078 C 
ATOM      3  C1  OXE d   1      -3.541   1.605  -2.212  0.00  0.00    -0.078 A 
ATOM      4  C2  OXE d   1      -3.123   0.718  -3.175  0.00  0.00    -0.078 A 
ATOM      5  C3  OXE d   1      -2.693   1.195  -4.410  0.00  0.00     0.003 A 
ATOM      6  C4  OXE d   1      -2.538   2.569  -4.625  0.00  0.00    -0.002 A 
ATOM      7  C5  OXE d   1      -2.920   3.489  -3.642  0.00  0.00    -0.002 A 
ATOM      8  C6  OXE d   1      -3.463   3.025  -2.449  0.00  0.00     0.003 A 
ENDROOT
TORSDOF 0
ENDMDL
