MODEL 1
REMARK minimizedAffinity 16.4446678
REMARK minimizedRMSD -1
REMARK  0 active torsions:
REMARK  status: ('A' for Active; 'I' for Inactive)
ROOT
ATOM      1  C2' OXE d   1       5.996   1.845  -3.117  0.00  0.00     0.078 C 
ATOM      2  C1' OXE d   1       3.296   1.200  -2.698  0.00  0.00     0.078 C 
ATOM      3  C1  OXE d   1       3.952   2.150  -1.727  0.00  0.00    -0.078 A 
ATOM      4  C2  OXE d   1       5.286   2.423  -1.912  0.00  0.00    -0.078 A 
ATOM      5  C3  OXE d   1       5.926   3.334  -1.077  0.00  0.00     0.003 A 
ATOM      6  C4  OXE d   1       5.264   3.857   0.041  0.00  0.00    -0.002 A 
ATOM      7  C5  OXE d   1       3.917   3.560   0.271  0.00  0.00    -0.002 A 
ATOM      8  C6  OXE d   1       3.236   2.744  -0.625  0.00  0.00     0.003 A 
ENDROOT
TORSDOF 0
ENDMDL
