MODEL 1
REMARK minimizedAffinity 11.1829443
REMARK minimizedRMSD -1
REMARK  0 active torsions:
REMARK  status: ('A' for Active; 'I' for Inactive)
ROOT
ATOM      1  C2' OXE d   1       5.984   2.235   4.010  0.00  0.00     0.078 C 
ATOM      2  C1' OXE d   1       3.779   2.012   5.732  0.00  0.00     0.078 C 
ATOM      3  C1  OXE d   1       4.301   3.395   5.433  0.00  0.00    -0.078 A 
ATOM      4  C2  OXE d   1       5.409   3.491   4.627  0.00  0.00    -0.078 A 
ATOM      5  C3  OXE d   1       5.899   4.746   4.275  0.00  0.00     0.003 A 
ATOM      6  C4  OXE d   1       5.367   5.903   4.857  0.00  0.00    -0.002 A 
ATOM      7  C5  OXE d   1       4.263   5.824   5.713  0.00  0.00    -0.002 A 
ATOM      8  C6  OXE d   1       3.693   4.584   5.977  0.00  0.00     0.003 A 
ENDROOT
TORSDOF 0
ENDMDL
