MODEL 1
REMARK minimizedAffinity 10.7903757
REMARK minimizedRMSD -1
REMARK  0 active torsions:
REMARK  status: ('A' for Active; 'I' for Inactive)
ROOT
ATOM      1  C2' OXE d   1       5.908   3.102   5.617  0.00  0.00     0.078 C 
ATOM      2  C1' OXE d   1       5.996   5.908   5.657  0.00  0.00     0.078 C 
ATOM      3  C1  OXE d   1       4.646   5.244   5.776  0.00  0.00    -0.078 A 
ATOM      4  C2  OXE d   1       4.609   3.872   5.708  0.00  0.00    -0.078 A 
ATOM      5  C3  OXE d   1       3.396   3.207   5.867  0.00  0.00     0.003 A 
ATOM      6  C4  OXE d   1       2.197   3.927   5.941  0.00  0.00    -0.002 A 
ATOM      7  C5  OXE d   1       2.210   5.326   5.971  0.00  0.00    -0.002 A 
ATOM      8  C6  OXE d   1       3.427   5.997   5.932  0.00  0.00     0.003 A 
ENDROOT
TORSDOF 0
ENDMDL
