MODEL 1
REMARK minimizedAffinity 16.7819691
REMARK minimizedRMSD -1
REMARK  0 active torsions:
REMARK  status: ('A' for Active; 'I' for Inactive)
ROOT
ATOM      1  C2' OXE d   1      -1.576  -0.835   0.767  0.00  0.00     0.078 C 
ATOM      2  C1' OXE d   1      -3.430   0.230  -1.052  0.00  0.00     0.078 C 
ATOM      3  C1  OXE d   1      -2.629  -0.973  -1.486  0.00  0.00    -0.078 A 
ATOM      4  C2  OXE d   1      -1.691  -1.459  -0.607  0.00  0.00    -0.078 A 
ATOM      5  C3  OXE d   1      -0.964  -2.600  -0.935  0.00  0.00     0.003 A 
ATOM      6  C4  OXE d   1      -1.070  -3.165  -2.212  0.00  0.00    -0.002 A 
ATOM      7  C5  OXE d   1      -1.991  -2.661  -3.137  0.00  0.00    -0.002 A 
ATOM      8  C6  OXE d   1      -2.807  -1.595  -2.775  0.00  0.00     0.003 A 
ENDROOT
TORSDOF 0
ENDMDL
