MODEL 1
REMARK minimizedAffinity 1.83623397
REMARK minimizedRMSD -1
REMARK  0 active torsions:
REMARK  status: ('A' for Active; 'I' for Inactive)
ROOT
ATOM      1  C2' OXE d   1       2.128   5.894   5.973  0.00  0.00     0.078 C 
ATOM      2  C1' OXE d   1       2.253   3.089   5.978  0.00  0.00     0.078 C 
ATOM      3  C1  OXE d   1       3.555   3.852   5.956  0.00  0.00    -0.078 A 
ATOM      4  C2  OXE d   1       3.484   5.223   5.907  0.00  0.00    -0.078 A 
ATOM      5  C3  OXE d   1       4.654   5.976   5.941  0.00  0.00     0.003 A 
ATOM      6  C4  OXE d   1       5.903   5.347   5.870  0.00  0.00    -0.002 A 
ATOM      7  C5  OXE d   1       5.997   3.952   5.879  0.00  0.00    -0.002 A 
ATOM      8  C6  OXE d   1       4.837   3.191   5.965  0.00  0.00     0.003 A 
ENDROOT
TORSDOF 0
ENDMDL
