MODEL 1
REMARK minimizedAffinity 4.2781539
REMARK minimizedRMSD -1
REMARK  0 active torsions:
REMARK  status: ('A' for Active; 'I' for Inactive)
ROOT
ATOM      1  C2' OXE d   1       1.858   5.991   4.874  0.00  0.00     0.078 C 
ATOM      2  C1' OXE d   1       2.834   4.221   2.926  0.00  0.00     0.078 C 
ATOM      3  C1  OXE d   1       3.788   4.680   4.001  0.00  0.00    -0.078 A 
ATOM      4  C2  OXE d   1       3.314   5.583   4.923  0.00  0.00    -0.078 A 
ATOM      5  C3  OXE d   1       4.136   5.996   5.968  0.00  0.00     0.003 A 
ATOM      6  C4  OXE d   1       5.484   5.621   6.000  0.00  0.00    -0.002 A 
ATOM      7  C5  OXE d   1       5.998   4.734   5.048  0.00  0.00    -0.002 A 
ATOM      8  C6  OXE d   1       5.153   4.222   4.069  0.00  0.00     0.003 A 
ENDROOT
TORSDOF 0
ENDMDL
