MODEL 1
REMARK minimizedAffinity 6.84563875
REMARK minimizedRMSD -1
REMARK  0 active torsions:
REMARK  status: ('A' for Active; 'I' for Inactive)
ROOT
ATOM      1  C2' OXE d   1       5.999   2.452   5.692  0.00  0.00     0.078 C 
ATOM      2  C1' OXE d   1       3.259   1.926   6.000  0.00  0.00     0.078 C 
ATOM      3  C1  OXE d   1       3.696   3.368   5.935  0.00  0.00    -0.078 A 
ATOM      4  C2  OXE d   1       5.043   3.617   5.831  0.00  0.00    -0.078 A 
ATOM      5  C3  OXE d   1       5.495   4.928   5.713  0.00  0.00     0.003 A 
ATOM      6  C4  OXE d   1       4.605   6.000   5.853  0.00  0.00    -0.002 A 
ATOM      7  C5  OXE d   1       3.233   5.769   5.999  0.00  0.00    -0.002 A 
ATOM      8  C6  OXE d   1       2.758   4.462   5.999  0.00  0.00     0.003 A 
ENDROOT
TORSDOF 0
ENDMDL
