MODEL 1
REMARK minimizedAffinity 14.7104874
REMARK minimizedRMSD -1
REMARK  0 active torsions:
REMARK  status: ('A' for Active; 'I' for Inactive)
ROOT
ATOM      1  C2' OXE d   1      -0.355  -1.474  -2.482  0.00  0.00     0.078 C 
ATOM      2  C1' OXE d   1      -1.094  -2.285   0.101  0.00  0.00     0.078 C 
ATOM      3  C1  OXE d   1      -2.027  -1.360  -0.639  0.00  0.00    -0.078 A 
ATOM      4  C2  OXE d   1      -1.635  -0.930  -1.884  0.00  0.00    -0.078 A 
ATOM      5  C3  OXE d   1      -2.483  -0.120  -2.633  0.00  0.00     0.003 A 
ATOM      6  C4  OXE d   1      -3.660   0.386  -2.069  0.00  0.00    -0.002 A 
ATOM      7  C5  OXE d   1      -4.059  -0.007  -0.787  0.00  0.00    -0.002 A 
ATOM      8  C6  OXE d   1      -3.277  -0.911  -0.077  0.00  0.00     0.003 A 
ENDROOT
TORSDOF 0
ENDMDL
