MODEL 1
REMARK minimizedAffinity 2.22955585
REMARK minimizedRMSD -1
REMARK  0 active torsions:
REMARK  status: ('A' for Active; 'I' for Inactive)
ROOT
ATOM      1  C2' OXE d   1       3.191   5.981   5.820  0.00  0.00     0.078 C 
ATOM      2  C1' OXE d   1       5.997   5.970   5.871  0.00  0.00     0.078 C 
ATOM      3  C1  OXE d   1       5.288   4.639   5.893  0.00  0.00    -0.078 A 
ATOM      4  C2  OXE d   1       3.914   4.655   5.915  0.00  0.00    -0.078 A 
ATOM      5  C3  OXE d   1       3.210   3.455   5.881  0.00  0.00     0.003 A 
ATOM      6  C4  OXE d   1       3.886   2.233   5.980  0.00  0.00    -0.002 A 
ATOM      7  C5  OXE d   1       5.285   2.196   5.998  0.00  0.00    -0.002 A 
ATOM      8  C6  OXE d   1       6.000   3.385   5.913  0.00  0.00     0.003 A 
ENDROOT
TORSDOF 0
ENDMDL
