MODEL 1
REMARK minimizedAffinity 5.21051264
REMARK minimizedRMSD -1
REMARK  0 active torsions:
REMARK  status: ('A' for Active; 'I' for Inactive)
ROOT
ATOM      1  C2' OXE d   1       2.257   5.998   5.934  0.00  0.00     0.078 C 
ATOM      2  C1' OXE d   1       2.291   3.192   5.999  0.00  0.00     0.078 C 
ATOM      3  C1  OXE d   1       3.597   3.906   5.755  0.00  0.00    -0.078 A 
ATOM      4  C2  OXE d   1       3.563   5.278   5.678  0.00  0.00    -0.078 A 
ATOM      5  C3  OXE d   1       4.748   5.988   5.510  0.00  0.00     0.003 A 
ATOM      6  C4  OXE d   1       5.950   5.313   5.264  0.00  0.00    -0.002 A 
ATOM      7  C5  OXE d   1       6.000   3.916   5.298  0.00  0.00    -0.002 A 
ATOM      8  C6  OXE d   1       4.843   3.200   5.584  0.00  0.00     0.003 A 
ENDROOT
TORSDOF 0
ENDMDL
