MODEL 1
REMARK minimizedAffinity 15.1083012
REMARK minimizedRMSD -1
REMARK  0 active torsions:
REMARK  status: ('A' for Active; 'I' for Inactive)
ROOT
ATOM      1  C2' OXE d   1       3.383   3.387   0.570  0.00  0.00     0.078 C 
ATOM      2  C1' OXE d   1       5.670   2.430  -0.748  0.00  0.00     0.078 C 
ATOM      3  C1  OXE d   1       4.341   1.815  -1.109  0.00  0.00    -0.078 A 
ATOM      4  C2  OXE d   1       3.233   2.257  -0.426  0.00  0.00    -0.078 A 
ATOM      5  C3  OXE d   1       1.976   1.762  -0.758  0.00  0.00     0.003 A 
ATOM      6  C4  OXE d   1       1.847   0.710  -1.673  0.00  0.00    -0.002 A 
ATOM      7  C5  OXE d   1       2.968   0.218  -2.351  0.00  0.00    -0.002 A 
ATOM      8  C6  OXE d   1       4.213   0.788  -2.112  0.00  0.00     0.003 A 
ENDROOT
TORSDOF 0
ENDMDL
