MODEL 1
REMARK minimizedAffinity 2.43854761
REMARK minimizedRMSD -1
REMARK  0 active torsions:
REMARK  status: ('A' for Active; 'I' for Inactive)
ROOT
ATOM      1  C2' OXE d   1       2.098   5.996   5.253  0.00  0.00     0.078 C 
ATOM      2  C1' OXE d   1       2.465   3.509   4.003  0.00  0.00     0.078 C 
ATOM      3  C1  OXE d   1       3.649   4.124   4.708  0.00  0.00    -0.078 A 
ATOM      4  C2  OXE d   1       3.473   5.362   5.277  0.00  0.00    -0.078 A 
ATOM      5  C3  OXE d   1       4.517   5.950   5.986  0.00  0.00     0.003 A 
ATOM      6  C4  OXE d   1       5.787   5.362   5.994  0.00  0.00    -0.002 A 
ATOM      7  C5  OXE d   1       5.998   4.119   5.387  0.00  0.00    -0.002 A 
ATOM      8  C6  OXE d   1       4.931   3.468   4.778  0.00  0.00     0.003 A 
ENDROOT
TORSDOF 0
ENDMDL
