MODEL 1
REMARK minimizedAffinity 18.5026894
REMARK minimizedRMSD -1
REMARK  0 active torsions:
REMARK  status: ('A' for Active; 'I' for Inactive)
ROOT
ATOM      1  C2' OXE d   1       5.325   2.509   3.546  0.00  0.00     0.078 C 
ATOM      2  C1' OXE d   1       3.109   2.433   5.267  0.00  0.00     0.078 C 
ATOM      3  C1  OXE d   1       3.919   3.705   5.218  0.00  0.00    -0.078 A 
ATOM      4  C2  OXE d   1       5.029   3.717   4.408  0.00  0.00    -0.078 A 
ATOM      5  C3  OXE d   1       5.779   4.883   4.284  0.00  0.00     0.003 A 
ATOM      6  C4  OXE d   1       5.504   5.992   5.092  0.00  0.00    -0.002 A 
ATOM      7  C5  OXE d   1       4.402   5.987   5.954  0.00  0.00    -0.002 A 
ATOM      8  C6  OXE d   1       3.576   4.869   5.997  0.00  0.00     0.003 A 
ENDROOT
TORSDOF 0
ENDMDL
