MODEL 1
REMARK minimizedAffinity 2.21278095
REMARK minimizedRMSD -1
REMARK  0 active torsions:
REMARK  status: ('A' for Active; 'I' for Inactive)
ROOT
ATOM      1  C2' OXE d   1       3.240   1.869   5.999  0.00  0.00     0.078 C 
ATOM      2  C1' OXE d   1       5.986   2.442   5.896  0.00  0.00     0.078 C 
ATOM      3  C1  OXE d   1       5.025   3.605   5.919  0.00  0.00    -0.078 A 
ATOM      4  C2  OXE d   1       3.682   3.315   5.923  0.00  0.00    -0.078 A 
ATOM      5  C3  OXE d   1       2.753   4.349   5.999  0.00  0.00     0.003 A 
ATOM      6  C4  OXE d   1       3.170   5.683   5.918  0.00  0.00    -0.002 A 
ATOM      7  C5  OXE d   1       4.532   6.000   5.874  0.00  0.00    -0.002 A 
ATOM      8  C6  OXE d   1       5.471   4.976   5.917  0.00  0.00     0.003 A 
ENDROOT
TORSDOF 0
ENDMDL
