MODEL 1
REMARK minimizedAffinity -4.58505774
REMARK minimizedRMSD -1
REMARK  2 active torsions:
REMARK  status: ('A' for Active; 'I' for Inactive)
REMARK    1  A    between atoms: C2'_3  and  C1'_4 
REMARK    2  A    between atoms: C1'_4  and  C1_5 
ROOT
ATOM      1  C1  I4B d   1       0.107   0.956   1.948  0.00  0.00    -0.075 A 
ATOM      2  C2  I4B d   1       0.110   1.335   0.629  0.00  0.00     0.003 A 
ATOM      3  C3  I4B d   1      -1.007   1.059  -0.195  0.00  0.00     0.002 A 
ATOM      4  C4  I4B d   1      -2.078   0.361   0.325  0.00  0.00    -0.004 A 
ATOM      5  C5  I4B d   1      -2.089  -0.003   1.668  0.00  0.00     0.002 A 
ATOM      6  C6  I4B d   1      -0.995   0.307   2.488  0.00  0.00     0.003 A 
ENDROOT
BRANCH   1   7
ATOM      7  C1' I4B d   1       1.318   1.235   2.781  0.00  0.00     0.060 C 
BRANCH   7   8
ATOM      8  C2' I4B d   1       2.357   0.178   2.463  0.00  0.00    -0.013 C 
ATOM      9  C4' I4B d   1       1.715  -1.070   1.918  0.00  0.00     0.013 C 
ATOM     10  C3' I4B d   1       3.326   0.763   1.480  0.00  0.00     0.013 C 
ENDBRANCH   7   8
ENDBRANCH   1   7
TORSDOF 2
ENDMDL
