MODEL 1
REMARK minimizedAffinity 1.12986159
REMARK minimizedRMSD -1
REMARK  2 active torsions:
REMARK  status: ('A' for Active; 'I' for Inactive)
REMARK    1  A    between atoms: C2'_3  and  C1'_4 
REMARK    2  A    between atoms: C1'_4  and  C1_5 
ROOT
ATOM      1  C1  I4B d   1       0.039  -0.093   1.757  0.00  0.00    -0.075 A 
ATOM      2  C2  I4B d   1       0.002  -0.566   0.469  0.00  0.00     0.003 A 
ATOM      3  C3  I4B d   1      -1.240  -0.795  -0.172  0.00  0.00     0.002 A 
ATOM      4  C4  I4B d   1      -2.412  -0.589   0.526  0.00  0.00    -0.004 A 
ATOM      5  C5  I4B d   1      -2.374  -0.088   1.824  0.00  0.00     0.002 A 
ATOM      6  C6  I4B d   1      -1.141   0.173   2.440  0.00  0.00     0.003 A 
ENDROOT
BRANCH   1   7
ATOM      7  C1' I4B d   1       1.367   0.107   2.414  0.00  0.00     0.060 C 
BRANCH   7   8
ATOM      8  C2' I4B d   1       1.676   1.590   2.402  0.00  0.00    -0.013 C 
ATOM      9  C4' I4B d   1       2.126   2.042   1.038  0.00  0.00     0.013 C 
ATOM     10  C3' I4B d   1       0.441   2.323   2.834  0.00  0.00     0.013 C 
ENDBRANCH   7   8
ENDBRANCH   1   7
TORSDOF 2
ENDMDL
