MODEL 1
REMARK minimizedAffinity -3.50744987
REMARK minimizedRMSD -1
REMARK  2 active torsions:
REMARK  status: ('A' for Active; 'I' for Inactive)
REMARK    1  A    between atoms: C2'_3  and  C1'_4 
REMARK    2  A    between atoms: C1'_4  and  C1_5 
ROOT
ATOM      1  C1  I4B d   1       0.085   1.287   1.543  0.00  0.00    -0.075 A 
ATOM      2  C2  I4B d   1      -0.647   1.081   2.686  0.00  0.00     0.003 A 
ATOM      3  C3  I4B d   1      -1.698   0.133   2.698  0.00  0.00     0.002 A 
ATOM      4  C4  I4B d   1      -2.015  -0.546   1.539  0.00  0.00    -0.004 A 
ATOM      5  C5  I4B d   1      -1.258  -0.352   0.387  0.00  0.00     0.002 A 
ATOM      6  C6  I4B d   1      -0.194   0.561   0.392  0.00  0.00     0.003 A 
ENDROOT
BRANCH   1   7
ATOM      7  C1' I4B d   1       1.167   2.319   1.556  0.00  0.00     0.060 C 
BRANCH   7   8
ATOM      8  C2' I4B d   1       2.449   1.657   1.095  0.00  0.00    -0.013 C 
ATOM      9  C4' I4B d   1       2.441   0.182   1.399  0.00  0.00     0.013 C 
ATOM     10  C3' I4B d   1       2.596   1.906  -0.377  0.00  0.00     0.013 C 
ENDBRANCH   7   8
ENDBRANCH   1   7
TORSDOF 2
ENDMDL
