MODEL 1
REMARK minimizedAffinity 1.03016615
REMARK minimizedRMSD -1
REMARK  2 active torsions:
REMARK  status: ('A' for Active; 'I' for Inactive)
REMARK    1  A    between atoms: C2'_3  and  C1'_4 
REMARK    2  A    between atoms: C1'_4  and  C1_5 
ROOT
ATOM      1  C1  I4B d   1      -0.461   0.707   1.534  0.00  0.00    -0.075 A 
ATOM      2  C2  I4B d   1      -1.444   0.133   2.301  0.00  0.00     0.003 A 
ATOM      3  C3  I4B d   1      -2.483  -0.608   1.690  0.00  0.00     0.002 A 
ATOM      4  C4  I4B d   1      -2.529  -0.708   0.315  0.00  0.00    -0.004 A 
ATOM      5  C5  I4B d   1      -1.520  -0.145  -0.460  0.00  0.00     0.002 A 
ATOM      6  C6  I4B d   1      -0.472   0.557   0.153  0.00  0.00     0.003 A 
ENDROOT
BRANCH   1   7
ATOM      7  C1' I4B d   1       0.604   1.511   2.210  0.00  0.00     0.060 C 
BRANCH   7   8
ATOM      8  C2' I4B d   1       1.895   0.720   2.151  0.00  0.00    -0.013 C 
ATOM      9  C4' I4B d   1       1.625  -0.750   1.967  0.00  0.00     0.013 C 
ATOM     10  C3' I4B d   1       2.721   1.264   1.024  0.00  0.00     0.013 C 
ENDBRANCH   7   8
ENDBRANCH   1   7
TORSDOF 2
ENDMDL
