MODEL 1
REMARK minimizedAffinity -0.70138824
REMARK minimizedRMSD -1
REMARK  2 active torsions:
REMARK  status: ('A' for Active; 'I' for Inactive)
REMARK    1  A    between atoms: C2'_3  and  C1'_4 
REMARK    2  A    between atoms: C1'_4  and  C1_5 
ROOT
ATOM      1  C1  I4B d   1       0.123   1.180   1.170  0.00  0.00    -0.075 A 
ATOM      2  C2  I4B d   1      -0.228   1.241   2.495  0.00  0.00     0.003 A 
ATOM      3  C3  I4B d   1      -1.370   0.546   2.962  0.00  0.00     0.002 A 
ATOM      4  C4  I4B d   1      -2.155  -0.151   2.067  0.00  0.00    -0.004 A 
ATOM      5  C5  I4B d   1      -1.784  -0.231   0.728  0.00  0.00     0.002 A 
ATOM      6  C6  I4B d   1      -0.631   0.429   0.278  0.00  0.00     0.003 A 
ENDROOT
BRANCH   1   7
ATOM      7  C1' I4B d   1       1.317   1.953   0.705  0.00  0.00     0.060 C 
BRANCH   7   8
ATOM      8  C2' I4B d   1       2.547   1.101   0.942  0.00  0.00    -0.013 C 
ATOM      9  C4' I4B d   1       2.247  -0.039   1.880  0.00  0.00     0.013 C 
ATOM     10  C3' I4B d   1       3.024   0.597  -0.387  0.00  0.00     0.013 C 
ENDBRANCH   7   8
ENDBRANCH   1   7
TORSDOF 2
ENDMDL
