MODEL 1
REMARK minimizedAffinity -2.53953457
REMARK minimizedRMSD -1
REMARK  2 active torsions:
REMARK  status: ('A' for Active; 'I' for Inactive)
REMARK    1  A    between atoms: C2'_3  and  C1'_4 
REMARK    2  A    between atoms: C1'_4  and  C1_5 
ROOT
ATOM      1  C1  I4B d   1      -0.186  -0.307   1.434  0.00  0.00    -0.075 A 
ATOM      2  C2  I4B d   1      -0.435  -0.665   0.133  0.00  0.00     0.003 A 
ATOM      3  C3  I4B d   1      -1.763  -0.690  -0.359  0.00  0.00     0.002 A 
ATOM      4  C4  I4B d   1      -2.808  -0.399   0.494  0.00  0.00    -0.004 A 
ATOM      5  C5  I4B d   1      -2.553  -0.013   1.806  0.00  0.00     0.002 A 
ATOM      6  C6  I4B d   1      -1.233   0.045   2.277  0.00  0.00     0.003 A 
ENDROOT
BRANCH   1   7
ATOM      7  C1' I4B d   1       1.225  -0.323   1.929  0.00  0.00     0.060 C 
BRANCH   7   8
ATOM      8  C2' I4B d   1       1.762   1.092   1.857  0.00  0.00    -0.013 C 
ATOM      9  C4' I4B d   1       2.538   1.316   0.586  0.00  0.00     0.013 C 
ATOM     10  C3' I4B d   1       0.599   2.034   1.956  0.00  0.00     0.013 C 
ENDBRANCH   7   8
ENDBRANCH   1   7
TORSDOF 2
ENDMDL
