MODEL 1
REMARK minimizedAffinity 5.49937725
REMARK minimizedRMSD -1
REMARK  2 active torsions:
REMARK  status: ('A' for Active; 'I' for Inactive)
REMARK    1  A    between atoms: C2'_3  and  C1'_4 
REMARK    2  A    between atoms: C1'_4  and  C1_5 
ROOT
ATOM      1  C1  I4B d   1      -0.969  -0.543   2.238  0.00  0.00    -0.075 A 
ATOM      2  C2  I4B d   1      -2.113  -0.538   1.480  0.00  0.00     0.003 A 
ATOM      3  C3  I4B d   1      -2.083  -0.060   0.147  0.00  0.00     0.002 A 
ATOM      4  C4  I4B d   1      -0.907   0.446  -0.367  0.00  0.00    -0.004 A 
ATOM      5  C5  I4B d   1       0.257   0.419   0.395  0.00  0.00     0.002 A 
ATOM      6  C6  I4B d   1       0.230  -0.090   1.702  0.00  0.00     0.003 A 
ENDROOT
BRANCH   1   7
ATOM      7  C1' I4B d   1      -1.044  -1.024   3.652  0.00  0.00     0.060 C 
BRANCH   7   8
ATOM      8  C2' I4B d   1       0.336  -0.893   4.263  0.00  0.00    -0.013 C 
ATOM      9  C4' I4B d   1       0.403   0.271   5.217  0.00  0.00     0.013 C 
ATOM     10  C3' I4B d   1       0.659  -2.182   4.959  0.00  0.00     0.013 C 
ENDBRANCH   7   8
ENDBRANCH   1   7
TORSDOF 2
ENDMDL
