MODEL 1
REMARK minimizedAffinity 11.9303846
REMARK minimizedRMSD -1
REMARK  0 active torsions:
REMARK  status: ('A' for Active; 'I' for Inactive)
ROOT
ATOM      1  O1  BZF d   1       0.557   1.442   3.121  0.00  0.00    -0.204 OA
ATOM      2  C2  BZF d   1      -0.765   1.795   3.314  0.00  0.00     0.174 A 
ATOM      3  C3  BZF d   1      -1.587   0.798   2.927  0.00  0.00    -0.012 A 
ATOM      4  C3A BZF d   1      -0.723  -0.278   2.550  0.00  0.00    -0.107 A 
ATOM      5  C4  BZF d   1      -0.946  -1.545   2.093  0.00  0.00     0.055 A 
ATOM      6  C5  BZF d   1       0.116  -2.319   1.747  0.00  0.00    -0.016 A 
ATOM      7  C6  BZF d   1       1.412  -1.857   1.841  0.00  0.00     0.022 A 
ATOM      8  C7  BZF d   1       1.684  -0.608   2.293  0.00  0.00     0.029 A 
ATOM      9  C7A BZF d   1       0.614   0.165   2.675  0.00  0.00     0.058 A 
ENDROOT
TORSDOF 0
ENDMDL
