MODEL 1
REMARK minimizedAffinity 5.19459438
REMARK minimizedRMSD -1
REMARK  0 active torsions:
REMARK  status: ('A' for Active; 'I' for Inactive)
ROOT
ATOM      1  O1  BZF d   1       0.211   1.732   2.834  0.00  0.00    -0.204 OA
ATOM      2  C2  BZF d   1      -1.104   1.699   3.256  0.00  0.00     0.174 A 
ATOM      3  C3  BZF d   1      -1.670   0.511   2.961  0.00  0.00    -0.012 A 
ATOM      4  C3A BZF d   1      -0.618  -0.278   2.398  0.00  0.00    -0.107 A 
ATOM      5  C4  BZF d   1      -0.555  -1.557   1.923  0.00  0.00     0.055 A 
ATOM      6  C5  BZF d   1       0.606  -2.001   1.373  0.00  0.00    -0.016 A 
ATOM      7  C6  BZF d   1       1.719  -1.192   1.276  0.00  0.00     0.022 A 
ATOM      8  C7  BZF d   1       1.706   0.082   1.737  0.00  0.00     0.029 A 
ATOM      9  C7A BZF d   1       0.545   0.523   2.324  0.00  0.00     0.058 A 
ENDROOT
TORSDOF 0
ENDMDL
