MODEL 1
REMARK minimizedAffinity 5.76155949
REMARK minimizedRMSD -1
REMARK  0 active torsions:
REMARK  status: ('A' for Active; 'I' for Inactive)
ROOT
ATOM      1  O1  BZF d   1      -0.066  -1.907   0.532  0.00  0.00    -0.204 OA
ATOM      2  C2  BZF d   1      -0.005  -1.708   1.898  0.00  0.00     0.174 A 
ATOM      3  C3  BZF d   1      -1.167  -1.204   2.361  0.00  0.00    -0.012 A 
ATOM      4  C3A BZF d   1      -2.039  -1.167   1.227  0.00  0.00    -0.107 A 
ATOM      5  C4  BZF d   1      -3.337  -0.778   1.053  0.00  0.00     0.055 A 
ATOM      6  C5  BZF d   1      -3.870  -0.797  -0.197  0.00  0.00    -0.016 A 
ATOM      7  C6  BZF d   1      -3.134  -1.192  -1.295  0.00  0.00     0.022 A 
ATOM      8  C7  BZF d   1      -1.844  -1.591  -1.171  0.00  0.00     0.029 A 
ATOM      9  C7A BZF d   1      -1.313  -1.604   0.095  0.00  0.00     0.058 A 
ENDROOT
TORSDOF 0
ENDMDL
