MODEL 1
REMARK minimizedAffinity 4.13508797
REMARK minimizedRMSD -1
REMARK  0 active torsions:
REMARK  status: ('A' for Active; 'I' for Inactive)
ROOT
ATOM      1  O1  BZF d   1       2.382   3.487   5.958  0.00  0.00    -0.204 OA
ATOM      2  C2  BZF d   1       1.556   4.595   5.946  0.00  0.00     0.174 A 
ATOM      3  C3  BZF d   1       2.281   5.731   5.998  0.00  0.00    -0.012 A 
ATOM      4  C3A BZF d   1       3.647   5.309   5.952  0.00  0.00    -0.107 A 
ATOM      5  C4  BZF d   1       4.837   5.979   5.954  0.00  0.00     0.055 A 
ATOM      6  C5  BZF d   1       5.995   5.268   5.975  0.00  0.00    -0.016 A 
ATOM      7  C6  BZF d   1       6.000   3.889   5.999  0.00  0.00     0.022 A 
ATOM      8  C7  BZF d   1       4.845   3.181   5.992  0.00  0.00     0.029 A 
ATOM      9  C7A BZF d   1       3.673   3.896   5.938  0.00  0.00     0.058 A 
ENDROOT
TORSDOF 0
ENDMDL
