MODEL 1
REMARK minimizedAffinity -1.30572259
REMARK minimizedRMSD -1
REMARK  0 active torsions:
REMARK  status: ('A' for Active; 'I' for Inactive)
ROOT
ATOM      1  O1  BZF d   1      -3.054   4.722  -0.817  0.00  0.00    -0.204 OA
ATOM      2  C2  BZF d   1      -3.517   5.438  -1.904  0.00  0.00     0.174 A 
ATOM      3  C3  BZF d   1      -4.713   6.000  -1.633  0.00  0.00    -0.012 A 
ATOM      4  C3A BZF d   1      -4.973   5.687  -0.261  0.00  0.00    -0.107 A 
ATOM      5  C4  BZF d   1      -6.000   5.981   0.590  0.00  0.00     0.055 A 
ATOM      6  C5  BZF d   1      -5.985   5.462   1.846  0.00  0.00    -0.016 A 
ATOM      7  C6  BZF d   1      -4.965   4.642   2.281  0.00  0.00     0.022 A 
ATOM      8  C7  BZF d   1      -3.923   4.327   1.475  0.00  0.00     0.029 A 
ATOM      9  C7A BZF d   1      -3.918   4.876   0.216  0.00  0.00     0.058 A 
ENDROOT
TORSDOF 0
ENDMDL
