MODEL 1
REMARK minimizedAffinity -2.15657425
REMARK minimizedRMSD -1
REMARK  0 active torsions:
REMARK  status: ('A' for Active; 'I' for Inactive)
ROOT
ATOM      1  O1  BZF d   1       3.551   2.115   5.942  0.00  0.00    -0.204 OA
ATOM      2  C2  BZF d   1       4.748   1.425   5.939  0.00  0.00     0.174 A 
ATOM      3  C3  BZF d   1       5.792   2.278   5.904  0.00  0.00    -0.012 A 
ATOM      4  C3A BZF d   1       5.214   3.584   5.977  0.00  0.00    -0.107 A 
ATOM      5  C4  BZF d   1       5.740   4.844   5.999  0.00  0.00     0.055 A 
ATOM      6  C5  BZF d   1       4.898   5.911   5.999  0.00  0.00    -0.016 A 
ATOM      7  C6  BZF d   1       3.528   5.755   5.973  0.00  0.00     0.022 A 
ATOM      8  C7  BZF d   1       2.959   4.525   5.956  0.00  0.00     0.029 A 
ATOM      9  C7A BZF d   1       3.806   3.445   5.989  0.00  0.00     0.058 A 
ENDROOT
TORSDOF 0
ENDMDL
