MODEL 1
REMARK minimizedAffinity 16.4481506
REMARK minimizedRMSD -1
REMARK  0 active torsions:
REMARK  status: ('A' for Active; 'I' for Inactive)
ROOT
ATOM      1  O1  BZF d   1      -2.929  -0.929  -2.688  0.00  0.00    -0.204 OA
ATOM      2  C2  BZF d   1      -1.989  -1.663  -3.386  0.00  0.00     0.174 A 
ATOM      3  C3  BZF d   1      -1.204  -2.362  -2.541  0.00  0.00    -0.012 A 
ATOM      4  C3A BZF d   1      -1.742  -2.117  -1.238  0.00  0.00    -0.107 A 
ATOM      5  C4  BZF d   1      -1.404  -2.546   0.014  0.00  0.00     0.055 A 
ATOM      6  C5  BZF d   1      -2.087  -2.063   1.085  0.00  0.00    -0.016 A 
ATOM      7  C6  BZF d   1      -3.108  -1.146   0.941  0.00  0.00     0.022 A 
ATOM      8  C7  BZF d   1      -3.482  -0.695  -0.280  0.00  0.00     0.029 A 
ATOM      9  C7A BZF d   1      -2.816  -1.206  -1.367  0.00  0.00     0.058 A 
ENDROOT
TORSDOF 0
ENDMDL
