MODEL 1
REMARK minimizedAffinity 13.0180025
REMARK minimizedRMSD -1
REMARK  0 active torsions:
REMARK  status: ('A' for Active; 'I' for Inactive)
ROOT
ATOM      1  O1  BZF d   1       3.168   1.533  -2.336  0.00  0.00    -0.204 OA
ATOM      2  C2  BZF d   1       2.524   0.426  -1.817  0.00  0.00     0.174 A 
ATOM      3  C3  BZF d   1       3.061  -0.712  -2.303  0.00  0.00    -0.012 A 
ATOM      4  C3A BZF d   1       4.166  -0.292  -3.109  0.00  0.00    -0.107 A 
ATOM      5  C4  BZF d   1       5.100  -0.963  -3.845  0.00  0.00     0.055 A 
ATOM      6  C5  BZF d   1       6.000  -0.253  -4.576  0.00  0.00    -0.016 A 
ATOM      7  C6  BZF d   1       5.991   1.126  -4.598  0.00  0.00     0.022 A 
ATOM      8  C7  BZF d   1       5.086   1.836  -3.881  0.00  0.00     0.029 A 
ATOM      9  C7A BZF d   1       4.197   1.122  -3.115  0.00  0.00     0.058 A 
ENDROOT
TORSDOF 0
ENDMDL
