MODEL 1
REMARK minimizedAffinity 7.30897427
REMARK minimizedRMSD -1
REMARK  0 active torsions:
REMARK  status: ('A' for Active; 'I' for Inactive)
ROOT
ATOM      1  O1  BZF d   1      -2.237   4.249  -4.103  0.00  0.00    -0.204 OA
ATOM      2  C2  BZF d   1      -2.040   3.022  -4.706  0.00  0.00     0.174 A 
ATOM      3  C3  BZF d   1      -3.153   2.622  -5.353  0.00  0.00    -0.012 A 
ATOM      4  C3A BZF d   1      -4.076   3.707  -5.219  0.00  0.00    -0.107 A 
ATOM      5  C4  BZF d   1      -5.351   3.916  -5.662  0.00  0.00     0.055 A 
ATOM      6  C5  BZF d   1      -6.000   5.053  -5.296  0.00  0.00    -0.016 A 
ATOM      7  C6  BZF d   1      -5.406   5.998  -4.486  0.00  0.00     0.022 A 
ATOM      8  C7  BZF d   1      -4.142   5.838  -4.026  0.00  0.00     0.029 A 
ATOM      9  C7A BZF d   1      -3.472   4.706  -4.421  0.00  0.00     0.058 A 
ENDROOT
TORSDOF 0
ENDMDL
