MODEL 1
REMARK minimizedAffinity 17.7862701
REMARK minimizedRMSD -1
REMARK  0 active torsions:
REMARK  status: ('A' for Active; 'I' for Inactive)
ROOT
ATOM      1  O1  BZF d   1       5.019  -1.745  -3.232  0.00  0.00    -0.204 OA
ATOM      2  C2  BZF d   1       6.000  -1.113  -3.971  0.00  0.00     0.174 A 
ATOM      3  C3  BZF d   1       5.810   0.222  -3.978  0.00  0.00    -0.012 A 
ATOM      4  C3A BZF d   1       4.689   0.446  -3.117  0.00  0.00    -0.107 A 
ATOM      5  C4  BZF d   1       4.030   1.570  -2.708  0.00  0.00     0.055 A 
ATOM      6  C5  BZF d   1       2.928   1.441  -1.922  0.00  0.00    -0.016 A 
ATOM      7  C6  BZF d   1       2.456   0.205  -1.532  0.00  0.00     0.022 A 
ATOM      8  C7  BZF d   1       3.080  -0.938  -1.908  0.00  0.00     0.029 A 
ATOM      9  C7A BZF d   1       4.212  -0.809  -2.675  0.00  0.00     0.058 A 
ENDROOT
TORSDOF 0
ENDMDL
