MODEL 1
REMARK minimizedAffinity 13.3816462
REMARK minimizedRMSD -1
REMARK  0 active torsions:
REMARK  status: ('A' for Active; 'I' for Inactive)
ROOT
ATOM      1  O1  BZF d   1       0.009  -4.753   2.743  0.00  0.00    -0.204 OA
ATOM      2  C2  BZF d   1      -0.366  -6.000   2.283  0.00  0.00     0.174 A 
ATOM      3  C3  BZF d   1      -1.011  -5.900   1.103  0.00  0.00    -0.012 A 
ATOM      4  C3A BZF d   1      -0.960  -4.512   0.761  0.00  0.00    -0.107 A 
ATOM      5  C4  BZF d   1      -1.414  -3.789  -0.305  0.00  0.00     0.055 A 
ATOM      6  C5  BZF d   1      -1.267  -2.438  -0.298  0.00  0.00    -0.016 A 
ATOM      7  C6  BZF d   1      -0.674  -1.778   0.758  0.00  0.00     0.022 A 
ATOM      8  C7  BZF d   1      -0.203  -2.452   1.835  0.00  0.00     0.029 A 
ATOM      9  C7A BZF d   1      -0.322  -3.820   1.817  0.00  0.00     0.058 A 
ENDROOT
TORSDOF 0
ENDMDL
