MODEL 1
REMARK minimizedAffinity 17.9985828
REMARK minimizedRMSD -1
REMARK  0 active torsions:
REMARK  status: ('A' for Active; 'I' for Inactive)
ROOT
ATOM      1  O1  BZF d   1      -0.852  -4.889   0.480  0.00  0.00    -0.204 OA
ATOM      2  C2  BZF d   1      -0.689  -5.328  -0.820  0.00  0.00     0.174 A 
ATOM      3  C3  BZF d   1      -0.869  -4.316  -1.693  0.00  0.00    -0.012 A 
ATOM      4  C3A BZF d   1      -1.072  -3.153  -0.885  0.00  0.00    -0.107 A 
ATOM      5  C4  BZF d   1      -1.290  -1.836  -1.172  0.00  0.00     0.055 A 
ATOM      6  C5  BZF d   1      -1.522  -0.967  -0.154  0.00  0.00    -0.016 A 
ATOM      7  C6  BZF d   1      -1.548  -1.381   1.162  0.00  0.00     0.022 A 
ATOM      8  C7  BZF d   1      -1.333  -2.677   1.497  0.00  0.00     0.029 A 
ATOM      9  C7A BZF d   1      -1.066  -3.551   0.472  0.00  0.00     0.058 A 
ENDROOT
TORSDOF 0
ENDMDL
