MODEL 1
REMARK minimizedAffinity 9.72260761
REMARK minimizedRMSD -1
REMARK  0 active torsions:
REMARK  status: ('A' for Active; 'I' for Inactive)
ROOT
ATOM      1  O1  BZF d   1      -5.956  -1.917   1.029  0.00  0.00    -0.204 OA
ATOM      2  C2  BZF d   1      -5.996  -3.162   1.626  0.00  0.00     0.174 A 
ATOM      3  C3  BZF d   1      -4.765  -3.712   1.668  0.00  0.00    -0.012 A 
ATOM      4  C3A BZF d   1      -3.888  -2.711   1.144  0.00  0.00    -0.107 A 
ATOM      5  C4  BZF d   1      -2.538  -2.657   0.945  0.00  0.00     0.055 A 
ATOM      6  C5  BZF d   1      -2.002  -1.562   0.345  0.00  0.00    -0.016 A 
ATOM      7  C6  BZF d   1      -2.785  -0.506  -0.072  0.00  0.00     0.022 A 
ATOM      8  C7  BZF d   1      -4.129  -0.512   0.108  0.00  0.00     0.029 A 
ATOM      9  C7A BZF d   1      -4.669  -1.603   0.743  0.00  0.00     0.058 A 
ENDROOT
TORSDOF 0
ENDMDL
