MODEL 1
REMARK minimizedAffinity 18.4432487
REMARK minimizedRMSD -1
REMARK  0 active torsions:
REMARK  status: ('A' for Active; 'I' for Inactive)
ROOT
ATOM      1  O1  BZF d   1       5.157   5.346   1.063  0.00  0.00    -0.204 OA
ATOM      2  C2  BZF d   1       5.533   5.975  -0.108  0.00  0.00     0.174 A 
ATOM      3  C3  BZF d   1       5.969   5.078  -1.015  0.00  0.00    -0.012 A 
ATOM      4  C3A BZF d   1       5.773   3.799  -0.404  0.00  0.00    -0.107 A 
ATOM      5  C4  BZF d   1       6.000   2.517  -0.816  0.00  0.00     0.055 A 
ATOM      6  C5  BZF d   1       5.768   1.495   0.049  0.00  0.00    -0.016 A 
ATOM      7  C6  BZF d   1       5.314   1.719   1.333  0.00  0.00     0.022 A 
ATOM      8  C7  BZF d   1       5.069   2.973   1.784  0.00  0.00     0.029 A 
ATOM      9  C7A BZF d   1       5.272   4.006   0.902  0.00  0.00     0.058 A 
ENDROOT
TORSDOF 0
ENDMDL
