MODEL 1
REMARK minimizedAffinity 21.6829109
REMARK minimizedRMSD -1
REMARK  0 active torsions:
REMARK  status: ('A' for Active; 'I' for Inactive)
ROOT
ATOM      1  O1  BZF d   1      -1.109  -4.122   0.210  0.00  0.00    -0.204 OA
ATOM      2  C2  BZF d   1      -0.955  -3.793   1.542  0.00  0.00     0.174 A 
ATOM      3  C3  BZF d   1      -0.842  -2.457   1.695  0.00  0.00    -0.012 A 
ATOM      4  C3A BZF d   1      -1.024  -1.912   0.385  0.00  0.00    -0.107 A 
ATOM      5  C4  BZF d   1      -1.038  -0.639  -0.108  0.00  0.00     0.055 A 
ATOM      6  C5  BZF d   1      -1.167  -0.451  -1.448  0.00  0.00    -0.016 A 
ATOM      7  C6  BZF d   1      -1.280  -1.512  -2.322  0.00  0.00     0.022 A 
ATOM      8  C7  BZF d   1      -1.277  -2.793  -1.880  0.00  0.00     0.029 A 
ATOM      9  C7A BZF d   1      -1.179  -2.985  -0.523  0.00  0.00     0.058 A 
ENDROOT
TORSDOF 0
ENDMDL
