MODEL 1
REMARK minimizedAffinity 12.2275715
REMARK minimizedRMSD -1
REMARK  0 active torsions:
REMARK  status: ('A' for Active; 'I' for Inactive)
ROOT
ATOM      1  O1  BZF d   1      -4.135   0.250   5.821  0.00  0.00    -0.204 OA
ATOM      2  C2  BZF d   1      -3.214   1.262   5.632  0.00  0.00     0.174 A 
ATOM      3  C3  BZF d   1      -1.963   0.763   5.565  0.00  0.00    -0.012 A 
ATOM      4  C3A BZF d   1      -2.120  -0.658   5.629  0.00  0.00    -0.107 A 
ATOM      5  C4  BZF d   1      -1.241  -1.703   5.593  0.00  0.00     0.055 A 
ATOM      6  C5  BZF d   1      -1.712  -2.967   5.753  0.00  0.00    -0.016 A 
ATOM      7  C6  BZF d   1      -3.052  -3.223   5.956  0.00  0.00     0.022 A 
ATOM      8  C7  BZF d   1      -3.963  -2.220   5.994  0.00  0.00     0.029 A 
ATOM      9  C7A BZF d   1      -3.495  -0.943   5.800  0.00  0.00     0.058 A 
ENDROOT
TORSDOF 0
ENDMDL
