MODEL 1
REMARK minimizedAffinity 14.181303
REMARK minimizedRMSD -1
REMARK  0 active torsions:
REMARK  status: ('A' for Active; 'I' for Inactive)
ROOT
ATOM      1  O1  BZF d   1      -1.101  -2.804  -3.066  0.00  0.00    -0.204 OA
ATOM      2  C2  BZF d   1      -1.810  -2.083  -4.008  0.00  0.00     0.174 A 
ATOM      3  C3  BZF d   1      -2.589  -1.157  -3.413  0.00  0.00    -0.012 A 
ATOM      4  C3A BZF d   1      -2.283  -1.247  -2.018  0.00  0.00    -0.107 A 
ATOM      5  C4  BZF d   1      -2.723  -0.573  -0.915  0.00  0.00     0.055 A 
ATOM      6  C5  BZF d   1      -2.279  -0.953   0.312  0.00  0.00    -0.016 A 
ATOM      7  C6  BZF d   1      -1.401  -2.005   0.473  0.00  0.00     0.022 A 
ATOM      8  C7  BZF d   1      -0.933  -2.700  -0.592  0.00  0.00     0.029 A 
ATOM      9  C7A BZF d   1      -1.353  -2.297  -1.836  0.00  0.00     0.058 A 
ENDROOT
TORSDOF 0
ENDMDL
