MODEL 1
REMARK minimizedAffinity 7.03013086
REMARK minimizedRMSD -1
REMARK  0 active torsions:
REMARK  status: ('A' for Active; 'I' for Inactive)
ROOT
ATOM      1  O1  BZF d   1      -4.283   0.568   5.249  0.00  0.00    -0.204 OA
ATOM      2  C2  BZF d   1      -3.422   1.589   5.602  0.00  0.00     0.174 A 
ATOM      3  C3  BZF d   1      -2.232   1.095   6.000  0.00  0.00    -0.012 A 
ATOM      4  C3A BZF d   1      -2.326  -0.319   5.801  0.00  0.00    -0.107 A 
ATOM      5  C4  BZF d   1      -1.457  -1.354   5.997  0.00  0.00     0.055 A 
ATOM      6  C5  BZF d   1      -1.883  -2.625   5.774  0.00  0.00    -0.016 A 
ATOM      7  C6  BZF d   1      -3.170  -2.897   5.359  0.00  0.00     0.022 A 
ATOM      8  C7  BZF d   1      -4.066  -1.903   5.146  0.00  0.00     0.029 A 
ATOM      9  C7A BZF d   1      -3.629  -0.615   5.339  0.00  0.00     0.058 A 
ENDROOT
TORSDOF 0
ENDMDL
