MODEL 1
REMARK minimizedAffinity 20.4508152
REMARK minimizedRMSD -1
REMARK  0 active torsions:
REMARK  status: ('A' for Active; 'I' for Inactive)
ROOT
ATOM      1  O1  BZF d   1       2.750   3.032   0.443  0.00  0.00    -0.204 OA
ATOM      2  C2  BZF d   1       4.063   3.398   0.670  0.00  0.00     0.174 A 
ATOM      3  C3  BZF d   1       4.910   2.485   0.153  0.00  0.00    -0.012 A 
ATOM      4  C3A BZF d   1       4.077   1.533  -0.514  0.00  0.00    -0.107 A 
ATOM      5  C4  BZF d   1       4.334   0.401  -1.233  0.00  0.00     0.055 A 
ATOM      6  C5  BZF d   1       3.293  -0.343  -1.689  0.00  0.00    -0.016 A 
ATOM      7  C6  BZF d   1       1.983   0.013  -1.441  0.00  0.00     0.022 A 
ATOM      8  C7  BZF d   1       1.678   1.130  -0.738  0.00  0.00     0.029 A 
ATOM      9  C7A BZF d   1       2.728   1.902  -0.304  0.00  0.00     0.058 A 
ENDROOT
TORSDOF 0
ENDMDL
