MODEL 1
REMARK minimizedAffinity 7.03945065
REMARK minimizedRMSD -1
REMARK  0 active torsions:
REMARK  status: ('A' for Active; 'I' for Inactive)
ROOT
ATOM      1  C   UNL d   1      -2.751  -0.158   1.823  0.00  0.00    -0.002 A 
ATOM      2  C1  UNL d   1      -2.617   0.824   0.853  0.00  0.00     0.010 A 
ATOM      3  C2  UNL d   1      -1.352   1.275   0.468  0.00  0.00     0.041 A 
ATOM      4  C3  UNL d   1      -0.214   0.714   1.081  0.00  0.00    -0.075 A 
ATOM      5  S   UNL d   1       1.435   1.110   0.769  0.00  0.00     0.015 SA
ATOM      6  C4  UNL d   1       2.000  -0.017   1.916  0.00  0.00     0.022 A 
ATOM      7  C5  UNL d   1       0.969  -0.687   2.532  0.00  0.00     0.026 A 
ATOM      8  C6  UNL d   1      -0.324  -0.277   2.060  0.00  0.00    -0.082 A 
ATOM      9  C7  UNL d   1      -1.619  -0.712   2.428  0.00  0.00     0.045 A 
ENDROOT
TORSDOF 0
ENDMDL
