MODEL 1
REMARK minimizedAffinity 6.93038034
REMARK minimizedRMSD -1
REMARK  0 active torsions:
REMARK  status: ('A' for Active; 'I' for Inactive)
ROOT
ATOM      1  C   UNL d   1      -3.030   0.476   0.829  0.00  0.00    -0.002 A 
ATOM      2  C1  UNL d   1      -3.174   1.625   1.594  0.00  0.00     0.010 A 
ATOM      3  C2  UNL d   1      -2.106   2.115   2.348  0.00  0.00     0.041 A 
ATOM      4  C3  UNL d   1      -0.878   1.425   2.319  0.00  0.00    -0.075 A 
ATOM      5  S   UNL d   1       0.567   1.841   3.161  0.00  0.00     0.015 SA
ATOM      6  C4  UNL d   1       1.411   0.503   2.525  0.00  0.00     0.022 A 
ATOM      7  C5  UNL d   1       0.624  -0.253   1.689  0.00  0.00     0.026 A 
ATOM      8  C6  UNL d   1      -0.708   0.267   1.556  0.00  0.00    -0.082 A 
ATOM      9  C7  UNL d   1      -1.810  -0.205   0.803  0.00  0.00     0.045 A 
ENDROOT
TORSDOF 0
ENDMDL
