MODEL 1
REMARK minimizedAffinity 18.1325912
REMARK minimizedRMSD -1
REMARK  0 active torsions:
REMARK  status: ('A' for Active; 'I' for Inactive)
ROOT
ATOM      1  C   UNL d   1       1.536   0.735   1.515  0.00  0.00    -0.002 A 
ATOM      2  C1  UNL d   1       2.116   1.612   0.609  0.00  0.00     0.010 A 
ATOM      3  C2  UNL d   1       3.495   1.831   0.615  0.00  0.00     0.041 A 
ATOM      4  C3  UNL d   1       4.289   1.144   1.555  0.00  0.00    -0.075 A 
ATOM      5  S   UNL d   1       5.999   1.253   1.747  0.00  0.00     0.015 SA
ATOM      6  C4  UNL d   1       6.000   0.138   3.036  0.00  0.00     0.022 A 
ATOM      7  C5  UNL d   1       4.735  -0.317   3.325  0.00  0.00     0.026 A 
ATOM      8  C6  UNL d   1       3.728   0.256   2.476  0.00  0.00    -0.082 A 
ATOM      9  C7  UNL d   1       2.327   0.057   2.445  0.00  0.00     0.045 A 
ENDROOT
TORSDOF 0
ENDMDL
