MODEL 1
REMARK minimizedAffinity 8.35847092
REMARK minimizedRMSD -1
REMARK  0 active torsions:
REMARK  status: ('A' for Active; 'I' for Inactive)
ROOT
ATOM      1  C   UNL d   1       1.598   0.762   0.745  0.00  0.00    -0.002 A 
ATOM      2  C1  UNL d   1       2.448   1.468  -0.094  0.00  0.00     0.010 A 
ATOM      3  C2  UNL d   1       3.827   1.467   0.126  0.00  0.00     0.041 A 
ATOM      4  C3  UNL d   1       4.342   0.736   1.215  0.00  0.00    -0.075 A 
ATOM      5  S   UNL d   1       5.996   0.589   1.678  0.00  0.00     0.015 SA
ATOM      6  C4  UNL d   1       5.614  -0.415   3.001  0.00  0.00     0.022 A 
ATOM      7  C5  UNL d   1       4.262  -0.643   3.102  0.00  0.00     0.026 A 
ATOM      8  C6  UNL d   1       3.507   0.016   2.074  0.00  0.00    -0.082 A 
ATOM      9  C7  UNL d   1       2.113   0.038   1.824  0.00  0.00     0.045 A 
ENDROOT
TORSDOF 0
ENDMDL
