MODEL 1
REMARK minimizedAffinity 18.3401012
REMARK minimizedRMSD -1
REMARK  0 active torsions:
REMARK  status: ('A' for Active; 'I' for Inactive)
ROOT
ATOM      1  C   UNL d   1       0.364   5.994  -4.468  0.00  0.00    -0.002 A 
ATOM      2  C1  UNL d   1      -0.131   5.107  -3.522  0.00  0.00     0.010 A 
ATOM      3  C2  UNL d   1       0.392   3.817  -3.415  0.00  0.00     0.041 A 
ATOM      4  C3  UNL d   1       1.434   3.431  -4.281  0.00  0.00    -0.075 A 
ATOM      5  S   UNL d   1       2.231   1.903  -4.332  0.00  0.00     0.015 SA
ATOM      6  C4  UNL d   1       3.248   2.391  -5.609  0.00  0.00     0.022 A 
ATOM      7  C5  UNL d   1       2.999   3.686  -6.000  0.00  0.00     0.026 A 
ATOM      8  C6  UNL d   1       1.950   4.306  -5.241  0.00  0.00    -0.082 A 
ATOM      9  C7  UNL d   1       1.397   5.607  -5.325  0.00  0.00     0.045 A 
ENDROOT
TORSDOF 0
ENDMDL
