MODEL 1
REMARK minimizedAffinity 4.26580763
REMARK minimizedRMSD -1
REMARK  0 active torsions:
REMARK  status: ('A' for Active; 'I' for Inactive)
ROOT
ATOM      1  C   UNL d   1      -4.187  -2.387   6.000  0.00  0.00    -0.002 A 
ATOM      2  C1  UNL d   1      -3.510  -1.537   5.137  0.00  0.00     0.010 A 
ATOM      3  C2  UNL d   1      -3.479  -1.794   3.765  0.00  0.00     0.041 A 
ATOM      4  C3  UNL d   1      -4.149  -2.930   3.270  0.00  0.00    -0.075 A 
ATOM      5  S   UNL d   1      -4.249  -3.444   1.627  0.00  0.00     0.015 SA
ATOM      6  C4  UNL d   1      -5.194  -4.803   2.032  0.00  0.00     0.022 A 
ATOM      7  C5  UNL d   1      -5.437  -4.879   3.383  0.00  0.00     0.026 A 
ATOM      8  C6  UNL d   1      -4.840  -3.800   4.119  0.00  0.00    -0.082 A 
ATOM      9  C7  UNL d   1      -4.851  -3.512   5.505  0.00  0.00     0.045 A 
ENDROOT
TORSDOF 0
ENDMDL
