MODEL 1
REMARK minimizedAffinity 7.34410572
REMARK minimizedRMSD -1
REMARK  0 active torsions:
REMARK  status: ('A' for Active; 'I' for Inactive)
ROOT
ATOM      1  C   UNL d   1       1.733   4.264  -5.978  0.00  0.00    -0.002 A 
ATOM      2  C1  UNL d   1       1.077   3.082  -5.664  0.00  0.00     0.010 A 
ATOM      3  C2  UNL d   1       1.800   1.926  -5.367  0.00  0.00     0.041 A 
ATOM      4  C3  UNL d   1       3.207   1.977  -5.389  0.00  0.00    -0.075 A 
ATOM      5  S   UNL d   1       4.300   0.685  -5.059  0.00  0.00     0.015 SA
ATOM      6  C4  UNL d   1       5.664   1.672  -5.326  0.00  0.00     0.022 A 
ATOM      7  C5  UNL d   1       5.313   2.958  -5.660  0.00  0.00     0.026 A 
ATOM      8  C6  UNL d   1       3.891   3.155  -5.702  0.00  0.00    -0.082 A 
ATOM      9  C7  UNL d   1       3.130   4.311  -5.999  0.00  0.00     0.045 A 
ENDROOT
TORSDOF 0
ENDMDL
