MODEL 1
REMARK minimizedAffinity 9.91769028
REMARK minimizedRMSD -1
REMARK  0 active torsions:
REMARK  status: ('A' for Active; 'I' for Inactive)
ROOT
ATOM      1  C   UNL d   1      -2.281  -1.454   0.090  0.00  0.00    -0.002 A 
ATOM      2  C1  UNL d   1      -3.327  -0.542   0.050  0.00  0.00     0.010 A 
ATOM      3  C2  UNL d   1      -3.255   0.652   0.771  0.00  0.00     0.041 A 
ATOM      4  C3  UNL d   1      -2.104   0.918   1.538  0.00  0.00    -0.075 A 
ATOM      5  S   UNL d   1      -1.796   2.315   2.500  0.00  0.00     0.015 SA
ATOM      6  C4  UNL d   1      -0.269   1.734   2.986  0.00  0.00     0.022 A 
ATOM      7  C5  UNL d   1       0.015   0.506   2.438  0.00  0.00     0.026 A 
ATOM      8  C6  UNL d   1      -1.038   0.015   1.593  0.00  0.00    -0.082 A 
ATOM      9  C7  UNL d   1      -1.141  -1.187   0.853  0.00  0.00     0.045 A 
ENDROOT
TORSDOF 0
ENDMDL
