MODEL 1
REMARK minimizedAffinity 11.9886951
REMARK minimizedRMSD -1
REMARK  0 active torsions:
REMARK  status: ('A' for Active; 'I' for Inactive)
ROOT
ATOM      1  C   UNL d   1      -5.999   1.890   2.995  0.00  0.00    -0.002 A 
ATOM      2  C1  UNL d   1      -5.184   2.267   4.053  0.00  0.00     0.010 A 
ATOM      3  C2  UNL d   1      -3.803   2.077   3.988  0.00  0.00     0.041 A 
ATOM      4  C3  UNL d   1      -3.248   1.498   2.829  0.00  0.00    -0.075 A 
ATOM      5  S   UNL d   1      -1.583   1.170   2.526  0.00  0.00     0.015 SA
ATOM      6  C4  UNL d   1      -1.914   0.523   0.985  0.00  0.00     0.022 A 
ATOM      7  C5  UNL d   1      -3.257   0.548   0.692  0.00  0.00     0.026 A 
ATOM      8  C6  UNL d   1      -4.048   1.111   1.750  0.00  0.00    -0.082 A 
ATOM      9  C7  UNL d   1      -5.446   1.316   1.847  0.00  0.00     0.045 A 
ENDROOT
TORSDOF 0
ENDMDL
