MODEL 1
REMARK minimizedAffinity 1.8002665
REMARK minimizedRMSD -1
REMARK  0 active torsions:
REMARK  status: ('A' for Active; 'I' for Inactive)
ROOT
ATOM      1  C   UNL d   1      -1.868  -0.272   0.042  0.00  0.00    -0.002 A 
ATOM      2  C1  UNL d   1      -3.053   0.425   0.232  0.00  0.00     0.010 A 
ATOM      3  C2  UNL d   1      -3.162   1.376   1.248  0.00  0.00     0.041 A 
ATOM      4  C3  UNL d   1      -2.049   1.618   2.077  0.00  0.00    -0.075 A 
ATOM      5  S   UNL d   1      -1.952   2.737   3.385  0.00  0.00     0.015 SA
ATOM      6  C4  UNL d   1      -0.335   2.317   3.722  0.00  0.00     0.022 A 
ATOM      7  C5  UNL d   1       0.135   1.348   2.867  0.00  0.00     0.026 A 
ATOM      8  C6  UNL d   1      -0.845   0.930   1.905  0.00  0.00    -0.082 A 
ATOM      9  C7  UNL d   1      -0.766  -0.029   0.866  0.00  0.00     0.045 A 
ENDROOT
TORSDOF 0
ENDMDL
