MODEL 1
REMARK minimizedAffinity 5.20698118
REMARK minimizedRMSD -1
REMARK  0 active torsions:
REMARK  status: ('A' for Active; 'I' for Inactive)
ROOT
ATOM      1  C   UNL d   1       0.450  -0.339   0.896  0.00  0.00    -0.002 A 
ATOM      2  C1  UNL d   1       0.887   0.358   2.013  0.00  0.00     0.010 A 
ATOM      3  C2  UNL d   1      -0.004   1.129   2.762  0.00  0.00     0.041 A 
ATOM      4  C3  UNL d   1      -1.355   1.185   2.368  0.00  0.00    -0.075 A 
ATOM      5  S   UNL d   1      -2.626   2.062   3.135  0.00  0.00     0.015 SA
ATOM      6  C4  UNL d   1      -3.779   1.531   1.998  0.00  0.00     0.022 A 
ATOM      7  C5  UNL d   1      -3.225   0.704   1.050  0.00  0.00     0.026 A 
ATOM      8  C6  UNL d   1      -1.819   0.490   1.248  0.00  0.00    -0.082 A 
ATOM      9  C7  UNL d   1      -0.891  -0.281   0.508  0.00  0.00     0.045 A 
ENDROOT
TORSDOF 0
ENDMDL
