MODEL 1
REMARK minimizedAffinity 9.65374947
REMARK minimizedRMSD -1
REMARK  0 active torsions:
REMARK  status: ('A' for Active; 'I' for Inactive)
ROOT
ATOM      1  C   UNL d   1      -0.729   0.128   0.601  0.00  0.00    -0.002 A 
ATOM      2  C1  UNL d   1      -0.273   0.575   1.833  0.00  0.00     0.010 A 
ATOM      3  C2  UNL d   1      -1.155   1.146   2.752  0.00  0.00     0.041 A 
ATOM      4  C3  UNL d   1      -2.517   1.259   2.410  0.00  0.00    -0.075 A 
ATOM      5  S   UNL d   1      -3.779   1.924   3.378  0.00  0.00     0.015 SA
ATOM      6  C4  UNL d   1      -4.955   1.629   2.180  0.00  0.00     0.022 A 
ATOM      7  C5  UNL d   1      -4.414   1.038   1.062  0.00  0.00     0.026 A 
ATOM      8  C6  UNL d   1      -3.000   0.815   1.176  0.00  0.00    -0.082 A 
ATOM      9  C7  UNL d   1      -2.081   0.242   0.265  0.00  0.00     0.045 A 
ENDROOT
TORSDOF 0
ENDMDL
