MODEL 1
REMARK minimizedAffinity 2.00134873
REMARK minimizedRMSD -1
REMARK  0 active torsions:
REMARK  status: ('A' for Active; 'I' for Inactive)
ROOT
ATOM      1  C   UNL d   1      -0.230   5.163  -6.000  0.00  0.00    -0.002 A 
ATOM      2  C1  UNL d   1       0.048   3.803  -5.992  0.00  0.00     0.010 A 
ATOM      3  C2  UNL d   1       0.687   3.215  -4.899  0.00  0.00     0.041 A 
ATOM      4  C3  UNL d   1       1.044   4.023  -3.802  0.00  0.00    -0.075 A 
ATOM      5  S   UNL d   1       1.833   3.521  -2.354  0.00  0.00     0.015 SA
ATOM      6  C4  UNL d   1       1.820   5.099  -1.711  0.00  0.00     0.022 A 
ATOM      7  C5  UNL d   1       1.231   6.000  -2.567  0.00  0.00     0.026 A 
ATOM      8  C6  UNL d   1       0.774   5.395  -3.786  0.00  0.00    -0.082 A 
ATOM      9  C7  UNL d   1       0.126   5.961  -4.910  0.00  0.00     0.045 A 
ENDROOT
TORSDOF 0
ENDMDL
