MODEL 1
REMARK minimizedAffinity -0.72727561
REMARK minimizedRMSD -1
REMARK  0 active torsions:
REMARK  status: ('A' for Active; 'I' for Inactive)
ROOT
ATOM      1  C   UNL d   1      -0.501   0.425   1.748  0.00  0.00    -0.002 A 
ATOM      2  C1  UNL d   1      -1.268   0.276   0.600  0.00  0.00     0.010 A 
ATOM      3  C2  UNL d   1      -2.638   0.543   0.622  0.00  0.00     0.041 A 
ATOM      4  C3  UNL d   1      -3.230   0.968   1.827  0.00  0.00    -0.075 A 
ATOM      5  S   UNL d   1      -4.890   1.354   2.091  0.00  0.00     0.015 SA
ATOM      6  C4  UNL d   1      -4.621   1.726   3.732  0.00  0.00     0.022 A 
ATOM      7  C5  UNL d   1      -3.303   1.565   4.087  0.00  0.00     0.026 A 
ATOM      8  C6  UNL d   1      -2.479   1.126   2.996  0.00  0.00    -0.082 A 
ATOM      9  C7  UNL d   1      -1.093   0.847   2.941  0.00  0.00     0.045 A 
ENDROOT
TORSDOF 0
ENDMDL
