MODEL 1
REMARK minimizedAffinity 2.00653768
REMARK minimizedRMSD -1
REMARK  1 active torsions:
REMARK  status: ('A' for Active; 'I' for Inactive)
REMARK    1  A    between atoms: C1_2  and  C2_3 
ROOT
ATOM      1  C2  UNL d   1      -1.294  -0.303  -1.729  0.00  0.00    -0.077 A 
ATOM      2  C3  UNL d   1      -0.513  -1.356  -1.232  0.00  0.00     0.002 A 
ATOM      3  C4  UNL d   1       0.151  -1.228  -0.011  0.00  0.00     0.002 A 
ATOM      4  C5  UNL d   1       0.036  -0.051   0.726  0.00  0.00    -0.004 A 
ATOM      5  C6  UNL d   1      -0.737   1.003   0.240  0.00  0.00     0.002 A 
ATOM      6  C7  UNL d   1      -1.400   0.877  -0.982  0.00  0.00     0.002 A 
ENDROOT
BRANCH   1   7
ATOM      7  C1  UNL d   1      -2.050  -0.458  -3.023  0.00  0.00     0.055 C 
ATOM      8  C   UNL d   1      -2.666   0.861  -3.465  0.00  0.00     0.019 C 
ENDBRANCH   1   7
TORSDOF 1
ENDMDL
