MODEL 1
REMARK minimizedAffinity -5.75373936
REMARK minimizedRMSD -1
REMARK  1 active torsions:
REMARK  status: ('A' for Active; 'I' for Inactive)
REMARK    1  A    between atoms: C1_2  and  C2_3 
ROOT
ATOM      1  C2  UNL d   1       0.885   0.031   0.407  0.00  0.00    -0.077 A 
ATOM      2  C3  UNL d   1       0.572  -1.253   0.875  0.00  0.00     0.002 A 
ATOM      3  C4  UNL d   1       1.516  -1.994   1.588  0.00  0.00     0.002 A 
ATOM      4  C5  UNL d   1       2.777  -1.459   1.843  0.00  0.00    -0.004 A 
ATOM      5  C6  UNL d   1       3.098  -0.183   1.380  0.00  0.00     0.002 A 
ATOM      6  C7  UNL d   1       2.156   0.559   0.666  0.00  0.00     0.002 A 
ENDROOT
BRANCH   1   7
ATOM      7  C1  UNL d   1      -0.148   0.852  -0.320  0.00  0.00     0.055 C 
ATOM      8  C   UNL d   1      -1.363   0.012  -0.689  0.00  0.00     0.019 C 
ENDBRANCH   1   7
TORSDOF 1
ENDMDL
