MODEL 1
REMARK minimizedAffinity -5.5456562
REMARK minimizedRMSD -1
REMARK  1 active torsions:
REMARK  status: ('A' for Active; 'I' for Inactive)
REMARK    1  A    between atoms: C1_2  and  C2_3 
ROOT
ATOM      1  C2  UNL d   1       0.319  -0.604   0.707  0.00  0.00    -0.077 A 
ATOM      2  C3  UNL d   1      -0.236  -1.635   1.478  0.00  0.00     0.002 A 
ATOM      3  C4  UNL d   1       0.586  -2.596   2.069  0.00  0.00     0.002 A 
ATOM      4  C5  UNL d   1       1.967  -2.533   1.900  0.00  0.00    -0.004 A 
ATOM      5  C6  UNL d   1       2.529  -1.512   1.134  0.00  0.00     0.002 A 
ATOM      6  C7  UNL d   1       1.709  -0.552   0.541  0.00  0.00     0.002 A 
ENDROOT
BRANCH   1   7
ATOM      7  C1  UNL d   1      -0.562   0.461   0.109  0.00  0.00     0.055 C 
ATOM      8  C   UNL d   1      -0.023   1.854   0.401  0.00  0.00     0.019 C 
ENDBRANCH   1   7
TORSDOF 1
ENDMDL
