MODEL 1
REMARK minimizedAffinity -1.74370003
REMARK minimizedRMSD -1
REMARK  1 active torsions:
REMARK  status: ('A' for Active; 'I' for Inactive)
REMARK    1  A    between atoms: C1_2  and  C2_3 
ROOT
ATOM      1  C2  UNL d   1       1.129   0.161   2.078  0.00  0.00    -0.077 A 
ATOM      2  C3  UNL d   1       1.006  -0.786   3.104  0.00  0.00     0.002 A 
ATOM      3  C4  UNL d   1       1.841  -0.729   4.222  0.00  0.00     0.002 A 
ATOM      4  C5  UNL d   1       2.800   0.275   4.326  0.00  0.00    -0.004 A 
ATOM      5  C6  UNL d   1       2.932   1.221   3.310  0.00  0.00     0.002 A 
ATOM      6  C7  UNL d   1       2.099   1.164   2.191  0.00  0.00     0.002 A 
ENDROOT
BRANCH   1   7
ATOM      7  C1  UNL d   1       0.197   0.130   0.894  0.00  0.00     0.055 C 
ATOM      8  C   UNL d   1      -0.127   1.535   0.408  0.00  0.00     0.019 C 
ENDBRANCH   1   7
TORSDOF 1
ENDMDL
