MODEL 1
REMARK minimizedAffinity -0.374582708
REMARK minimizedRMSD -1
REMARK  1 active torsions:
REMARK  status: ('A' for Active; 'I' for Inactive)
REMARK    1  A    between atoms: C1_2  and  C2_3 
ROOT
ATOM      1  C2  UNL d   1       0.880   2.605   0.640  0.00  0.00    -0.077 A 
ATOM      2  C3  UNL d   1       2.024   2.509   1.445  0.00  0.00     0.002 A 
ATOM      3  C4  UNL d   1       2.427   1.274   1.955  0.00  0.00     0.002 A 
ATOM      4  C5  UNL d   1       1.695   0.125   1.663  0.00  0.00    -0.004 A 
ATOM      5  C6  UNL d   1       0.554   0.210   0.865  0.00  0.00     0.002 A 
ATOM      6  C7  UNL d   1       0.149   1.445   0.355  0.00  0.00     0.002 A 
ENDROOT
BRANCH   1   7
ATOM      7  C1  UNL d   1       0.472   3.929   0.049  0.00  0.00     0.055 C 
ATOM      8  C   UNL d   1      -0.697   4.538   0.809  0.00  0.00     0.019 C 
ENDBRANCH   1   7
TORSDOF 1
ENDMDL
