MODEL 1
REMARK minimizedAffinity -3.81665015
REMARK minimizedRMSD -1
REMARK  1 active torsions:
REMARK  status: ('A' for Active; 'I' for Inactive)
REMARK    1  A    between atoms: C1_2  and  C2_3 
ROOT
ATOM      1  C2  UNL d   1       2.378  -0.327   0.827  0.00  0.00    -0.077 A 
ATOM      2  C3  UNL d   1       1.339  -1.198   0.472  0.00  0.00     0.002 A 
ATOM      3  C4  UNL d   1       0.017  -0.749   0.451  0.00  0.00     0.002 A 
ATOM      4  C5  UNL d   1      -0.277   0.572   0.780  0.00  0.00    -0.004 A 
ATOM      5  C6  UNL d   1       0.749   1.446   1.137  0.00  0.00     0.002 A 
ATOM      6  C7  UNL d   1       2.071   0.999   1.159  0.00  0.00     0.002 A 
ENDROOT
BRANCH   1   7
ATOM      7  C1  UNL d   1       3.810  -0.796   0.803  0.00  0.00     0.055 C 
ATOM      8  C   UNL d   1       4.101  -1.747   1.954  0.00  0.00     0.019 C 
ENDBRANCH   1   7
TORSDOF 1
ENDMDL
