MODEL 1
REMARK minimizedAffinity -2.78506136
REMARK minimizedRMSD -1
REMARK  1 active torsions:
REMARK  status: ('A' for Active; 'I' for Inactive)
REMARK    1  A    between atoms: C1_2  and  C2_3 
ROOT
ATOM      1  C2  UNL d   1       1.144  -0.237   0.855  0.00  0.00    -0.077 A 
ATOM      2  C3  UNL d   1       0.608  -1.415   1.394  0.00  0.00     0.002 A 
ATOM      3  C4  UNL d   1       1.307  -2.126   2.372  0.00  0.00     0.002 A 
ATOM      4  C5  UNL d   1       2.543  -1.665   2.821  0.00  0.00    -0.004 A 
ATOM      5  C6  UNL d   1       3.086  -0.496   2.289  0.00  0.00     0.002 A 
ATOM      6  C7  UNL d   1       2.389   0.215   1.311  0.00  0.00     0.002 A 
ENDROOT
BRANCH   1   7
ATOM      7  C1  UNL d   1       0.370   0.558  -0.164  0.00  0.00     0.055 C 
ATOM      8  C   UNL d   1      -0.080   1.896   0.404  0.00  0.00     0.019 C 
ENDBRANCH   1   7
TORSDOF 1
ENDMDL
