MODEL 1
REMARK minimizedAffinity -5.42332554
REMARK minimizedRMSD -1
REMARK  1 active torsions:
REMARK  status: ('A' for Active; 'I' for Inactive)
REMARK    1  A    between atoms: C1_2  and  C2_3 
ROOT
ATOM      1  C2  UNL d   1       0.101   0.354   0.361  0.00  0.00    -0.077 A 
ATOM      2  C3  UNL d   1       0.650  -0.934   0.420  0.00  0.00     0.002 A 
ATOM      3  C4  UNL d   1       1.990  -1.116   0.771  0.00  0.00     0.002 A 
ATOM      4  C5  UNL d   1       2.789  -0.014   1.070  0.00  0.00    -0.004 A 
ATOM      5  C6  UNL d   1       2.252   1.271   1.012  0.00  0.00     0.002 A 
ATOM      6  C7  UNL d   1       0.914   1.455   0.661  0.00  0.00     0.002 A 
ENDROOT
BRANCH   1   7
ATOM      7  C1  UNL d   1      -1.356   0.549   0.031  0.00  0.00     0.055 C 
ATOM      8  C   UNL d   1      -1.907  -0.630  -0.758  0.00  0.00     0.019 C 
ENDBRANCH   1   7
TORSDOF 1
ENDMDL
