MODEL 1
REMARK minimizedAffinity 3.09341669
REMARK minimizedRMSD -1
REMARK  0 active torsions:
REMARK  status: ('A' for Active; 'I' for Inactive)
ROOT
ATOM      1  C1  DEN d   1      -5.999   2.913  -1.781  0.00  0.00     0.130 A 
ATOM      2  C2  DEN d   1      -5.170   2.602  -2.942  0.00  0.00    -0.031 A 
ATOM      3  C3  DEN d   1      -3.763   2.540  -2.496  0.00  0.00     0.027 A 
ATOM      4  C4  DEN d   1      -2.795   2.889  -0.131  0.00  0.00     0.027 A 
ATOM      5  C5  DEN d   1      -3.108   3.185   1.178  0.00  0.00    -0.003 A 
ATOM      6  C6  DEN d   1      -4.391   3.442   1.582  0.00  0.00     0.001 A 
ATOM      7  C7  DEN d   1      -5.416   3.364   0.676  0.00  0.00     0.017 A 
ATOM      8  C8  DEN d   1      -5.108   3.073  -0.646  0.00  0.00    -0.094 A 
ATOM      9  C9  DEN d   1      -3.806   2.804  -1.032  0.00  0.00    -0.072 A 
ENDROOT
TORSDOF 0
ENDMDL
