MODEL 1
REMARK minimizedAffinity 0.398731738
REMARK minimizedRMSD -1
REMARK  0 active torsions:
REMARK  status: ('A' for Active; 'I' for Inactive)
ROOT
ATOM      1  C1  DEN d   1       1.878  -1.236   4.028  0.00  0.00     0.130 A 
ATOM      2  C2  DEN d   1       2.088  -0.570   2.746  0.00  0.00    -0.031 A 
ATOM      3  C3  DEN d   1       3.540  -0.548   2.475  0.00  0.00     0.027 A 
ATOM      4  C4  DEN d   1       5.471  -1.481   3.908  0.00  0.00     0.027 A 
ATOM      5  C5  DEN d   1       5.787  -2.124   5.084  0.00  0.00    -0.003 A 
ATOM      6  C6  DEN d   1       4.833  -2.482   6.000  0.00  0.00     0.001 A 
ATOM      7  C7  DEN d   1       3.511  -2.240   5.733  0.00  0.00     0.017 A 
ATOM      8  C8  DEN d   1       3.186  -1.586   4.551  0.00  0.00    -0.094 A 
ATOM      9  C9  DEN d   1       4.163  -1.243   3.633  0.00  0.00    -0.072 A 
ENDROOT
TORSDOF 0
ENDMDL
