MODEL 1
REMARK minimizedAffinity 16.4153919
REMARK minimizedRMSD -1
REMARK  0 active torsions:
REMARK  status: ('A' for Active; 'I' for Inactive)
ROOT
ATOM      1  C1  DEN d   1       0.237   0.587   1.712  0.00  0.00     0.130 A 
ATOM      2  C2  DEN d   1       1.633   0.297   2.028  0.00  0.00    -0.031 A 
ATOM      3  C3  DEN d   1       2.094  -0.772   1.118  0.00  0.00     0.027 A 
ATOM      4  C4  DEN d   1       0.790  -1.994  -0.741  0.00  0.00     0.027 A 
ATOM      5  C5  DEN d   1      -0.429  -2.100  -1.374  0.00  0.00    -0.003 A 
ATOM      6  C6  DEN d   1      -1.512  -1.348  -1.004  0.00  0.00     0.001 A 
ATOM      7  C7  DEN d   1      -1.385  -0.423  -0.001  0.00  0.00     0.017 A 
ATOM      8  C8  DEN d   1      -0.161  -0.316   0.647  0.00  0.00    -0.094 A 
ATOM      9  C9  DEN d   1       0.925  -1.077   0.250  0.00  0.00    -0.072 A 
ENDROOT
TORSDOF 0
ENDMDL
