MODEL 1
REMARK minimizedAffinity 9.6260643
REMARK minimizedRMSD -1
REMARK  0 active torsions:
REMARK  status: ('A' for Active; 'I' for Inactive)
ROOT
ATOM      1  C1  DEN d   1       2.456  -2.165   4.185  0.00  0.00     0.130 A 
ATOM      2  C2  DEN d   1       1.623  -3.341   4.420  0.00  0.00    -0.031 A 
ATOM      3  C3  DEN d   1       2.433  -4.541   4.127  0.00  0.00     0.027 A 
ATOM      4  C4  DEN d   1       4.886  -4.690   3.343  0.00  0.00     0.027 A 
ATOM      5  C5  DEN d   1       5.999  -3.959   2.995  0.00  0.00    -0.003 A 
ATOM      6  C6  DEN d   1       6.000  -2.589   2.987  0.00  0.00     0.001 A 
ATOM      7  C7  DEN d   1       4.877  -1.907   3.377  0.00  0.00     0.017 A 
ATOM      8  C8  DEN d   1       3.748  -2.638   3.722  0.00  0.00    -0.094 A 
ATOM      9  C9  DEN d   1       3.771  -4.022   3.736  0.00  0.00    -0.072 A 
ENDROOT
TORSDOF 0
ENDMDL
