MODEL 1
REMARK minimizedAffinity 6.08047676
REMARK minimizedRMSD -1
REMARK  0 active torsions:
REMARK  status: ('A' for Active; 'I' for Inactive)
ROOT
ATOM      1  C1  DEN d   1       1.933  -2.412   5.261  0.00  0.00     0.130 A 
ATOM      2  C2  DEN d   1       2.042  -3.556   4.359  0.00  0.00    -0.031 A 
ATOM      3  C3  DEN d   1       2.268  -3.040   2.994  0.00  0.00     0.027 A 
ATOM      4  C4  DEN d   1       2.464  -0.596   2.194  0.00  0.00     0.027 A 
ATOM      5  C5  DEN d   1       2.427   0.722   2.593  0.00  0.00    -0.003 A 
ATOM      6  C6  DEN d   1       2.191   1.085   3.892  0.00  0.00     0.001 A 
ATOM      7  C7  DEN d   1       2.028   0.118   4.848  0.00  0.00     0.017 A 
ATOM      8  C8  DEN d   1       2.056  -1.213   4.453  0.00  0.00    -0.094 A 
ATOM      9  C9  DEN d   1       2.308  -1.560   3.136  0.00  0.00    -0.072 A 
ENDROOT
TORSDOF 0
ENDMDL
