MODEL 1
REMARK minimizedAffinity 11.9403191
REMARK minimizedRMSD -1
REMARK  0 active torsions:
REMARK  status: ('A' for Active; 'I' for Inactive)
ROOT
ATOM      1  C1  DEN d   1      -3.210  -1.058  -4.698  0.00  0.00     0.130 A 
ATOM      2  C2  DEN d   1      -3.515  -0.478  -3.393  0.00  0.00    -0.031 A 
ATOM      3  C3  DEN d   1      -4.626  -1.249  -2.799  0.00  0.00     0.027 A 
ATOM      4  C4  DEN d   1      -5.893  -3.276  -3.767  0.00  0.00     0.027 A 
ATOM      5  C5  DEN d   1      -5.998  -4.122  -4.849  0.00  0.00    -0.003 A 
ATOM      6  C6  DEN d   1      -5.211  -3.986  -5.962  0.00  0.00     0.001 A 
ATOM      7  C7  DEN d   1      -4.252  -3.008  -5.999  0.00  0.00     0.017 A 
ATOM      8  C8  DEN d   1      -4.145  -2.147  -4.915  0.00  0.00    -0.094 A 
ATOM      9  C9  DEN d   1      -4.941  -2.309  -3.794  0.00  0.00    -0.072 A 
ENDROOT
TORSDOF 0
ENDMDL
