MODEL 1
REMARK minimizedAffinity 5.75734758
REMARK minimizedRMSD -1
REMARK  0 active torsions:
REMARK  status: ('A' for Active; 'I' for Inactive)
ROOT
ATOM      1  C1  DEN d   1       1.003  -2.634   3.646  0.00  0.00     0.130 A 
ATOM      2  C2  DEN d   1       2.259  -1.890   3.647  0.00  0.00    -0.031 A 
ATOM      3  C3  DEN d   1       3.259  -2.683   4.391  0.00  0.00     0.027 A 
ATOM      4  C4  DEN d   1       2.984  -4.981   5.531  0.00  0.00     0.027 A 
ATOM      5  C5  DEN d   1       2.098  -5.998   5.807  0.00  0.00    -0.003 A 
ATOM      6  C6  DEN d   1       0.786  -5.951   5.415  0.00  0.00     0.001 A 
ATOM      7  C7  DEN d   1       0.335  -4.883   4.685  0.00  0.00     0.017 A 
ATOM      8  C8  DEN d   1       1.221  -3.850   4.409  0.00  0.00    -0.094 A 
ATOM      9  C9  DEN d   1       2.546  -3.922   4.804  0.00  0.00    -0.072 A 
ENDROOT
TORSDOF 0
ENDMDL
