MODEL 1
REMARK minimizedAffinity 11.2204418
REMARK minimizedRMSD -1
REMARK  0 active torsions:
REMARK  status: ('A' for Active; 'I' for Inactive)
ROOT
ATOM      1  C1  DEN d   1      -3.112   1.876  -1.830  0.00  0.00     0.130 A 
ATOM      2  C2  DEN d   1      -4.120   1.903  -2.886  0.00  0.00    -0.031 A 
ATOM      3  C3  DEN d   1      -5.434   2.145  -2.256  0.00  0.00     0.027 A 
ATOM      4  C4  DEN d   1      -6.000   2.483   0.238  0.00  0.00     0.027 A 
ATOM      5  C5  DEN d   1      -5.477   2.533   1.511  0.00  0.00    -0.003 A 
ATOM      6  C6  DEN d   1      -4.145   2.335   1.761  0.00  0.00     0.001 A 
ATOM      7  C7  DEN d   1      -3.282   2.122   0.718  0.00  0.00     0.017 A 
ATOM      8  C8  DEN d   1      -3.804   2.064  -0.568  0.00  0.00    -0.094 A 
ATOM      9  C9  DEN d   1      -5.151   2.279  -0.801  0.00  0.00    -0.072 A 
ENDROOT
TORSDOF 0
ENDMDL
