MODEL 1
REMARK minimizedAffinity 14.1501102
REMARK minimizedRMSD -1
REMARK  0 active torsions:
REMARK  status: ('A' for Active; 'I' for Inactive)
ROOT
ATOM      1  C1  DEN d   1       2.606  -1.505   1.463  0.00  0.00     0.130 A 
ATOM      2  C2  DEN d   1       2.490  -0.521   2.535  0.00  0.00    -0.031 A 
ATOM      3  C3  DEN d   1       1.176   0.141   2.407  0.00  0.00     0.027 A 
ATOM      4  C4  DEN d   1      -0.682  -0.266   0.664  0.00  0.00     0.027 A 
ATOM      5  C5  DEN d   1      -1.036  -0.995  -0.450  0.00  0.00    -0.003 A 
ATOM      6  C6  DEN d   1      -0.194  -1.913  -1.020  0.00  0.00     0.001 A 
ATOM      7  C7  DEN d   1       1.027  -2.159  -0.450  0.00  0.00     0.017 A 
ATOM      8  C8  DEN d   1       1.394  -1.423   0.669  0.00  0.00    -0.094 A 
ATOM      9  C9  DEN d   1       0.524  -0.508   1.237  0.00  0.00    -0.072 A 
ENDROOT
TORSDOF 0
ENDMDL
