MODEL 1
REMARK minimizedAffinity 2.26096392
REMARK minimizedRMSD -1
REMARK  0 active torsions:
REMARK  status: ('A' for Active; 'I' for Inactive)
ROOT
ATOM      1  C   UNL d   1       3.987   0.416   1.645  0.00  0.00     0.124 A 
ATOM      2  C1  UNL d   1       2.908   1.208   1.275  0.00  0.00     0.062 A 
ATOM      3  C2  UNL d   1       2.798   1.674  -0.032  0.00  0.00     0.162 A 
ATOM      4  C3  UNL d   1       3.770   1.350  -0.979  0.00  0.00    -0.034 A 
ATOM      5  C4  UNL d   1       4.852   0.554  -0.600  0.00  0.00     0.162 A 
ATOM      6  C5  UNL d   1       4.957   0.090   0.708  0.00  0.00     0.062 A 
ATOM      7  F   UNL d   1       6.000  -0.674   1.063  0.00  0.00    -0.097 F 
ATOM      8  F1  UNL d   1       5.803   0.223  -1.485  0.00  0.00    -0.096 F 
ATOM      9  I   UNL d   1       3.609   2.046  -2.934  0.00  0.00    -0.060 I 
ATOM     10  F2  UNL d   1       1.746   2.437  -0.362  0.00  0.00    -0.096 F 
ATOM     11  F3  UNL d   1       1.970   1.525   2.178  0.00  0.00    -0.097 F 
ATOM     12  F4  UNL d   1       4.091  -0.031   2.903  0.00  0.00    -0.092 F 
ENDROOT
TORSDOF 0
ENDMDL
