MODEL 1
REMARK minimizedAffinity 5.28298998
REMARK minimizedRMSD -1
REMARK  0 active torsions:
REMARK  status: ('A' for Active; 'I' for Inactive)
ROOT
ATOM      1  C   UNL d   1       0.877   1.377   3.162  0.00  0.00     0.124 A 
ATOM      2  C1  UNL d   1       1.632   0.379   3.762  0.00  0.00     0.062 A 
ATOM      3  C2  UNL d   1       2.857   0.006   3.218  0.00  0.00     0.162 A 
ATOM      4  C3  UNL d   1       3.336   0.632   2.067  0.00  0.00    -0.034 A 
ATOM      5  C4  UNL d   1       2.571   1.635   1.469  0.00  0.00     0.162 A 
ATOM      6  C5  UNL d   1       1.346   2.004   2.017  0.00  0.00     0.062 A 
ATOM      7  F   UNL d   1       0.618   2.968   1.435  0.00  0.00    -0.097 F 
ATOM      8  F1  UNL d   1       3.001   2.257   0.362  0.00  0.00    -0.096 F 
ATOM      9  I   UNL d   1       5.168   0.077   1.251  0.00  0.00    -0.060 I 
ATOM     10  F2  UNL d   1       3.566  -0.961   3.819  0.00  0.00    -0.096 F 
ATOM     11  F3  UNL d   1       1.180  -0.228   4.869  0.00  0.00    -0.097 F 
ATOM     12  F4  UNL d   1      -0.303   1.734   3.687  0.00  0.00    -0.092 F 
ENDROOT
TORSDOF 0
ENDMDL
