MODEL 1
REMARK minimizedAffinity 3.6167469
REMARK minimizedRMSD -1
REMARK  0 active torsions:
REMARK  status: ('A' for Active; 'I' for Inactive)
ROOT
ATOM      1  C   UNL d   1       2.875   1.495  -3.293  0.00  0.00     0.124 A 
ATOM      2  C1  UNL d   1       1.961   1.107  -2.323  0.00  0.00     0.062 A 
ATOM      3  C2  UNL d   1       2.404   0.691  -1.071  0.00  0.00     0.162 A 
ATOM      4  C3  UNL d   1       3.768   0.661  -0.781  0.00  0.00    -0.034 A 
ATOM      5  C4  UNL d   1       4.681   1.052  -1.762  0.00  0.00     0.162 A 
ATOM      6  C5  UNL d   1       4.233   1.467  -3.012  0.00  0.00     0.062 A 
ATOM      7  F   UNL d   1       5.118   1.841  -3.948  0.00  0.00    -0.097 F 
ATOM      8  F1  UNL d   1       6.000   1.036  -1.517  0.00  0.00    -0.096 F 
ATOM      9  I   UNL d   1       4.435   0.040   1.090  0.00  0.00    -0.060 I 
ATOM     10  F2  UNL d   1       1.499   0.322  -0.153  0.00  0.00    -0.096 F 
ATOM     11  F3  UNL d   1       0.648   1.133  -2.593  0.00  0.00    -0.097 F 
ATOM     12  F4  UNL d   1       2.446   1.894  -4.498  0.00  0.00    -0.092 F 
ENDROOT
TORSDOF 0
ENDMDL
