MODEL 1
REMARK minimizedAffinity 2.48965502
REMARK minimizedRMSD -1
REMARK  0 active torsions:
REMARK  status: ('A' for Active; 'I' for Inactive)
ROOT
ATOM      1  C   UNL d   1       3.914   0.448   1.364  0.00  0.00     0.124 A 
ATOM      2  C1  UNL d   1       4.925   0.203   0.445  0.00  0.00     0.062 A 
ATOM      3  C2  UNL d   1       4.825   0.697  -0.853  0.00  0.00     0.162 A 
ATOM      4  C3  UNL d   1       3.711   1.442  -1.239  0.00  0.00    -0.034 A 
ATOM      5  C4  UNL d   1       2.698   1.683  -0.309  0.00  0.00     0.162 A 
ATOM      6  C5  UNL d   1       2.802   1.188   0.986  0.00  0.00     0.062 A 
ATOM      7  F   UNL d   1       1.825   1.425   1.873  0.00  0.00    -0.097 F 
ATOM      8  F1  UNL d   1       1.613   2.396  -0.647  0.00  0.00    -0.096 F 
ATOM      9  I   UNL d   1       3.559   2.183  -3.178  0.00  0.00    -0.060 I 
ATOM     10  F2  UNL d   1       5.817   0.445  -1.720  0.00  0.00    -0.096 F 
ATOM     11  F3  UNL d   1       6.000  -0.512   0.807  0.00  0.00    -0.097 F 
ATOM     12  F4  UNL d   1       4.012  -0.029   2.611  0.00  0.00    -0.092 F 
ENDROOT
TORSDOF 0
ENDMDL
