MODEL 1
REMARK minimizedAffinity 9.34741592
REMARK minimizedRMSD -1
REMARK  0 active torsions:
REMARK  status: ('A' for Active; 'I' for Inactive)
ROOT
ATOM      1  C   UNL d   1       2.330   1.945  -3.318  0.00  0.00     0.124 A 
ATOM      2  C1  UNL d   1       3.601   1.404  -3.454  0.00  0.00     0.062 A 
ATOM      3  C2  UNL d   1       4.266   0.892  -2.344  0.00  0.00     0.162 A 
ATOM      4  C3  UNL d   1       3.662   0.918  -1.087  0.00  0.00    -0.034 A 
ATOM      5  C4  UNL d   1       2.384   1.465  -0.958  0.00  0.00     0.162 A 
ATOM      6  C5  UNL d   1       1.723   1.975  -2.071  0.00  0.00     0.062 A 
ATOM      7  F   UNL d   1       0.495   2.498  -1.937  0.00  0.00    -0.097 F 
ATOM      8  F1  UNL d   1       1.773   1.506   0.236  0.00  0.00    -0.096 F 
ATOM      9  I   UNL d   1       4.653   0.154   0.575  0.00  0.00    -0.060 I 
ATOM     10  F2  UNL d   1       5.493   0.375  -2.505  0.00  0.00    -0.096 F 
ATOM     11  F3  UNL d   1       4.190   1.374  -4.658  0.00  0.00    -0.097 F 
ATOM     12  F4  UNL d   1       1.692   2.438  -4.388  0.00  0.00    -0.092 F 
ENDROOT
TORSDOF 0
ENDMDL
