MODEL 1
REMARK minimizedAffinity 16.280035
REMARK minimizedRMSD -1
REMARK  0 active torsions:
REMARK  status: ('A' for Active; 'I' for Inactive)
ROOT
ATOM      1  C   UNL d   1      -1.181  -3.268  -1.009  0.00  0.00     0.124 A 
ATOM      2  C1  UNL d   1      -2.350  -2.933  -1.678  0.00  0.00     0.062 A 
ATOM      3  C2  UNL d   1      -2.460  -3.151  -3.048  0.00  0.00     0.162 A 
ATOM      4  C3  UNL d   1      -1.397  -3.708  -3.759  0.00  0.00    -0.034 A 
ATOM      5  C4  UNL d   1      -0.224  -4.041  -3.080  0.00  0.00     0.162 A 
ATOM      6  C5  UNL d   1      -0.120  -3.822  -1.710  0.00  0.00     0.062 A 
ATOM      7  F   UNL d   1       1.011  -4.146  -1.066  0.00  0.00    -0.097 F 
ATOM      8  F1  UNL d   1       0.817  -4.579  -3.733  0.00  0.00    -0.096 F 
ATOM      9  I   UNL d   1      -1.557  -4.035  -5.809  0.00  0.00    -0.060 I 
ATOM     10  F2  UNL d   1      -3.601  -2.817  -3.669  0.00  0.00    -0.096 F 
ATOM     11  F3  UNL d   1      -3.377  -2.397  -1.003  0.00  0.00    -0.097 F 
ATOM     12  F4  UNL d   1      -1.078  -3.057   0.309  0.00  0.00    -0.092 F 
ENDROOT
TORSDOF 0
ENDMDL
