MODEL 1
REMARK minimizedAffinity 8.3960228
REMARK minimizedRMSD -1
REMARK  0 active torsions:
REMARK  status: ('A' for Active; 'I' for Inactive)
ROOT
ATOM      1  C   UNL d   1      -1.188  -2.724  -0.100  0.00  0.00     0.124 A 
ATOM      2  C1  UNL d   1      -1.894  -2.477  -1.268  0.00  0.00     0.062 A 
ATOM      3  C2  UNL d   1      -2.811  -3.411  -1.743  0.00  0.00     0.162 A 
ATOM      4  C3  UNL d   1      -3.027  -4.601  -1.048  0.00  0.00    -0.034 A 
ATOM      5  C4  UNL d   1      -2.312  -4.843   0.126  0.00  0.00     0.162 A 
ATOM      6  C5  UNL d   1      -1.397  -3.906   0.596  0.00  0.00     0.062 A 
ATOM      7  F   UNL d   1      -0.715  -4.147   1.726  0.00  0.00    -0.097 F 
ATOM      8  F1  UNL d   1      -2.495  -5.977   0.819  0.00  0.00    -0.096 F 
ATOM      9  I   UNL d   1      -4.397  -6.000  -1.754  0.00  0.00    -0.060 I 
ATOM     10  F2  UNL d   1      -3.480  -3.146  -2.875  0.00  0.00    -0.096 F 
ATOM     11  F3  UNL d   1      -1.693  -1.336  -1.943  0.00  0.00    -0.097 F 
ATOM     12  F4  UNL d   1      -0.306  -1.825   0.354  0.00  0.00    -0.092 F 
ENDROOT
TORSDOF 0
ENDMDL
