MODEL 1
REMARK minimizedAffinity 13.5989447
REMARK minimizedRMSD -1
REMARK  0 active torsions:
REMARK  status: ('A' for Active; 'I' for Inactive)
ROOT
ATOM      1  C   UNL d   1      -2.125  -2.365  -1.987  0.00  0.00     0.124 A 
ATOM      2  C1  UNL d   1      -3.038  -3.349  -2.338  0.00  0.00     0.062 A 
ATOM      3  C2  UNL d   1      -3.321  -4.388  -1.456  0.00  0.00     0.162 A 
ATOM      4  C3  UNL d   1      -2.690  -4.448  -0.213  0.00  0.00    -0.034 A 
ATOM      5  C4  UNL d   1      -1.771  -3.455   0.132  0.00  0.00     0.162 A 
ATOM      6  C5  UNL d   1      -1.492  -2.418  -0.753  0.00  0.00     0.062 A 
ATOM      7  F   UNL d   1      -0.609  -1.468  -0.413  0.00  0.00    -0.097 F 
ATOM      8  F1  UNL d   1      -1.146  -3.482   1.318  0.00  0.00    -0.096 F 
ATOM      9  I   UNL d   1      -3.109  -5.999   1.108  0.00  0.00    -0.060 I 
ATOM     10  F2  UNL d   1      -4.208  -5.325  -1.821  0.00  0.00    -0.096 F 
ATOM     11  F3  UNL d   1      -3.650  -3.300  -3.530  0.00  0.00    -0.097 F 
ATOM     12  F4  UNL d   1      -1.854  -1.367  -2.838  0.00  0.00    -0.092 F 
ENDROOT
TORSDOF 0
ENDMDL
