MODEL 1
REMARK minimizedAffinity 22.6203766
REMARK minimizedRMSD -1
REMARK  0 active torsions:
REMARK  status: ('A' for Active; 'I' for Inactive)
ROOT
ATOM      1  C   UNL d   1      -1.462  -2.624   0.484  0.00  0.00     0.124 A 
ATOM      2  C1  UNL d   1      -2.011  -2.482  -0.783  0.00  0.00     0.062 A 
ATOM      3  C2  UNL d   1      -2.888  -3.442  -1.278  0.00  0.00     0.162 A 
ATOM      4  C3  UNL d   1      -3.223  -4.554  -0.506  0.00  0.00    -0.034 A 
ATOM      5  C4  UNL d   1      -2.666  -4.692   0.767  0.00  0.00     0.162 A 
ATOM      6  C5  UNL d   1      -1.790  -3.729   1.257  0.00  0.00     0.062 A 
ATOM      7  F   UNL d   1      -1.260  -3.868   2.482  0.00  0.00    -0.097 F 
ATOM      8  F1  UNL d   1      -2.967  -5.748   1.536  0.00  0.00    -0.096 F 
ATOM      9  I   UNL d   1      -4.534  -5.993  -1.242  0.00  0.00    -0.060 I 
ATOM     10  F2  UNL d   1      -3.404  -3.278  -2.506  0.00  0.00    -0.096 F 
ATOM     11  F3  UNL d   1      -1.695  -1.416  -1.533  0.00  0.00    -0.097 F 
ATOM     12  F4  UNL d   1      -0.617  -1.699   0.957  0.00  0.00    -0.092 F 
ENDROOT
TORSDOF 0
ENDMDL
