MODEL 1
REMARK minimizedAffinity 9.30392933
REMARK minimizedRMSD -1
REMARK  0 active torsions:
REMARK  status: ('A' for Active; 'I' for Inactive)
ROOT
ATOM      1  C   UNL d   1       2.483   2.811   0.726  0.00  0.00     0.124 A 
ATOM      2  C1  UNL d   1       2.206   1.454   0.814  0.00  0.00     0.062 A 
ATOM      3  C2  UNL d   1       3.208   0.556   1.169  0.00  0.00     0.162 A 
ATOM      4  C3  UNL d   1       4.498   1.013   1.442  0.00  0.00    -0.034 A 
ATOM      5  C4  UNL d   1       4.769   2.379   1.351  0.00  0.00     0.162 A 
ATOM      6  C5  UNL d   1       3.764   3.272   0.995  0.00  0.00     0.062 A 
ATOM      7  F   UNL d   1       4.034   4.583   0.911  0.00  0.00    -0.097 F 
ATOM      8  F1  UNL d   1       5.998   2.852   1.606  0.00  0.00    -0.096 F 
ATOM      9  I   UNL d   1       6.000  -0.326   1.974  0.00  0.00    -0.060 I 
ATOM     10  F2  UNL d   1       2.912  -0.750   1.246  0.00  0.00    -0.096 F 
ATOM     11  F3  UNL d   1       0.970   1.005   0.553  0.00  0.00    -0.097 F 
ATOM     12  F4  UNL d   1       1.517   3.672   0.383  0.00  0.00    -0.092 F 
ENDROOT
TORSDOF 0
ENDMDL
