MODEL 1
REMARK minimizedAffinity 27.507021
REMARK minimizedRMSD -1
REMARK  0 active torsions:
REMARK  status: ('A' for Active; 'I' for Inactive)
ROOT
ATOM      1  C   UNL d   1       1.514   4.234   1.374  0.00  0.00     0.124 A 
ATOM      2  C1  UNL d   1       2.831   4.412   0.973  0.00  0.00     0.062 A 
ATOM      3  C2  UNL d   1       3.626   3.310   0.672  0.00  0.00     0.162 A 
ATOM      4  C3  UNL d   1       3.105   2.019   0.770  0.00  0.00    -0.034 A 
ATOM      5  C4  UNL d   1       1.780   1.848   1.175  0.00  0.00     0.162 A 
ATOM      6  C5  UNL d   1       0.990   2.953   1.474  0.00  0.00     0.062 A 
ATOM      7  F   UNL d   1      -0.282   2.779   1.861  0.00  0.00    -0.097 F 
ATOM      8  F1  UNL d   1       1.248   0.621   1.279  0.00  0.00    -0.096 F 
ATOM      9  I   UNL d   1       4.291   0.368   0.321  0.00  0.00    -0.060 I 
ATOM     10  F2  UNL d   1       4.895   3.511   0.288  0.00  0.00    -0.096 F 
ATOM     11  F3  UNL d   1       3.340   5.649   0.876  0.00  0.00    -0.097 F 
ATOM     12  F4  UNL d   1       0.751   5.296   1.663  0.00  0.00    -0.092 F 
ENDROOT
TORSDOF 0
ENDMDL
