MODEL 1
REMARK minimizedAffinity 23.892519
REMARK minimizedRMSD -1
REMARK  0 active torsions:
REMARK  status: ('A' for Active; 'I' for Inactive)
ROOT
ATOM      1  C   UNL d   1      -1.863  -2.257  -1.919  0.00  0.00     0.124 A 
ATOM      2  C1  UNL d   1      -1.114  -2.516  -0.780  0.00  0.00     0.062 A 
ATOM      3  C2  UNL d   1      -1.447  -3.583   0.050  0.00  0.00     0.162 A 
ATOM      4  C3  UNL d   1      -2.536  -4.399  -0.256  0.00  0.00    -0.034 A 
ATOM      5  C4  UNL d   1      -3.285  -4.132  -1.403  0.00  0.00     0.162 A 
ATOM      6  C5  UNL d   1      -2.948  -3.065  -2.230  0.00  0.00     0.062 A 
ATOM      7  F   UNL d   1      -3.673  -2.816  -3.330  0.00  0.00    -0.097 F 
ATOM      8  F1  UNL d   1      -4.338  -4.897  -1.728  0.00  0.00    -0.096 F 
ATOM      9  I   UNL d   1      -3.038  -5.995   0.982  0.00  0.00    -0.060 I 
ATOM     10  F2  UNL d   1      -0.705  -3.809   1.145  0.00  0.00    -0.096 F 
ATOM     11  F3  UNL d   1      -0.066  -1.737  -0.476  0.00  0.00    -0.097 F 
ATOM     12  F4  UNL d   1      -1.540  -1.230  -2.715  0.00  0.00    -0.092 F 
ENDROOT
TORSDOF 0
ENDMDL
