MODEL 1
REMARK minimizedAffinity 4.84643888
REMARK minimizedRMSD -1
REMARK  0 active torsions:
REMARK  status: ('A' for Active; 'I' for Inactive)
ROOT
ATOM      1  C2' OXE d   1      -1.794   3.368   2.284  0.00  0.00     0.078 C 
ATOM      2  C1' OXE d   1      -2.629   1.717   0.174  0.00  0.00     0.078 C 
ATOM      3  C1  OXE d   1      -3.033   3.169   0.132  0.00  0.00    -0.078 A 
ATOM      4  C2  OXE d   1      -2.660   3.960   1.192  0.00  0.00    -0.078 A 
ATOM      5  C3  OXE d   1      -2.959   5.319   1.178  0.00  0.00     0.003 A 
ATOM      6  C4  OXE d   1      -3.768   5.856   0.169  0.00  0.00    -0.002 A 
ATOM      7  C5  OXE d   1      -4.192   5.060  -0.900  0.00  0.00    -0.002 A 
ATOM      8  C6  OXE d   1      -3.798   3.727  -0.955  0.00  0.00     0.003 A 
ENDROOT
TORSDOF 0
ENDMDL
