MODEL 1
REMARK minimizedAffinity 21.9694443
REMARK minimizedRMSD -1
REMARK  0 active torsions:
REMARK  status: ('A' for Active; 'I' for Inactive)
ROOT
ATOM      1  C2' OXE d   1      -3.613  -2.866  -2.999  0.00  0.00     0.078 C 
ATOM      2  C1' OXE d   1      -5.895  -4.495  -3.140  0.00  0.00     0.078 C 
ATOM      3  C1  OXE d   1      -4.777  -4.764  -4.117  0.00  0.00    -0.078 A 
ATOM      4  C2  OXE d   1      -3.685  -3.932  -4.072  0.00  0.00    -0.078 A 
ATOM      5  C3  OXE d   1      -2.602  -4.170  -4.914  0.00  0.00     0.003 A 
ATOM      6  C4  OXE d   1      -2.681  -5.151  -5.910  0.00  0.00    -0.002 A 
ATOM      7  C5  OXE d   1      -3.801  -5.983  -5.999  0.00  0.00    -0.002 A 
ATOM      8  C6  OXE d   1      -4.838  -5.831  -5.085  0.00  0.00     0.003 A 
ENDROOT
TORSDOF 0
ENDMDL
