MODEL 1
REMARK minimizedAffinity 14.6820021
REMARK minimizedRMSD -1
REMARK  0 active torsions:
REMARK  status: ('A' for Active; 'I' for Inactive)
ROOT
ATOM      1  C2' OXE d   1       2.983  -2.772  -4.227  0.00  0.00     0.078 C 
ATOM      2  C1' OXE d   1       4.482  -5.126  -3.928  0.00  0.00     0.078 C 
ATOM      3  C1  OXE d   1       4.763  -3.988  -2.979  0.00  0.00    -0.078 A 
ATOM      4  C2  OXE d   1       4.058  -2.823  -3.162  0.00  0.00    -0.078 A 
ATOM      5  C3  OXE d   1       4.239  -1.762  -2.280  0.00  0.00     0.003 A 
ATOM      6  C4  OXE d   1       5.242  -1.814  -1.305  0.00  0.00    -0.002 A 
ATOM      7  C5  OXE d   1       5.999  -2.976  -1.127  0.00  0.00    -0.002 A 
ATOM      8  C6  OXE d   1       5.744  -4.085  -1.926  0.00  0.00     0.003 A 
ENDROOT
TORSDOF 0
ENDMDL
