MODEL 1
REMARK minimizedAffinity 13.1587954
REMARK minimizedRMSD -1
REMARK  0 active torsions:
REMARK  status: ('A' for Active; 'I' for Inactive)
ROOT
ATOM      1  C2' OXE d   1       4.777  -1.327  -2.294  0.00  0.00     0.078 C 
ATOM      2  C1' OXE d   1       3.642  -2.310  -4.666  0.00  0.00     0.078 C 
ATOM      3  C1  OXE d   1       4.478  -1.057  -4.752  0.00  0.00    -0.078 A 
ATOM      4  C2  OXE d   1       4.991  -0.557  -3.579  0.00  0.00    -0.078 A 
ATOM      5  C3  OXE d   1       5.813   0.565  -3.609  0.00  0.00     0.003 A 
ATOM      6  C4  OXE d   1       5.997   1.277  -4.800  0.00  0.00    -0.002 A 
ATOM      7  C5  OXE d   1       5.451   0.808  -6.000  0.00  0.00    -0.002 A 
ATOM      8  C6  OXE d   1       4.726  -0.378  -6.000  0.00  0.00     0.003 A 
ENDROOT
TORSDOF 0
ENDMDL
