MODEL 1
REMARK minimizedAffinity 16.9154396
REMARK minimizedRMSD -1
REMARK  0 active torsions:
REMARK  status: ('A' for Active; 'I' for Inactive)
ROOT
ATOM      1  C2' OXE d   1       2.685  -1.487   0.615  0.00  0.00     0.078 C 
ATOM      2  C1' OXE d   1       0.463  -2.405  -0.833  0.00  0.00     0.078 C 
ATOM      3  C1  OXE d   1       1.758  -2.209  -1.581  0.00  0.00    -0.078 A 
ATOM      4  C2  OXE d   1       2.828  -1.716  -0.875  0.00  0.00    -0.078 A 
ATOM      5  C3  OXE d   1       4.061  -1.568  -1.504  0.00  0.00     0.003 A 
ATOM      6  C4  OXE d   1       4.181  -1.772  -2.884  0.00  0.00    -0.002 A 
ATOM      7  C5  OXE d   1       3.093  -2.237  -3.630  0.00  0.00    -0.002 A 
ATOM      8  C6  OXE d   1       1.889  -2.501  -2.988  0.00  0.00     0.003 A 
ENDROOT
TORSDOF 0
ENDMDL
