MODEL 1
REMARK minimizedAffinity 10.1102076
REMARK minimizedRMSD -1
REMARK  0 active torsions:
REMARK  status: ('A' for Active; 'I' for Inactive)
ROOT
ATOM      1  C2' OXE d   1      -2.252   2.185  -0.678  0.00  0.00     0.078 C 
ATOM      2  C1' OXE d   1      -1.200   3.565   1.529  0.00  0.00     0.078 C 
ATOM      3  C1  OXE d   1      -2.358   4.192   0.794  0.00  0.00    -0.078 A 
ATOM      4  C2  OXE d   1      -2.836   3.533  -0.313  0.00  0.00    -0.078 A 
ATOM      5  C3  OXE d   1      -3.938   4.040  -0.995  0.00  0.00     0.003 A 
ATOM      6  C4  OXE d   1      -4.466   5.292  -0.657  0.00  0.00    -0.002 A 
ATOM      7  C5  OXE d   1      -3.968   5.999   0.443  0.00  0.00    -0.002 A 
ATOM      8  C6  OXE d   1      -2.945   5.444   1.203  0.00  0.00     0.003 A 
ENDROOT
TORSDOF 0
ENDMDL
