MODEL 1
REMARK minimizedAffinity 13.2946234
REMARK minimizedRMSD -1
REMARK  0 active torsions:
REMARK  status: ('A' for Active; 'I' for Inactive)
ROOT
ATOM      1  C2' OXE d   1       3.969  -5.578   5.340  0.00  0.00     0.078 C 
ATOM      2  C1' OXE d   1       2.531  -3.705   3.822  0.00  0.00     0.078 C 
ATOM      3  C1  OXE d   1       3.753  -3.222   4.561  0.00  0.00    -0.078 A 
ATOM      4  C2  OXE d   1       4.424  -4.135   5.339  0.00  0.00    -0.078 A 
ATOM      5  C3  OXE d   1       5.589  -3.754   5.998  0.00  0.00     0.003 A 
ATOM      6  C4  OXE d   1       5.998  -2.415   6.000  0.00  0.00    -0.002 A 
ATOM      7  C5  OXE d   1       5.306  -1.461   5.246  0.00  0.00    -0.002 A 
ATOM      8  C6  OXE d   1       4.209  -1.856   4.488  0.00  0.00     0.003 A 
ENDROOT
TORSDOF 0
ENDMDL
