MODEL 1
REMARK minimizedAffinity 17.0044022
REMARK minimizedRMSD -1
REMARK  0 active torsions:
REMARK  status: ('A' for Active; 'I' for Inactive)
ROOT
ATOM      1  C2' OXE d   1       2.473   4.974   0.677  0.00  0.00     0.078 C 
ATOM      2  C1' OXE d   1       1.920   6.000  -1.877  0.00  0.00     0.078 C 
ATOM      3  C1  OXE d   1       3.363   5.749  -1.517  0.00  0.00    -0.078 A 
ATOM      4  C2  OXE d   1       3.628   5.291  -0.249  0.00  0.00    -0.078 A 
ATOM      5  C3  OXE d   1       4.937   4.991   0.117  0.00  0.00     0.003 A 
ATOM      6  C4  OXE d   1       6.000   5.296  -0.741  0.00  0.00    -0.002 A 
ATOM      7  C5  OXE d   1       5.755   5.801  -2.023  0.00  0.00    -0.002 A 
ATOM      8  C6  OXE d   1       4.443   5.992  -2.441  0.00  0.00     0.003 A 
ENDROOT
TORSDOF 0
ENDMDL
