MODEL 1
REMARK minimizedAffinity 16.0247612
REMARK minimizedRMSD -1
REMARK  0 active torsions:
REMARK  status: ('A' for Active; 'I' for Inactive)
ROOT
ATOM      1  C2' OXE d   1       5.999  -5.114  -5.426  0.00  0.00     0.078 C 
ATOM      2  C1' OXE d   1       4.814  -2.635  -5.999  0.00  0.00     0.078 C 
ATOM      3  C1  OXE d   1       4.526  -3.259  -4.656  0.00  0.00    -0.078 A 
ATOM      4  C2  OXE d   1       5.073  -4.494  -4.403  0.00  0.00    -0.078 A 
ATOM      5  C3  OXE d   1       4.884  -5.089  -3.159  0.00  0.00     0.003 A 
ATOM      6  C4  OXE d   1       4.017  -4.514  -2.222  0.00  0.00    -0.002 A 
ATOM      7  C5  OXE d   1       3.419  -3.275  -2.476  0.00  0.00    -0.002 A 
ATOM      8  C6  OXE d   1       3.696  -2.616  -3.668  0.00  0.00     0.003 A 
ENDROOT
TORSDOF 0
ENDMDL
