MODEL 1
REMARK minimizedAffinity 14.2112865
REMARK minimizedRMSD -1
REMARK  0 active torsions:
REMARK  status: ('A' for Active; 'I' for Inactive)
ROOT
ATOM      1  C2' OXE d   1      -1.032  -0.931   5.691  0.00  0.00     0.078 C 
ATOM      2  C1' OXE d   1      -3.096  -2.810   5.989  0.00  0.00     0.078 C 
ATOM      3  C1  OXE d   1      -3.476  -1.351   5.927  0.00  0.00    -0.078 A 
ATOM      4  C2  OXE d   1      -2.456  -0.436   5.828  0.00  0.00    -0.078 A 
ATOM      5  C3  OXE d   1      -2.755   0.919   5.712  0.00  0.00     0.003 A 
ATOM      6  C4  OXE d   1      -4.073   1.368   5.850  0.00  0.00    -0.002 A 
ATOM      7  C5  OXE d   1      -5.124   0.455   5.992  0.00  0.00    -0.002 A 
ATOM      8  C6  OXE d   1      -4.847  -0.907   5.989  0.00  0.00     0.003 A 
ENDROOT
TORSDOF 0
ENDMDL
