MODEL 1
REMARK minimizedAffinity 15.8078804
REMARK minimizedRMSD -1
REMARK  0 active torsions:
REMARK  status: ('A' for Active; 'I' for Inactive)
ROOT
ATOM      1  C2' OXE d   1       0.386  -2.633   1.009  0.00  0.00     0.078 C 
ATOM      2  C1' OXE d   1       1.058  -2.300  -1.696  0.00  0.00     0.078 C 
ATOM      3  C1  OXE d   1      -0.403  -2.265  -1.325  0.00  0.00    -0.078 A 
ATOM      4  C2  OXE d   1      -0.726  -2.475  -0.006  0.00  0.00    -0.078 A 
ATOM      5  C3  OXE d   1      -2.055  -2.398   0.399  0.00  0.00     0.003 A 
ATOM      6  C4  OXE d   1      -3.078  -2.262  -0.547  0.00  0.00    -0.002 A 
ATOM      7  C5  OXE d   1      -2.773  -2.086  -1.901  0.00  0.00    -0.002 A 
ATOM      8  C6  OXE d   1      -1.442  -2.042  -2.300  0.00  0.00     0.003 A 
ENDROOT
TORSDOF 0
ENDMDL
