MODEL 1
REMARK minimizedAffinity 20.6319447
REMARK minimizedRMSD -1
REMARK  0 active torsions:
REMARK  status: ('A' for Active; 'I' for Inactive)
ROOT
ATOM      1  C2' OXE d   1      -3.613  -1.344  -0.195  0.00  0.00     0.078 C 
ATOM      2  C1' OXE d   1      -2.381  -2.834   1.840  0.00  0.00     0.078 C 
ATOM      3  C1  OXE d   1      -1.560  -2.495   0.621  0.00  0.00    -0.078 A 
ATOM      4  C2  OXE d   1      -2.185  -1.806  -0.390  0.00  0.00    -0.078 A 
ATOM      5  C3  OXE d   1      -1.458  -1.419  -1.513  0.00  0.00     0.003 A 
ATOM      6  C4  OXE d   1      -0.141  -1.859  -1.690  0.00  0.00    -0.002 A 
ATOM      7  C5  OXE d   1       0.502  -2.596  -0.690  0.00  0.00    -0.002 A 
ATOM      8  C6  OXE d   1      -0.178  -2.885   0.488  0.00  0.00     0.003 A 
ENDROOT
TORSDOF 0
ENDMDL
