MODEL 1
REMARK minimizedAffinity 12.3162985
REMARK minimizedRMSD -1
REMARK  0 active torsions:
REMARK  status: ('A' for Active; 'I' for Inactive)
ROOT
ATOM      1  C2' OXE d   1      -1.926  -5.151  -5.990  0.00  0.00     0.078 C 
ATOM      2  C1' OXE d   1      -2.603  -3.053  -4.253  0.00  0.00     0.078 C 
ATOM      3  C1  OXE d   1      -3.688  -4.030  -4.632  0.00  0.00    -0.078 A 
ATOM      4  C2  OXE d   1      -3.359  -5.026  -5.519  0.00  0.00    -0.078 A 
ATOM      5  C3  OXE d   1      -4.308  -5.986  -5.860  0.00  0.00     0.003 A 
ATOM      6  C4  OXE d   1      -5.633  -5.857  -5.428  0.00  0.00    -0.002 A 
ATOM      7  C5  OXE d   1      -5.999  -4.827  -4.555  0.00  0.00    -0.002 A 
ATOM      8  C6  OXE d   1      -5.030  -3.932  -4.115  0.00  0.00     0.003 A 
ENDROOT
TORSDOF 0
ENDMDL
