MODEL 1
REMARK minimizedAffinity 10.7174902
REMARK minimizedRMSD -1
REMARK  0 active torsions:
REMARK  status: ('A' for Active; 'I' for Inactive)
ROOT
ATOM      1  C2' OXE d   1       3.804  -2.008  -1.413  0.00  0.00     0.078 C 
ATOM      2  C1' OXE d   1       3.010  -0.874  -3.855  0.00  0.00     0.078 C 
ATOM      3  C1  OXE d   1       1.932  -1.241  -2.867  0.00  0.00    -0.078 A 
ATOM      4  C2  OXE d   1       2.326  -1.838  -1.694  0.00  0.00    -0.078 A 
ATOM      5  C3  OXE d   1       1.376  -2.146  -0.724  0.00  0.00     0.003 A 
ATOM      6  C4  OXE d   1       0.011  -1.995  -0.995  0.00  0.00    -0.002 A 
ATOM      7  C5  OXE d   1      -0.414  -1.426  -2.200  0.00  0.00    -0.002 A 
ATOM      8  C6  OXE d   1       0.533  -1.005  -3.127  0.00  0.00     0.003 A 
ENDROOT
TORSDOF 0
ENDMDL
