MODEL 1
REMARK minimizedAffinity 18.0808086
REMARK minimizedRMSD -1
REMARK  0 active torsions:
REMARK  status: ('A' for Active; 'I' for Inactive)
ROOT
ATOM      1  C2' OXE d   1      -1.071  -1.114  -0.514  0.00  0.00     0.078 C 
ATOM      2  C1' OXE d   1      -0.921  -1.998  -3.175  0.00  0.00     0.078 C 
ATOM      3  C1  OXE d   1       0.373  -1.737  -2.446  0.00  0.00    -0.078 A 
ATOM      4  C2  OXE d   1       0.290  -1.260  -1.160  0.00  0.00    -0.078 A 
ATOM      5  C3  OXE d   1       1.454  -1.056  -0.424  0.00  0.00     0.003 A 
ATOM      6  C4  OXE d   1       2.708  -1.184  -1.032  0.00  0.00    -0.002 A 
ATOM      7  C5  OXE d   1       2.815  -1.630  -2.353  0.00  0.00    -0.002 A 
ATOM      8  C6  OXE d   1       1.661  -1.951  -3.059  0.00  0.00     0.003 A 
ENDROOT
TORSDOF 0
ENDMDL
