MODEL 1
REMARK minimizedAffinity 25.2050076
REMARK minimizedRMSD -1
REMARK  0 active torsions:
REMARK  status: ('A' for Active; 'I' for Inactive)
ROOT
ATOM      1  C2' OXE d   1       2.409   5.211  -3.346  0.00  0.00     0.078 C 
ATOM      2  C1' OXE d   1       5.080   5.252  -2.483  0.00  0.00     0.078 C 
ATOM      3  C1  OXE d   1       4.589   4.016  -3.193  0.00  0.00    -0.078 A 
ATOM      4  C2  OXE d   1       3.268   3.986  -3.571  0.00  0.00    -0.078 A 
ATOM      5  C3  OXE d   1       2.778   2.892  -4.278  0.00  0.00     0.003 A 
ATOM      6  C4  OXE d   1       3.577   1.758  -4.473  0.00  0.00    -0.002 A 
ATOM      7  C5  OXE d   1       4.914   1.752  -4.062  0.00  0.00    -0.002 A 
ATOM      8  C6  OXE d   1       5.446   2.887  -3.460  0.00  0.00     0.003 A 
ENDROOT
TORSDOF 0
ENDMDL
