MODEL 1
REMARK minimizedAffinity 12.3071089
REMARK minimizedRMSD -1
REMARK  0 active torsions:
REMARK  status: ('A' for Active; 'I' for Inactive)
ROOT
ATOM      1  C2' OXE d   1       3.093  -1.772   4.898  0.00  0.00     0.078 C 
ATOM      2  C1' OXE d   1       1.586  -3.753   3.599  0.00  0.00     0.078 C 
ATOM      3  C1  OXE d   1       2.751  -4.198   4.448  0.00  0.00    -0.078 A 
ATOM      4  C2  OXE d   1       3.510  -3.219   5.042  0.00  0.00    -0.078 A 
ATOM      5  C3  OXE d   1       4.563  -3.577   5.880  0.00  0.00     0.003 A 
ATOM      6  C4  OXE d   1       4.949  -4.918   6.000  0.00  0.00    -0.002 A 
ATOM      7  C5  OXE d   1       4.213  -5.928   5.371  0.00  0.00    -0.002 A 
ATOM      8  C6  OXE d   1       3.088  -5.589   4.628  0.00  0.00     0.003 A 
ENDROOT
TORSDOF 0
ENDMDL
