MODEL 1
REMARK minimizedAffinity 11.2002029
REMARK minimizedRMSD -1
REMARK  0 active torsions:
REMARK  status: ('A' for Active; 'I' for Inactive)
ROOT
ATOM      1  C2' OXE d   1       3.725  -2.688  -4.150  0.00  0.00     0.078 C 
ATOM      2  C1' OXE d   1       4.612  -1.288  -1.884  0.00  0.00     0.078 C 
ATOM      3  C1  OXE d   1       3.146  -1.632  -1.969  0.00  0.00    -0.078 A 
ATOM      4  C2  OXE d   1       2.713  -2.276  -3.103  0.00  0.00    -0.078 A 
ATOM      5  C3  OXE d   1       1.380  -2.665  -3.209  0.00  0.00     0.003 A 
ATOM      6  C4  OXE d   1       0.448  -2.272  -2.241  0.00  0.00    -0.002 A 
ATOM      7  C5  OXE d   1       0.862  -1.581  -1.097  0.00  0.00    -0.002 A 
ATOM      8  C6  OXE d   1       2.211  -1.291  -0.926  0.00  0.00     0.003 A 
ENDROOT
TORSDOF 0
ENDMDL
