MODEL 1
REMARK minimizedAffinity 18.870121
REMARK minimizedRMSD -1
REMARK  0 active torsions:
REMARK  status: ('A' for Active; 'I' for Inactive)
ROOT
ATOM      1  C2' OXE d   1       2.288   4.534  -0.754  0.00  0.00     0.078 C 
ATOM      2  C1' OXE d   1       2.194   5.709  -3.302  0.00  0.00     0.078 C 
ATOM      3  C1  OXE d   1       3.547   5.524  -2.662  0.00  0.00    -0.078 A 
ATOM      4  C2  OXE d   1       3.580   4.991  -1.396  0.00  0.00    -0.078 A 
ATOM      5  C3  OXE d   1       4.805   4.748  -0.782  0.00  0.00     0.003 A 
ATOM      6  C4  OXE d   1       5.995   5.183  -1.378  0.00  0.00    -0.002 A 
ATOM      7  C5  OXE d   1       5.981   5.764  -2.650  0.00  0.00    -0.002 A 
ATOM      8  C6  OXE d   1       4.772   5.903  -3.322  0.00  0.00     0.003 A 
ENDROOT
TORSDOF 0
ENDMDL
