MODEL 1
REMARK minimizedAffinity 6.14161348
REMARK minimizedRMSD -1
REMARK  0 active torsions:
REMARK  status: ('A' for Active; 'I' for Inactive)
ROOT
ATOM      1  C2' OXE d   1       5.653  -0.682  -4.502  0.00  0.00     0.078 C 
ATOM      2  C1' OXE d   1       5.630  -1.875  -1.962  0.00  0.00     0.078 C 
ATOM      3  C1  OXE d   1       5.778  -2.777  -3.161  0.00  0.00    -0.078 A 
ATOM      4  C2  OXE d   1       5.741  -2.189  -4.403  0.00  0.00    -0.078 A 
ATOM      5  C3  OXE d   1       5.929  -2.969  -5.541  0.00  0.00     0.003 A 
ATOM      6  C4  OXE d   1       5.999  -4.364  -5.440  0.00  0.00    -0.002 A 
ATOM      7  C5  OXE d   1       5.998  -4.986  -4.188  0.00  0.00    -0.002 A 
ATOM      8  C6  OXE d   1       5.931  -4.206  -3.039  0.00  0.00     0.003 A 
ENDROOT
TORSDOF 0
ENDMDL
