MODEL 1
REMARK minimizedAffinity -2.85816717
REMARK minimizedRMSD -1
REMARK  0 active torsions:
REMARK  status: ('A' for Active; 'I' for Inactive)
ROOT
ATOM      1  C   UNL d   1       2.341   3.030   1.793  0.00  0.00     0.077 C 
ATOM      2  C1  UNL d   1       1.396   2.333   0.860  0.00  0.00    -0.074 A 
ATOM      3  C2  UNL d   1       1.262   2.748  -0.469  0.00  0.00    -0.005 A 
ATOM      4  C3  UNL d   1       0.386   2.084  -1.328  0.00  0.00     0.006 A 
ATOM      5  C4  UNL d   1      -0.363   1.000  -0.867  0.00  0.00    -0.005 A 
ATOM      6  C5  UNL d   1      -0.241   0.571   0.458  0.00  0.00    -0.074 A 
ATOM      7  C6  UNL d   1      -1.032  -0.598   0.967  0.00  0.00     0.077 C 
ATOM      8  C7  UNL d   1       0.646   1.239   1.313  0.00  0.00    -0.001 A 
ENDROOT
TORSDOF 0
ENDMDL
