MODEL 1
REMARK minimizedAffinity -5.735672
REMARK minimizedRMSD -1
REMARK  0 active torsions:
REMARK  status: ('A' for Active; 'I' for Inactive)
ROOT
ATOM      1  C   UNL d   1       0.936  -1.397  -2.518  0.00  0.00     0.077 C 
ATOM      2  C1  UNL d   1       0.283  -1.812  -1.233  0.00  0.00    -0.074 A 
ATOM      3  C2  UNL d   1       0.260  -3.154  -0.839  0.00  0.00    -0.005 A 
ATOM      4  C3  UNL d   1      -0.343  -3.524   0.363  0.00  0.00     0.006 A 
ATOM      5  C4  UNL d   1      -0.929  -2.557   1.182  0.00  0.00    -0.005 A 
ATOM      6  C5  UNL d   1      -0.914  -1.211   0.805  0.00  0.00    -0.074 A 
ATOM      7  C6  UNL d   1      -1.530  -0.158   1.678  0.00  0.00     0.077 C 
ATOM      8  C7  UNL d   1      -0.300  -0.846  -0.401  0.00  0.00    -0.001 A 
ENDROOT
TORSDOF 0
ENDMDL
