MODEL 1
REMARK minimizedAffinity -4.40098238
REMARK minimizedRMSD -1
REMARK  0 active torsions:
REMARK  status: ('A' for Active; 'I' for Inactive)
ROOT
ATOM      1  C   UNL d   1       0.402   1.196  -0.209  0.00  0.00     0.077 C 
ATOM      2  C1  UNL d   1       0.098  -0.264  -0.053  0.00  0.00    -0.074 A 
ATOM      3  C2  UNL d   1      -0.399  -0.770   1.152  0.00  0.00    -0.005 A 
ATOM      4  C3  UNL d   1      -0.687  -2.129   1.279  0.00  0.00     0.006 A 
ATOM      5  C4  UNL d   1      -0.480  -2.995   0.204  0.00  0.00    -0.005 A 
ATOM      6  C5  UNL d   1       0.015  -2.507  -1.010  0.00  0.00    -0.074 A 
ATOM      7  C6  UNL d   1       0.234  -3.421  -2.178  0.00  0.00     0.077 C 
ATOM      8  C7  UNL d   1       0.295  -1.139  -1.132  0.00  0.00    -0.001 A 
ENDROOT
TORSDOF 0
ENDMDL
