MODEL 1
REMARK minimizedAffinity -3.98577833
REMARK minimizedRMSD -1
REMARK  0 active torsions:
REMARK  status: ('A' for Active; 'I' for Inactive)
ROOT
ATOM      1  C   UNL d   1       0.406  -2.250  -2.832  0.00  0.00     0.077 C 
ATOM      2  C1  UNL d   1      -0.000  -2.250  -1.388  0.00  0.00    -0.074 A 
ATOM      3  C2  UNL d   1       0.168  -3.389  -0.594  0.00  0.00    -0.005 A 
ATOM      4  C3  UNL d   1      -0.205  -3.371   0.749  0.00  0.00     0.006 A 
ATOM      5  C4  UNL d   1      -0.750  -2.216   1.312  0.00  0.00    -0.005 A 
ATOM      6  C5  UNL d   1      -0.925  -1.067   0.534  0.00  0.00    -0.074 A 
ATOM      7  C6  UNL d   1      -1.500   0.186   1.125  0.00  0.00     0.077 C 
ATOM      8  C7  UNL d   1      -0.541  -1.091  -0.814  0.00  0.00    -0.001 A 
ENDROOT
TORSDOF 0
ENDMDL
