MODEL 1
REMARK minimizedAffinity 3.55424428
REMARK minimizedRMSD -1
REMARK  0 active torsions:
REMARK  status: ('A' for Active; 'I' for Inactive)
ROOT
ATOM      1  C   UNL d   1       0.120   3.310   0.945  0.00  0.00     0.077 C 
ATOM      2  C1  UNL d   1      -0.174   1.989   0.299  0.00  0.00    -0.074 A 
ATOM      3  C2  UNL d   1       0.203   1.735  -1.024  0.00  0.00    -0.005 A 
ATOM      4  C3  UNL d   1      -0.069   0.499  -1.608  0.00  0.00     0.006 A 
ATOM      5  C4  UNL d   1      -0.720  -0.496  -0.877  0.00  0.00    -0.005 A 
ATOM      6  C5  UNL d   1      -1.104  -0.261   0.447  0.00  0.00    -0.074 A 
ATOM      7  C6  UNL d   1      -1.797  -1.323   1.249  0.00  0.00     0.077 C 
ATOM      8  C7  UNL d   1      -0.821   0.982   1.029  0.00  0.00    -0.001 A 
ENDROOT
TORSDOF 0
ENDMDL
