MODEL 1
REMARK minimizedAffinity -5.3889966
REMARK minimizedRMSD -1
REMARK  0 active torsions:
REMARK  status: ('A' for Active; 'I' for Inactive)
ROOT
ATOM      1  C   UNL d   1      -0.445   1.535  -0.897  0.00  0.00     0.077 C 
ATOM      2  C1  UNL d   1       0.294   2.468   0.014  0.00  0.00    -0.074 A 
ATOM      3  C2  UNL d   1       1.598   2.879  -0.281  0.00  0.00    -0.005 A 
ATOM      4  C3  UNL d   1       2.270   3.754   0.571  0.00  0.00     0.006 A 
ATOM      5  C4  UNL d   1       1.646   4.227   1.727  0.00  0.00    -0.005 A 
ATOM      6  C5  UNL d   1       0.343   3.828   2.038  0.00  0.00    -0.074 A 
ATOM      7  C6  UNL d   1      -0.346   4.335   3.271  0.00  0.00     0.077 C 
ATOM      8  C7  UNL d   1      -0.328   2.954   1.173  0.00  0.00    -0.001 A 
ENDROOT
TORSDOF 0
ENDMDL
