MODEL 1
REMARK minimizedAffinity 7.89158106
REMARK minimizedRMSD -1
REMARK  0 active torsions:
REMARK  status: ('A' for Active; 'I' for Inactive)
ROOT
ATOM      1  C   UNL d   1       1.893   0.858  -1.029  0.00  0.00     0.077 C 
ATOM      2  C1  UNL d   1       0.940   0.387   0.029  0.00  0.00    -0.074 A 
ATOM      3  C2  UNL d   1      -0.428   0.270  -0.236  0.00  0.00    -0.005 A 
ATOM      4  C3  UNL d   1      -1.300  -0.179   0.755  0.00  0.00     0.006 A 
ATOM      5  C4  UNL d   1      -0.815  -0.514   2.020  0.00  0.00    -0.005 A 
ATOM      6  C5  UNL d   1       0.550  -0.404   2.303  0.00  0.00    -0.074 A 
ATOM      7  C6  UNL d   1       1.090  -0.769   3.654  0.00  0.00     0.077 C 
ATOM      8  C7  UNL d   1       1.422   0.041   1.299  0.00  0.00    -0.001 A 
ENDROOT
TORSDOF 0
ENDMDL
