MODEL 1
REMARK minimizedAffinity 2.45752835
REMARK minimizedRMSD -1
REMARK  0 active torsions:
REMARK  status: ('A' for Active; 'I' for Inactive)
ROOT
ATOM      1  C   UNL d   1      -2.717  -1.519   4.738  0.00  0.00     0.077 C 
ATOM      2  C1  UNL d   1      -1.769  -1.061   3.670  0.00  0.00    -0.074 A 
ATOM      3  C2  UNL d   1      -0.389  -1.037   3.897  0.00  0.00    -0.005 A 
ATOM      4  C3  UNL d   1       0.482  -0.617   2.891  0.00  0.00     0.006 A 
ATOM      5  C4  UNL d   1      -0.018  -0.218   1.650  0.00  0.00    -0.005 A 
ATOM      6  C5  UNL d   1      -1.394  -0.237   1.405  0.00  0.00    -0.074 A 
ATOM      7  C6  UNL d   1      -1.947   0.179   0.074  0.00  0.00     0.077 C 
ATOM      8  C7  UNL d   1      -2.262  -0.667   2.419  0.00  0.00    -0.001 A 
ENDROOT
TORSDOF 0
ENDMDL
