MODEL 1
REMARK minimizedAffinity -2.87465382
REMARK minimizedRMSD -1
REMARK  0 active torsions:
REMARK  status: ('A' for Active; 'I' for Inactive)
ROOT
ATOM      1  C   UNL d   1       0.166  -0.234  -2.640  0.00  0.00     0.077 C 
ATOM      2  C1  UNL d   1      -0.151   0.236  -1.251  0.00  0.00    -0.074 A 
ATOM      3  C2  UNL d   1      -1.079  -0.445  -0.456  0.00  0.00    -0.005 A 
ATOM      4  C3  UNL d   1      -1.356  -0.003   0.837  0.00  0.00     0.006 A 
ATOM      5  C4  UNL d   1      -0.710   1.123   1.348  0.00  0.00    -0.005 A 
ATOM      6  C5  UNL d   1       0.222   1.817   0.568  0.00  0.00    -0.074 A 
ATOM      7  C6  UNL d   1       0.933   3.023   1.106  0.00  0.00     0.077 C 
ATOM      8  C7  UNL d   1       0.500   1.362  -0.728  0.00  0.00    -0.001 A 
ENDROOT
TORSDOF 0
ENDMDL
