MODEL 1
REMARK minimizedAffinity 2.13032055
REMARK minimizedRMSD -1
REMARK  0 active torsions:
REMARK  status: ('A' for Active; 'I' for Inactive)
ROOT
ATOM      1  C   UNL d   1       1.099   5.470  -1.463  0.00  0.00     0.077 C 
ATOM      2  C1  UNL d   1       1.274   5.055  -0.032  0.00  0.00    -0.074 A 
ATOM      3  C2  UNL d   1       2.190   4.060   0.321  0.00  0.00    -0.005 A 
ATOM      4  C3  UNL d   1       2.349   3.692   1.657  0.00  0.00     0.006 A 
ATOM      5  C4  UNL d   1       1.594   4.315   2.652  0.00  0.00    -0.005 A 
ATOM      6  C5  UNL d   1       0.674   5.313   2.318  0.00  0.00    -0.074 A 
ATOM      7  C6  UNL d   1      -0.139   6.000   3.376  0.00  0.00     0.077 C 
ATOM      8  C7  UNL d   1       0.525   5.682   0.974  0.00  0.00    -0.001 A 
ENDROOT
TORSDOF 0
ENDMDL
