MODEL 1
REMARK minimizedAffinity -4.85358191
REMARK minimizedRMSD -1
REMARK  0 active torsions:
REMARK  status: ('A' for Active; 'I' for Inactive)
ROOT
ATOM      1  C   UNL d   1       0.531  -1.581  -3.189  0.00  0.00     0.077 C 
ATOM      2  C1  UNL d   1       0.037  -1.909  -1.812  0.00  0.00    -0.074 A 
ATOM      3  C2  UNL d   1      -0.028  -3.234  -1.369  0.00  0.00    -0.005 A 
ATOM      4  C3  UNL d   1      -0.481  -3.524  -0.081  0.00  0.00     0.006 A 
ATOM      5  C4  UNL d   1      -0.871  -2.493   0.774  0.00  0.00    -0.005 A 
ATOM      6  C5  UNL d   1      -0.812  -1.162   0.349  0.00  0.00    -0.074 A 
ATOM      7  C6  UNL d   1      -1.219  -0.042   1.259  0.00  0.00     0.077 C 
ATOM      8  C7  UNL d   1      -0.350  -0.879  -0.944  0.00  0.00    -0.001 A 
ENDROOT
TORSDOF 0
ENDMDL
