MODEL 1
REMARK minimizedAffinity -6.00013494
REMARK minimizedRMSD -1
REMARK  0 active torsions:
REMARK  status: ('A' for Active; 'I' for Inactive)
ROOT
ATOM      1  C   UNL d   1       0.066  -3.654  -0.183  0.00  0.00     0.077 C 
ATOM      2  C1  UNL d   1      -0.477  -2.357   0.339  0.00  0.00    -0.074 A 
ATOM      3  C2  UNL d   1      -1.625  -2.327   1.136  0.00  0.00    -0.005 A 
ATOM      4  C3  UNL d   1      -2.113  -1.114   1.622  0.00  0.00     0.006 A 
ATOM      5  C4  UNL d   1      -1.458   0.079   1.316  0.00  0.00    -0.005 A 
ATOM      6  C5  UNL d   1      -0.308   0.069   0.521  0.00  0.00    -0.074 A 
ATOM      7  C6  UNL d   1       0.414   1.342   0.191  0.00  0.00     0.077 C 
ATOM      8  C7  UNL d   1       0.180  -1.154   0.042  0.00  0.00    -0.001 A 
ENDROOT
TORSDOF 0
ENDMDL
