MODEL 1
REMARK minimizedAffinity 4.49279499
REMARK minimizedRMSD -1
REMARK  0 active torsions:
REMARK  status: ('A' for Active; 'I' for Inactive)
ROOT
ATOM      1  C   UNL d   1      -2.104  -2.702   1.739  0.00  0.00     0.077 C 
ATOM      2  C1  UNL d   1      -1.594  -1.412   1.169  0.00  0.00    -0.074 A 
ATOM      3  C2  UNL d   1      -1.811  -0.198   1.828  0.00  0.00    -0.005 A 
ATOM      4  C3  UNL d   1      -1.322   0.992   1.290  0.00  0.00     0.006 A 
ATOM      5  C4  UNL d   1      -0.612   0.981   0.089  0.00  0.00    -0.005 A 
ATOM      6  C5  UNL d   1      -0.384  -0.224  -0.584  0.00  0.00    -0.074 A 
ATOM      7  C6  UNL d   1       0.386  -0.255  -1.871  0.00  0.00     0.077 C 
ATOM      8  C7  UNL d   1      -0.873  -1.416  -0.034  0.00  0.00    -0.001 A 
ENDROOT
TORSDOF 0
ENDMDL
