MODEL 1
REMARK minimizedAffinity -0.85501647
REMARK minimizedRMSD -1
REMARK  0 active torsions:
REMARK  status: ('A' for Active; 'I' for Inactive)
ROOT
ATOM      1  C   UNL d   1      -1.127  -3.047  -0.017  0.00  0.00     0.077 C 
ATOM      2  C1  UNL d   1      -1.334  -1.607   0.346  0.00  0.00    -0.074 A 
ATOM      3  C2  UNL d   1      -0.576  -0.597  -0.257  0.00  0.00    -0.005 A 
ATOM      4  C3  UNL d   1      -0.786   0.738   0.085  0.00  0.00     0.006 A 
ATOM      5  C4  UNL d   1      -1.754   1.078   1.031  0.00  0.00    -0.005 A 
ATOM      6  C5  UNL d   1      -2.521   0.082   1.644  0.00  0.00    -0.074 A 
ATOM      7  C6  UNL d   1      -3.572   0.431   2.656  0.00  0.00     0.077 C 
ATOM      8  C7  UNL d   1      -2.309  -1.257   1.290  0.00  0.00    -0.001 A 
ENDROOT
TORSDOF 0
ENDMDL
