MODEL 1
REMARK minimizedAffinity -1.39612985
REMARK minimizedRMSD -1
REMARK  0 active torsions:
REMARK  status: ('A' for Active; 'I' for Inactive)
ROOT
ATOM      1  C   UNL d   1       0.133  -0.240  -2.556  0.00  0.00     0.077 C 
ATOM      2  C1  UNL d   1      -0.235   0.273  -1.196  0.00  0.00    -0.074 A 
ATOM      3  C2  UNL d   1       0.493   1.305  -0.595  0.00  0.00    -0.005 A 
ATOM      4  C3  UNL d   1       0.133   1.778   0.666  0.00  0.00     0.006 A 
ATOM      5  C4  UNL d   1      -0.957   1.225   1.339  0.00  0.00    -0.005 A 
ATOM      6  C5  UNL d   1      -1.698   0.193   0.754  0.00  0.00    -0.074 A 
ATOM      7  C6  UNL d   1      -2.878  -0.406   1.459  0.00  0.00     0.077 C 
ATOM      8  C7  UNL d   1      -1.334  -0.272  -0.517  0.00  0.00    -0.001 A 
ENDROOT
TORSDOF 0
ENDMDL
