MODEL 1
REMARK minimizedAffinity -4.92357588
REMARK minimizedRMSD -1
REMARK  0 active torsions:
REMARK  status: ('A' for Active; 'I' for Inactive)
ROOT
ATOM      1  C   UNL d   1       0.146  -2.282  -3.241  0.00  0.00     0.077 C 
ATOM      2  C1  UNL d   1      -0.018  -1.913  -1.797  0.00  0.00    -0.074 A 
ATOM      3  C2  UNL d   1      -0.329  -2.883  -0.838  0.00  0.00    -0.005 A 
ATOM      4  C3  UNL d   1      -0.468  -2.526   0.504  0.00  0.00     0.006 A 
ATOM      5  C4  UNL d   1      -0.298  -1.198   0.899  0.00  0.00    -0.005 A 
ATOM      6  C5  UNL d   1       0.014  -0.216  -0.046  0.00  0.00    -0.074 A 
ATOM      7  C6  UNL d   1       0.210   1.214   0.364  0.00  0.00     0.077 C 
ATOM      8  C7  UNL d   1       0.159  -0.583  -1.390  0.00  0.00    -0.001 A 
ENDROOT
TORSDOF 0
ENDMDL
