MODEL 1
REMARK minimizedAffinity -4.71707058
REMARK minimizedRMSD -1
REMARK  0 active torsions:
REMARK  status: ('A' for Active; 'I' for Inactive)
ROOT
ATOM      1  C   UNL d   1      -0.400   1.734   0.238  0.00  0.00     0.077 C 
ATOM      2  C1  UNL d   1      -0.524   0.250   0.413  0.00  0.00    -0.074 A 
ATOM      3  C2  UNL d   1      -1.225  -0.290   1.496  0.00  0.00    -0.005 A 
ATOM      4  C3  UNL d   1      -1.340  -1.673   1.640  0.00  0.00     0.006 A 
ATOM      5  C4  UNL d   1      -0.756  -2.528   0.705  0.00  0.00    -0.005 A 
ATOM      6  C5  UNL d   1      -0.053  -2.006  -0.385  0.00  0.00    -0.074 A 
ATOM      7  C6  UNL d   1       0.573  -2.911  -1.405  0.00  0.00     0.077 C 
ATOM      8  C7  UNL d   1       0.053  -0.616  -0.527  0.00  0.00    -0.001 A 
ENDROOT
TORSDOF 0
ENDMDL
