MODEL 1
REMARK minimizedAffinity -3.77504945
REMARK minimizedRMSD -1
REMARK  0 active torsions:
REMARK  status: ('A' for Active; 'I' for Inactive)
ROOT
ATOM      1  C   UNL d   1      -0.244   1.813  -1.236  0.00  0.00     0.077 C 
ATOM      2  C1  UNL d   1       0.595   2.476  -0.184  0.00  0.00    -0.074 A 
ATOM      3  C2  UNL d   1       1.980   2.592  -0.337  0.00  0.00    -0.005 A 
ATOM      4  C3  UNL d   1       2.746   3.219   0.645  0.00  0.00     0.006 A 
ATOM      5  C4  UNL d   1       2.136   3.735   1.789  0.00  0.00    -0.005 A 
ATOM      6  C5  UNL d   1       0.752   3.629   1.959  0.00  0.00    -0.074 A 
ATOM      7  C6  UNL d   1       0.079   4.187   3.178  0.00  0.00     0.077 C 
ATOM      8  C7  UNL d   1      -0.012   3.004   0.964  0.00  0.00    -0.001 A 
ENDROOT
TORSDOF 0
ENDMDL
