MODEL 1
REMARK minimizedAffinity 4.67181921
REMARK minimizedRMSD -1
REMARK  2 active torsions:
REMARK  status: ('A' for Active; 'I' for Inactive)
REMARK    1  A    between atoms: C1_2  and  C2_3 
REMARK    2  A    between atoms: C2_3  and  C3_4 
ROOT
ATOM      1  C3  UNL d   1       1.425   0.056   1.697  0.00  0.00    -0.075 A 
ATOM      2  C4  UNL d   1       1.323  -1.281   1.286  0.00  0.00     0.002 A 
ATOM      3  C5  UNL d   1       0.153  -2.005   1.515  0.00  0.00     0.002 A 
ATOM      4  C6  UNL d   1      -0.924  -1.407   2.166  0.00  0.00    -0.004 A 
ATOM      5  C7  UNL d   1      -0.828  -0.084   2.593  0.00  0.00     0.002 A 
ATOM      6  C8  UNL d   1       0.341   0.644   2.361  0.00  0.00     0.002 A 
ENDROOT
BRANCH   1   7
ATOM      7  C2  UNL d   1       2.678   0.854   1.426  0.00  0.00     0.056 C 
BRANCH   7   8
ATOM      8  C1  UNL d   1       2.500   1.958   0.378  0.00  0.00     0.007 C 
ATOM      9  C   UNL d   1       2.358   1.422  -1.040  0.00  0.00     0.009 C 
ENDBRANCH   7   8
ENDBRANCH   1   7
TORSDOF 2
ENDMDL
