MODEL 1
REMARK minimizedAffinity -2.16149092
REMARK minimizedRMSD -1
REMARK  2 active torsions:
REMARK  status: ('A' for Active; 'I' for Inactive)
REMARK    1  A    between atoms: C1_2  and  C2_3 
REMARK    2  A    between atoms: C2_3  and  C3_4 
ROOT
ATOM      1  C3  UNL d   1       4.982   3.541   5.995  0.00  0.00    -0.075 A 
ATOM      2  C4  UNL d   1       3.580   3.572   5.999  0.00  0.00     0.002 A 
ATOM      3  C5  UNL d   1       2.898   4.789   5.973  0.00  0.00     0.002 A 
ATOM      4  C6  UNL d   1       3.607   5.988   5.955  0.00  0.00    -0.004 A 
ATOM      5  C7  UNL d   1       5.000   5.969   5.968  0.00  0.00     0.002 A 
ATOM      6  C8  UNL d   1       5.685   4.753   5.989  0.00  0.00     0.002 A 
ENDROOT
BRANCH   1   7
ATOM      7  C2  UNL d   1       5.726   2.227   5.993  0.00  0.00     0.056 C 
BRANCH   7   8
ATOM      8  C1  UNL d   1       5.020   1.112   5.214  0.00  0.00     0.007 C 
ATOM      9  C   UNL d   1       3.896   0.449   6.000  0.00  0.00     0.009 C 
ENDBRANCH   7   8
ENDBRANCH   1   7
TORSDOF 2
ENDMDL
