MODEL 1
REMARK minimizedAffinity 16.4192467
REMARK minimizedRMSD -1
REMARK  2 active torsions:
REMARK  status: ('A' for Active; 'I' for Inactive)
REMARK    1  A    between atoms: C1_2  and  C2_3 
REMARK    2  A    between atoms: C2_3  and  C3_4 
ROOT
ATOM      1  C3  UNL d   1       4.843   4.850   2.738  0.00  0.00    -0.075 A 
ATOM      2  C4  UNL d   1       5.427   5.632   1.731  0.00  0.00     0.002 A 
ATOM      3  C5  UNL d   1       5.268   5.292   0.388  0.00  0.00     0.002 A 
ATOM      4  C6  UNL d   1       4.534   4.162   0.034  0.00  0.00    -0.004 A 
ATOM      5  C7  UNL d   1       3.963   3.368   1.026  0.00  0.00     0.002 A 
ATOM      6  C8  UNL d   1       4.117   3.708   2.371  0.00  0.00     0.002 A 
ENDROOT
BRANCH   1   7
ATOM      7  C2  UNL d   1       4.986   5.229   4.192  0.00  0.00     0.056 C 
BRANCH   7   8
ATOM      8  C1  UNL d   1       4.570   4.124   5.169  0.00  0.00     0.007 C 
ATOM      9  C   UNL d   1       3.336   4.479   5.987  0.00  0.00     0.009 C 
ENDBRANCH   7   8
ENDBRANCH   1   7
TORSDOF 2
ENDMDL
