MODEL 1
REMARK minimizedAffinity 11.6993341
REMARK minimizedRMSD -1
REMARK  2 active torsions:
REMARK  status: ('A' for Active; 'I' for Inactive)
REMARK    1  A    between atoms: C1_2  and  C2_3 
REMARK    2  A    between atoms: C2_3  and  C3_4 
ROOT
ATOM      1  C3  UNL d   1       4.067   1.024  -2.998  0.00  0.00    -0.075 A 
ATOM      2  C4  UNL d   1       4.066  -0.378  -2.970  0.00  0.00     0.002 A 
ATOM      3  C5  UNL d   1       5.030  -1.102  -3.673  0.00  0.00     0.002 A 
ATOM      4  C6  UNL d   1       5.999  -0.435  -4.419  0.00  0.00    -0.004 A 
ATOM      5  C7  UNL d   1       5.999   0.958  -4.467  0.00  0.00     0.002 A 
ATOM      6  C8  UNL d   1       5.039   1.684  -3.762  0.00  0.00     0.002 A 
ENDROOT
BRANCH   1   7
ATOM      7  C2  UNL d   1       3.044   1.813  -2.216  0.00  0.00     0.056 C 
BRANCH   7   8
ATOM      8  C1  UNL d   1       3.295   1.833  -0.704  0.00  0.00     0.007 C 
ATOM      9  C   UNL d   1       4.002   3.096  -0.230  0.00  0.00     0.009 C 
ENDBRANCH   7   8
ENDBRANCH   1   7
TORSDOF 2
ENDMDL
