MODEL 1
REMARK minimizedAffinity 7.81188583
REMARK minimizedRMSD -1
REMARK  2 active torsions:
REMARK  status: ('A' for Active; 'I' for Inactive)
REMARK    1  A    between atoms: C1_2  and  C2_3 
REMARK    2  A    between atoms: C2_3  and  C3_4 
ROOT
ATOM      1  C3  UNL d   1      -4.368   3.761  -5.255  0.00  0.00    -0.075 A 
ATOM      2  C4  UNL d   1      -3.556   4.478  -4.365  0.00  0.00     0.002 A 
ATOM      3  C5  UNL d   1      -2.267   4.034  -4.068  0.00  0.00     0.002 A 
ATOM      4  C6  UNL d   1      -1.779   2.865  -4.647  0.00  0.00    -0.004 A 
ATOM      5  C7  UNL d   1      -2.584   2.136  -5.520  0.00  0.00     0.002 A 
ATOM      6  C8  UNL d   1      -3.872   2.580  -5.822  0.00  0.00     0.002 A 
ENDROOT
BRANCH   1   7
ATOM      7  C2  UNL d   1      -5.753   4.253  -5.603  0.00  0.00     0.056 C 
BRANCH   7   8
ATOM      8  C1  UNL d   1      -5.998   5.725  -5.257  0.00  0.00     0.007 C 
ATOM      9  C   UNL d   1      -5.999   5.997  -3.759  0.00  0.00     0.009 C 
ENDBRANCH   7   8
ENDBRANCH   1   7
TORSDOF 2
ENDMDL
