MODEL 1
REMARK minimizedAffinity 12.9640999
REMARK minimizedRMSD -1
REMARK  2 active torsions:
REMARK  status: ('A' for Active; 'I' for Inactive)
REMARK    1  A    between atoms: C1_2  and  C2_3 
REMARK    2  A    between atoms: C2_3  and  C3_4 
ROOT
ATOM      1  C3  UNL d   1       3.544   1.408  -1.388  0.00  0.00    -0.075 A 
ATOM      2  C4  UNL d   1       2.826   0.218  -1.199  0.00  0.00     0.002 A 
ATOM      3  C5  UNL d   1       3.098  -0.905  -1.981  0.00  0.00     0.002 A 
ATOM      4  C6  UNL d   1       4.082  -0.851  -2.965  0.00  0.00    -0.004 A 
ATOM      5  C7  UNL d   1       4.791   0.330  -3.172  0.00  0.00     0.002 A 
ATOM      6  C8  UNL d   1       4.524   1.454  -2.388  0.00  0.00     0.002 A 
ENDROOT
BRANCH   1   7
ATOM      7  C2  UNL d   1       3.275   2.618  -0.526  0.00  0.00     0.056 C 
BRANCH   7   8
ATOM      8  C1  UNL d   1       4.437   2.996   0.399  0.00  0.00     0.007 C 
ATOM      9  C   UNL d   1       4.974   4.399   0.146  0.00  0.00     0.009 C 
ENDBRANCH   7   8
ENDBRANCH   1   7
TORSDOF 2
ENDMDL
