MODEL 1
REMARK minimizedAffinity 14.319665
REMARK minimizedRMSD -1
REMARK  2 active torsions:
REMARK  status: ('A' for Active; 'I' for Inactive)
REMARK    1  A    between atoms: C1_2  and  C2_3 
REMARK    2  A    between atoms: C2_3  and  C3_4 
ROOT
ATOM      1  C3  UNL d   1       5.217   2.938   1.994  0.00  0.00    -0.075 A 
ATOM      2  C4  UNL d   1       5.261   2.327   0.733  0.00  0.00     0.002 A 
ATOM      3  C5  UNL d   1       5.353   3.099  -0.426  0.00  0.00     0.002 A 
ATOM      4  C6  UNL d   1       5.391   4.489  -0.339  0.00  0.00    -0.004 A 
ATOM      5  C7  UNL d   1       5.331   5.107   0.908  0.00  0.00     0.002 A 
ATOM      6  C8  UNL d   1       5.244   4.337   2.069  0.00  0.00     0.002 A 
ENDROOT
BRANCH   1   7
ATOM      7  C2  UNL d   1       5.147   2.108   3.253  0.00  0.00     0.056 C 
BRANCH   7   8
ATOM      8  C1  UNL d   1       5.516   2.875   4.527  0.00  0.00     0.007 C 
ATOM      9  C   UNL d   1       4.353   3.016   5.500  0.00  0.00     0.009 C 
ENDBRANCH   7   8
ENDBRANCH   1   7
TORSDOF 2
ENDMDL
