MODEL 1
REMARK minimizedAffinity 5.27164936
REMARK minimizedRMSD -1
REMARK  2 active torsions:
REMARK  status: ('A' for Active; 'I' for Inactive)
REMARK    1  A    between atoms: C1_2  and  C2_3 
REMARK    2  A    between atoms: C2_3  and  C3_4 
ROOT
ATOM      1  C3  UNL d   1      -3.304  -1.850   0.736  0.00  0.00    -0.075 A 
ATOM      2  C4  UNL d   1      -2.453  -1.502   1.795  0.00  0.00     0.002 A 
ATOM      3  C5  UNL d   1      -1.133  -1.125   1.549  0.00  0.00     0.002 A 
ATOM      4  C6  UNL d   1      -0.643  -1.102   0.244  0.00  0.00    -0.004 A 
ATOM      5  C7  UNL d   1      -1.475  -1.462  -0.814  0.00  0.00     0.002 A 
ATOM      6  C8  UNL d   1      -2.798  -1.835  -0.571  0.00  0.00     0.002 A 
ENDROOT
BRANCH   1   7
ATOM      7  C2  UNL d   1      -4.743  -2.230   0.993  0.00  0.00     0.056 C 
BRANCH   7   8
ATOM      8  C1  UNL d   1      -4.912  -3.512   1.815  0.00  0.00     0.007 C 
ATOM      9  C   UNL d   1      -5.999  -4.432   1.274  0.00  0.00     0.009 C 
ENDBRANCH   7   8
ENDBRANCH   1   7
TORSDOF 2
ENDMDL
