MODEL 1
REMARK minimizedAffinity 15.9804096
REMARK minimizedRMSD -1
REMARK  2 active torsions:
REMARK  status: ('A' for Active; 'I' for Inactive)
REMARK    1  A    between atoms: C1_2  and  C2_3 
REMARK    2  A    between atoms: C2_3  and  C3_4 
ROOT
ATOM      1  C3  UNL d   1       0.629  -0.228  -1.340  0.00  0.00    -0.075 A 
ATOM      2  C4  UNL d   1       0.119  -0.681  -2.565  0.00  0.00     0.002 A 
ATOM      3  C5  UNL d   1      -1.181  -1.180  -2.650  0.00  0.00     0.002 A 
ATOM      4  C6  UNL d   1      -1.983  -1.241  -1.512  0.00  0.00    -0.004 A 
ATOM      5  C7  UNL d   1      -1.481  -0.808  -0.287  0.00  0.00     0.002 A 
ATOM      6  C8  UNL d   1      -0.182  -0.305  -0.199  0.00  0.00     0.002 A 
ENDROOT
BRANCH   1   7
ATOM      7  C2  UNL d   1       2.025   0.340  -1.247  0.00  0.00     0.056 C 
BRANCH   7   8
ATOM      8  C1  UNL d   1       2.121   1.823  -1.619  0.00  0.00     0.007 C 
ATOM      9  C   UNL d   1       2.742   2.678  -0.522  0.00  0.00     0.009 C 
ENDBRANCH   7   8
ENDBRANCH   1   7
TORSDOF 2
ENDMDL
