MODEL 1
REMARK minimizedAffinity 14.1667633
REMARK minimizedRMSD -1
REMARK  2 active torsions:
REMARK  status: ('A' for Active; 'I' for Inactive)
REMARK    1  A    between atoms: C1_2  and  C2_3 
REMARK    2  A    between atoms: C2_3  and  C3_4 
ROOT
ATOM      1  C3  UNL d   1      -1.659  -1.452  -2.035  0.00  0.00    -0.075 A 
ATOM      2  C4  UNL d   1      -2.681  -0.649  -1.511  0.00  0.00     0.002 A 
ATOM      3  C5  UNL d   1      -2.932  -0.627  -0.139  0.00  0.00     0.002 A 
ATOM      4  C6  UNL d   1      -2.173  -1.415   0.724  0.00  0.00    -0.004 A 
ATOM      5  C7  UNL d   1      -1.165  -2.229   0.212  0.00  0.00     0.002 A 
ATOM      6  C8  UNL d   1      -0.909  -2.249  -1.160  0.00  0.00     0.002 A 
ENDROOT
BRANCH   1   7
ATOM      7  C2  UNL d   1      -1.363  -1.457  -3.516  0.00  0.00     0.056 C 
BRANCH   7   8
ATOM      8  C1  UNL d   1      -2.007  -2.621  -4.277  0.00  0.00     0.007 C 
ATOM      9  C   UNL d   1      -3.493  -2.418  -4.538  0.00  0.00     0.009 C 
ENDBRANCH   7   8
ENDBRANCH   1   7
TORSDOF 2
ENDMDL
