MODEL 1
REMARK minimizedAffinity 9.69587803
REMARK minimizedRMSD -1
REMARK  2 active torsions:
REMARK  status: ('A' for Active; 'I' for Inactive)
REMARK    1  A    between atoms: C1_2  and  C2_3 
REMARK    2  A    between atoms: C2_3  and  C3_4 
ROOT
ATOM      1  C3  UNL d   1      -2.579  -0.526   5.689  0.00  0.00    -0.075 A 
ATOM      2  C4  UNL d   1      -3.751  -1.232   5.997  0.00  0.00     0.002 A 
ATOM      3  C5  UNL d   1      -3.759  -2.627   5.992  0.00  0.00     0.002 A 
ATOM      4  C6  UNL d   1      -2.602  -3.333   5.669  0.00  0.00    -0.004 A 
ATOM      5  C7  UNL d   1      -1.437  -2.641   5.344  0.00  0.00     0.002 A 
ATOM      6  C8  UNL d   1      -1.424  -1.245   5.353  0.00  0.00     0.002 A 
ENDROOT
BRANCH   1   7
ATOM      7  C2  UNL d   1      -2.555   0.984   5.722  0.00  0.00     0.056 C 
BRANCH   7   8
ATOM      8  C1  UNL d   1      -3.858   1.638   5.250  0.00  0.00     0.007 C 
ATOM      9  C   UNL d   1      -4.191   2.921   5.999  0.00  0.00     0.009 C 
ENDBRANCH   7   8
ENDBRANCH   1   7
TORSDOF 2
ENDMDL
