MODEL 1
REMARK minimizedAffinity 8.40054321
REMARK minimizedRMSD -1
REMARK  2 active torsions:
REMARK  status: ('A' for Active; 'I' for Inactive)
REMARK    1  A    between atoms: C1_2  and  C2_3 
REMARK    2  A    between atoms: C2_3  and  C3_4 
ROOT
ATOM      1  C3  UNL d   1      -3.036  -0.438   5.209  0.00  0.00    -0.075 A 
ATOM      2  C4  UNL d   1      -1.708  -0.807   5.469  0.00  0.00     0.002 A 
ATOM      3  C5  UNL d   1      -1.397  -2.114   5.845  0.00  0.00     0.002 A 
ATOM      4  C6  UNL d   1      -2.408  -3.064   5.976  0.00  0.00    -0.004 A 
ATOM      5  C7  UNL d   1      -3.733  -2.704   5.737  0.00  0.00     0.002 A 
ATOM      6  C8  UNL d   1      -4.046  -1.398   5.356  0.00  0.00     0.002 A 
ENDROOT
BRANCH   1   7
ATOM      7  C2  UNL d   1      -3.376   0.967   4.773  0.00  0.00     0.056 C 
BRANCH   7   8
ATOM      8  C1  UNL d   1      -3.508   1.964   5.929  0.00  0.00     0.007 C 
ATOM      9  C   UNL d   1      -4.870   2.644   5.983  0.00  0.00     0.009 C 
ENDBRANCH   7   8
ENDBRANCH   1   7
TORSDOF 2
ENDMDL
