MODEL 1
REMARK minimizedAffinity 9.47657204
REMARK minimizedRMSD -1
REMARK  0 active torsions:
REMARK  status: ('A' for Active; 'I' for Inactive)
ROOT
ATOM      1  C   UNL d   1       4.066   0.223  -1.078  0.00  0.00     0.124 A 
ATOM      2  C1  UNL d   1       3.006   0.526  -0.235  0.00  0.00     0.062 A 
ATOM      3  C2  UNL d   1       1.963  -0.380  -0.067  0.00  0.00     0.162 A 
ATOM      4  C3  UNL d   1       1.976  -1.600  -0.743  0.00  0.00    -0.034 A 
ATOM      5  C4  UNL d   1       3.044  -1.898  -1.590  0.00  0.00     0.162 A 
ATOM      6  C5  UNL d   1       4.084  -0.989  -1.755  0.00  0.00     0.062 A 
ATOM      7  F   UNL d   1       5.107  -1.284  -2.570  0.00  0.00    -0.097 F 
ATOM      8  F1  UNL d   1       3.088  -3.062  -2.256  0.00  0.00    -0.096 F 
ATOM      9  I   UNL d   1       0.418  -2.958  -0.495  0.00  0.00    -0.060 I 
ATOM     10  F2  UNL d   1       0.952  -0.060   0.754  0.00  0.00    -0.096 F 
ATOM     11  F3  UNL d   1       2.986   1.697   0.419  0.00  0.00    -0.097 F 
ATOM     12  F4  UNL d   1       5.068   1.097  -1.239  0.00  0.00    -0.092 F 
ENDROOT
TORSDOF 0
ENDMDL
