MODEL 1
REMARK minimizedAffinity 2.95239019
REMARK minimizedRMSD -1
REMARK  0 active torsions:
REMARK  status: ('A' for Active; 'I' for Inactive)
ROOT
ATOM      1  C   UNL d   1       3.700  -1.640  -1.493  0.00  0.00     0.124 A 
ATOM      2  C1  UNL d   1       4.032  -0.327  -1.189  0.00  0.00     0.062 A 
ATOM      3  C2  UNL d   1       3.351   0.352  -0.183  0.00  0.00     0.162 A 
ATOM      4  C3  UNL d   1       2.331  -0.282   0.528  0.00  0.00    -0.034 A 
ATOM      5  C4  UNL d   1       2.002  -1.602   0.215  0.00  0.00     0.162 A 
ATOM      6  C5  UNL d   1       2.686  -2.276  -0.791  0.00  0.00     0.062 A 
ATOM      7  F   UNL d   1       2.364  -3.545  -1.084  0.00  0.00    -0.097 F 
ATOM      8  F1  UNL d   1       1.027  -2.241   0.878  0.00  0.00    -0.096 F 
ATOM      9  I   UNL d   1       1.310   0.730   2.033  0.00  0.00    -0.060 I 
ATOM     10  F2  UNL d   1       3.693   1.620   0.090  0.00  0.00    -0.096 F 
ATOM     11  F3  UNL d   1       5.011   0.290  -1.866  0.00  0.00    -0.097 F 
ATOM     12  F4  UNL d   1       4.356  -2.291  -2.462  0.00  0.00    -0.092 F 
ENDROOT
TORSDOF 0
ENDMDL
