MODEL 1
REMARK minimizedAffinity 8.81828785
REMARK minimizedRMSD -1
REMARK  0 active torsions:
REMARK  status: ('A' for Active; 'I' for Inactive)
ROOT
ATOM      1  C   UNL d   1      -0.281   0.123   3.870  0.00  0.00     0.124 A 
ATOM      2  C1  UNL d   1      -0.472   0.755   2.650  0.00  0.00     0.062 A 
ATOM      3  C2  UNL d   1       0.268   0.367   1.537  0.00  0.00     0.162 A 
ATOM      4  C3  UNL d   1       1.205  -0.661   1.639  0.00  0.00    -0.034 A 
ATOM      5  C4  UNL d   1       1.393  -1.292   2.870  0.00  0.00     0.162 A 
ATOM      6  C5  UNL d   1       0.651  -0.900   3.979  0.00  0.00     0.062 A 
ATOM      7  F   UNL d   1       0.836  -1.512   5.158  0.00  0.00    -0.097 F 
ATOM      8  F1  UNL d   1       2.286  -2.283   3.003  0.00  0.00    -0.096 F 
ATOM      9  I   UNL d   1       2.314  -1.244  -0.023  0.00  0.00    -0.060 I 
ATOM     10  F2  UNL d   1       0.063   0.996   0.370  0.00  0.00    -0.096 F 
ATOM     11  F3  UNL d   1      -1.371   1.744   2.542  0.00  0.00    -0.097 F 
ATOM     12  F4  UNL d   1      -0.994   0.499   4.940  0.00  0.00    -0.092 F 
ENDROOT
TORSDOF 0
ENDMDL
