MODEL 1
REMARK minimizedAffinity 7.93380833
REMARK minimizedRMSD -1
REMARK  0 active torsions:
REMARK  status: ('A' for Active; 'I' for Inactive)
ROOT
ATOM      1  C   UNL d   1      -0.896   1.940   2.229  0.00  0.00     0.124 A 
ATOM      2  C1  UNL d   1       0.000   1.138   2.921  0.00  0.00     0.062 A 
ATOM      3  C2  UNL d   1       0.778   0.206   2.240  0.00  0.00     0.162 A 
ATOM      4  C3  UNL d   1       0.663   0.072   0.856  0.00  0.00    -0.034 A 
ATOM      5  C4  UNL d   1      -0.241   0.881   0.166  0.00  0.00     0.162 A 
ATOM      6  C5  UNL d   1      -1.016   1.811   0.852  0.00  0.00     0.062 A 
ATOM      7  F   UNL d   1      -1.881   2.585   0.181  0.00  0.00    -0.097 F 
ATOM      8  F1  UNL d   1      -0.377   0.778  -1.164  0.00  0.00    -0.096 F 
ATOM      9  I   UNL d   1       1.823  -1.320  -0.167  0.00  0.00    -0.060 I 
ATOM     10  F2  UNL d   1       1.635  -0.556   2.935  0.00  0.00    -0.096 F 
ATOM     11  F3  UNL d   1       0.117   1.260   4.251  0.00  0.00    -0.097 F 
ATOM     12  F4  UNL d   1      -1.643   2.835   2.887  0.00  0.00    -0.092 F 
ENDROOT
TORSDOF 0
ENDMDL
