MODEL 1
REMARK minimizedAffinity 6.89200544
REMARK minimizedRMSD -1
REMARK  2 active torsions:
REMARK  status: ('A' for Active; 'I' for Inactive)
REMARK    1  A    between atoms: C1_2  and  C2_3 
REMARK    2  A    between atoms: C2_3  and  C3_4 
ROOT
ATOM      1  C3  UNL d   1      -1.659  -2.596  -3.555  0.00  0.00    -0.075 A 
ATOM      2  C4  UNL d   1      -1.060  -2.139  -4.737  0.00  0.00     0.002 A 
ATOM      3  C5  UNL d   1      -1.315  -2.776  -5.952  0.00  0.00     0.002 A 
ATOM      4  C6  UNL d   1      -2.163  -3.881  -5.999  0.00  0.00    -0.004 A 
ATOM      5  C7  UNL d   1      -2.750  -4.353  -4.828  0.00  0.00     0.002 A 
ATOM      6  C8  UNL d   1      -2.500  -3.715  -3.611  0.00  0.00     0.002 A 
ENDROOT
BRANCH   1   7
ATOM      7  C2  UNL d   1      -1.410  -1.894  -2.241  0.00  0.00     0.056 C 
BRANCH   7   8
ATOM      8  C1  UNL d   1      -0.607  -2.722  -1.233  0.00  0.00     0.007 C 
ATOM      9  C   UNL d   1      -0.719  -2.204   0.194  0.00  0.00     0.009 C 
ENDBRANCH   7   8
ENDBRANCH   1   7
TORSDOF 2
ENDMDL
