MODEL 1
REMARK minimizedAffinity 11.2530575
REMARK minimizedRMSD -1
REMARK  2 active torsions:
REMARK  status: ('A' for Active; 'I' for Inactive)
REMARK    1  A    between atoms: C1_2  and  C2_3 
REMARK    2  A    between atoms: C2_3  and  C3_4 
ROOT
ATOM      1  C3  UNL d   1      -2.186  -2.599  -3.272  0.00  0.00    -0.075 A 
ATOM      2  C4  UNL d   1      -2.931  -3.714  -3.681  0.00  0.00     0.002 A 
ATOM      3  C5  UNL d   1      -3.089  -4.002  -5.037  0.00  0.00     0.002 A 
ATOM      4  C6  UNL d   1      -2.513  -3.175  -6.000  0.00  0.00    -0.004 A 
ATOM      5  C7  UNL d   1      -1.785  -2.055  -5.605  0.00  0.00     0.002 A 
ATOM      6  C8  UNL d   1      -1.622  -1.767  -4.248  0.00  0.00     0.002 A 
ENDROOT
BRANCH   1   7
ATOM      7  C2  UNL d   1      -1.987  -2.299  -1.806  0.00  0.00     0.056 C 
BRANCH   7   8
ATOM      8  C1  UNL d   1      -0.822  -3.062  -1.165  0.00  0.00     0.007 C 
ATOM      9  C   UNL d   1      -0.670  -2.785   0.324  0.00  0.00     0.009 C 
ENDBRANCH   7   8
ENDBRANCH   1   7
TORSDOF 2
ENDMDL
