MODEL 1
REMARK minimizedAffinity 6.50611496
REMARK minimizedRMSD -1
REMARK  2 active torsions:
REMARK  status: ('A' for Active; 'I' for Inactive)
REMARK    1  A    between atoms: C1_2  and  C2_3 
REMARK    2  A    between atoms: C2_3  and  C3_4 
ROOT
ATOM      1  C3  UNL d   1       3.281   2.731  -5.492  0.00  0.00    -0.075 A 
ATOM      2  C4  UNL d   1       3.869   3.983  -5.721  0.00  0.00     0.002 A 
ATOM      3  C5  UNL d   1       3.076   5.104  -5.968  0.00  0.00     0.002 A 
ATOM      4  C6  UNL d   1       1.688   4.986  -5.998  0.00  0.00    -0.004 A 
ATOM      5  C7  UNL d   1       1.094   3.744  -5.788  0.00  0.00     0.002 A 
ATOM      6  C8  UNL d   1       1.885   2.622  -5.537  0.00  0.00     0.002 A 
ENDROOT
BRANCH   1   7
ATOM      7  C2  UNL d   1       4.133   1.520  -5.195  0.00  0.00     0.056 C 
BRANCH   7   8
ATOM      8  C1  UNL d   1       4.149   1.116  -3.717  0.00  0.00     0.007 C 
ATOM      9  C   UNL d   1       4.210   2.307  -2.770  0.00  0.00     0.009 C 
ENDBRANCH   7   8
ENDBRANCH   1   7
TORSDOF 2
ENDMDL
