MODEL 1
REMARK minimizedAffinity 8.87260532
REMARK minimizedRMSD -1
REMARK  2 active torsions:
REMARK  status: ('A' for Active; 'I' for Inactive)
REMARK    1  A    between atoms: C1_2  and  C2_3 
REMARK    2  A    between atoms: C2_3  and  C3_4 
ROOT
ATOM      1  C3  UNL d   1       3.577   2.062  -5.982  0.00  0.00    -0.075 A 
ATOM      2  C4  UNL d   1       4.846   2.657  -5.971  0.00  0.00     0.002 A 
ATOM      3  C5  UNL d   1       5.998   1.870  -5.983  0.00  0.00     0.002 A 
ATOM      4  C6  UNL d   1       5.896   0.481  -5.995  0.00  0.00    -0.004 A 
ATOM      5  C7  UNL d   1       4.639  -0.122  -5.990  0.00  0.00     0.002 A 
ATOM      6  C8  UNL d   1       3.485   0.664  -5.982  0.00  0.00     0.002 A 
ENDROOT
BRANCH   1   7
ATOM      7  C2  UNL d   1       2.326   2.909  -5.999  0.00  0.00     0.056 C 
BRANCH   7   8
ATOM      8  C1  UNL d   1       1.554   2.907  -4.676  0.00  0.00     0.007 C 
ATOM      9  C   UNL d   1       2.016   3.991  -3.710  0.00  0.00     0.009 C 
ENDBRANCH   7   8
ENDBRANCH   1   7
TORSDOF 2
ENDMDL
