MODEL 1
REMARK minimizedAffinity 4.10644674
REMARK minimizedRMSD -1
REMARK  2 active torsions:
REMARK  status: ('A' for Active; 'I' for Inactive)
REMARK    1  A    between atoms: C1_2  and  C2_3 
REMARK    2  A    between atoms: C2_3  and  C3_4 
ROOT
ATOM      1  C3  UNL d   1       2.629   3.984  -3.561  0.00  0.00    -0.075 A 
ATOM      2  C4  UNL d   1       2.455   3.226  -4.728  0.00  0.00     0.002 A 
ATOM      3  C5  UNL d   1       2.156   3.849  -5.940  0.00  0.00     0.002 A 
ATOM      4  C6  UNL d   1       2.018   5.234  -5.999  0.00  0.00    -0.004 A 
ATOM      5  C7  UNL d   1       2.173   5.996  -4.842  0.00  0.00     0.002 A 
ATOM      6  C8  UNL d   1       2.476   5.375  -3.629  0.00  0.00     0.002 A 
ENDROOT
BRANCH   1   7
ATOM      7  C2  UNL d   1       2.981   3.318  -2.252  0.00  0.00     0.056 C 
BRANCH   7   8
ATOM      8  C1  UNL d   1       1.769   2.990  -1.373  0.00  0.00     0.007 C 
ATOM      9  C   UNL d   1       0.440   3.152  -2.099  0.00  0.00     0.009 C 
ENDBRANCH   7   8
ENDBRANCH   1   7
TORSDOF 2
ENDMDL
