MODEL 1
REMARK minimizedAffinity 9.53115177
REMARK minimizedRMSD -1
REMARK  2 active torsions:
REMARK  status: ('A' for Active; 'I' for Inactive)
REMARK    1  A    between atoms: C1_2  and  C2_3 
REMARK    2  A    between atoms: C2_3  and  C3_4 
ROOT
ATOM      1  C3  UNL d   1      -0.154  -0.224   2.992  0.00  0.00    -0.075 A 
ATOM      2  C4  UNL d   1      -1.267  -0.428   3.821  0.00  0.00     0.002 A 
ATOM      3  C5  UNL d   1      -2.142  -1.488   3.583  0.00  0.00     0.002 A 
ATOM      4  C6  UNL d   1      -1.924  -2.348   2.510  0.00  0.00    -0.004 A 
ATOM      5  C7  UNL d   1      -0.831  -2.145   1.670  0.00  0.00     0.002 A 
ATOM      6  C8  UNL d   1       0.049  -1.089   1.908  0.00  0.00     0.002 A 
ENDROOT
BRANCH   1   7
ATOM      7  C2  UNL d   1       0.814   0.903   3.262  0.00  0.00     0.056 C 
BRANCH   7   8
ATOM      8  C1  UNL d   1       1.342   1.588   1.997  0.00  0.00     0.007 C 
ATOM      9  C   UNL d   1       2.791   1.238   1.685  0.00  0.00     0.009 C 
ENDBRANCH   7   8
ENDBRANCH   1   7
TORSDOF 2
ENDMDL
