MODEL 1
REMARK minimizedAffinity -1.10354352
REMARK minimizedRMSD -1
REMARK  2 active torsions:
REMARK  status: ('A' for Active; 'I' for Inactive)
REMARK    1  A    between atoms: C1_2  and  C2_3 
REMARK    2  A    between atoms: C2_3  and  C3_4 
ROOT
ATOM      1  C3  UNL d   1       3.350   4.100  -5.953  0.00  0.00    -0.075 A 
ATOM      2  C4  UNL d   1       2.910   5.431  -5.983  0.00  0.00     0.002 A 
ATOM      3  C5  UNL d   1       1.547   5.726  -5.999  0.00  0.00     0.002 A 
ATOM      4  C6  UNL d   1       0.608   4.697  -5.996  0.00  0.00    -0.004 A 
ATOM      5  C7  UNL d   1       1.034   3.370  -5.983  0.00  0.00     0.002 A 
ATOM      6  C8  UNL d   1       2.398   3.072  -5.962  0.00  0.00     0.002 A 
ENDROOT
BRANCH   1   7
ATOM      7  C2  UNL d   1       4.824   3.774  -5.905  0.00  0.00     0.056 C 
BRANCH   7   8
ATOM      8  C1  UNL d   1       5.736   5.005  -5.946  0.00  0.00     0.007 C 
ATOM      9  C   UNL d   1       5.517   5.954  -4.776  0.00  0.00     0.009 C 
ENDBRANCH   7   8
ENDBRANCH   1   7
TORSDOF 2
ENDMDL
