MODEL 1
REMARK minimizedAffinity 0.66079706
REMARK minimizedRMSD -1
REMARK  2 active torsions:
REMARK  status: ('A' for Active; 'I' for Inactive)
REMARK    1  A    between atoms: C1_2  and  C2_3 
REMARK    2  A    between atoms: C2_3  and  C3_4 
ROOT
ATOM      1  C3  UNL d   1       3.280   4.643  -4.579  0.00  0.00    -0.075 A 
ATOM      2  C4  UNL d   1       2.204   5.539  -4.657  0.00  0.00     0.002 A 
ATOM      3  C5  UNL d   1       1.047   5.198  -5.357  0.00  0.00     0.002 A 
ATOM      4  C6  UNL d   1       0.955   3.963  -5.996  0.00  0.00    -0.004 A 
ATOM      5  C7  UNL d   1       2.024   3.072  -5.939  0.00  0.00     0.002 A 
ATOM      6  C8  UNL d   1       3.181   3.409  -5.235  0.00  0.00     0.002 A 
ENDROOT
BRANCH   1   7
ATOM      7  C2  UNL d   1       4.524   4.995  -3.798  0.00  0.00     0.056 C 
BRANCH   7   8
ATOM      8  C1  UNL d   1       5.501   5.901  -4.556  0.00  0.00     0.007 C 
ATOM      9  C   UNL d   1       5.927   5.331  -5.902  0.00  0.00     0.009 C 
ENDBRANCH   7   8
ENDBRANCH   1   7
TORSDOF 2
ENDMDL
