MODEL 1
REMARK minimizedAffinity 1.1268146
REMARK minimizedRMSD -1
REMARK  2 active torsions:
REMARK  status: ('A' for Active; 'I' for Inactive)
REMARK    1  A    between atoms: C1_2  and  C2_3 
REMARK    2  A    between atoms: C2_3  and  C3_4 
ROOT
ATOM      1  C3  UNL d   1       2.942   1.104   1.857  0.00  0.00    -0.075 A 
ATOM      2  C4  UNL d   1       4.115   0.422   2.213  0.00  0.00     0.002 A 
ATOM      3  C5  UNL d   1       5.367   0.973   1.935  0.00  0.00     0.002 A 
ATOM      4  C6  UNL d   1       5.462   2.204   1.291  0.00  0.00    -0.004 A 
ATOM      5  C7  UNL d   1       4.303   2.882   0.917  0.00  0.00     0.002 A 
ATOM      6  C8  UNL d   1       3.050   2.336   1.198  0.00  0.00     0.002 A 
ENDROOT
BRANCH   1   7
ATOM      7  C2  UNL d   1       1.585   0.527   2.181  0.00  0.00     0.056 C 
BRANCH   7   8
ATOM      8  C1  UNL d   1       0.843   1.268   3.298  0.00  0.00     0.007 C 
ATOM      9  C   UNL d   1       1.081   0.668   4.678  0.00  0.00     0.009 C 
ENDBRANCH   7   8
ENDBRANCH   1   7
TORSDOF 2
ENDMDL
