MODEL 1
REMARK minimizedAffinity -3.75804353
REMARK minimizedRMSD -1
REMARK  2 active torsions:
REMARK  status: ('A' for Active; 'I' for Inactive)
REMARK    1  A    between atoms: C1_2  and  C2_3 
REMARK    2  A    between atoms: C2_3  and  C3_4 
ROOT
ATOM      1  C3  UNL d   1       4.262   3.163  -5.305  0.00  0.00    -0.075 A 
ATOM      2  C4  UNL d   1       5.219   4.044  -5.830  0.00  0.00     0.002 A 
ATOM      3  C5  UNL d   1       4.918   5.396  -6.000  0.00  0.00     0.002 A 
ATOM      4  C6  UNL d   1       3.658   5.881  -5.657  0.00  0.00    -0.004 A 
ATOM      5  C7  UNL d   1       2.695   5.012  -5.151  0.00  0.00     0.002 A 
ATOM      6  C8  UNL d   1       2.994   3.659  -4.976  0.00  0.00     0.002 A 
ENDROOT
BRANCH   1   7
ATOM      7  C2  UNL d   1       4.591   1.705  -5.091  0.00  0.00     0.056 C 
BRANCH   7   8
ATOM      8  C1  UNL d   1       5.903   1.465  -4.337  0.00  0.00     0.007 C 
ATOM      9  C   UNL d   1       6.000   2.252  -3.036  0.00  0.00     0.009 C 
ENDBRANCH   7   8
ENDBRANCH   1   7
TORSDOF 2
ENDMDL
