MODEL 1
REMARK minimizedAffinity -1.57853913
REMARK minimizedRMSD -1
REMARK  2 active torsions:
REMARK  status: ('A' for Active; 'I' for Inactive)
REMARK    1  A    between atoms: C1_2  and  C2_3 
REMARK    2  A    between atoms: C2_3  and  C3_4 
ROOT
ATOM      1  C3  UNL d   1       3.940   2.736  -5.612  0.00  0.00    -0.075 A 
ATOM      2  C4  UNL d   1       3.783   1.397  -6.000  0.00  0.00     0.002 A 
ATOM      3  C5  UNL d   1       4.716   0.434  -5.615  0.00  0.00     0.002 A 
ATOM      4  C6  UNL d   1       5.821   0.798  -4.848  0.00  0.00    -0.004 A 
ATOM      5  C7  UNL d   1       5.995   2.127  -4.470  0.00  0.00     0.002 A 
ATOM      6  C8  UNL d   1       5.061   3.092  -4.850  0.00  0.00     0.002 A 
ENDROOT
BRANCH   1   7
ATOM      7  C2  UNL d   1       2.918   3.777  -6.000  0.00  0.00     0.056 C 
BRANCH   7   8
ATOM      8  C1  UNL d   1       1.631   3.728  -5.170  0.00  0.00     0.007 C 
ATOM      9  C   UNL d   1       0.373   3.954  -5.998  0.00  0.00     0.009 C 
ENDBRANCH   7   8
ENDBRANCH   1   7
TORSDOF 2
ENDMDL
