MODEL 1
REMARK minimizedAffinity -4.40602922
REMARK minimizedRMSD -1
REMARK  1 active torsions:
REMARK  status: ('A' for Active; 'I' for Inactive)
REMARK    1  A    between atoms: C1_2  and  C2_3 
ROOT
ATOM      1  C2  UNL d   1      -1.114  -0.639   0.723  0.00  0.00    -0.081 A 
ATOM      2  C3  UNL d   1      -0.731   0.436  -0.090  0.00  0.00     0.006 A 
ATOM      3  C4  UNL d   1      -0.001   0.213  -1.259  0.00  0.00     0.002 A 
ATOM      4  C5  UNL d   1       0.352  -1.086  -1.640  0.00  0.00    -0.080 A 
ATOM      5  C6  UNL d   1       1.110  -1.340  -2.909  0.00  0.00     0.076 C 
ATOM      6  C7  UNL d   1      -0.014  -2.157  -0.819  0.00  0.00     0.002 A 
ATOM      7  C8  UNL d   1      -0.744  -1.936   0.351  0.00  0.00     0.006 A 
ENDROOT
BRANCH   1   8
ATOM      8  C1  UNL d   1      -1.957  -0.408   1.951  0.00  0.00     0.054 C 
ATOM      9  C   UNL d   1      -1.172   0.321   3.032  0.00  0.00     0.018 C 
ENDBRANCH   1   8
TORSDOF 1
ENDMDL
