MODEL 1
REMARK minimizedAffinity -5.59507799
REMARK minimizedRMSD -1
REMARK  1 active torsions:
REMARK  status: ('A' for Active; 'I' for Inactive)
REMARK    1  A    between atoms: C1_2  and  C2_3 
ROOT
ATOM      1  C2  UNL d   1       0.140   0.137  -0.792  0.00  0.00    -0.081 A 
ATOM      2  C3  UNL d   1       0.967   0.209   0.336  0.00  0.00     0.006 A 
ATOM      3  C4  UNL d   1       0.440   0.007   1.614  0.00  0.00     0.002 A 
ATOM      4  C5  UNL d   1      -0.919  -0.278   1.785  0.00  0.00    -0.080 A 
ATOM      5  C6  UNL d   1      -1.491  -0.526   3.149  0.00  0.00     0.076 C 
ATOM      6  C7  UNL d   1      -1.748  -0.332   0.660  0.00  0.00     0.002 A 
ATOM      7  C8  UNL d   1      -1.222  -0.130  -0.618  0.00  0.00     0.006 A 
ENDROOT
BRANCH   1   8
ATOM      8  C1  UNL d   1       0.717   0.290  -2.176  0.00  0.00     0.054 C 
ATOM      9  C   UNL d   1       0.590  -1.000  -2.974  0.00  0.00     0.018 C 
ENDBRANCH   1   8
TORSDOF 1
ENDMDL
