MODEL 1
REMARK minimizedAffinity -3.85942268
REMARK minimizedRMSD -1
REMARK  1 active torsions:
REMARK  status: ('A' for Active; 'I' for Inactive)
REMARK    1  A    between atoms: C1_2  and  C2_3 
ROOT
ATOM      1  C2  UNL d   1      -1.005   0.220  -0.496  0.00  0.00    -0.081 A 
ATOM      2  C3  UNL d   1      -2.328   0.284  -0.042  0.00  0.00     0.006 A 
ATOM      3  C4  UNL d   1      -2.617   0.154   1.319  0.00  0.00     0.002 A 
ATOM      4  C5  UNL d   1      -1.588  -0.034   2.248  0.00  0.00    -0.080 A 
ATOM      5  C6  UNL d   1      -1.881  -0.144   3.714  0.00  0.00     0.076 C 
ATOM      6  C7  UNL d   1      -0.268  -0.115   1.792  0.00  0.00     0.002 A 
ATOM      7  C8  UNL d   1       0.022   0.014   0.432  0.00  0.00     0.006 A 
ENDROOT
BRANCH   1   8
ATOM      8  C1  UNL d   1      -0.685   0.425  -1.955  0.00  0.00     0.054 C 
ATOM      9  C   UNL d   1       0.769   0.088  -2.255  0.00  0.00     0.018 C 
ENDBRANCH   1   8
TORSDOF 1
ENDMDL
