MODEL 1
REMARK minimizedAffinity -5.5963378
REMARK minimizedRMSD -1
REMARK  1 active torsions:
REMARK  status: ('A' for Active; 'I' for Inactive)
REMARK    1  A    between atoms: C1_2  and  C2_3 
ROOT
ATOM      1  C2  UNL d   1      -0.793   0.646   0.114  0.00  0.00    -0.081 A 
ATOM      2  C3  UNL d   1       0.356   0.201   0.780  0.00  0.00     0.006 A 
ATOM      3  C4  UNL d   1       0.266  -0.332   2.068  0.00  0.00     0.002 A 
ATOM      4  C5  UNL d   1      -0.973  -0.436   2.708  0.00  0.00    -0.080 A 
ATOM      5  C6  UNL d   1      -1.088  -1.034   4.079  0.00  0.00     0.076 C 
ATOM      6  C7  UNL d   1      -2.119   0.026   2.050  0.00  0.00     0.002 A 
ATOM      7  C8  UNL d   1      -2.029   0.559   0.763  0.00  0.00     0.006 A 
ENDROOT
BRANCH   1   8
ATOM      8  C1  UNL d   1      -0.708   1.161  -1.300  0.00  0.00     0.054 C 
ATOM      9  C   UNL d   1       0.334   0.398  -2.105  0.00  0.00     0.018 C 
ENDBRANCH   1   8
TORSDOF 1
ENDMDL
