MODEL 1
REMARK minimizedAffinity -5.19414759
REMARK minimizedRMSD -1
REMARK  1 active torsions:
REMARK  status: ('A' for Active; 'I' for Inactive)
REMARK    1  A    between atoms: C1_2  and  C2_3 
ROOT
ATOM      1  C2  UNL d   1      -0.391   0.373  -0.648  0.00  0.00    -0.081 A 
ATOM      2  C3  UNL d   1      -1.745   0.470  -0.305  0.00  0.00     0.006 A 
ATOM      3  C4  UNL d   1      -2.175   0.143   0.983  0.00  0.00     0.002 A 
ATOM      4  C5  UNL d   1      -1.257  -0.279   1.952  0.00  0.00    -0.080 A 
ATOM      5  C6  UNL d   1      -1.701  -0.604   3.347  0.00  0.00     0.076 C 
ATOM      6  C7  UNL d   1       0.093  -0.393   1.604  0.00  0.00     0.002 A 
ATOM      7  C8  UNL d   1       0.523  -0.066   0.316  0.00  0.00     0.006 A 
ENDROOT
BRANCH   1   8
ATOM      8  C1  UNL d   1       0.085   0.787  -2.017  0.00  0.00     0.054 C 
ATOM      9  C   UNL d   1       0.746  -0.373  -2.747  0.00  0.00     0.018 C 
ENDBRANCH   1   8
TORSDOF 1
ENDMDL
