MODEL 1
REMARK minimizedAffinity -4.2304554
REMARK minimizedRMSD -1
REMARK  1 active torsions:
REMARK  status: ('A' for Active; 'I' for Inactive)
REMARK    1  A    between atoms: C1_2  and  C2_3 
ROOT
ATOM      1  C2  UNL d   1       0.262   0.198  -0.476  0.00  0.00    -0.081 A 
ATOM      2  C3  UNL d   1       1.032  -0.017   0.673  0.00  0.00     0.006 A 
ATOM      3  C4  UNL d   1       0.417  -0.191   1.915  0.00  0.00     0.002 A 
ATOM      4  C5  UNL d   1      -0.977  -0.161   2.028  0.00  0.00    -0.080 A 
ATOM      5  C6  UNL d   1      -1.651  -0.377   3.350  0.00  0.00     0.076 C 
ATOM      6  C7  UNL d   1      -1.746   0.071   0.882  0.00  0.00     0.002 A 
ATOM      7  C8  UNL d   1      -1.132   0.246  -0.360  0.00  0.00     0.006 A 
ENDROOT
BRANCH   1   8
ATOM      8  C1  UNL d   1       0.919   0.322  -1.827  0.00  0.00     0.054 C 
ATOM      9  C   UNL d   1       0.804  -0.973  -2.619  0.00  0.00     0.018 C 
ENDBRANCH   1   8
TORSDOF 1
ENDMDL
