MODEL 1
REMARK minimizedAffinity -4.72296286
REMARK minimizedRMSD -1
REMARK  1 active torsions:
REMARK  status: ('A' for Active; 'I' for Inactive)
REMARK    1  A    between atoms: C1_2  and  C2_3 
ROOT
ATOM      1  C2  UNL d   1      -0.239   0.294   0.000  0.00  0.00    -0.081 A 
ATOM      2  C3  UNL d   1       0.509  -0.203   1.075  0.00  0.00     0.006 A 
ATOM      3  C4  UNL d   1      -0.122  -0.575   2.264  0.00  0.00     0.002 A 
ATOM      4  C5  UNL d   1      -1.511  -0.464   2.396  0.00  0.00    -0.080 A 
ATOM      5  C6  UNL d   1      -2.204  -0.888   3.657  0.00  0.00     0.076 C 
ATOM      6  C7  UNL d   1      -2.256   0.049   1.328  0.00  0.00     0.002 A 
ATOM      7  C8  UNL d   1      -1.625   0.421   0.139  0.00  0.00     0.006 A 
ENDROOT
BRANCH   1   8
ATOM      8  C1  UNL d   1       0.431   0.635  -1.307  0.00  0.00     0.054 C 
ATOM      9  C   UNL d   1       0.346  -0.523  -2.291  0.00  0.00     0.018 C 
ENDBRANCH   1   8
TORSDOF 1
ENDMDL
