MODEL 1
REMARK minimizedAffinity -3.28272533
REMARK minimizedRMSD -1
REMARK  1 active torsions:
REMARK  status: ('A' for Active; 'I' for Inactive)
REMARK    1  A    between atoms: C1_2  and  C2_3 
ROOT
ATOM      1  C2  UNL d   1       0.798   0.030  -1.890  0.00  0.00    -0.081 A 
ATOM      2  C3  UNL d   1       1.894   0.105  -1.022  0.00  0.00     0.006 A 
ATOM      3  C4  UNL d   1       1.700   0.294   0.349  0.00  0.00     0.002 A 
ATOM      4  C5  UNL d   1       0.408   0.402   0.874  0.00  0.00    -0.080 A 
ATOM      5  C6  UNL d   1       0.184   0.575   2.347  0.00  0.00     0.076 C 
ATOM      6  C7  UNL d   1      -0.686   0.345   0.004  0.00  0.00     0.002 A 
ATOM      7  C8  UNL d   1      -0.493   0.157  -1.366  0.00  0.00     0.006 A 
ENDROOT
BRANCH   1   8
ATOM      8  C1  UNL d   1       1.002  -0.238  -3.360  0.00  0.00     0.054 C 
ATOM      9  C   UNL d   1       1.645  -1.598  -3.590  0.00  0.00     0.018 C 
ENDBRANCH   1   8
TORSDOF 1
ENDMDL
