MODEL 1
REMARK minimizedAffinity -5.12494278
REMARK minimizedRMSD -1
REMARK  1 active torsions:
REMARK  status: ('A' for Active; 'I' for Inactive)
REMARK    1  A    between atoms: C1_2  and  C2_3 
ROOT
ATOM      1  C2  UNL d   1      -1.523  -0.235   1.854  0.00  0.00    -0.081 A 
ATOM      2  C3  UNL d   1      -0.583  -0.317   2.888  0.00  0.00     0.006 A 
ATOM      3  C4  UNL d   1       0.775  -0.113   2.629  0.00  0.00     0.002 A 
ATOM      4  C5  UNL d   1       1.213   0.184   1.334  0.00  0.00    -0.080 A 
ATOM      5  C6  UNL d   1       2.664   0.435   1.048  0.00  0.00     0.076 C 
ATOM      6  C7  UNL d   1       0.276   0.248   0.298  0.00  0.00     0.002 A 
ATOM      7  C8  UNL d   1      -1.081   0.044   0.556  0.00  0.00     0.006 A 
ENDROOT
BRANCH   1   8
ATOM      8  C1  UNL d   1      -2.995  -0.391   2.142  0.00  0.00     0.054 C 
ATOM      9  C   UNL d   1      -3.817   0.652   1.399  0.00  0.00     0.018 C 
ENDBRANCH   1   8
TORSDOF 1
ENDMDL
