MODEL 1
REMARK minimizedAffinity -5.20874643
REMARK minimizedRMSD -1
REMARK  1 active torsions:
REMARK  status: ('A' for Active; 'I' for Inactive)
REMARK    1  A    between atoms: C1_2  and  C2_3 
ROOT
ATOM      1  C2  UNL d   1      -1.287  -0.103   1.994  0.00  0.00    -0.081 A 
ATOM      2  C3  UNL d   1      -2.473   0.333   1.391  0.00  0.00     0.006 A 
ATOM      3  C4  UNL d   1      -3.153   1.447   1.890  0.00  0.00     0.002 A 
ATOM      4  C5  UNL d   1      -2.655   2.147   2.994  0.00  0.00    -0.080 A 
ATOM      5  C6  UNL d   1      -3.359   3.362   3.521  0.00  0.00     0.076 C 
ATOM      6  C7  UNL d   1      -1.480   1.701   3.608  0.00  0.00     0.002 A 
ATOM      7  C8  UNL d   1      -0.799   0.587   3.110  0.00  0.00     0.006 A 
ENDROOT
BRANCH   1   8
ATOM      8  C1  UNL d   1      -0.516  -1.264   1.420  0.00  0.00     0.054 C 
ATOM      9  C   UNL d   1       0.316  -0.836   0.220  0.00  0.00     0.018 C 
ENDBRANCH   1   8
TORSDOF 1
ENDMDL
