MODEL 1
REMARK minimizedAffinity -4.83793831
REMARK minimizedRMSD -1
REMARK  0 active torsions:
REMARK  status: ('A' for Active; 'I' for Inactive)
ROOT
ATOM      1  C   UNL d   1       1.660  -3.057   1.561  0.00  0.00    -0.002 A 
ATOM      2  C1  UNL d   1       0.492  -3.061   2.311  0.00  0.00     0.010 A 
ATOM      3  C2  UNL d   1      -0.447  -2.038   2.168  0.00  0.00     0.041 A 
ATOM      4  C3  UNL d   1      -0.192  -1.002   1.248  0.00  0.00    -0.075 A 
ATOM      5  S   UNL d   1      -1.199   0.355   0.904  0.00  0.00     0.015 SA
ATOM      6  C4  UNL d   1      -0.104   0.970  -0.247  0.00  0.00     0.022 A 
ATOM      7  C5  UNL d   1       1.009   0.173  -0.379  0.00  0.00     0.026 A 
ATOM      8  C6  UNL d   1       0.976  -0.977   0.481  0.00  0.00    -0.082 A 
ATOM      9  C7  UNL d   1       1.909  -2.028   0.649  0.00  0.00     0.045 A 
ENDROOT
TORSDOF 0
ENDMDL
