MODEL 1
REMARK minimizedAffinity -2.009161
REMARK minimizedRMSD -1
REMARK  0 active torsions:
REMARK  status: ('A' for Active; 'I' for Inactive)
ROOT
ATOM      1  C   UNL d   1       0.415  -3.067   1.809  0.00  0.00    -0.002 A 
ATOM      2  C1  UNL d   1       1.729  -2.901   1.397  0.00  0.00     0.010 A 
ATOM      3  C2  UNL d   1       2.115  -1.756   0.697  0.00  0.00     0.041 A 
ATOM      4  C3  UNL d   1       1.148  -0.771   0.417  0.00  0.00    -0.075 A 
ATOM      5  S   UNL d   1       1.390   0.714  -0.426  0.00  0.00     0.015 SA
ATOM      6  C4  UNL d   1      -0.246   1.163  -0.257  0.00  0.00     0.022 A 
ATOM      7  C5  UNL d   1      -0.973   0.215   0.423  0.00  0.00     0.026 A 
ATOM      8  C6  UNL d   1      -0.182  -0.915   0.823  0.00  0.00    -0.082 A 
ATOM      9  C7  UNL d   1      -0.542  -2.087   1.530  0.00  0.00     0.045 A 
ENDROOT
TORSDOF 0
ENDMDL
