MODEL 1
REMARK minimizedAffinity -2.64130855
REMARK minimizedRMSD -1
REMARK  0 active torsions:
REMARK  status: ('A' for Active; 'I' for Inactive)
ROOT
ATOM      1  C   UNL d   1       1.167  -3.213   1.904  0.00  0.00    -0.002 A 
ATOM      2  C1  UNL d   1       0.465  -2.586   2.923  0.00  0.00     0.010 A 
ATOM      3  C2  UNL d   1      -0.286  -1.437   2.667  0.00  0.00     0.041 A 
ATOM      4  C3  UNL d   1      -0.320  -0.924   1.355  0.00  0.00    -0.075 A 
ATOM      5  S   UNL d   1      -1.172   0.471   0.807  0.00  0.00     0.015 SA
ATOM      6  C4  UNL d   1      -0.624   0.268  -0.794  0.00  0.00     0.022 A 
ATOM      7  C5  UNL d   1       0.190  -0.832  -0.925  0.00  0.00     0.026 A 
ATOM      8  C6  UNL d   1       0.378  -1.537   0.312  0.00  0.00    -0.082 A 
ATOM      9  C7  UNL d   1       1.131  -2.701   0.604  0.00  0.00     0.045 A 
ENDROOT
TORSDOF 0
ENDMDL
