MODEL 1
REMARK minimizedAffinity -3.97580051
REMARK minimizedRMSD -1
REMARK  0 active torsions:
REMARK  status: ('A' for Active; 'I' for Inactive)
ROOT
ATOM      1  C   UNL d   1       0.730  -3.049   2.537  0.00  0.00    -0.002 A 
ATOM      2  C1  UNL d   1      -0.410  -2.284   2.736  0.00  0.00     0.010 A 
ATOM      3  C2  UNL d   1      -0.676  -1.180   1.923  0.00  0.00     0.041 A 
ATOM      4  C3  UNL d   1       0.233  -0.856   0.896  0.00  0.00    -0.075 A 
ATOM      5  S   UNL d   1       0.114   0.451  -0.223  0.00  0.00     0.015 SA
ATOM      6  C4  UNL d   1       1.574   0.024  -0.991  0.00  0.00     0.022 A 
ATOM      7  C5  UNL d   1       2.152  -1.086  -0.420  0.00  0.00     0.026 A 
ATOM      8  C6  UNL d   1       1.388  -1.611   0.676  0.00  0.00    -0.082 A 
ATOM      9  C7  UNL d   1       1.629  -2.724   1.518  0.00  0.00     0.045 A 
ENDROOT
TORSDOF 0
ENDMDL
