MODEL 1
REMARK minimizedAffinity -5.14580011
REMARK minimizedRMSD -1
REMARK  0 active torsions:
REMARK  status: ('A' for Active; 'I' for Inactive)
ROOT
ATOM      1  C   UNL d   1       1.270  -2.999   2.109  0.00  0.00    -0.002 A 
ATOM      2  C1  UNL d   1       0.035  -2.673   2.653  0.00  0.00     0.010 A 
ATOM      3  C2  UNL d   1      -0.709  -1.609   2.138  0.00  0.00     0.041 A 
ATOM      4  C3  UNL d   1      -0.188  -0.873   1.056  0.00  0.00    -0.075 A 
ATOM      5  S   UNL d   1      -0.923   0.469   0.262  0.00  0.00     0.015 SA
ATOM      6  C4  UNL d   1       0.384   0.640  -0.819  0.00  0.00     0.022 A 
ATOM      7  C5  UNL d   1       1.366  -0.295  -0.594  0.00  0.00     0.026 A 
ATOM      8  C6  UNL d   1       1.052  -1.183   0.490  0.00  0.00    -0.082 A 
ATOM      9  C7  UNL d   1       1.783  -2.266   1.035  0.00  0.00     0.045 A 
ENDROOT
TORSDOF 0
ENDMDL
