MODEL 1
REMARK minimizedAffinity -3.88342905
REMARK minimizedRMSD -1
REMARK  0 active torsions:
REMARK  status: ('A' for Active; 'I' for Inactive)
ROOT
ATOM      1  C   UNL d   1       1.090  -3.295   1.801  0.00  0.00    -0.002 A 
ATOM      2  C1  UNL d   1       0.150  -2.753   2.666  0.00  0.00     0.010 A 
ATOM      3  C2  UNL d   1      -0.519  -1.572   2.339  0.00  0.00     0.041 A 
ATOM      4  C3  UNL d   1      -0.226  -0.939   1.115  0.00  0.00    -0.075 A 
ATOM      5  S   UNL d   1      -0.922   0.515   0.504  0.00  0.00     0.015 SA
ATOM      6  C4  UNL d   1       0.012   0.451  -0.921  0.00  0.00     0.022 A 
ATOM      7  C5  UNL d   1       0.840  -0.646  -0.946  0.00  0.00     0.026 A 
ATOM      8  C6  UNL d   1       0.716  -1.466   0.227  0.00  0.00    -0.082 A 
ATOM      9  C7  UNL d   1       1.378  -2.664   0.588  0.00  0.00     0.045 A 
ENDROOT
TORSDOF 0
ENDMDL
