MODEL 1
REMARK minimizedAffinity -3.14962602
REMARK minimizedRMSD -1
REMARK  0 active torsions:
REMARK  status: ('A' for Active; 'I' for Inactive)
ROOT
ATOM      1  C   UNL d   1       1.278  -2.733   1.658  0.00  0.00    -0.002 A 
ATOM      2  C1  UNL d   1      -0.003  -2.558   2.162  0.00  0.00     0.010 A 
ATOM      3  C2  UNL d   1      -0.789  -1.482   1.744  0.00  0.00     0.041 A 
ATOM      4  C3  UNL d   1      -0.262  -0.578   0.801  0.00  0.00    -0.075 A 
ATOM      5  S   UNL d   1      -1.043   0.811   0.143  0.00  0.00     0.015 SA
ATOM      6  C4  UNL d   1       0.304   1.204  -0.823  0.00  0.00     0.022 A 
ATOM      7  C5  UNL d   1       1.334   0.308  -0.660  0.00  0.00     0.026 A 
ATOM      8  C6  UNL d   1       1.025  -0.734   0.278  0.00  0.00    -0.082 A 
ATOM      9  C7  UNL d   1       1.798  -1.834   0.722  0.00  0.00     0.045 A 
ENDROOT
TORSDOF 0
ENDMDL
