MODEL 1
REMARK minimizedAffinity -4.65016508
REMARK minimizedRMSD -1
REMARK  0 active torsions:
REMARK  status: ('A' for Active; 'I' for Inactive)
ROOT
ATOM      1  C   UNL d   1       1.283  -2.656   1.082  0.00  0.00    -0.002 A 
ATOM      2  C1  UNL d   1       0.453  -2.371   2.157  0.00  0.00     0.010 A 
ATOM      3  C2  UNL d   1      -0.432  -1.292   2.105  0.00  0.00     0.041 A 
ATOM      4  C3  UNL d   1      -0.471  -0.498   0.941  0.00  0.00    -0.075 A 
ATOM      5  S   UNL d   1      -1.475   0.872   0.651  0.00  0.00     0.015 SA
ATOM      6  C4  UNL d   1      -0.827   1.111  -0.907  0.00  0.00     0.022 A 
ATOM      7  C5  UNL d   1       0.134   0.177  -1.214  0.00  0.00     0.026 A 
ATOM      8  C6  UNL d   1       0.355  -0.766  -0.155  0.00  0.00    -0.082 A 
ATOM      9  C7  UNL d   1       1.242  -1.866  -0.070  0.00  0.00     0.045 A 
ENDROOT
TORSDOF 0
ENDMDL
