MODEL 1
REMARK minimizedAffinity -5.64165354
REMARK minimizedRMSD -1
REMARK  0 active torsions:
REMARK  status: ('A' for Active; 'I' for Inactive)
ROOT
ATOM      1  C   UNL d   1       1.313  -2.831   1.426  0.00  0.00    -0.002 A 
ATOM      2  C1  UNL d   1       0.440  -2.601   2.481  0.00  0.00     0.010 A 
ATOM      3  C2  UNL d   1      -0.361  -1.458   2.504  0.00  0.00     0.041 A 
ATOM      4  C3  UNL d   1      -0.271  -0.541   1.438  0.00  0.00    -0.075 A 
ATOM      5  S   UNL d   1      -1.155   0.927   1.252  0.00  0.00     0.015 SA
ATOM      6  C4  UNL d   1      -0.396   1.283  -0.232  0.00  0.00     0.022 A 
ATOM      7  C5  UNL d   1       0.513   0.317  -0.592  0.00  0.00     0.026 A 
ATOM      8  C6  UNL d   1       0.600  -0.751   0.364  0.00  0.00    -0.082 A 
ATOM      9  C7  UNL d   1       1.399  -1.920   0.370  0.00  0.00     0.045 A 
ENDROOT
TORSDOF 0
ENDMDL
