MODEL 1
REMARK minimizedAffinity 3.42488766
REMARK minimizedRMSD -1
REMARK  0 active torsions:
REMARK  status: ('A' for Active; 'I' for Inactive)
ROOT
ATOM      1  O1  BZF d   1      -5.998   0.806  -1.214  0.00  0.00    -0.204 OA
ATOM      2  C2  BZF d   1      -5.932   1.769  -0.226  0.00  0.00     0.174 A 
ATOM      3  C3  BZF d   1      -5.811   3.000  -0.764  0.00  0.00    -0.012 A 
ATOM      4  C3A BZF d   1      -5.893   2.801  -2.179  0.00  0.00    -0.107 A 
ATOM      5  C4  BZF d   1      -5.854   3.648  -3.250  0.00  0.00     0.055 A 
ATOM      6  C5  BZF d   1      -5.887   3.128  -4.505  0.00  0.00    -0.016 A 
ATOM      7  C6  BZF d   1      -5.954   1.767  -4.725  0.00  0.00     0.022 A 
ATOM      8  C7  BZF d   1      -6.000   0.888  -3.695  0.00  0.00     0.029 A 
ATOM      9  C7A BZF d   1      -6.000   1.413  -2.425  0.00  0.00     0.058 A 
ENDROOT
TORSDOF 0
ENDMDL
