MODEL 1
REMARK minimizedAffinity 0.311704218
REMARK minimizedRMSD -1
REMARK  0 active torsions:
REMARK  status: ('A' for Active; 'I' for Inactive)
ROOT
ATOM      1  O1  BZF d   1      -5.995   0.717  -4.051  0.00  0.00    -0.204 OA
ATOM      2  C2  BZF d   1      -5.968   1.106  -5.377  0.00  0.00     0.174 A 
ATOM      3  C3  BZF d   1      -5.957   2.451  -5.480  0.00  0.00    -0.012 A 
ATOM      4  C3A BZF d   1      -5.886   2.931  -4.134  0.00  0.00    -0.107 A 
ATOM      5  C4  BZF d   1      -5.830   4.180  -3.585  0.00  0.00     0.055 A 
ATOM      6  C5  BZF d   1      -5.842   4.308  -2.232  0.00  0.00    -0.016 A 
ATOM      7  C6  BZF d   1      -5.915   3.210  -1.400  0.00  0.00     0.022 A 
ATOM      8  C7  BZF d   1      -5.967   1.951  -1.898  0.00  0.00     0.029 A 
ATOM      9  C7A BZF d   1      -5.921   1.817  -3.264  0.00  0.00     0.058 A 
ENDROOT
TORSDOF 0
ENDMDL
