MODEL 1
REMARK minimizedAffinity 1.78006828
REMARK minimizedRMSD -1
REMARK  0 active torsions:
REMARK  status: ('A' for Active; 'I' for Inactive)
ROOT
ATOM      1  O1  BZF d   1      -5.989   0.789  -1.531  0.00  0.00    -0.204 OA
ATOM      2  C2  BZF d   1      -5.809   1.803  -0.611  0.00  0.00     0.174 A 
ATOM      3  C3  BZF d   1      -5.553   2.973  -1.232  0.00  0.00    -0.012 A 
ATOM      4  C3A BZF d   1      -5.667   2.689  -2.630  0.00  0.00    -0.107 A 
ATOM      5  C4  BZF d   1      -5.540   3.451  -3.756  0.00  0.00     0.055 A 
ATOM      6  C5  BZF d   1      -5.640   2.854  -4.972  0.00  0.00    -0.016 A 
ATOM      7  C6  BZF d   1      -5.861   1.498  -5.099  0.00  0.00     0.022 A 
ATOM      8  C7  BZF d   1      -5.999   0.702  -4.011  0.00  0.00     0.029 A 
ATOM      9  C7A BZF d   1      -5.931   1.308  -2.781  0.00  0.00     0.058 A 
ENDROOT
TORSDOF 0
ENDMDL
