MODEL 1
REMARK minimizedAffinity 2.45138431
REMARK minimizedRMSD -1
REMARK  0 active torsions:
REMARK  status: ('A' for Active; 'I' for Inactive)
ROOT
ATOM      1  O1  BZF d   1      -5.900   4.320  -4.080  0.00  0.00    -0.204 OA
ATOM      2  C2  BZF d   1      -5.905   4.378  -2.700  0.00  0.00     0.174 A 
ATOM      3  C3  BZF d   1      -5.991   3.140  -2.170  0.00  0.00    -0.012 A 
ATOM      4  C3A BZF d   1      -5.950   2.248  -3.288  0.00  0.00    -0.107 A 
ATOM      5  C4  BZF d   1      -5.981   0.888  -3.405  0.00  0.00     0.055 A 
ATOM      6  C5  BZF d   1      -5.997   0.333  -4.646  0.00  0.00    -0.016 A 
ATOM      7  C6  BZF d   1      -5.989   1.106  -5.788  0.00  0.00     0.022 A 
ATOM      8  C7  BZF d   1      -5.953   2.459  -5.722  0.00  0.00     0.029 A 
ATOM      9  C7A BZF d   1      -5.903   3.023  -4.470  0.00  0.00     0.058 A 
ENDROOT
TORSDOF 0
ENDMDL
