MODEL 1
REMARK minimizedAffinity 0.10750185
REMARK minimizedRMSD -1
REMARK  0 active torsions:
REMARK  status: ('A' for Active; 'I' for Inactive)
ROOT
ATOM      1  O1  BZF d   1      -4.975   2.830  -5.046  0.00  0.00    -0.204 OA
ATOM      2  C2  BZF d   1      -5.550   1.642  -5.454  0.00  0.00     0.174 A 
ATOM      3  C3  BZF d   1      -5.994   0.936  -4.394  0.00  0.00    -0.012 A 
ATOM      4  C3A BZF d   1      -5.759   1.774  -3.259  0.00  0.00    -0.107 A 
ATOM      5  C4  BZF d   1      -6.000   1.634  -1.922  0.00  0.00     0.055 A 
ATOM      6  C5  BZF d   1      -5.583   2.606  -1.070  0.00  0.00    -0.016 A 
ATOM      7  C6  BZF d   1      -4.918   3.729  -1.518  0.00  0.00     0.022 A 
ATOM      8  C7  BZF d   1      -4.660   3.915  -2.836  0.00  0.00     0.029 A 
ATOM      9  C7A BZF d   1      -5.110   2.949  -3.703  0.00  0.00     0.058 A 
ENDROOT
TORSDOF 0
ENDMDL
