MODEL 1
REMARK minimizedAffinity -2.86889219
REMARK minimizedRMSD -1
REMARK  0 active torsions:
REMARK  status: ('A' for Active; 'I' for Inactive)
ROOT
ATOM      1  O1  BZF d   1      -5.998   1.888  -1.431  0.00  0.00    -0.204 OA
ATOM      2  C2  BZF d   1      -5.919   3.053  -0.693  0.00  0.00     0.174 A 
ATOM      3  C3  BZF d   1      -5.780   4.123  -1.502  0.00  0.00    -0.012 A 
ATOM      4  C3A BZF d   1      -5.865   3.603  -2.832  0.00  0.00    -0.107 A 
ATOM      5  C4  BZF d   1      -5.814   4.177  -4.070  0.00  0.00     0.055 A 
ATOM      6  C5  BZF d   1      -5.854   3.380  -5.170  0.00  0.00    -0.016 A 
ATOM      7  C6  BZF d   1      -5.941   2.007  -5.070  0.00  0.00     0.022 A 
ATOM      8  C7  BZF d   1      -6.000   1.392  -3.863  0.00  0.00     0.029 A 
ATOM      9  C7A BZF d   1      -5.992   2.197  -2.750  0.00  0.00     0.058 A 
ENDROOT
TORSDOF 0
ENDMDL
