MODEL 1
REMARK minimizedAffinity 7.58735561
REMARK minimizedRMSD -1
REMARK  0 active torsions:
REMARK  status: ('A' for Active; 'I' for Inactive)
ROOT
ATOM      1  O1  BZF d   1      -5.570   0.237   0.382  0.00  0.00    -0.204 OA
ATOM      2  C2  BZF d   1      -4.876   0.659   1.500  0.00  0.00     0.174 A 
ATOM      3  C3  BZF d   1      -4.296   1.857   1.279  0.00  0.00    -0.012 A 
ATOM      4  C3A BZF d   1      -4.727   2.248  -0.028  0.00  0.00    -0.107 A 
ATOM      5  C4  BZF d   1      -4.498   3.350  -0.801  0.00  0.00     0.055 A 
ATOM      6  C5  BZF d   1      -5.006   3.390  -2.061  0.00  0.00    -0.016 A 
ATOM      7  C6  BZF d   1      -5.742   2.345  -2.581  0.00  0.00     0.022 A 
ATOM      8  C7  BZF d   1      -6.000   1.233  -1.850  0.00  0.00     0.029 A 
ATOM      9  C7A BZF d   1      -5.515   1.204  -0.565  0.00  0.00     0.058 A 
ENDROOT
TORSDOF 0
ENDMDL
