MODEL 1
REMARK minimizedAffinity 0.975566447
REMARK minimizedRMSD -1
REMARK  0 active torsions:
REMARK  status: ('A' for Active; 'I' for Inactive)
ROOT
ATOM      1  O1  BZF d   1      -5.324   2.043  -5.566  0.00  0.00    -0.204 OA
ATOM      2  C2  BZF d   1      -5.723   0.752  -5.279  0.00  0.00     0.174 A 
ATOM      3  C3  BZF d   1      -5.999   0.618  -3.966  0.00  0.00    -0.012 A 
ATOM      4  C3A BZF d   1      -5.846   1.928  -3.413  0.00  0.00    -0.107 A 
ATOM      5  C4  BZF d   1      -5.998   2.441  -2.156  0.00  0.00     0.055 A 
ATOM      6  C5  BZF d   1      -5.700   3.749  -1.936  0.00  0.00    -0.016 A 
ATOM      7  C6  BZF d   1      -5.242   4.569  -2.946  0.00  0.00     0.022 A 
ATOM      8  C7  BZF d   1      -5.080   4.107  -4.209  0.00  0.00     0.029 A 
ATOM      9  C7A BZF d   1      -5.412   2.795  -4.443  0.00  0.00     0.058 A 
ENDROOT
TORSDOF 0
ENDMDL
