MODEL 1
REMARK minimizedAffinity 6.77366924
REMARK minimizedRMSD -1
REMARK  0 active torsions:
REMARK  status: ('A' for Active; 'I' for Inactive)
ROOT
ATOM      1  O1  BZF d   1      -6.000  -0.722   4.693  0.00  0.00    -0.204 OA
ATOM      2  C2  BZF d   1      -5.336  -1.930   4.793  0.00  0.00     0.174 A 
ATOM      3  C3  BZF d   1      -4.558  -2.140   3.712  0.00  0.00    -0.012 A 
ATOM      4  C3A BZF d   1      -4.676  -0.949   2.927  0.00  0.00    -0.107 A 
ATOM      5  C4  BZF d   1      -4.127  -0.547   1.743  0.00  0.00     0.055 A 
ATOM      6  C5  BZF d   1      -4.505   0.645   1.211  0.00  0.00    -0.016 A 
ATOM      7  C6  BZF d   1      -5.432   1.457   1.833  0.00  0.00     0.022 A 
ATOM      8  C7  BZF d   1      -6.000   1.102   3.011  0.00  0.00     0.029 A 
ATOM      9  C7A BZF d   1      -5.596  -0.087   3.567  0.00  0.00     0.058 A 
ENDROOT
TORSDOF 0
ENDMDL
