MODEL 1
REMARK minimizedAffinity 9.03406525
REMARK minimizedRMSD -1
REMARK  0 active torsions:
REMARK  status: ('A' for Active; 'I' for Inactive)
ROOT
ATOM      1  O1  BZF d   1      -6.000   0.328  -3.513  0.00  0.00    -0.204 OA
ATOM      2  C2  BZF d   1      -5.898  -0.026  -4.845  0.00  0.00     0.174 A 
ATOM      3  C3  BZF d   1      -5.524   1.031  -5.593  0.00  0.00    -0.012 A 
ATOM      4  C3A BZF d   1      -5.293   2.091  -4.660  0.00  0.00    -0.107 A 
ATOM      5  C4  BZF d   1      -4.886   3.387  -4.793  0.00  0.00     0.055 A 
ATOM      6  C5  BZF d   1      -4.831   4.179  -3.690  0.00  0.00    -0.016 A 
ATOM      7  C6  BZF d   1      -5.182   3.710  -2.441  0.00  0.00     0.022 A 
ATOM      8  C7  BZF d   1      -5.587   2.429  -2.258  0.00  0.00     0.029 A 
ATOM      9  C7A BZF d   1      -5.611   1.617  -3.366  0.00  0.00     0.058 A 
ENDROOT
TORSDOF 0
ENDMDL
