MODEL 1
REMARK minimizedAffinity 6.8427062
REMARK minimizedRMSD -1
REMARK  0 active torsions:
REMARK  status: ('A' for Active; 'I' for Inactive)
ROOT
ATOM      1  O1  BZF d   1       1.107   3.846  -0.355  0.00  0.00    -0.204 OA
ATOM      2  C2  BZF d   1       0.780   2.519  -0.148  0.00  0.00     0.174 A 
ATOM      3  C3  BZF d   1      -0.407   2.225  -0.718  0.00  0.00    -0.012 A 
ATOM      4  C3A BZF d   1      -0.804   3.420  -1.397  0.00  0.00    -0.107 A 
ATOM      5  C4  BZF d   1      -1.887   3.750  -2.161  0.00  0.00     0.055 A 
ATOM      6  C5  BZF d   1      -2.011   5.025  -2.617  0.00  0.00    -0.016 A 
ATOM      7  C6  BZF d   1      -1.075   5.994  -2.323  0.00  0.00     0.022 A 
ATOM      8  C7  BZF d   1       0.019   5.714  -1.573  0.00  0.00     0.029 A 
ATOM      9  C7A BZF d   1       0.163   4.419  -1.140  0.00  0.00     0.058 A 
ENDROOT
TORSDOF 0
ENDMDL
