MODEL 1
REMARK minimizedAffinity 17.7776318
REMARK minimizedRMSD -1
REMARK  0 active torsions:
REMARK  status: ('A' for Active; 'I' for Inactive)
ROOT
ATOM      1  C   UNL d   1       0.795   1.586   4.082  0.00  0.00     0.023 A 
ATOM      2  C1  UNL d   1       1.402   0.332   4.014  0.00  0.00     0.003 A 
ATOM      3  C2  UNL d   1       0.958  -0.611   3.084  0.00  0.00     0.048 A 
ATOM      4  C3  UNL d   1      -0.093  -0.293   2.225  0.00  0.00     0.023 A 
ATOM      5  C4  UNL d   1      -0.703   0.961   2.289  0.00  0.00     0.048 A 
ATOM      6  C5  UNL d   1      -0.257   1.900   3.221  0.00  0.00     0.003 A 
ATOM      7  I   UNL d   1      -0.756  -1.694   0.841  0.00  0.00    -0.146 I 
ENDROOT
TORSDOF 0
ENDMDL
