MODEL 1
REMARK minimizedAffinity 10.786375
REMARK minimizedRMSD -1
REMARK  0 active torsions:
REMARK  status: ('A' for Active; 'I' for Inactive)
ROOT
ATOM      1  C   UNL d   1      -0.707  -1.238   2.661  0.00  0.00     0.023 A 
ATOM      2  C1  UNL d   1      -0.470   0.066   2.225  0.00  0.00     0.003 A 
ATOM      3  C2  UNL d   1       0.784   0.649   2.413  0.00  0.00     0.048 A 
ATOM      4  C3  UNL d   1       1.798  -0.078   3.037  0.00  0.00     0.023 A 
ATOM      5  C4  UNL d   1       1.566  -1.383   3.474  0.00  0.00     0.048 A 
ATOM      6  C5  UNL d   1       0.309  -1.961   3.284  0.00  0.00     0.003 A 
ATOM      7  I   UNL d   1       3.666   0.788   3.318  0.00  0.00    -0.146 I 
ENDROOT
TORSDOF 0
ENDMDL
