MODEL 1
REMARK minimizedAffinity 10.323967
REMARK minimizedRMSD -1
REMARK  0 active torsions:
REMARK  status: ('A' for Active; 'I' for Inactive)
ROOT
ATOM      1  C   UNL d   1      -0.933  -5.917  -6.000  0.00  0.00     0.023 A 
ATOM      2  C1  UNL d   1      -2.024  -5.060  -5.855  0.00  0.00     0.003 A 
ATOM      3  C2  UNL d   1      -1.819  -3.687  -5.708  0.00  0.00     0.048 A 
ATOM      4  C3  UNL d   1      -0.521  -3.177  -5.706  0.00  0.00     0.023 A 
ATOM      5  C4  UNL d   1       0.573  -4.031  -5.852  0.00  0.00     0.048 A 
ATOM      6  C5  UNL d   1       0.364  -5.403  -5.998  0.00  0.00     0.003 A 
ATOM      7  I   UNL d   1      -0.215  -1.133  -5.487  0.00  0.00    -0.146 I 
ENDROOT
TORSDOF 0
ENDMDL
