MODEL 1
REMARK minimizedAffinity 7.53317022
REMARK minimizedRMSD -1
REMARK  0 active torsions:
REMARK  status: ('A' for Active; 'I' for Inactive)
ROOT
ATOM      1  C   UNL d   1       0.750  -1.034   2.418  0.00  0.00     0.023 A 
ATOM      2  C1  UNL d   1      -0.247  -0.059   2.379  0.00  0.00     0.003 A 
ATOM      3  C2  UNL d   1      -0.346   0.882   3.406  0.00  0.00     0.048 A 
ATOM      4  C3  UNL d   1       0.556   0.843   4.468  0.00  0.00     0.023 A 
ATOM      5  C4  UNL d   1       1.556  -0.130   4.511  0.00  0.00     0.048 A 
ATOM      6  C5  UNL d   1       1.650  -1.069   3.482  0.00  0.00     0.003 A 
ATOM      7  I   UNL d   1       0.412   2.243   5.998  0.00  0.00    -0.146 I 
ENDROOT
TORSDOF 0
ENDMDL
