MODEL 1
REMARK minimizedAffinity 9.98676968
REMARK minimizedRMSD -1
REMARK  0 active torsions:
REMARK  status: ('A' for Active; 'I' for Inactive)
ROOT
ATOM      1  C   UNL d   1       0.746   0.372   3.194  0.00  0.00     0.023 A 
ATOM      2  C1  UNL d   1      -0.507   0.972   3.067  0.00  0.00     0.003 A 
ATOM      3  C2  UNL d   1      -1.583   0.243   2.558  0.00  0.00     0.048 A 
ATOM      4  C3  UNL d   1      -1.401  -1.087   2.180  0.00  0.00     0.023 A 
ATOM      5  C4  UNL d   1      -0.149  -1.692   2.307  0.00  0.00     0.048 A 
ATOM      6  C5  UNL d   1       0.924  -0.958   2.815  0.00  0.00     0.003 A 
ATOM      7  I   UNL d   1      -3.002  -2.175   1.424  0.00  0.00    -0.146 I 
ENDROOT
TORSDOF 0
ENDMDL
