MODEL 1
REMARK minimizedAffinity 15.7036724
REMARK minimizedRMSD -1
REMARK  0 active torsions:
REMARK  status: ('A' for Active; 'I' for Inactive)
ROOT
ATOM      1  C   UNL d   1      -1.090   3.330   5.291  0.00  0.00     0.023 A 
ATOM      2  C1  UNL d   1      -1.440   3.080   3.964  0.00  0.00     0.003 A 
ATOM      3  C2  UNL d   1      -1.029   1.899   3.343  0.00  0.00     0.048 A 
ATOM      4  C3  UNL d   1      -0.270   0.971   4.055  0.00  0.00     0.023 A 
ATOM      5  C4  UNL d   1       0.083   1.216   5.383  0.00  0.00     0.048 A 
ATOM      6  C5  UNL d   1      -0.329   2.399   5.999  0.00  0.00     0.003 A 
ATOM      7  I   UNL d   1       0.342  -0.788   3.132  0.00  0.00    -0.146 I 
ENDROOT
TORSDOF 0
ENDMDL
