MODEL 1
REMARK minimizedAffinity 5.53081512
REMARK minimizedRMSD -1
REMARK  3 active torsions:
REMARK  status: ('A' for Active; 'I' for Inactive)
REMARK    1  A    between atoms: C3'_2  and  C2'_3 
REMARK    2  A    between atoms: C2'_3  and  C1'_4 
REMARK    3  A    between atoms: C1'_4  and  C1_5 
ROOT
ATOM      1  C1  N4B d   1       4.681   1.312  -1.975  0.00  0.00    -0.075 A 
ATOM      2  C2  N4B d   1       4.494   1.457  -0.583  0.00  0.00     0.002 A 
ATOM      3  C3  N4B d   1       3.535   0.714   0.062  0.00  0.00     0.002 A 
ATOM      4  C4  N4B d   1       2.742  -0.161  -0.665  0.00  0.00    -0.004 A 
ATOM      5  C5  N4B d   1       2.946  -0.313  -2.005  0.00  0.00     0.002 A 
ATOM      6  C6  N4B d   1       3.909   0.423  -2.665  0.00  0.00     0.002 A 
ENDROOT
BRANCH   1   7
ATOM      7  C1' N4B d   1       5.658   2.164  -2.738  0.00  0.00     0.057 C 
BRANCH   7   8
ATOM      8  C2' N4B d   1       5.032   3.530  -3.001  0.00  0.00     0.009 C 
BRANCH   8   9
ATOM      9  C3' N4B d   1       5.999   4.474  -3.695  0.00  0.00     0.004 C 
ATOM     10  C4' N4B d   1       5.980   5.856  -3.113  0.00  0.00     0.003 C 
ENDBRANCH   8   9
ENDBRANCH   7   8
ENDBRANCH   1   7
TORSDOF 3
ENDMDL
