MODEL 1
REMARK minimizedAffinity 7.36466312
REMARK minimizedRMSD -1
REMARK  3 active torsions:
REMARK  status: ('A' for Active; 'I' for Inactive)
REMARK    1  A    between atoms: C3'_2  and  C2'_3 
REMARK    2  A    between atoms: C2'_3  and  C1'_4 
REMARK    3  A    between atoms: C1'_4  and  C1_5 
ROOT
ATOM      1  C1  N4B d   1      -3.054   0.645  -2.858  0.00  0.00    -0.075 A 
ATOM      2  C2  N4B d   1      -4.325   0.385  -2.298  0.00  0.00     0.002 A 
ATOM      3  C3  N4B d   1      -5.458   0.568  -3.052  0.00  0.00     0.002 A 
ATOM      4  C4  N4B d   1      -5.347   1.027  -4.357  0.00  0.00    -0.004 A 
ATOM      5  C5  N4B d   1      -4.115   1.251  -4.898  0.00  0.00     0.002 A 
ATOM      6  C6  N4B d   1      -2.968   1.067  -4.153  0.00  0.00     0.002 A 
ENDROOT
BRANCH   1   7
ATOM      7  C1' N4B d   1      -1.792   0.541  -2.046  0.00  0.00     0.057 C 
BRANCH   7   8
ATOM      8  C2' N4B d   1      -1.102   1.902  -2.018  0.00  0.00     0.009 C 
BRANCH   8   9
ATOM      9  C3' N4B d   1      -0.201   2.057  -0.805  0.00  0.00     0.004 C 
ATOM     10  C4' N4B d   1      -0.609   3.198   0.079  0.00  0.00     0.003 C 
ENDBRANCH   8   9
ENDBRANCH   7   8
ENDBRANCH   1   7
TORSDOF 3
ENDMDL
