MODEL 1
REMARK minimizedAffinity 7.90055656
REMARK minimizedRMSD -1
REMARK  3 active torsions:
REMARK  status: ('A' for Active; 'I' for Inactive)
REMARK    1  A    between atoms: C3'_2  and  C2'_3 
REMARK    2  A    between atoms: C2'_3  and  C1'_4 
REMARK    3  A    between atoms: C1'_4  and  C1_5 
ROOT
ATOM      1  C1  N4B d   1       4.755   0.989  -1.763  0.00  0.00    -0.075 A 
ATOM      2  C2  N4B d   1       4.120   0.895  -0.505  0.00  0.00     0.002 A 
ATOM      3  C3  N4B d   1       2.952   0.185  -0.377  0.00  0.00     0.002 A 
ATOM      4  C4  N4B d   1       2.392  -0.422  -1.491  0.00  0.00    -0.004 A 
ATOM      5  C5  N4B d   1       3.025  -0.348  -2.697  0.00  0.00     0.002 A 
ATOM      6  C6  N4B d   1       4.201   0.359  -2.840  0.00  0.00     0.002 A 
ENDROOT
BRANCH   1   7
ATOM      7  C1' N4B d   1       5.988   1.825  -1.970  0.00  0.00     0.057 C 
BRANCH   7   8
ATOM      8  C2' N4B d   1       5.814   2.669  -3.229  0.00  0.00     0.009 C 
BRANCH   8   9
ATOM      9  C3' N4B d   1       5.999   4.151  -2.950  0.00  0.00     0.004 C 
ATOM     10  C4' N4B d   1       5.713   5.008  -4.147  0.00  0.00     0.003 C 
ENDBRANCH   8   9
ENDBRANCH   7   8
ENDBRANCH   1   7
TORSDOF 3
ENDMDL
