MODEL 1
REMARK minimizedAffinity 1.11955571
REMARK minimizedRMSD -1
REMARK  3 active torsions:
REMARK  status: ('A' for Active; 'I' for Inactive)
REMARK    1  A    between atoms: C3'_2  and  C2'_3 
REMARK    2  A    between atoms: C2'_3  and  C1'_4 
REMARK    3  A    between atoms: C1'_4  and  C1_5 
ROOT
ATOM      1  C1  N4B d   1       1.179   0.113  -0.243  0.00  0.00    -0.075 A 
ATOM      2  C2  N4B d   1      -0.158  -0.029  -0.675  0.00  0.00     0.002 A 
ATOM      3  C3  N4B d   1      -0.649  -1.272  -0.990  0.00  0.00     0.002 A 
ATOM      4  C4  N4B d   1       0.180  -2.380  -0.898  0.00  0.00    -0.004 A 
ATOM      5  C5  N4B d   1       1.462  -2.238  -0.455  0.00  0.00     0.002 A 
ATOM      6  C6  N4B d   1       1.968  -0.995  -0.131  0.00  0.00     0.002 A 
ENDROOT
BRANCH   1   7
ATOM      7  C1' N4B d   1       1.786   1.462   0.030  0.00  0.00     0.057 C 
BRANCH   7   8
ATOM      8  C2' N4B d   1       3.137   1.555  -0.672  0.00  0.00     0.009 C 
BRANCH   8   9
ATOM      9  C3' N4B d   1       4.116   2.431   0.092  0.00  0.00     0.004 C 
ATOM     10  C4' N4B d   1       4.483   3.679  -0.654  0.00  0.00     0.003 C 
ENDBRANCH   8   9
ENDBRANCH   7   8
ENDBRANCH   1   7
TORSDOF 3
ENDMDL
