MODEL 1
REMARK minimizedAffinity 7.24940634
REMARK minimizedRMSD -1
REMARK  2 active torsions:
REMARK  status: ('A' for Active; 'I' for Inactive)
REMARK    1  A    between atoms: C1_2  and  C2_3 
REMARK    2  A    between atoms: C2_3  and  C3_4 
ROOT
ATOM      1  C3  UNL d   1       5.136   1.516  -1.365  0.00  0.00    -0.075 A 
ATOM      2  C4  UNL d   1       6.000   0.787  -0.535  0.00  0.00     0.002 A 
ATOM      3  C5  UNL d   1       5.548  -0.352   0.133  0.00  0.00     0.002 A 
ATOM      4  C6  UNL d   1       4.226  -0.769  -0.012  0.00  0.00    -0.004 A 
ATOM      5  C7  UNL d   1       3.355  -0.043  -0.821  0.00  0.00     0.002 A 
ATOM      6  C8  UNL d   1       3.806   1.094  -1.493  0.00  0.00     0.002 A 
ENDROOT
BRANCH   1   7
ATOM      7  C2  UNL d   1       5.627   2.732  -2.113  0.00  0.00     0.056 C 
BRANCH   7   8
ATOM      8  C1  UNL d   1       5.197   4.064  -1.490  0.00  0.00     0.007 C 
ATOM      9  C   UNL d   1       6.000   5.253  -2.000  0.00  0.00     0.009 C 
ENDBRANCH   7   8
ENDBRANCH   1   7
TORSDOF 2
ENDMDL
