MODEL 1
REMARK minimizedAffinity 6.69871283
REMARK minimizedRMSD -1
REMARK  2 active torsions:
REMARK  status: ('A' for Active; 'I' for Inactive)
REMARK    1  A    between atoms: C1_2  and  C2_3 
REMARK    2  A    between atoms: C2_3  and  C3_4 
ROOT
ATOM      1  C3  UNL d   1       3.388   0.188  -0.521  0.00  0.00    -0.075 A 
ATOM      2  C4  UNL d   1       4.457  -0.502   0.070  0.00  0.00     0.002 A 
ATOM      3  C5  UNL d   1       5.753   0.009   0.004  0.00  0.00     0.002 A 
ATOM      4  C6  UNL d   1       5.999   1.208  -0.662  0.00  0.00    -0.004 A 
ATOM      5  C7  UNL d   1       4.948   1.893  -1.267  0.00  0.00     0.002 A 
ATOM      6  C8  UNL d   1       3.649   1.387  -1.198  0.00  0.00     0.002 A 
ENDROOT
BRANCH   1   7
ATOM      7  C2  UNL d   1       1.978  -0.345  -0.427  0.00  0.00     0.056 C 
BRANCH   7   8
ATOM      8  C1  UNL d   1       0.895   0.732  -0.552  0.00  0.00     0.007 C 
ATOM      9  C   UNL d   1      -0.018   0.808   0.664  0.00  0.00     0.009 C 
ENDBRANCH   7   8
ENDBRANCH   1   7
TORSDOF 2
ENDMDL
