MODEL 1
REMARK minimizedAffinity 7.35319471
REMARK minimizedRMSD -1
REMARK  0 active torsions:
REMARK  status: ('A' for Active; 'I' for Inactive)
ROOT
ATOM      1  O1  BZF d   1      -3.946   0.341   0.452  0.00  0.00    -0.204 OA
ATOM      2  C2  BZF d   1      -4.526   1.419   1.093  0.00  0.00     0.174 A 
ATOM      3  C3  BZF d   1      -5.296   2.125   0.240  0.00  0.00    -0.012 A 
ATOM      4  C3A BZF d   1      -5.264   1.394  -0.989  0.00  0.00    -0.107 A 
ATOM      5  C4  BZF d   1      -5.848   1.582  -2.209  0.00  0.00     0.055 A 
ATOM      6  C5  BZF d   1      -5.555   0.724  -3.221  0.00  0.00    -0.016 A 
ATOM      7  C6  BZF d   1      -4.681  -0.329  -3.050  0.00  0.00     0.022 A 
ATOM      8  C7  BZF d   1      -4.081  -0.559  -1.857  0.00  0.00     0.029 A 
ATOM      9  C7A BZF d   1      -4.400   0.287  -0.823  0.00  0.00     0.058 A 
ENDROOT
TORSDOF 0
ENDMDL
