MODEL 1
REMARK minimizedAffinity 22.8919601
REMARK minimizedRMSD -1
REMARK  0 active torsions:
REMARK  status: ('A' for Active; 'I' for Inactive)
ROOT
ATOM      1  O1  BZF d   1       5.370   4.045   0.871  0.00  0.00    -0.204 OA
ATOM      2  C2  BZF d   1       5.316   3.826   2.234  0.00  0.00     0.174 A 
ATOM      3  C3  BZF d   1       4.469   2.816   2.523  0.00  0.00    -0.012 A 
ATOM      4  C3A BZF d   1       4.033   2.316   1.255  0.00  0.00    -0.107 A 
ATOM      5  C4  BZF d   1       3.195   1.304   0.883  0.00  0.00     0.055 A 
ATOM      6  C5  BZF d   1       2.923   1.123  -0.436  0.00  0.00    -0.016 A 
ATOM      7  C6  BZF d   1       3.466   1.938  -1.407  0.00  0.00     0.022 A 
ATOM      8  C7  BZF d   1       4.306   2.952  -1.087  0.00  0.00     0.029 A 
ATOM      9  C7A BZF d   1       4.609   3.116   0.242  0.00  0.00     0.058 A 
ENDROOT
TORSDOF 0
ENDMDL
