MODEL 1
REMARK minimizedAffinity 14.4617558
REMARK minimizedRMSD -1
REMARK  0 active torsions:
REMARK  status: ('A' for Active; 'I' for Inactive)
ROOT
ATOM      1  O1  BZF d   1       2.516   0.944  -1.452  0.00  0.00    -0.204 OA
ATOM      2  C2  BZF d   1       3.139   1.884  -0.654  0.00  0.00     0.174 A 
ATOM      3  C3  BZF d   1       3.331   1.402   0.591  0.00  0.00    -0.012 A 
ATOM      4  C3A BZF d   1       2.877   0.046   0.544  0.00  0.00    -0.107 A 
ATOM      5  C4  BZF d   1       2.825  -0.959   1.467  0.00  0.00     0.055 A 
ATOM      6  C5  BZF d   1       2.257  -2.144   1.122  0.00  0.00    -0.016 A 
ATOM      7  C6  BZF d   1       1.727  -2.357  -0.134  0.00  0.00     0.022 A 
ATOM      8  C7  BZF d   1       1.761  -1.392  -1.085  0.00  0.00     0.029 A 
ATOM      9  C7A BZF d   1       2.364  -0.204  -0.749  0.00  0.00     0.058 A 
ENDROOT
TORSDOF 0
ENDMDL
