MODEL 1
REMARK minimizedAffinity 7.5467701
REMARK minimizedRMSD -1
REMARK  0 active torsions:
REMARK  status: ('A' for Active; 'I' for Inactive)
ROOT
ATOM      1  O1  BZF d   1       3.107   0.779  -2.327  0.00  0.00    -0.204 OA
ATOM      2  C2  BZF d   1       3.465   1.546  -1.235  0.00  0.00     0.174 A 
ATOM      3  C3  BZF d   1       3.191   0.897  -0.085  0.00  0.00    -0.012 A 
ATOM      4  C3A BZF d   1       2.711  -0.390  -0.484  0.00  0.00    -0.107 A 
ATOM      5  C4  BZF d   1       2.291  -1.491   0.206  0.00  0.00     0.055 A 
ATOM      6  C5  BZF d   1       1.816  -2.561  -0.483  0.00  0.00    -0.016 A 
ATOM      7  C6  BZF d   1       1.742  -2.563  -1.861  0.00  0.00     0.022 A 
ATOM      8  C7  BZF d   1       2.151  -1.496  -2.589  0.00  0.00     0.029 A 
ATOM      9  C7A BZF d   1       2.662  -0.426  -1.897  0.00  0.00     0.058 A 
ENDROOT
TORSDOF 0
ENDMDL
