MODEL 1
REMARK minimizedAffinity 10.905139
REMARK minimizedRMSD -1
REMARK  0 active torsions:
REMARK  status: ('A' for Active; 'I' for Inactive)
ROOT
ATOM      1  O1  BZF d   1      -3.966   0.184   0.572  0.00  0.00    -0.204 OA
ATOM      2  C2  BZF d   1      -5.038   0.821   1.167  0.00  0.00     0.174 A 
ATOM      3  C3  BZF d   1      -5.976   1.136   0.250  0.00  0.00    -0.012 A 
ATOM      4  C3A BZF d   1      -5.499   0.585  -0.981  0.00  0.00    -0.107 A 
ATOM      5  C4  BZF d   1      -5.998   0.556  -2.252  0.00  0.00     0.055 A 
ATOM      6  C5  BZF d   1      -5.250   0.001  -3.242  0.00  0.00    -0.016 A 
ATOM      7  C6  BZF d   1      -4.000  -0.527  -2.998  0.00  0.00     0.022 A 
ATOM      8  C7  BZF d   1      -3.465  -0.525  -1.753  0.00  0.00     0.029 A 
ATOM      9  C7A BZF d   1      -4.232   0.005  -0.744  0.00  0.00     0.058 A 
ENDROOT
TORSDOF 0
ENDMDL
