MODEL 1
REMARK minimizedAffinity 5.54948139
REMARK minimizedRMSD -1
REMARK  0 active torsions:
REMARK  status: ('A' for Active; 'I' for Inactive)
ROOT
ATOM      1  O1  BZF d   1       1.869  -0.991  -0.853  0.00  0.00    -0.204 OA
ATOM      2  C2  BZF d   1       2.119  -1.847   0.202  0.00  0.00     0.174 A 
ATOM      3  C3  BZF d   1       3.155  -1.404   0.942  0.00  0.00    -0.012 A 
ATOM      4  C3A BZF d   1       3.520  -0.147   0.364  0.00  0.00    -0.107 A 
ATOM      5  C4  BZF d   1       4.471   0.785   0.667  0.00  0.00     0.055 A 
ATOM      6  C5  BZF d   1       4.615   1.869  -0.140  0.00  0.00    -0.016 A 
ATOM      7  C6  BZF d   1       3.829   2.050  -1.259  0.00  0.00     0.022 A 
ATOM      8  C7  BZF d   1       2.869   1.155  -1.598  0.00  0.00     0.029 A 
ATOM      9  C7A BZF d   1       2.700   0.076  -0.766  0.00  0.00     0.058 A 
ENDROOT
TORSDOF 0
ENDMDL
