MODEL 1
REMARK minimizedAffinity 6.81621313
REMARK minimizedRMSD -1
REMARK  0 active torsions:
REMARK  status: ('A' for Active; 'I' for Inactive)
ROOT
ATOM      1  O1  BZF d   1      -1.823  -4.982   4.275  0.00  0.00    -0.204 OA
ATOM      2  C2  BZF d   1      -1.889  -5.999   5.208  0.00  0.00     0.174 A 
ATOM      3  C3  BZF d   1      -0.793  -6.000   5.994  0.00  0.00    -0.012 A 
ATOM      4  C3A BZF d   1      -0.034  -4.859   5.583  0.00  0.00    -0.107 A 
ATOM      5  C4  BZF d   1       1.148  -4.318   5.999  0.00  0.00     0.055 A 
ATOM      6  C5  BZF d   1       1.651  -3.241   5.340  0.00  0.00    -0.016 A 
ATOM      7  C6  BZF d   1       1.000  -2.683   4.259  0.00  0.00     0.022 A 
ATOM      8  C7  BZF d   1      -0.178  -3.182   3.812  0.00  0.00     0.029 A 
ATOM      9  C7A BZF d   1      -0.705  -4.250   4.497  0.00  0.00     0.058 A 
ENDROOT
TORSDOF 0
ENDMDL
