MODEL 1
REMARK minimizedAffinity 2.58209872
REMARK minimizedRMSD -1
REMARK  0 active torsions:
REMARK  status: ('A' for Active; 'I' for Inactive)
ROOT
ATOM      1  C   UNL d   1      -0.835  -5.990   1.594  0.00  0.00     0.023 A 
ATOM      2  C1  UNL d   1      -1.353  -5.999   2.889  0.00  0.00     0.003 A 
ATOM      3  C2  UNL d   1      -2.735  -6.000   3.089  0.00  0.00     0.048 A 
ATOM      4  C3  UNL d   1      -3.593  -5.992   1.990  0.00  0.00     0.023 A 
ATOM      5  C4  UNL d   1      -3.079  -5.983   0.692  0.00  0.00     0.048 A 
ATOM      6  C5  UNL d   1      -1.696  -5.982   0.497  0.00  0.00     0.003 A 
ATOM      7  I   UNL d   1      -5.650  -5.993   2.286  0.00  0.00    -0.146 I 
ENDROOT
TORSDOF 0
ENDMDL
