MODEL 1
REMARK minimizedAffinity 10.7818766
REMARK minimizedRMSD -1
REMARK  0 active torsions:
REMARK  status: ('A' for Active; 'I' for Inactive)
ROOT
ATOM      1  C   UNL d   1       2.446  -4.667   4.910  0.00  0.00     0.023 A 
ATOM      2  C1  UNL d   1       1.600  -5.616   5.483  0.00  0.00     0.003 A 
ATOM      3  C2  UNL d   1       0.430  -6.000   4.823  0.00  0.00     0.048 A 
ATOM      4  C3  UNL d   1       0.114  -5.430   3.590  0.00  0.00     0.023 A 
ATOM      5  C4  UNL d   1       0.958  -4.480   3.013  0.00  0.00     0.048 A 
ATOM      6  C5  UNL d   1       2.125  -4.099   3.677  0.00  0.00     0.003 A 
ATOM      7  I   UNL d   1      -1.626  -6.000   2.606  0.00  0.00    -0.146 I 
ENDROOT
TORSDOF 0
ENDMDL
