MODEL 1
REMARK minimizedAffinity 3.8060894
REMARK minimizedRMSD -1
REMARK  0 active torsions:
REMARK  status: ('A' for Active; 'I' for Inactive)
ROOT
ATOM      1  C   UNL d   1       5.500   2.539  -5.472  0.00  0.00     0.023 A 
ATOM      2  C1  UNL d   1       4.259   2.182  -6.000  0.00  0.00     0.003 A 
ATOM      3  C2  UNL d   1       3.503   1.177  -5.392  0.00  0.00     0.048 A 
ATOM      4  C3  UNL d   1       3.994   0.535  -4.255  0.00  0.00     0.023 A 
ATOM      5  C4  UNL d   1       5.235   0.890  -3.723  0.00  0.00     0.048 A 
ATOM      6  C5  UNL d   1       5.987   1.894  -4.335  0.00  0.00     0.003 A 
ATOM      7  I   UNL d   1       2.871  -0.961  -3.348  0.00  0.00    -0.146 I 
ENDROOT
TORSDOF 0
ENDMDL
