MODEL 1
REMARK minimizedAffinity 11.1870155
REMARK minimizedRMSD -1
REMARK  0 active torsions:
REMARK  status: ('A' for Active; 'I' for Inactive)
ROOT
ATOM      1  C   UNL d   1      -1.794  -3.707  -4.453  0.00  0.00     0.023 A 
ATOM      2  C1  UNL d   1      -2.640  -3.435  -3.378  0.00  0.00     0.003 A 
ATOM      3  C2  UNL d   1      -2.442  -2.291  -2.603  0.00  0.00     0.048 A 
ATOM      4  C3  UNL d   1      -1.396  -1.422  -2.909  0.00  0.00     0.023 A 
ATOM      5  C4  UNL d   1      -0.546  -1.688  -3.984  0.00  0.00     0.048 A 
ATOM      6  C5  UNL d   1      -0.748  -2.834  -4.756  0.00  0.00     0.003 A 
ATOM      7  I   UNL d   1      -1.098   0.282  -1.756  0.00  0.00    -0.146 I 
ENDROOT
TORSDOF 0
ENDMDL
