MODEL 1
REMARK minimizedAffinity 4.06129122
REMARK minimizedRMSD -1
REMARK  0 active torsions:
REMARK  status: ('A' for Active; 'I' for Inactive)
ROOT
ATOM      1  C   UNL d   1      -5.627   0.455   3.999  0.00  0.00     0.023 A 
ATOM      2  C1  UNL d   1      -5.835   1.572   3.189  0.00  0.00     0.003 A 
ATOM      3  C2  UNL d   1      -5.943   2.841   3.762  0.00  0.00     0.048 A 
ATOM      4  C3  UNL d   1      -5.840   2.986   5.145  0.00  0.00     0.023 A 
ATOM      5  C4  UNL d   1      -5.631   1.872   5.959  0.00  0.00     0.048 A 
ATOM      6  C5  UNL d   1      -5.525   0.605   5.382  0.00  0.00     0.003 A 
ATOM      7  I   UNL d   1      -5.999   4.874   6.000  0.00  0.00    -0.146 I 
ENDROOT
TORSDOF 0
ENDMDL
