MODEL 1
REMARK minimizedAffinity 8.55199051
REMARK minimizedRMSD -1
REMARK  0 active torsions:
REMARK  status: ('A' for Active; 'I' for Inactive)
ROOT
ATOM      1  C   UNL d   1      -2.520  -2.500   1.514  0.00  0.00     0.023 A 
ATOM      2  C1  UNL d   1      -2.039  -1.841   2.645  0.00  0.00     0.003 A 
ATOM      3  C2  UNL d   1      -2.919  -1.149   3.480  0.00  0.00     0.048 A 
ATOM      4  C3  UNL d   1      -4.280  -1.122   3.177  0.00  0.00     0.023 A 
ATOM      5  C4  UNL d   1      -4.767  -1.781   2.047  0.00  0.00     0.048 A 
ATOM      6  C5  UNL d   1      -3.882  -2.470   1.215  0.00  0.00     0.003 A 
ATOM      7  I   UNL d   1      -5.593  -0.094   4.417  0.00  0.00    -0.146 I 
ENDROOT
TORSDOF 0
ENDMDL
