MODEL 1
REMARK minimizedAffinity 9.54594898
REMARK minimizedRMSD -1
REMARK  0 active torsions:
REMARK  status: ('A' for Active; 'I' for Inactive)
ROOT
ATOM      1  C   UNL d   1      -1.372  -2.271  -4.152  0.00  0.00     0.023 A 
ATOM      2  C1  UNL d   1      -0.298  -2.888  -4.794  0.00  0.00     0.003 A 
ATOM      3  C2  UNL d   1       0.997  -2.392  -4.625  0.00  0.00     0.048 A 
ATOM      4  C3  UNL d   1       1.210  -1.279  -3.812  0.00  0.00     0.023 A 
ATOM      5  C4  UNL d   1       0.139  -0.659  -3.168  0.00  0.00     0.048 A 
ATOM      6  C5  UNL d   1      -1.154  -1.158  -3.340  0.00  0.00     0.003 A 
ATOM      7  I   UNL d   1       3.136  -0.539  -3.559  0.00  0.00    -0.146 I 
ENDROOT
TORSDOF 0
ENDMDL
