MODEL 1
REMARK minimizedAffinity 9.40890312
REMARK minimizedRMSD -1
REMARK  0 active torsions:
REMARK  status: ('A' for Active; 'I' for Inactive)
ROOT
ATOM      1  C   UNL d   1      -1.327  -5.954   2.096  0.00  0.00     0.023 A 
ATOM      2  C1  UNL d   1      -0.886  -5.930   3.419  0.00  0.00     0.003 A 
ATOM      3  C2  UNL d   1       0.482  -5.925   3.701  0.00  0.00     0.048 A 
ATOM      4  C3  UNL d   1       1.403  -5.943   2.654  0.00  0.00     0.023 A 
ATOM      5  C4  UNL d   1       0.966  -5.966   1.328  0.00  0.00     0.048 A 
ATOM      6  C5  UNL d   1      -0.402  -5.972   1.052  0.00  0.00     0.003 A 
ATOM      7  I   UNL d   1       3.439  -5.934   3.070  0.00  0.00    -0.146 I 
ENDROOT
TORSDOF 0
ENDMDL
