MODEL 1
REMARK minimizedAffinity 8.20999432
REMARK minimizedRMSD -1
REMARK  0 active torsions:
REMARK  status: ('A' for Active; 'I' for Inactive)
ROOT
ATOM      1  C   UNL d   1      -1.164  -1.904   3.027  0.00  0.00     0.023 A 
ATOM      2  C1  UNL d   1      -0.992  -0.570   3.398  0.00  0.00     0.003 A 
ATOM      3  C2  UNL d   1      -0.393   0.330   2.514  0.00  0.00     0.048 A 
ATOM      4  C3  UNL d   1       0.030  -0.111   1.260  0.00  0.00     0.023 A 
ATOM      5  C4  UNL d   1      -0.141  -1.444   0.885  0.00  0.00     0.048 A 
ATOM      6  C5  UNL d   1      -0.739  -2.340   1.772  0.00  0.00     0.003 A 
ATOM      7  I   UNL d   1       0.922   1.227  -0.057  0.00  0.00    -0.146 I 
ENDROOT
TORSDOF 0
ENDMDL
