MODEL 1
REMARK minimizedAffinity 7.19754696
REMARK minimizedRMSD -1
REMARK  0 active torsions:
REMARK  status: ('A' for Active; 'I' for Inactive)
ROOT
ATOM      1  C   UNL d   1      -0.573  -5.995   1.150  0.00  0.00     0.023 A 
ATOM      2  C1  UNL d   1      -1.537  -6.000   2.158  0.00  0.00     0.003 A 
ATOM      3  C2  UNL d   1      -1.148  -6.000   3.499  0.00  0.00     0.048 A 
ATOM      4  C3  UNL d   1       0.208  -5.993   3.825  0.00  0.00     0.023 A 
ATOM      5  C4  UNL d   1       1.177  -5.986   2.820  0.00  0.00     0.048 A 
ATOM      6  C5  UNL d   1       0.783  -5.988   1.480  0.00  0.00     0.003 A 
ATOM      7  I   UNL d   1       0.790  -5.992   5.820  0.00  0.00    -0.146 I 
ENDROOT
TORSDOF 0
ENDMDL
