MODEL 1
REMARK minimizedAffinity 11.3175821
REMARK minimizedRMSD -1
REMARK  0 active torsions:
REMARK  status: ('A' for Active; 'I' for Inactive)
ROOT
ATOM      1  C   UNL d   1      -1.995  -3.143  -3.731  0.00  0.00     0.023 A 
ATOM      2  C1  UNL d   1      -0.869  -3.519  -4.464  0.00  0.00     0.003 A 
ATOM      3  C2  UNL d   1       0.357  -2.889  -4.236  0.00  0.00     0.048 A 
ATOM      4  C3  UNL d   1       0.449  -1.885  -3.272  0.00  0.00     0.023 A 
ATOM      5  C4  UNL d   1      -0.674  -1.507  -2.536  0.00  0.00     0.048 A 
ATOM      6  C5  UNL d   1      -1.898  -2.138  -2.768  0.00  0.00     0.003 A 
ATOM      7  I   UNL d   1       2.272  -0.947  -2.931  0.00  0.00    -0.146 I 
ENDROOT
TORSDOF 0
ENDMDL
