MODEL 1
REMARK minimizedAffinity 7.90459394
REMARK minimizedRMSD -1
REMARK  0 active torsions:
REMARK  status: ('A' for Active; 'I' for Inactive)
ROOT
ATOM      1  C   UNL d   1       2.507  -5.997   4.735  0.00  0.00     0.023 A 
ATOM      2  C1  UNL d   1       2.487  -5.999   3.341  0.00  0.00     0.003 A 
ATOM      3  C2  UNL d   1       1.268  -6.000   2.658  0.00  0.00     0.048 A 
ATOM      4  C3  UNL d   1       0.073  -5.998   3.377  0.00  0.00     0.023 A 
ATOM      5  C4  UNL d   1       0.088  -5.995   4.773  0.00  0.00     0.048 A 
ATOM      6  C5  UNL d   1       1.309  -5.995   5.451  0.00  0.00     0.003 A 
ATOM      7  I   UNL d   1      -1.741  -5.999   2.364  0.00  0.00    -0.146 I 
ENDROOT
TORSDOF 0
ENDMDL
