MODEL 1
REMARK minimizedAffinity 5.51124001
REMARK minimizedRMSD -1
REMARK  0 active torsions:
REMARK  status: ('A' for Active; 'I' for Inactive)
ROOT
ATOM      1  C   UNL d   1      -2.194  -2.850  -4.012  0.00  0.00     0.023 A 
ATOM      2  C1  UNL d   1      -1.131  -3.560  -4.572  0.00  0.00     0.003 A 
ATOM      3  C2  UNL d   1       0.157  -3.022  -4.554  0.00  0.00     0.048 A 
ATOM      4  C3  UNL d   1       0.376  -1.774  -3.973  0.00  0.00     0.023 A 
ATOM      5  C4  UNL d   1      -0.683  -1.060  -3.411  0.00  0.00     0.048 A 
ATOM      6  C5  UNL d   1      -1.970  -1.601  -3.432  0.00  0.00     0.003 A 
ATOM      7  I   UNL d   1       2.293  -0.970  -3.944  0.00  0.00    -0.146 I 
ENDROOT
TORSDOF 0
ENDMDL
