MODEL 1
REMARK minimizedAffinity 9.56508732
REMARK minimizedRMSD -1
REMARK  0 active torsions:
REMARK  status: ('A' for Active; 'I' for Inactive)
ROOT
ATOM      1  C   UNL d   1      -1.112  -3.057  -4.570  0.00  0.00     0.023 A 
ATOM      2  C1  UNL d   1      -1.181  -1.787  -3.997  0.00  0.00     0.003 A 
ATOM      3  C2  UNL d   1      -0.029  -1.187  -3.485  0.00  0.00     0.048 A 
ATOM      4  C3  UNL d   1       1.189  -1.862  -3.550  0.00  0.00     0.023 A 
ATOM      5  C4  UNL d   1       1.263  -3.133  -4.123  0.00  0.00     0.048 A 
ATOM      6  C5  UNL d   1       0.109  -3.729  -4.633  0.00  0.00     0.003 A 
ATOM      7  I   UNL d   1       2.906  -0.971  -2.788  0.00  0.00    -0.146 I 
ENDROOT
TORSDOF 0
ENDMDL
