MODEL 1
REMARK minimizedAffinity 8.43023491
REMARK minimizedRMSD -1
REMARK  0 active torsions:
REMARK  status: ('A' for Active; 'I' for Inactive)
ROOT
ATOM      1  C   UNL d   1       5.624   3.063   1.525  0.00  0.00     0.023 A 
ATOM      2  C1  UNL d   1       5.324   1.886   2.211  0.00  0.00     0.003 A 
ATOM      3  C2  UNL d   1       4.074   1.284   2.054  0.00  0.00     0.048 A 
ATOM      4  C3  UNL d   1       3.128   1.864   1.209  0.00  0.00     0.023 A 
ATOM      5  C4  UNL d   1       3.424   3.041   0.520  0.00  0.00     0.048 A 
ATOM      6  C5  UNL d   1       4.675   3.640   0.681  0.00  0.00     0.003 A 
ATOM      7  I   UNL d   1       1.267   0.970   0.974  0.00  0.00    -0.146 I 
ENDROOT
TORSDOF 0
ENDMDL
