MODEL 1
REMARK minimizedAffinity 1.00044799
REMARK minimizedRMSD -1
REMARK  0 active torsions:
REMARK  status: ('A' for Active; 'I' for Inactive)
ROOT
ATOM      1  C1  BNZ d   1       4.125   0.144   3.269  0.00  0.00     0.000 A 
ATOM      2  C2  BNZ d   1       5.073  -0.367   4.115  0.00  0.00     0.000 A 
ATOM      3  C3  BNZ d   1       5.973   0.453   4.735  0.00  0.00     0.000 A 
ATOM      4  C4  BNZ d   1       5.952   1.777   4.477  0.00  0.00     0.000 A 
ATOM      5  C5  BNZ d   1       5.008   2.306   3.619  0.00  0.00     0.000 A 
ATOM      6  C6  BNZ d   1       4.079   1.483   3.027  0.00  0.00     0.000 A 
ENDROOT
TORSDOF 0
ENDMDL
