MODEL 1
REMARK minimizedAffinity 3.52165127
REMARK minimizedRMSD -1
REMARK  0 active torsions:
REMARK  status: ('A' for Active; 'I' for Inactive)
ROOT
ATOM      1  C1  BNZ d   1       4.532   1.007   3.165  0.00  0.00     0.000 A 
ATOM      2  C2  BNZ d   1       5.283   0.002   3.713  0.00  0.00     0.000 A 
ATOM      3  C3  BNZ d   1       5.998   0.207   4.860  0.00  0.00     0.000 A 
ATOM      4  C4  BNZ d   1       5.993   1.428   5.435  0.00  0.00     0.000 A 
ATOM      5  C5  BNZ d   1       5.248   2.454   4.889  0.00  0.00     0.000 A 
ATOM      6  C6  BNZ d   1       4.499   2.233   3.756  0.00  0.00     0.000 A 
ENDROOT
TORSDOF 0
ENDMDL
