MODEL 1
REMARK minimizedAffinity -0.456751257
REMARK minimizedRMSD -1
REMARK  0 active torsions:
REMARK  status: ('A' for Active; 'I' for Inactive)
ROOT
ATOM      1  C1  BNZ d   1      -4.001   3.623   0.239  0.00  0.00     0.000 A 
ATOM      2  C2  BNZ d   1      -3.793   2.271   0.306  0.00  0.00     0.000 A 
ATOM      3  C3  BNZ d   1      -2.592   1.729  -0.057  0.00  0.00     0.000 A 
ATOM      4  C4  BNZ d   1      -1.616   2.534  -0.526  0.00  0.00     0.000 A 
ATOM      5  C5  BNZ d   1      -1.814   3.897  -0.609  0.00  0.00     0.000 A 
ATOM      6  C6  BNZ d   1      -3.011   4.444  -0.205  0.00  0.00     0.000 A 
ENDROOT
TORSDOF 0
ENDMDL
