MODEL 1
REMARK minimizedAffinity -3.48770976
REMARK minimizedRMSD -1
REMARK  0 active torsions:
REMARK  status: ('A' for Active; 'I' for Inactive)
ROOT
ATOM      1  C1  BNZ d   1      -2.219   1.177   2.327  0.00  0.00     0.000 A 
ATOM      2  C2  BNZ d   1      -2.612  -0.135   2.325  0.00  0.00     0.000 A 
ATOM      3  C3  BNZ d   1      -3.069  -0.727   1.181  0.00  0.00     0.000 A 
ATOM      4  C4  BNZ d   1      -3.171   0.003   0.052  0.00  0.00     0.000 A 
ATOM      5  C5  BNZ d   1      -2.788   1.330   0.040  0.00  0.00     0.000 A 
ATOM      6  C6  BNZ d   1      -2.291   1.911   1.184  0.00  0.00     0.000 A 
ENDROOT
TORSDOF 0
ENDMDL
