MODEL 1
REMARK minimizedAffinity 2.66672421
REMARK minimizedRMSD -1
REMARK  0 active torsions:
REMARK  status: ('A' for Active; 'I' for Inactive)
ROOT
ATOM      1  C1  BNZ d   1      -2.789   3.648   0.684  0.00  0.00     0.000 A 
ATOM      2  C2  BNZ d   1      -1.617   2.943   0.620  0.00  0.00     0.000 A 
ATOM      3  C3  BNZ d   1      -1.504   1.845  -0.186  0.00  0.00     0.000 A 
ATOM      4  C4  BNZ d   1      -2.574   1.431  -0.896  0.00  0.00     0.000 A 
ATOM      5  C5  BNZ d   1      -3.765   2.126  -0.835  0.00  0.00     0.000 A 
ATOM      6  C6  BNZ d   1      -3.864   3.253  -0.052  0.00  0.00     0.000 A 
ENDROOT
TORSDOF 0
ENDMDL
