MODEL 1
REMARK minimizedAffinity -3.64830065
REMARK minimizedRMSD -1
REMARK  0 active torsions:
REMARK  status: ('A' for Active; 'I' for Inactive)
ROOT
ATOM      1  C1  BNZ d   1      -2.388  -0.762   0.990  0.00  0.00     0.000 A 
ATOM      2  C2  BNZ d   1      -2.173   0.157  -0.002  0.00  0.00     0.000 A 
ATOM      3  C3  BNZ d   1      -2.218   1.497   0.264  0.00  0.00     0.000 A 
ATOM      4  C4  BNZ d   1      -2.516   1.916   1.511  0.00  0.00     0.000 A 
ATOM      5  C5  BNZ d   1      -2.745   1.001   2.519  0.00  0.00     0.000 A 
ATOM      6  C6  BNZ d   1      -2.661  -0.347   2.256  0.00  0.00     0.000 A 
ENDROOT
TORSDOF 0
ENDMDL
