MODEL 1
REMARK minimizedAffinity -3.22683287
REMARK minimizedRMSD -1
REMARK  0 active torsions:
REMARK  status: ('A' for Active; 'I' for Inactive)
ROOT
ATOM      1  C1  BNZ d   1      -4.094   2.206  -0.302  0.00  0.00     0.000 A 
ATOM      2  C2  BNZ d   1      -3.739   0.945   0.097  0.00  0.00     0.000 A 
ATOM      3  C3  BNZ d   1      -3.008   0.751   1.236  0.00  0.00     0.000 A 
ATOM      4  C4  BNZ d   1      -2.599   1.818   1.951  0.00  0.00     0.000 A 
ATOM      5  C5  BNZ d   1      -2.940   3.097   1.557  0.00  0.00     0.000 A 
ATOM      6  C6  BNZ d   1      -3.709   3.286   0.432  0.00  0.00     0.000 A 
ENDROOT
TORSDOF 0
ENDMDL
