MODEL 1
REMARK minimizedAffinity -0.91033709
REMARK minimizedRMSD -1
REMARK  0 active torsions:
REMARK  status: ('A' for Active; 'I' for Inactive)
ROOT
ATOM      1  C1  BNZ d   1       3.897  -0.119   2.985  0.00  0.00     0.000 A 
ATOM      2  C2  BNZ d   1       4.963  -0.550   3.730  0.00  0.00     0.000 A 
ATOM      3  C3  BNZ d   1       6.000   0.292   4.019  0.00  0.00     0.000 A 
ATOM      4  C4  BNZ d   1       5.989   1.549   3.531  0.00  0.00     0.000 A 
ATOM      5  C5  BNZ d   1       4.926   1.995   2.772  0.00  0.00     0.000 A 
ATOM      6  C6  BNZ d   1       3.866   1.157   2.515  0.00  0.00     0.000 A 
ENDROOT
TORSDOF 0
ENDMDL
