MODEL 1
REMARK minimizedAffinity -2.47211528
REMARK minimizedRMSD -1
REMARK  0 active torsions:
REMARK  status: ('A' for Active; 'I' for Inactive)
ROOT
ATOM      1  C1  BNZ d   1      -3.111   1.501  -0.354  0.00  0.00     0.000 A 
ATOM      2  C2  BNZ d   1      -2.867   0.275   0.205  0.00  0.00     0.000 A 
ATOM      3  C3  BNZ d   1      -2.893   0.106   1.561  0.00  0.00     0.000 A 
ATOM      4  C4  BNZ d   1      -3.123   1.170   2.358  0.00  0.00     0.000 A 
ATOM      5  C5  BNZ d   1      -3.362   2.415   1.810  0.00  0.00     0.000 A 
ATOM      6  C6  BNZ d   1      -3.374   2.573   0.443  0.00  0.00     0.000 A 
ENDROOT
TORSDOF 0
ENDMDL
