MODEL 1
REMARK minimizedAffinity 0.54805696
REMARK minimizedRMSD -1
REMARK  0 active torsions:
REMARK  status: ('A' for Active; 'I' for Inactive)
ROOT
ATOM      1  C1  BNZ d   1      -2.747  -1.657   2.695  0.00  0.00     0.000 A 
ATOM      2  C2  BNZ d   1      -2.776  -1.264   4.007  0.00  0.00     0.000 A 
ATOM      3  C3  BNZ d   1      -3.067   0.028   4.344  0.00  0.00     0.000 A 
ATOM      4  C4  BNZ d   1      -3.289   0.934   3.370  0.00  0.00     0.000 A 
ATOM      5  C5  BNZ d   1      -3.253   0.556   2.043  0.00  0.00     0.000 A 
ATOM      6  C6  BNZ d   1      -2.999  -0.754   1.708  0.00  0.00     0.000 A 
ENDROOT
TORSDOF 0
ENDMDL
