MODEL 1
REMARK minimizedAffinity 5.15243196
REMARK minimizedRMSD -1
REMARK  0 active torsions:
REMARK  status: ('A' for Active; 'I' for Inactive)
ROOT
ATOM      1  C1  BNZ d   1      -3.629   5.881   3.828  0.00  0.00     0.000 A 
ATOM      2  C2  BNZ d   1      -3.649   5.632   2.482  0.00  0.00     0.000 A 
ATOM      3  C3  BNZ d   1      -4.834   5.509   1.810  0.00  0.00     0.000 A 
ATOM      4  C4  BNZ d   1      -5.994   5.596   2.491  0.00  0.00     0.000 A 
ATOM      5  C5  BNZ d   1      -5.991   5.838   3.851  0.00  0.00     0.000 A 
ATOM      6  C6  BNZ d   1      -4.797   6.000   4.516  0.00  0.00     0.000 A 
ENDROOT
TORSDOF 0
ENDMDL
