MODEL 1
REMARK minimizedAffinity -1.26454329
REMARK minimizedRMSD -1
REMARK  0 active torsions:
REMARK  status: ('A' for Active; 'I' for Inactive)
ROOT
ATOM      1  C1  BNZ d   1       6.000   1.095   4.281  0.00  0.00     0.000 A 
ATOM      2  C2  BNZ d   1       5.260   0.345   3.406  0.00  0.00     0.000 A 
ATOM      3  C3  BNZ d   1       4.523   0.943   2.422  0.00  0.00     0.000 A 
ATOM      4  C4  BNZ d   1       4.495   2.289   2.339  0.00  0.00     0.000 A 
ATOM      5  C5  BNZ d   1       5.228   3.059   3.220  0.00  0.00     0.000 A 
ATOM      6  C6  BNZ d   1       6.000   2.452   4.185  0.00  0.00     0.000 A 
ENDROOT
TORSDOF 0
ENDMDL
