MODEL 1
REMARK minimizedAffinity -0.291517615
REMARK minimizedRMSD -1
REMARK  0 active torsions:
REMARK  status: ('A' for Active; 'I' for Inactive)
ROOT
ATOM      1  C1  BNZ d   1       4.506   1.278   2.688  0.00  0.00     0.000 A 
ATOM      2  C2  BNZ d   1       5.247   0.367   3.393  0.00  0.00     0.000 A 
ATOM      3  C3  BNZ d   1       5.978   0.752   4.481  0.00  0.00     0.000 A 
ATOM      4  C4  BNZ d   1       6.000   2.052   4.840  0.00  0.00     0.000 A 
ATOM      5  C5  BNZ d   1       5.265   2.984   4.134  0.00  0.00     0.000 A 
ATOM      6  C6  BNZ d   1       4.499   2.586   3.062  0.00  0.00     0.000 A 
ENDROOT
TORSDOF 0
ENDMDL
