MODEL 1
REMARK minimizedAffinity 8.0468502
REMARK minimizedRMSD -1
REMARK  0 active torsions:
REMARK  status: ('A' for Active; 'I' for Inactive)
ROOT
ATOM      1  C1  BNZ d   1       5.999   1.098   5.660  0.00  0.00     0.000 A 
ATOM      2  C2  BNZ d   1       6.000  -0.258   5.471  0.00  0.00     0.000 A 
ATOM      3  C3  BNZ d   1       5.844  -0.791   4.222  0.00  0.00     0.000 A 
ATOM      4  C4  BNZ d   1       5.648   0.030   3.171  0.00  0.00     0.000 A 
ATOM      5  C5  BNZ d   1       5.635   1.400   3.346  0.00  0.00     0.000 A 
ATOM      6  C6  BNZ d   1       5.832   1.934   4.599  0.00  0.00     0.000 A 
ENDROOT
TORSDOF 0
ENDMDL
