MODEL 1
REMARK minimizedAffinity -1.52756071
REMARK minimizedRMSD -1
REMARK  0 active torsions:
REMARK  status: ('A' for Active; 'I' for Inactive)
ROOT
ATOM      1  C1  BNZ d   1       5.999   2.652   5.079  0.00  0.00     0.000 A 
ATOM      2  C2  BNZ d   1       5.443   3.464   4.127  0.00  0.00     0.000 A 
ATOM      3  C3  BNZ d   1       4.873   2.935   3.003  0.00  0.00     0.000 A 
ATOM      4  C4  BNZ d   1       4.897   1.600   2.813  0.00  0.00     0.000 A 
ATOM      5  C5  BNZ d   1       5.462   0.769   3.759  0.00  0.00     0.000 A 
ATOM      6  C6  BNZ d   1       6.000   1.302   4.908  0.00  0.00     0.000 A 
ENDROOT
TORSDOF 0
ENDMDL
