MODEL 1
REMARK minimizedAffinity -2.86526966
REMARK minimizedRMSD -1
REMARK  0 active torsions:
REMARK  status: ('A' for Active; 'I' for Inactive)
ROOT
ATOM      1  C1  BNZ d   1      -4.491  -1.088   2.725  0.00  0.00     0.000 A 
ATOM      2  C2  BNZ d   1      -4.063  -1.375   1.456  0.00  0.00     0.000 A 
ATOM      3  C3  BNZ d   1      -2.752  -1.210   1.106  0.00  0.00     0.000 A 
ATOM      4  C4  BNZ d   1      -1.881  -0.721   2.011  0.00  0.00     0.000 A 
ATOM      5  C5  BNZ d   1      -2.299  -0.418   3.291  0.00  0.00     0.000 A 
ATOM      6  C6  BNZ d   1      -3.611  -0.622   3.652  0.00  0.00     0.000 A 
ENDROOT
TORSDOF 0
ENDMDL
