MODEL 1
REMARK minimizedAffinity -2.1030755
REMARK minimizedRMSD -1
REMARK  0 active torsions:
REMARK  status: ('A' for Active; 'I' for Inactive)
ROOT
ATOM      1  C1  DEN d   1       0.589  -0.873   4.650  0.00  0.00     0.130 A 
ATOM      2  C2  DEN d   1       1.923  -1.459   4.545  0.00  0.00    -0.031 A 
ATOM      3  C3  DEN d   1       2.328  -1.421   3.126  0.00  0.00     0.027 A 
ATOM      4  C4  DEN d   1       1.030  -0.511   1.091  0.00  0.00     0.027 A 
ATOM      5  C5  DEN d   1      -0.148   0.073   0.681  0.00  0.00    -0.003 A 
ATOM      6  C6  DEN d   1      -1.168   0.350   1.552  0.00  0.00     0.001 A 
ATOM      7  C7  DEN d   1      -1.011   0.083   2.887  0.00  0.00     0.017 A 
ATOM      8  C8  DEN d   1       0.171  -0.513   3.307  0.00  0.00    -0.094 A 
ATOM      9  C9  DEN d   1       1.195  -0.773   2.412  0.00  0.00    -0.072 A 
ENDROOT
TORSDOF 0
ENDMDL
