MODEL 1
REMARK minimizedAffinity -0.849728882
REMARK minimizedRMSD -1
REMARK  0 active torsions:
REMARK  status: ('A' for Active; 'I' for Inactive)
ROOT
ATOM      1  C1  DEN d   1      -0.468  -0.480   2.445  0.00  0.00     0.130 A 
ATOM      2  C2  DEN d   1      -1.623   0.045   3.168  0.00  0.00    -0.031 A 
ATOM      3  C3  DEN d   1      -2.657   0.403   2.177  0.00  0.00     0.027 A 
ATOM      4  C4  DEN d   1      -2.585   0.192  -0.393  0.00  0.00     0.027 A 
ATOM      5  C5  DEN d   1      -1.810  -0.188  -1.467  0.00  0.00    -0.003 A 
ATOM      6  C6  DEN d   1      -0.532  -0.657  -1.315  0.00  0.00     0.001 A 
ATOM      7  C7  DEN d   1      -0.006  -0.800  -0.059  0.00  0.00     0.017 A 
ATOM      8  C8  DEN d   1      -0.778  -0.411   1.028  0.00  0.00    -0.094 A 
ATOM      9  C9  DEN d   1      -2.072   0.048   0.855  0.00  0.00    -0.072 A 
ENDROOT
TORSDOF 0
ENDMDL
