MODEL 1
REMARK minimizedAffinity 4.91767454
REMARK minimizedRMSD -1
REMARK  0 active torsions:
REMARK  status: ('A' for Active; 'I' for Inactive)
ROOT
ATOM      1  C1  DEN d   1       0.861  -0.378   1.419  0.00  0.00     0.130 A 
ATOM      2  C2  DEN d   1       1.339  -0.797   0.105  0.00  0.00    -0.031 A 
ATOM      3  C3  DEN d   1       0.161  -1.052  -0.749  0.00  0.00     0.027 A 
ATOM      4  C4  DEN d   1      -2.342  -0.835  -0.168  0.00  0.00     0.027 A 
ATOM      5  C5  DEN d   1      -3.240  -0.523   0.828  0.00  0.00    -0.003 A 
ATOM      6  C6  DEN d   1      -2.839  -0.176   2.091  0.00  0.00     0.001 A 
ATOM      7  C7  DEN d   1      -1.502  -0.089   2.378  0.00  0.00     0.017 A 
ATOM      8  C8  DEN d   1      -0.590  -0.410   1.381  0.00  0.00    -0.094 A 
ATOM      9  C9  DEN d   1      -1.016  -0.747   0.107  0.00  0.00    -0.072 A 
ENDROOT
TORSDOF 0
ENDMDL
