MODEL 1
REMARK minimizedAffinity -0.861295879
REMARK minimizedRMSD -1
REMARK  0 active torsions:
REMARK  status: ('A' for Active; 'I' for Inactive)
ROOT
ATOM      1  C1  DEN d   1       1.779  -1.231   2.682  0.00  0.00     0.130 A 
ATOM      2  C2  DEN d   1       1.645  -1.568   4.097  0.00  0.00    -0.031 A 
ATOM      3  C3  DEN d   1       0.227  -1.406   4.473  0.00  0.00     0.027 A 
ATOM      4  C4  DEN d   1      -1.767  -0.674   3.009  0.00  0.00     0.027 A 
ATOM      5  C5  DEN d   1      -2.145  -0.272   1.747  0.00  0.00    -0.003 A 
ATOM      6  C6  DEN d   1      -1.243  -0.129   0.725  0.00  0.00     0.001 A 
ATOM      7  C7  DEN d   1       0.075  -0.435   0.936  0.00  0.00     0.017 A 
ATOM      8  C8  DEN d   1       0.465  -0.834   2.208  0.00  0.00    -0.094 A 
ATOM      9  C9  DEN d   1      -0.463  -0.984   3.224  0.00  0.00    -0.072 A 
ENDROOT
TORSDOF 0
ENDMDL
