MODEL 1
REMARK minimizedAffinity -0.228412688
REMARK minimizedRMSD -1
REMARK  0 active torsions:
REMARK  status: ('A' for Active; 'I' for Inactive)
ROOT
ATOM      1  C1  DEN d   1      -0.120  -1.201   4.197  0.00  0.00     0.130 A 
ATOM      2  C2  DEN d   1       1.249  -1.219   3.688  0.00  0.00    -0.031 A 
ATOM      3  C3  DEN d   1       1.215  -0.795   2.273  0.00  0.00     0.027 A 
ATOM      4  C4  DEN d   1      -0.812  -0.112   0.832  0.00  0.00     0.027 A 
ATOM      5  C5  DEN d   1      -2.180   0.048   0.823  0.00  0.00    -0.003 A 
ATOM      6  C6  DEN d   1      -2.954  -0.227   1.918  0.00  0.00     0.001 A 
ATOM      7  C7  DEN d   1      -2.361  -0.634   3.084  0.00  0.00     0.017 A 
ATOM      8  C8  DEN d   1      -0.983  -0.805   3.099  0.00  0.00    -0.094 A 
ATOM      9  C9  DEN d   1      -0.216  -0.510   1.984  0.00  0.00    -0.072 A 
ENDROOT
TORSDOF 0
ENDMDL
