MODEL 1
REMARK minimizedAffinity 9.37259674
REMARK minimizedRMSD -1
REMARK  0 active torsions:
REMARK  status: ('A' for Active; 'I' for Inactive)
ROOT
ATOM      1  C1  DEN d   1      -2.802  -1.937  -0.824  0.00  0.00     0.130 A 
ATOM      2  C2  DEN d   1      -1.959  -0.911  -1.431  0.00  0.00    -0.031 A 
ATOM      3  C3  DEN d   1      -1.597   0.062  -0.381  0.00  0.00     0.027 A 
ATOM      4  C4  DEN d   1      -2.252   0.077   2.114  0.00  0.00     0.027 A 
ATOM      5  C5  DEN d   1      -2.965  -0.583   3.091  0.00  0.00    -0.003 A 
ATOM      6  C6  DEN d   1      -3.695  -1.711   2.827  0.00  0.00     0.001 A 
ATOM      7  C7  DEN d   1      -3.692  -2.241   1.564  0.00  0.00     0.017 A 
ATOM      8  C8  DEN d   1      -2.982  -1.578   0.571  0.00  0.00    -0.094 A 
ATOM      9  C9  DEN d   1      -2.240  -0.445   0.861  0.00  0.00    -0.072 A 
ENDROOT
TORSDOF 0
ENDMDL
