MODEL 1
REMARK minimizedAffinity -0.239313394
REMARK minimizedRMSD -1
REMARK  0 active torsions:
REMARK  status: ('A' for Active; 'I' for Inactive)
ROOT
ATOM      1  C1  DEN d   1       0.549  -1.171  -0.498  0.00  0.00     0.130 A 
ATOM      2  C2  DEN d   1       1.682  -0.683   0.283  0.00  0.00    -0.031 A 
ATOM      3  C3  DEN d   1       1.154   0.134   1.394  0.00  0.00     0.027 A 
ATOM      4  C4  DEN d   1      -1.297   0.685   1.979  0.00  0.00     0.027 A 
ATOM      5  C5  DEN d   1      -2.609   0.506   1.601  0.00  0.00    -0.003 A 
ATOM      6  C6  DEN d   1      -2.956  -0.211   0.486  0.00  0.00     0.001 A 
ATOM      7  C7  DEN d   1      -1.981  -0.813  -0.265  0.00  0.00     0.017 A 
ATOM      8  C8  DEN d   1      -0.655  -0.630   0.107  0.00  0.00    -0.094 A 
ATOM      9  C9  DEN d   1      -0.326   0.087   1.244  0.00  0.00    -0.072 A 
ENDROOT
TORSDOF 0
ENDMDL
