MODEL 1
REMARK minimizedAffinity 1.74684536
REMARK minimizedRMSD -1
REMARK  0 active torsions:
REMARK  status: ('A' for Active; 'I' for Inactive)
ROOT
ATOM      1  C1  DEN d   1       0.418  -1.124   4.082  0.00  0.00     0.130 A 
ATOM      2  C2  DEN d   1       0.270  -2.217   5.039  0.00  0.00    -0.031 A 
ATOM      3  C3  DEN d   1      -1.154  -2.610   5.067  0.00  0.00     0.027 A 
ATOM      4  C4  DEN d   1      -3.131  -1.638   3.726  0.00  0.00     0.027 A 
ATOM      5  C5  DEN d   1      -3.500  -0.690   2.797  0.00  0.00    -0.003 A 
ATOM      6  C6  DEN d   1      -2.602   0.195   2.262  0.00  0.00     0.001 A 
ATOM      7  C7  DEN d   1      -1.281   0.121   2.617  0.00  0.00     0.017 A 
ATOM      8  C8  DEN d   1      -0.903  -0.827   3.558  0.00  0.00    -0.094 A 
ATOM      9  C9  DEN d   1      -1.824  -1.721   4.079  0.00  0.00    -0.072 A 
ENDROOT
TORSDOF 0
ENDMDL
