MODEL 1
REMARK minimizedAffinity -0.980040669
REMARK minimizedRMSD -1
REMARK  0 active torsions:
REMARK  status: ('A' for Active; 'I' for Inactive)
ROOT
ATOM      1  C1  DEN d   1      -0.739  -1.005   4.143  0.00  0.00     0.130 A 
ATOM      2  C2  DEN d   1       0.632  -1.412   4.437  0.00  0.00    -0.031 A 
ATOM      3  C3  DEN d   1       1.398  -1.379   3.175  0.00  0.00     0.027 A 
ATOM      4  C4  DEN d   1       0.600  -0.734   0.809  0.00  0.00     0.027 A 
ATOM      5  C5  DEN d   1      -0.484  -0.329   0.061  0.00  0.00    -0.003 A 
ATOM      6  C6  DEN d   1      -1.726  -0.155   0.611  0.00  0.00     0.001 A 
ATOM      7  C7  DEN d   1      -1.906  -0.343   1.956  0.00  0.00     0.017 A 
ATOM      8  C8  DEN d   1      -0.820  -0.759   2.715  0.00  0.00    -0.094 A 
ATOM      9  C9  DEN d   1       0.431  -0.918   2.143  0.00  0.00    -0.072 A 
ENDROOT
TORSDOF 0
ENDMDL
