MODEL 1
REMARK minimizedAffinity 6.75132513
REMARK minimizedRMSD -1
REMARK  0 active torsions:
REMARK  status: ('A' for Active; 'I' for Inactive)
ROOT
ATOM      1  C   UNL d   1       1.102  -2.322   3.450  0.00  0.00     0.172 C 
ATOM      2  N   UNL d   1       0.019  -2.776   2.610  0.00  0.00    -0.070 N 
ATOM      3  C1  UNL d   1      -1.245  -2.249   2.582  0.00  0.00    -0.004 A 
ATOM      4  C2  UNL d   1      -1.977  -2.956   1.654  0.00  0.00    -0.047 A 
ATOM      5  C3  UNL d   1      -1.124  -3.944   1.105  0.00  0.00    -0.047 A 
ATOM      6  C4  UNL d   1       0.105  -3.809   1.715  0.00  0.00    -0.004 A 
ENDROOT
TORSDOF 0
ENDMDL
