MODEL 1
REMARK minimizedAffinity 9.20609188
REMARK minimizedRMSD -1
REMARK  0 active torsions:
REMARK  status: ('A' for Active; 'I' for Inactive)
ROOT
ATOM      1  C   UNL d   1       5.999   4.884  -4.502  0.00  0.00     0.172 C 
ATOM      2  N   UNL d   1       4.712   4.352  -4.120  0.00  0.00    -0.070 N 
ATOM      3  C1  UNL d   1       3.805   3.773  -4.966  0.00  0.00    -0.004 A 
ATOM      4  C2  UNL d   1       2.710   3.397  -4.218  0.00  0.00    -0.047 A 
ATOM      5  C3  UNL d   1       2.969   3.762  -2.876  0.00  0.00    -0.047 A 
ATOM      6  C4  UNL d   1       4.215   4.351  -2.843  0.00  0.00    -0.004 A 
ENDROOT
TORSDOF 0
ENDMDL
