MODEL 1
REMARK minimizedAffinity 6.26922369
REMARK minimizedRMSD -1
REMARK  0 active torsions:
REMARK  status: ('A' for Active; 'I' for Inactive)
ROOT
ATOM      1  C   UNL d   1       5.992   4.271  -0.487  0.00  0.00     0.172 C 
ATOM      2  N   UNL d   1       5.409   3.204   0.292  0.00  0.00    -0.070 N 
ATOM      3  C1  UNL d   1       4.685   2.155  -0.207  0.00  0.00    -0.004 A 
ATOM      4  C2  UNL d   1       4.309   1.359   0.854  0.00  0.00    -0.047 A 
ATOM      5  C3  UNL d   1       4.824   1.952   2.031  0.00  0.00    -0.047 A 
ATOM      6  C4  UNL d   1       5.501   3.092   1.655  0.00  0.00    -0.004 A 
ENDROOT
TORSDOF 0
ENDMDL
