MODEL 1
REMARK minimizedAffinity 1.17747056
REMARK minimizedRMSD -1
REMARK  0 active torsions:
REMARK  status: ('A' for Active; 'I' for Inactive)
ROOT
ATOM      1  C   UNL d   1       4.619   2.109   1.877  0.00  0.00     0.172 C 
ATOM      2  N   UNL d   1       4.971   3.368   1.262  0.00  0.00    -0.070 N 
ATOM      3  C1  UNL d   1       5.994   3.563   0.373  0.00  0.00    -0.004 A 
ATOM      4  C2  UNL d   1       6.000   4.895   0.022  0.00  0.00    -0.047 A 
ATOM      5  C3  UNL d   1       4.945   5.523   0.725  0.00  0.00    -0.047 A 
ATOM      6  C4  UNL d   1       4.324   4.554   1.485  0.00  0.00    -0.004 A 
ENDROOT
TORSDOF 0
ENDMDL
