MODEL 1
REMARK minimizedAffinity 8.13197803
REMARK minimizedRMSD -1
REMARK  0 active torsions:
REMARK  status: ('A' for Active; 'I' for Inactive)
ROOT
ATOM      1  C   UNL d   1       3.749   1.237   0.768  0.00  0.00     0.172 C 
ATOM      2  N   UNL d   1       4.648   2.363   0.864  0.00  0.00    -0.070 N 
ATOM      3  C1  UNL d   1       5.081   2.942   2.026  0.00  0.00    -0.004 A 
ATOM      4  C2  UNL d   1       5.923   3.981   1.692  0.00  0.00    -0.047 A 
ATOM      5  C3  UNL d   1       5.997   4.029   0.280  0.00  0.00    -0.047 A 
ATOM      6  C4  UNL d   1       5.198   3.016  -0.208  0.00  0.00    -0.004 A 
ENDROOT
TORSDOF 0
ENDMDL
