MODEL 1
REMARK minimizedAffinity 13.5300817
REMARK minimizedRMSD -1
REMARK  0 active torsions:
REMARK  status: ('A' for Active; 'I' for Inactive)
ROOT
ATOM      1  C   UNL d   1      -3.391   5.253  -3.171  0.00  0.00     0.172 C 
ATOM      2  N   UNL d   1      -2.326   5.522  -4.108  0.00  0.00    -0.070 N 
ATOM      3  C1  UNL d   1      -2.460   5.603  -5.468  0.00  0.00    -0.004 A 
ATOM      4  C2  UNL d   1      -1.218   5.873  -6.000  0.00  0.00    -0.047 A 
ATOM      5  C3  UNL d   1      -0.305   5.957  -4.922  0.00  0.00    -0.047 A 
ATOM      6  C4  UNL d   1      -1.018   5.736  -3.762  0.00  0.00    -0.004 A 
ENDROOT
TORSDOF 0
ENDMDL
