MODEL 1
REMARK minimizedAffinity 6.99055195
REMARK minimizedRMSD -1
REMARK  0 active torsions:
REMARK  status: ('A' for Active; 'I' for Inactive)
ROOT
ATOM      1  C   UNL d   1       4.137  -2.575  -1.124  0.00  0.00     0.172 C 
ATOM      2  N   UNL d   1       4.617  -3.872  -0.709  0.00  0.00    -0.070 N 
ATOM      3  C1  UNL d   1       3.836  -4.964  -0.440  0.00  0.00    -0.004 A 
ATOM      4  C2  UNL d   1       4.669  -6.000  -0.078  0.00  0.00    -0.047 A 
ATOM      5  C3  UNL d   1       5.997  -5.513  -0.129  0.00  0.00    -0.047 A 
ATOM      6  C4  UNL d   1       5.936  -4.193  -0.523  0.00  0.00    -0.004 A 
ENDROOT
TORSDOF 0
ENDMDL
