MODEL 1
REMARK minimizedAffinity 4.16051817
REMARK minimizedRMSD -1
REMARK  0 active torsions:
REMARK  status: ('A' for Active; 'I' for Inactive)
ROOT
ATOM      1  C   UNL d   1      -5.576   5.121   5.886  0.00  0.00     0.172 C 
ATOM      2  N   UNL d   1      -5.681   3.805   5.300  0.00  0.00    -0.070 N 
ATOM      3  C1  UNL d   1      -6.000   3.535   3.996  0.00  0.00    -0.004 A 
ATOM      4  C2  UNL d   1      -5.996   2.166   3.836  0.00  0.00    -0.047 A 
ATOM      5  C3  UNL d   1      -5.664   1.594   5.087  0.00  0.00    -0.047 A 
ATOM      6  C4  UNL d   1      -5.475   2.632   5.976  0.00  0.00    -0.004 A 
ENDROOT
TORSDOF 0
ENDMDL
