MODEL 1
REMARK minimizedAffinity 10.5012569
REMARK minimizedRMSD -1
REMARK  0 active torsions:
REMARK  status: ('A' for Active; 'I' for Inactive)
ROOT
ATOM      1  C   UNL d   1       4.569   5.818  -1.560  0.00  0.00     0.172 C 
ATOM      2  N   UNL d   1       3.301   5.225  -1.914  0.00  0.00    -0.070 N 
ATOM      3  C1  UNL d   1       2.075   5.818  -1.772  0.00  0.00    -0.004 A 
ATOM      4  C2  UNL d   1       1.122   4.931  -2.223  0.00  0.00    -0.047 A 
ATOM      5  C3  UNL d   1       1.799   3.763  -2.650  0.00  0.00    -0.047 A 
ATOM      6  C4  UNL d   1       3.146   3.973  -2.447  0.00  0.00    -0.004 A 
ENDROOT
TORSDOF 0
ENDMDL
