MODEL 1
REMARK minimizedAffinity 1.41308272
REMARK minimizedRMSD -1
REMARK  0 active torsions:
REMARK  status: ('A' for Active; 'I' for Inactive)
ROOT
ATOM      1  C   UNL d   1       4.713   3.092   1.682  0.00  0.00     0.172 C 
ATOM      2  N   UNL d   1       3.893   2.280   0.814  0.00  0.00    -0.070 N 
ATOM      3  C1  UNL d   1       2.573   1.978   1.015  0.00  0.00    -0.004 A 
ATOM      4  C2  UNL d   1       2.156   1.185  -0.032  0.00  0.00    -0.047 A 
ATOM      5  C3  UNL d   1       3.265   1.003  -0.893  0.00  0.00    -0.047 A 
ATOM      6  C4  UNL d   1       4.327   1.692  -0.345  0.00  0.00    -0.004 A 
ENDROOT
TORSDOF 0
ENDMDL
