MODEL 1
REMARK minimizedAffinity 3.32663655
REMARK minimizedRMSD -1
REMARK  0 active torsions:
REMARK  status: ('A' for Active; 'I' for Inactive)
ROOT
ATOM      1  C   UNL d   1       4.312   2.995  -3.758  0.00  0.00     0.172 C 
ATOM      2  N   UNL d   1       3.068   2.624  -3.127  0.00  0.00    -0.070 N 
ATOM      3  C1  UNL d   1       2.909   1.629  -2.199  0.00  0.00    -0.004 A 
ATOM      4  C2  UNL d   1       1.578   1.592  -1.844  0.00  0.00    -0.047 A 
ATOM      5  C3  UNL d   1       0.913   2.598  -2.584  0.00  0.00    -0.047 A 
ATOM      6  C4  UNL d   1       1.859   3.222  -3.370  0.00  0.00    -0.004 A 
ENDROOT
TORSDOF 0
ENDMDL
