MODEL 1
REMARK minimizedAffinity 9.06795788
REMARK minimizedRMSD -1
REMARK  0 active torsions:
REMARK  status: ('A' for Active; 'I' for Inactive)
ROOT
ATOM      1  C   UNL d   1      -4.011  -1.357  -0.090  0.00  0.00     0.172 C 
ATOM      2  N   UNL d   1      -3.751  -2.608   0.583  0.00  0.00    -0.070 N 
ATOM      3  C1  UNL d   1      -2.675  -2.874   1.387  0.00  0.00    -0.004 A 
ATOM      4  C2  UNL d   1      -2.792  -4.172   1.834  0.00  0.00    -0.047 A 
ATOM      5  C3  UNL d   1      -3.980  -4.705   1.279  0.00  0.00    -0.047 A 
ATOM      6  C4  UNL d   1      -4.553  -3.716   0.508  0.00  0.00    -0.004 A 
ENDROOT
TORSDOF 0
ENDMDL
