MODEL 1
REMARK minimizedAffinity 4.28139019
REMARK minimizedRMSD -1
REMARK  0 active torsions:
REMARK  status: ('A' for Active; 'I' for Inactive)
ROOT
ATOM      1  C   UNL d   1       4.523   3.239   1.752  0.00  0.00     0.172 C 
ATOM      2  N   UNL d   1       3.733   2.348   0.935  0.00  0.00    -0.070 N 
ATOM      3  C1  UNL d   1       2.459   1.930   1.213  0.00  0.00    -0.004 A 
ATOM      4  C2  UNL d   1       2.058   1.092   0.195  0.00  0.00    -0.047 A 
ATOM      5  C3  UNL d   1       3.128   1.004  -0.727  0.00  0.00    -0.047 A 
ATOM      6  C4  UNL d   1       4.152   1.791  -0.244  0.00  0.00    -0.004 A 
ENDROOT
TORSDOF 0
ENDMDL
