MODEL 1
REMARK minimizedAffinity 1.38173807
REMARK minimizedRMSD -1
REMARK  0 active torsions:
REMARK  status: ('A' for Active; 'I' for Inactive)
ROOT
ATOM      1  C   UNL d   1       3.326   3.090  -4.670  0.00  0.00     0.172 C 
ATOM      2  N   UNL d   1       2.678   3.090  -3.380  0.00  0.00    -0.070 N 
ATOM      3  C1  UNL d   1       2.027   4.153  -2.813  0.00  0.00    -0.004 A 
ATOM      4  C2  UNL d   1       1.549   3.749  -1.585  0.00  0.00    -0.047 A 
ATOM      5  C3  UNL d   1       1.926   2.397  -1.407  0.00  0.00    -0.047 A 
ATOM      6  C4  UNL d   1       2.624   2.014  -2.533  0.00  0.00    -0.004 A 
ENDROOT
TORSDOF 0
ENDMDL
