MODEL 1
REMARK minimizedAffinity 6.18983126
REMARK minimizedRMSD -1
REMARK  0 active torsions:
REMARK  status: ('A' for Active; 'I' for Inactive)
ROOT
ATOM      1  C   UNL d   1      -2.638   0.736   4.454  0.00  0.00     0.172 C 
ATOM      2  N   UNL d   1      -2.568   0.134   3.143  0.00  0.00    -0.070 N 
ATOM      3  C1  UNL d   1      -3.607   0.024   2.258  0.00  0.00    -0.004 A 
ATOM      4  C2  UNL d   1      -3.134  -0.607   1.128  0.00  0.00    -0.047 A 
ATOM      5  C3  UNL d   1      -1.763  -0.887   1.342  0.00  0.00    -0.047 A 
ATOM      6  C4  UNL d   1      -1.439  -0.418   2.597  0.00  0.00    -0.004 A 
ENDROOT
TORSDOF 0
ENDMDL
