MODEL 1
REMARK minimizedAffinity 8.36858463
REMARK minimizedRMSD -1
REMARK  0 active torsions:
REMARK  status: ('A' for Active; 'I' for Inactive)
ROOT
ATOM      1  C   UNL d   1       1.069   5.665  -1.904  0.00  0.00     0.172 C 
ATOM      2  N   UNL d   1       2.063   4.639  -2.116  0.00  0.00    -0.070 N 
ATOM      3  C1  UNL d   1       1.812   3.357  -2.527  0.00  0.00    -0.004 A 
ATOM      4  C2  UNL d   1       3.019   2.696  -2.609  0.00  0.00    -0.047 A 
ATOM      5  C3  UNL d   1       4.030   3.612  -2.234  0.00  0.00    -0.047 A 
ATOM      6  C4  UNL d   1       3.410   4.807  -1.934  0.00  0.00    -0.004 A 
ENDROOT
TORSDOF 0
ENDMDL
