MODEL 1
REMARK minimizedAffinity -3.02986121
REMARK minimizedRMSD -1
REMARK  3 active torsions:
REMARK  status: ('A' for Active; 'I' for Inactive)
REMARK    1  A    between atoms: C3'_2  and  C2'_3 
REMARK    2  A    between atoms: C2'_3  and  C1'_4 
REMARK    3  A    between atoms: C1'_4  and  C1_5 
ROOT
ATOM      1  C1  N4B d   1       1.238   1.768   0.125  0.00  0.00    -0.075 A 
ATOM      2  C2  N4B d   1       2.621   1.824  -0.156  0.00  0.00     0.002 A 
ATOM      3  C3  N4B d   1       3.366   2.896   0.272  0.00  0.00     0.002 A 
ATOM      4  C4  N4B d   1       2.748   3.928   0.963  0.00  0.00    -0.004 A 
ATOM      5  C5  N4B d   1       1.417   3.854   1.252  0.00  0.00     0.002 A 
ATOM      6  C6  N4B d   1       0.657   2.781   0.832  0.00  0.00     0.002 A 
ENDROOT
BRANCH   1   7
ATOM      7  C1' N4B d   1       0.366   0.659  -0.396  0.00  0.00     0.057 C 
BRANCH   7   8
ATOM      8  C2' N4B d   1       1.164  -0.642  -0.407  0.00  0.00     0.009 C 
BRANCH   8   9
ATOM      9  C3' N4B d   1       0.547  -1.694   0.499  0.00  0.00     0.004 C 
ATOM     10  C4' N4B d   1      -0.911  -1.457   0.756  0.00  0.00     0.003 C 
ENDBRANCH   8   9
ENDBRANCH   7   8
ENDBRANCH   1   7
TORSDOF 3
ENDMDL
