MODEL 1
REMARK minimizedAffinity -3.18097591
REMARK minimizedRMSD -1
REMARK  3 active torsions:
REMARK  status: ('A' for Active; 'I' for Inactive)
REMARK    1  A    between atoms: C3'_2  and  C2'_3 
REMARK    2  A    between atoms: C2'_3  and  C1'_4 
REMARK    3  A    between atoms: C1'_4  and  C1_5 
ROOT
ATOM      1  C1  N4B d   1      -0.456  -0.791   0.219  0.00  0.00    -0.075 A 
ATOM      2  C2  N4B d   1      -0.385  -1.570  -0.957  0.00  0.00     0.002 A 
ATOM      3  C3  N4B d   1      -1.074  -2.755  -1.038  0.00  0.00     0.002 A 
ATOM      4  C4  N4B d   1      -1.821  -3.190   0.047  0.00  0.00    -0.004 A 
ATOM      5  C5  N4B d   1      -1.905  -2.420   1.169  0.00  0.00     0.002 A 
ATOM      6  C6  N4B d   1      -1.221  -1.224   1.263  0.00  0.00     0.002 A 
ENDROOT
BRANCH   1   7
ATOM      7  C1' N4B d   1       0.348   0.469   0.387  0.00  0.00     0.057 C 
BRANCH   7   8
ATOM      8  C2' N4B d   1      -0.219   1.550  -0.529  0.00  0.00     0.009 C 
BRANCH   8   9
ATOM      9  C3' N4B d   1       0.257   2.937  -0.133  0.00  0.00     0.004 C 
ATOM     10  C4' N4B d   1       1.641   2.933   0.444  0.00  0.00     0.003 C 
ENDBRANCH   8   9
ENDBRANCH   7   8
ENDBRANCH   1   7
TORSDOF 3
ENDMDL
