MODEL 1
REMARK minimizedAffinity -5.04376841
REMARK minimizedRMSD -1
REMARK  3 active torsions:
REMARK  status: ('A' for Active; 'I' for Inactive)
REMARK    1  A    between atoms: C3'_2  and  C2'_3 
REMARK    2  A    between atoms: C2'_3  and  C1'_4 
REMARK    3  A    between atoms: C1'_4  and  C1_5 
ROOT
ATOM      1  C1  N4B d   1      -0.250  -0.430   0.449  0.00  0.00    -0.075 A 
ATOM      2  C2  N4B d   1       0.430  -1.307  -0.424  0.00  0.00     0.002 A 
ATOM      3  C3  N4B d   1       0.175  -2.656  -0.377  0.00  0.00     0.002 A 
ATOM      4  C4  N4B d   1      -0.736  -3.150   0.545  0.00  0.00    -0.004 A 
ATOM      5  C5  N4B d   1      -1.406  -2.293   1.367  0.00  0.00     0.002 A 
ATOM      6  C6  N4B d   1      -1.164  -0.935   1.328  0.00  0.00     0.002 A 
ENDROOT
BRANCH   1   7
ATOM      7  C1' N4B d   1       0.057   1.042   0.493  0.00  0.00     0.057 C 
BRANCH   7   8
ATOM      8  C2' N4B d   1       1.570   1.239   0.463  0.00  0.00     0.009 C 
BRANCH   8   9
ATOM      9  C3' N4B d   1       1.963   2.673   0.775  0.00  0.00     0.004 C 
ATOM     10  C4' N4B d   1       3.150   3.135  -0.015  0.00  0.00     0.003 C 
ENDBRANCH   8   9
ENDBRANCH   7   8
ENDBRANCH   1   7
TORSDOF 3
ENDMDL
