MODEL 1
REMARK minimizedAffinity -5.78356552
REMARK minimizedRMSD -1
REMARK  3 active torsions:
REMARK  status: ('A' for Active; 'I' for Inactive)
REMARK    1  A    between atoms: C3'_2  and  C2'_3 
REMARK    2  A    between atoms: C2'_3  and  C1'_4 
REMARK    3  A    between atoms: C1'_4  and  C1_5 
ROOT
ATOM      1  C1  N4B d   1       0.087   0.076  -0.036  0.00  0.00    -0.075 A 
ATOM      2  C2  N4B d   1      -0.647  -0.684   0.901  0.00  0.00     0.002 A 
ATOM      3  C3  N4B d   1      -0.594  -2.056   0.864  0.00  0.00     0.002 A 
ATOM      4  C4  N4B d   1       0.167  -2.687  -0.108  0.00  0.00    -0.004 A 
ATOM      5  C5  N4B d   1       0.893  -1.946  -0.994  0.00  0.00     0.002 A 
ATOM      6  C6  N4B d   1       0.852  -0.566  -0.966  0.00  0.00     0.002 A 
ENDROOT
BRANCH   1   7
ATOM      7  C1' N4B d   1      -0.007   1.576  -0.090  0.00  0.00     0.057 C 
BRANCH   7   8
ATOM      8  C2' N4B d   1       1.397   2.162  -0.196  0.00  0.00     0.009 C 
BRANCH   8   9
ATOM      9  C3' N4B d   1       1.507   3.504   0.508  0.00  0.00     0.004 C 
ATOM     10  C4' N4B d   1       2.595   3.531   1.541  0.00  0.00     0.003 C 
ENDBRANCH   8   9
ENDBRANCH   7   8
ENDBRANCH   1   7
TORSDOF 3
ENDMDL
