MODEL 1
REMARK minimizedAffinity 4.96278191
REMARK minimizedRMSD -1
REMARK  2 active torsions:
REMARK  status: ('A' for Active; 'I' for Inactive)
REMARK    1  A    between atoms: C1_2  and  C2_3 
REMARK    2  A    between atoms: C2_3  and  C3_4 
ROOT
ATOM      1  C3  UNL d   1      -4.878  -3.368  -4.888  0.00  0.00    -0.075 A 
ATOM      2  C4  UNL d   1      -5.295  -4.290  -5.859  0.00  0.00     0.002 A 
ATOM      3  C5  UNL d   1      -5.626  -5.597  -5.498  0.00  0.00     0.002 A 
ATOM      4  C6  UNL d   1      -5.535  -6.000  -4.168  0.00  0.00    -0.004 A 
ATOM      5  C7  UNL d   1      -5.106  -5.096  -3.198  0.00  0.00     0.002 A 
ATOM      6  C8  UNL d   1      -4.778  -3.787  -3.555  0.00  0.00     0.002 A 
ENDROOT
BRANCH   1   7
ATOM      7  C2  UNL d   1      -4.547  -1.944  -5.267  0.00  0.00     0.056 C 
BRANCH   7   8
ATOM      8  C1  UNL d   1      -4.460  -0.985  -4.075  0.00  0.00     0.007 C 
ATOM      9  C   UNL d   1      -4.491   0.482  -4.482  0.00  0.00     0.009 C 
ENDBRANCH   7   8
ENDBRANCH   1   7
TORSDOF 2
ENDMDL
