MODEL 1
REMARK minimizedAffinity 3.02265787
REMARK minimizedRMSD -1
REMARK  2 active torsions:
REMARK  status: ('A' for Active; 'I' for Inactive)
REMARK    1  A    between atoms: C1_2  and  C2_3 
REMARK    2  A    between atoms: C2_3  and  C3_4 
ROOT
ATOM      1  C3  UNL d   1      -5.365  -5.289  -3.477  0.00  0.00    -0.075 A 
ATOM      2  C4  UNL d   1      -4.202  -5.962  -3.879  0.00  0.00     0.002 A 
ATOM      3  C5  UNL d   1      -3.638  -5.716  -5.131  0.00  0.00     0.002 A 
ATOM      4  C6  UNL d   1      -4.234  -4.804  -6.000  0.00  0.00    -0.004 A 
ATOM      5  C7  UNL d   1      -5.399  -4.143  -5.618  0.00  0.00     0.002 A 
ATOM      6  C8  UNL d   1      -5.963  -4.384  -4.363  0.00  0.00     0.002 A 
ENDROOT
BRANCH   1   7
ATOM      7  C2  UNL d   1      -5.963  -5.529  -2.111  0.00  0.00     0.056 C 
BRANCH   7   8
ATOM      8  C1  UNL d   1      -5.998  -4.284  -1.218  0.00  0.00     0.007 C 
ATOM      9  C   UNL d   1      -5.657  -3.001  -1.964  0.00  0.00     0.009 C 
ENDBRANCH   7   8
ENDBRANCH   1   7
TORSDOF 2
ENDMDL
