MODEL 1
REMARK minimizedAffinity 5.27526855
REMARK minimizedRMSD -1
REMARK  2 active torsions:
REMARK  status: ('A' for Active; 'I' for Inactive)
REMARK    1  A    between atoms: C1_2  and  C2_3 
REMARK    2  A    between atoms: C2_3  and  C3_4 
ROOT
ATOM      1  C3  UNL d   1       3.185  -2.714   2.605  0.00  0.00    -0.075 A 
ATOM      2  C4  UNL d   1       3.124  -1.823   1.524  0.00  0.00     0.002 A 
ATOM      3  C5  UNL d   1       1.926  -1.189   1.195  0.00  0.00     0.002 A 
ATOM      4  C6  UNL d   1       0.773  -1.445   1.934  0.00  0.00    -0.004 A 
ATOM      5  C7  UNL d   1       0.818  -2.341   3.000  0.00  0.00     0.002 A 
ATOM      6  C8  UNL d   1       2.017  -2.973   3.334  0.00  0.00     0.002 A 
ENDROOT
BRANCH   1   7
ATOM      7  C2  UNL d   1       4.485  -3.381   2.985  0.00  0.00     0.056 C 
BRANCH   7   8
ATOM      8  C1  UNL d   1       5.619  -3.155   1.979  0.00  0.00     0.007 C 
ATOM      9  C   UNL d   1       5.998  -4.413   1.208  0.00  0.00     0.009 C 
ENDBRANCH   7   8
ENDBRANCH   1   7
TORSDOF 2
ENDMDL
