MODEL 1
REMARK minimizedAffinity 4.16187143
REMARK minimizedRMSD -1
REMARK  2 active torsions:
REMARK  status: ('A' for Active; 'I' for Inactive)
REMARK    1  A    between atoms: C1_2  and  C2_3 
REMARK    2  A    between atoms: C2_3  and  C3_4 
ROOT
ATOM      1  C3  UNL d   1      -4.876  -4.544  -3.492  0.00  0.00    -0.075 A 
ATOM      2  C4  UNL d   1      -5.955  -4.339  -4.363  0.00  0.00     0.002 A 
ATOM      3  C5  UNL d   1      -5.990  -4.969  -5.608  0.00  0.00     0.002 A 
ATOM      4  C6  UNL d   1      -4.945  -5.802  -6.000  0.00  0.00    -0.004 A 
ATOM      5  C7  UNL d   1      -3.860  -6.000  -5.149  0.00  0.00     0.002 A 
ATOM      6  C8  UNL d   1      -3.824  -5.374  -3.901  0.00  0.00     0.002 A 
ENDROOT
BRANCH   1   7
ATOM      7  C2  UNL d   1      -4.846  -3.889  -2.132  0.00  0.00     0.056 C 
BRANCH   7   8
ATOM      8  C1  UNL d   1      -6.000  -2.912  -1.885  0.00  0.00     0.007 C 
ATOM      9  C   UNL d   1      -5.532  -1.492  -1.594  0.00  0.00     0.009 C 
ENDBRANCH   7   8
ENDBRANCH   1   7
TORSDOF 2
ENDMDL
