MODEL 1
REMARK minimizedAffinity 7.38061857
REMARK minimizedRMSD -1
REMARK  2 active torsions:
REMARK  status: ('A' for Active; 'I' for Inactive)
REMARK    1  A    between atoms: C1_2  and  C2_3 
REMARK    2  A    between atoms: C2_3  and  C3_4 
ROOT
ATOM      1  C3  UNL d   1       4.464  -5.972  -3.199  0.00  0.00    -0.075 A 
ATOM      2  C4  UNL d   1       3.210  -5.977  -3.826  0.00  0.00     0.002 A 
ATOM      3  C5  UNL d   1       3.114  -5.996  -5.218  0.00  0.00     0.002 A 
ATOM      4  C6  UNL d   1       4.268  -5.999  -5.998  0.00  0.00    -0.004 A 
ATOM      5  C7  UNL d   1       5.519  -5.977  -5.386  0.00  0.00     0.002 A 
ATOM      6  C8  UNL d   1       5.618  -5.963  -3.994  0.00  0.00     0.002 A 
ENDROOT
BRANCH   1   7
ATOM      7  C2  UNL d   1       4.575  -5.982  -1.693  0.00  0.00     0.056 C 
BRANCH   7   8
ATOM      8  C1  UNL d   1       4.055  -4.707  -1.021  0.00  0.00     0.007 C 
ATOM      9  C   UNL d   1       3.953  -3.524  -1.975  0.00  0.00     0.009 C 
ENDBRANCH   7   8
ENDBRANCH   1   7
TORSDOF 2
ENDMDL
