MODEL 1
REMARK minimizedAffinity -3.08147216
REMARK minimizedRMSD -1
REMARK  0 active torsions:
REMARK  status: ('A' for Active; 'I' for Inactive)
ROOT
ATOM      1  O1  BZF d   1      -4.801  -3.918  -5.477  0.00  0.00    -0.204 OA
ATOM      2  C2  BZF d   1      -4.161  -5.026  -6.000  0.00  0.00     0.174 A 
ATOM      3  C3  BZF d   1      -4.038  -5.992  -5.067  0.00  0.00    -0.012 A 
ATOM      4  C3A BZF d   1      -4.721  -5.491  -3.914  0.00  0.00    -0.107 A 
ATOM      5  C4  BZF d   1      -4.959  -5.999  -2.669  0.00  0.00     0.055 A 
ATOM      6  C5  BZF d   1      -5.595  -5.225  -1.750  0.00  0.00    -0.016 A 
ATOM      7  C6  BZF d   1      -6.000  -3.939  -2.040  0.00  0.00     0.022 A 
ATOM      8  C7  BZF d   1      -5.790  -3.393  -3.262  0.00  0.00     0.029 A 
ATOM      9  C7A BZF d   1      -5.178  -4.184  -4.204  0.00  0.00     0.058 A 
ENDROOT
TORSDOF 0
ENDMDL
