MODEL 1
REMARK minimizedAffinity -2.84176612
REMARK minimizedRMSD -1
REMARK  0 active torsions:
REMARK  status: ('A' for Active; 'I' for Inactive)
ROOT
ATOM      1  O1  BZF d   1      -5.990  -3.874  -5.116  0.00  0.00    -0.204 OA
ATOM      2  C2  BZF d   1      -5.915  -5.007  -5.903  0.00  0.00     0.174 A 
ATOM      3  C3  BZF d   1      -5.271  -5.999  -5.254  0.00  0.00    -0.012 A 
ATOM      4  C3A BZF d   1      -5.002  -5.480  -3.947  0.00  0.00    -0.107 A 
ATOM      5  C4  BZF d   1      -4.399  -5.999  -2.837  0.00  0.00     0.055 A 
ATOM      6  C5  BZF d   1      -4.230  -5.207  -1.746  0.00  0.00    -0.016 A 
ATOM      7  C6  BZF d   1      -4.648  -3.892  -1.732  0.00  0.00     0.022 A 
ATOM      8  C7  BZF d   1      -5.256  -3.335  -2.807  0.00  0.00     0.029 A 
ATOM      9  C7A BZF d   1      -5.458  -4.142  -3.900  0.00  0.00     0.058 A 
ENDROOT
TORSDOF 0
ENDMDL
