MODEL 1
REMARK minimizedAffinity -1.10529387
REMARK minimizedRMSD -1
REMARK  0 active torsions:
REMARK  status: ('A' for Active; 'I' for Inactive)
ROOT
ATOM      1  O1  BZF d   1       5.277  -1.469  -3.439  0.00  0.00    -0.204 OA
ATOM      2  C2  BZF d   1       4.094  -1.649  -2.749  0.00  0.00     0.174 A 
ATOM      3  C3  BZF d   1       3.171  -0.746  -3.137  0.00  0.00    -0.012 A 
ATOM      4  C3A BZF d   1       3.788  -0.010  -4.198  0.00  0.00    -0.107 A 
ATOM      5  C4  BZF d   1       3.367   1.013  -4.999  0.00  0.00     0.055 A 
ATOM      6  C5  BZF d   1       4.239   1.556  -5.889  0.00  0.00    -0.016 A 
ATOM      7  C6  BZF d   1       5.538   1.106  -6.000  0.00  0.00     0.022 A 
ATOM      8  C7  BZF d   1       6.000   0.090  -5.230  0.00  0.00     0.029 A 
ATOM      9  C7A BZF d   1       5.111  -0.483  -4.353  0.00  0.00     0.058 A 
ENDROOT
TORSDOF 0
ENDMDL
