MODEL 1
REMARK minimizedAffinity -0.888697922
REMARK minimizedRMSD -1
REMARK  0 active torsions:
REMARK  status: ('A' for Active; 'I' for Inactive)
ROOT
ATOM      1  O1  BZF d   1      -5.583  -2.530  -4.747  0.00  0.00    -0.204 OA
ATOM      2  C2  BZF d   1      -5.974  -3.001  -5.986  0.00  0.00     0.174 A 
ATOM      3  C3  BZF d   1      -5.999  -4.349  -5.999  0.00  0.00    -0.012 A 
ATOM      4  C3A BZF d   1      -5.688  -4.744  -4.660  0.00  0.00    -0.107 A 
ATOM      5  C4  BZF d   1      -5.576  -5.956  -4.041  0.00  0.00     0.055 A 
ATOM      6  C5  BZF d   1      -5.187  -6.000  -2.739  0.00  0.00    -0.016 A 
ATOM      7  C6  BZF d   1      -4.896  -4.853  -2.030  0.00  0.00     0.022 A 
ATOM      8  C7  BZF d   1      -4.998  -3.628  -2.600  0.00  0.00     0.029 A 
ATOM      9  C7A BZF d   1      -5.423  -3.579  -3.905  0.00  0.00     0.058 A 
ENDROOT
TORSDOF 0
ENDMDL
