MODEL 1
REMARK minimizedAffinity 1.77477109
REMARK minimizedRMSD -1
REMARK  0 active torsions:
REMARK  status: ('A' for Active; 'I' for Inactive)
ROOT
ATOM      1  O1  BZF d   1       3.578  -2.317  -1.714  0.00  0.00    -0.204 OA
ATOM      2  C2  BZF d   1       3.087  -3.385  -2.439  0.00  0.00     0.174 A 
ATOM      3  C3  BZF d   1       2.111  -4.018  -1.756  0.00  0.00    -0.012 A 
ATOM      4  C3A BZF d   1       1.921  -3.245  -0.567  0.00  0.00    -0.107 A 
ATOM      5  C4  BZF d   1       1.079  -3.358   0.502  0.00  0.00     0.055 A 
ATOM      6  C5  BZF d   1       1.197  -2.480   1.532  0.00  0.00    -0.016 A 
ATOM      7  C6  BZF d   1       2.149  -1.481   1.529  0.00  0.00     0.022 A 
ATOM      8  C7  BZF d   1       3.003  -1.326   0.488  0.00  0.00     0.029 A 
ATOM      9  C7A BZF d   1       2.864  -2.192  -0.569  0.00  0.00     0.058 A 
ENDROOT
TORSDOF 0
ENDMDL
