MODEL 1
REMARK minimizedAffinity -1.1270256
REMARK minimizedRMSD -1
REMARK  0 active torsions:
REMARK  status: ('A' for Active; 'I' for Inactive)
ROOT
ATOM      1  O1  BZF d   1      -5.602  -4.499  -5.834  0.00  0.00    -0.204 OA
ATOM      2  C2  BZF d   1      -5.868  -3.150  -5.969  0.00  0.00     0.174 A 
ATOM      3  C3  BZF d   1      -5.967  -2.560  -4.760  0.00  0.00    -0.012 A 
ATOM      4  C3A BZF d   1      -5.659  -3.587  -3.813  0.00  0.00    -0.107 A 
ATOM      5  C4  BZF d   1      -5.576  -3.613  -2.450  0.00  0.00     0.055 A 
ATOM      6  C5  BZF d   1      -5.324  -4.794  -1.826  0.00  0.00    -0.016 A 
ATOM      7  C6  BZF d   1      -5.155  -5.966  -2.532  0.00  0.00     0.022 A 
ATOM      8  C7  BZF d   1      -5.223  -5.989  -3.886  0.00  0.00     0.029 A 
ATOM      9  C7A BZF d   1      -5.445  -4.792  -4.521  0.00  0.00     0.058 A 
ENDROOT
TORSDOF 0
ENDMDL
