MODEL 1
REMARK minimizedAffinity -3.06315112
REMARK minimizedRMSD -1
REMARK  1 active torsions:
REMARK  status: ('A' for Active; 'I' for Inactive)
REMARK    1  A    between atoms: N_2  and  C1_3 
ROOT
ATOM      1  C1  UNL d   1      -0.126  -0.036  -0.254  0.00  0.00     0.143 A 
ATOM      2  C2  UNL d   1      -0.571  -0.533   0.976  0.00  0.00    -0.057 A 
ATOM      3  C3  UNL d   1      -1.420   0.217   1.798  0.00  0.00     0.033 A 
ATOM      4  C4  UNL d   1      -1.817   1.495   1.417  0.00  0.00    -0.042 A 
ATOM      5  C5  UNL d   1      -1.366   2.020   0.211  0.00  0.00     0.033 A 
ATOM      6  C6  UNL d   1      -0.524   1.263  -0.609  0.00  0.00    -0.057 A 
ENDROOT
BRANCH   1   7
ATOM      7  N   UNL d   1       0.798  -0.692  -1.070  0.00  0.00    -0.732 N 
ATOM      8  C   UNL d   1       0.384  -1.792  -1.915  0.00  0.00     0.284 C 
ATOM      9  H3  UNL d   1       1.450  -0.050  -1.514  0.00  0.00     0.395 HD
ENDBRANCH   1   7
TORSDOF 1
ENDMDL
