MODEL 1
REMARK minimizedAffinity -2.3173399
REMARK minimizedRMSD -1
REMARK  1 active torsions:
REMARK  status: ('A' for Active; 'I' for Inactive)
REMARK    1  A    between atoms: N_2  and  C1_3 
ROOT
ATOM      1  C1  UNL d   1       0.396  -1.023  -0.736  0.00  0.00     0.143 A 
ATOM      2  C2  UNL d   1       0.206   0.217  -1.355  0.00  0.00    -0.057 A 
ATOM      3  C3  UNL d   1      -0.458   1.261  -0.700  0.00  0.00     0.033 A 
ATOM      4  C4  UNL d   1      -0.971   1.074   0.579  0.00  0.00    -0.042 A 
ATOM      5  C5  UNL d   1      -0.815  -0.158   1.204  0.00  0.00     0.033 A 
ATOM      6  C6  UNL d   1      -0.146  -1.195   0.548  0.00  0.00    -0.057 A 
ENDROOT
BRANCH   1   7
ATOM      7  N   UNL d   1       0.961  -2.131  -1.372  0.00  0.00    -0.732 N 
ATOM      8  C   UNL d   1       0.359  -2.681  -2.567  0.00  0.00     0.284 C 
ATOM      9  H3  UNL d   1       1.977  -2.086  -1.401  0.00  0.00     0.395 HD
ENDBRANCH   1   7
TORSDOF 1
ENDMDL
