MODEL 1
REMARK minimizedAffinity -1.73315895
REMARK minimizedRMSD -1
REMARK  1 active torsions:
REMARK  status: ('A' for Active; 'I' for Inactive)
REMARK    1  A    between atoms: N_2  and  C1_3 
ROOT
ATOM      1  C1  UNL d   1      -0.889   0.483   1.466  0.00  0.00     0.143 A 
ATOM      2  C2  UNL d   1      -0.447  -0.824   1.698  0.00  0.00    -0.057 A 
ATOM      3  C3  UNL d   1       0.396  -1.477   0.791  0.00  0.00     0.033 A 
ATOM      4  C4  UNL d   1       0.790  -0.843  -0.383  0.00  0.00    -0.042 A 
ATOM      5  C5  UNL d   1       0.342   0.447  -0.647  0.00  0.00     0.033 A 
ATOM      6  C6  UNL d   1      -0.494   1.096   0.266  0.00  0.00    -0.057 A 
ENDROOT
BRANCH   1   7
ATOM      7  N   UNL d   1      -1.807   1.150   2.280  0.00  0.00    -0.732 N 
ATOM      8  C   UNL d   1      -2.057   2.564   2.105  0.00  0.00     0.284 C 
ATOM      9  H3  UNL d   1      -2.645   0.598   2.454  0.00  0.00     0.395 HD
ENDBRANCH   1   7
TORSDOF 1
ENDMDL
