MODEL 1
REMARK minimizedAffinity -4.9533596
REMARK minimizedRMSD -1
REMARK  1 active torsions:
REMARK  status: ('A' for Active; 'I' for Inactive)
REMARK    1  A    between atoms: N_2  and  C1_3 
ROOT
ATOM      1  C1  UNL d   1      -0.307  -0.158   0.412  0.00  0.00     0.143 A 
ATOM      2  C2  UNL d   1      -0.590  -0.422   1.757  0.00  0.00    -0.057 A 
ATOM      3  C3  UNL d   1      -1.512   0.352   2.471  0.00  0.00     0.033 A 
ATOM      4  C4  UNL d   1      -2.148   1.427   1.860  0.00  0.00    -0.042 A 
ATOM      5  C5  UNL d   1      -1.864   1.724   0.531  0.00  0.00     0.033 A 
ATOM      6  C6  UNL d   1      -0.947   0.943  -0.179  0.00  0.00    -0.057 A 
ENDROOT
BRANCH   1   7
ATOM      7  N   UNL d   1       0.672  -0.829  -0.324  0.00  0.00    -0.732 N 
ATOM      8  C   UNL d   1       0.334  -1.497  -1.562  0.00  0.00     0.284 C 
ATOM      9  H3  UNL d   1       1.553  -0.322  -0.352  0.00  0.00     0.395 HD
ENDBRANCH   1   7
TORSDOF 1
ENDMDL
