MODEL 1
REMARK minimizedAffinity -5.07624388
REMARK minimizedRMSD -1
REMARK  1 active torsions:
REMARK  status: ('A' for Active; 'I' for Inactive)
REMARK    1  A    between atoms: N_2  and  C1_3 
ROOT
ATOM      1  C1  UNL d   1       0.030   0.069  -0.111  0.00  0.00     0.143 A 
ATOM      2  C2  UNL d   1      -0.394   1.310  -0.597  0.00  0.00    -0.057 A 
ATOM      3  C3  UNL d   1      -1.201   2.155   0.175  0.00  0.00     0.033 A 
ATOM      4  C4  UNL d   1      -1.624   1.759   1.440  0.00  0.00    -0.042 A 
ATOM      5  C5  UNL d   1      -1.235   0.518   1.933  0.00  0.00     0.033 A 
ATOM      6  C6  UNL d   1      -0.423  -0.318   1.160  0.00  0.00    -0.057 A 
ENDROOT
BRANCH   1   7
ATOM      7  N   UNL d   1       0.751  -0.858  -0.868  0.00  0.00    -0.732 N 
ATOM      8  C   UNL d   1       0.069  -1.775  -1.755  0.00  0.00     0.284 C 
ATOM      9  H3  UNL d   1       1.605  -0.462  -1.255  0.00  0.00     0.395 HD
ENDBRANCH   1   7
TORSDOF 1
ENDMDL
