MODEL 1
REMARK minimizedAffinity -4.90715885
REMARK minimizedRMSD -1
REMARK  1 active torsions:
REMARK  status: ('A' for Active; 'I' for Inactive)
REMARK    1  A    between atoms: N_2  and  C1_3 
ROOT
ATOM      1  C1  UNL d   1       0.000   0.065   0.064  0.00  0.00     0.143 A 
ATOM      2  C2  UNL d   1      -0.780   1.110  -0.442  0.00  0.00    -0.057 A 
ATOM      3  C3  UNL d   1      -1.762   1.728   0.341  0.00  0.00     0.033 A 
ATOM      4  C4  UNL d   1      -2.000   1.292   1.641  0.00  0.00    -0.042 A 
ATOM      5  C5  UNL d   1      -1.253   0.239   2.156  0.00  0.00     0.033 A 
ATOM      6  C6  UNL d   1      -0.270  -0.371   1.371  0.00  0.00    -0.057 A 
ENDROOT
BRANCH   1   7
ATOM      7  N   UNL d   1       0.924  -0.656  -0.697  0.00  0.00    -0.732 N 
ATOM      8  C   UNL d   1       0.496  -1.775  -1.509  0.00  0.00     0.284 C 
ATOM      9  H3  UNL d   1       1.610  -0.055  -1.147  0.00  0.00     0.395 HD
ENDBRANCH   1   7
TORSDOF 1
ENDMDL
