MODEL 1
REMARK minimizedAffinity -5.11391354
REMARK minimizedRMSD -1
REMARK  1 active torsions:
REMARK  status: ('A' for Active; 'I' for Inactive)
REMARK    1  A    between atoms: N_2  and  C1_3 
ROOT
ATOM      1  C1  UNL d   1       0.054   0.120  -0.091  0.00  0.00     0.143 A 
ATOM      2  C2  UNL d   1      -0.397  -0.211   1.191  0.00  0.00    -0.057 A 
ATOM      3  C3  UNL d   1      -1.240   0.646   1.908  0.00  0.00     0.033 A 
ATOM      4  C4  UNL d   1      -1.624   1.868   1.366  0.00  0.00    -0.042 A 
ATOM      5  C5  UNL d   1      -1.168   2.229   0.103  0.00  0.00     0.033 A 
ATOM      6  C6  UNL d   1      -0.331   1.366  -0.611  0.00  0.00    -0.057 A 
ENDROOT
BRANCH   1   7
ATOM      7  N   UNL d   1       0.973  -0.644  -0.814  0.00  0.00    -0.732 N 
ATOM      8  C   UNL d   1       0.646  -1.992  -1.228  0.00  0.00     0.284 C 
ATOM      9  H3  UNL d   1       1.461  -0.099  -1.522  0.00  0.00     0.395 HD
ENDBRANCH   1   7
TORSDOF 1
ENDMDL
