MODEL 1
REMARK minimizedAffinity -4.23585939
REMARK minimizedRMSD -1
REMARK  1 active torsions:
REMARK  status: ('A' for Active; 'I' for Inactive)
REMARK    1  A    between atoms: N_2  and  C1_3 
ROOT
ATOM      1  C1  UNL d   1       0.157  -0.317  -0.075  0.00  0.00     0.143 A 
ATOM      2  C2  UNL d   1      -0.189   0.896  -0.680  0.00  0.00    -0.057 A 
ATOM      3  C3  UNL d   1      -0.874   1.891   0.027  0.00  0.00     0.033 A 
ATOM      4  C4  UNL d   1      -1.252   1.679   1.348  0.00  0.00    -0.042 A 
ATOM      5  C5  UNL d   1      -0.941   0.471   1.963  0.00  0.00     0.033 A 
ATOM      6  C6  UNL d   1      -0.251  -0.517   1.253  0.00  0.00    -0.057 A 
ENDROOT
BRANCH   1   7
ATOM      7  N   UNL d   1       0.751  -1.384  -0.754  0.00  0.00    -0.732 N 
ATOM      8  C   UNL d   1       0.098  -1.985  -1.897  0.00  0.00     0.284 C 
ATOM      9  H3  UNL d   1       1.755  -1.263  -0.865  0.00  0.00     0.395 HD
ENDBRANCH   1   7
TORSDOF 1
ENDMDL
