MODEL 1
REMARK minimizedAffinity -2.06691504
REMARK minimizedRMSD -1
REMARK  1 active torsions:
REMARK  status: ('A' for Active; 'I' for Inactive)
REMARK    1  A    between atoms: N_2  and  C1_3 
ROOT
ATOM      1  C1  UNL d   1       0.113  -0.966  -0.809  0.00  0.00     0.143 A 
ATOM      2  C2  UNL d   1       0.886   0.200  -0.810  0.00  0.00    -0.057 A 
ATOM      3  C3  UNL d   1       0.410   1.388  -0.242  0.00  0.00     0.033 A 
ATOM      4  C4  UNL d   1      -0.864   1.439   0.312  0.00  0.00    -0.042 A 
ATOM      5  C5  UNL d   1      -1.661   0.299   0.302  0.00  0.00     0.033 A 
ATOM      6  C6  UNL d   1      -1.177  -0.886  -0.260  0.00  0.00    -0.057 A 
ENDROOT
BRANCH   1   7
ATOM      7  N   UNL d   1       0.491  -2.151  -1.445  0.00  0.00    -0.732 N 
ATOM      8  C   UNL d   1      -0.454  -2.884  -2.260  0.00  0.00     0.284 C 
ATOM      9  H3  UNL d   1       1.427  -2.098  -1.840  0.00  0.00     0.395 HD
ENDBRANCH   1   7
TORSDOF 1
ENDMDL
