MODEL 1
REMARK minimizedAffinity 2.15635872
REMARK minimizedRMSD -1
REMARK  1 active torsions:
REMARK  status: ('A' for Active; 'I' for Inactive)
REMARK    1  A    between atoms: C1_2  and  C2_3 
ROOT
ATOM      1  C2  UNL d   1       3.489   0.126   3.270  0.00  0.00    -0.076 A 
ATOM      2  C3  UNL d   1       4.166   0.060   2.040  0.00  0.00     0.004 A 
ATOM      3  C4  UNL d   1       3.500   0.310   0.841  0.00  0.00    -0.003 A 
ATOM      4  C5  UNL d   1       2.148   0.631   0.853  0.00  0.00     0.000 A 
ATOM      5  C6  UNL d   1       1.465   0.718   2.065  0.00  0.00     0.000 A 
ATOM      6  C7  UNL d   1       2.125   0.485   3.284  0.00  0.00    -0.073 A 
ATOM      7  C8  UNL d   1       1.338   0.587   4.562  0.00  0.00     0.078 C 
ENDROOT
BRANCH   1   8
ATOM      8  C1  UNL d   1       4.257  -0.182   4.536  0.00  0.00     0.053 C 
ATOM      9  C   UNL d   1       4.947   1.044   5.112  0.00  0.00     0.018 C 
ENDBRANCH   1   8
TORSDOF 1
ENDMDL
