MODEL 1
REMARK minimizedAffinity 1.14125228
REMARK minimizedRMSD -1
REMARK  1 active torsions:
REMARK  status: ('A' for Active; 'I' for Inactive)
REMARK    1  A    between atoms: C1_2  and  C2_3 
ROOT
ATOM      1  C2  UNL d   1       0.440   1.226   0.578  0.00  0.00    -0.076 A 
ATOM      2  C3  UNL d   1      -0.313   1.821   1.605  0.00  0.00     0.004 A 
ATOM      3  C4  UNL d   1      -1.161   1.058   2.406  0.00  0.00    -0.003 A 
ATOM      4  C5  UNL d   1      -1.269  -0.312   2.195  0.00  0.00     0.000 A 
ATOM      5  C6  UNL d   1      -0.515  -0.921   1.192  0.00  0.00     0.000 A 
ATOM      6  C7  UNL d   1       0.357  -0.170   0.386  0.00  0.00    -0.073 A 
ATOM      7  C8  UNL d   1       1.141  -0.878  -0.685  0.00  0.00     0.078 C 
ENDROOT
BRANCH   1   8
ATOM      8  C1  UNL d   1       1.322   2.108  -0.277  0.00  0.00     0.053 C 
ATOM      9  C   UNL d   1       0.828   3.545  -0.335  0.00  0.00     0.018 C 
ENDBRANCH   1   8
TORSDOF 1
ENDMDL
