MODEL 1
REMARK minimizedAffinity 3.18513942
REMARK minimizedRMSD -1
REMARK  1 active torsions:
REMARK  status: ('A' for Active; 'I' for Inactive)
REMARK    1  A    between atoms: C1_2  and  C2_3 
ROOT
ATOM      1  C2  UNL d   1      -3.310   5.964  -2.359  0.00  0.00    -0.076 A 
ATOM      2  C3  UNL d   1      -1.932   5.981  -2.079  0.00  0.00     0.004 A 
ATOM      3  C4  UNL d   1      -0.991   5.998  -3.107  0.00  0.00    -0.003 A 
ATOM      4  C5  UNL d   1      -1.413   5.999  -4.432  0.00  0.00     0.000 A 
ATOM      5  C6  UNL d   1      -2.775   5.999  -4.728  0.00  0.00     0.000 A 
ATOM      6  C7  UNL d   1      -3.737   5.999  -3.703  0.00  0.00    -0.073 A 
ATOM      7  C8  UNL d   1      -5.193   5.994  -4.080  0.00  0.00     0.078 C 
ENDROOT
BRANCH   1   8
ATOM      8  C1  UNL d   1      -4.283   5.919  -1.203  0.00  0.00     0.053 C 
ATOM      9  C   UNL d   1      -3.689   5.263   0.034  0.00  0.00     0.018 C 
ENDBRANCH   1   8
TORSDOF 1
ENDMDL
