MODEL 1
REMARK minimizedAffinity 2.36544275
REMARK minimizedRMSD -1
REMARK  1 active torsions:
REMARK  status: ('A' for Active; 'I' for Inactive)
REMARK    1  A    between atoms: C1_2  and  C2_3 
ROOT
ATOM      1  C2  UNL d   1       0.184   1.229   1.692  0.00  0.00    -0.076 A 
ATOM      2  C3  UNL d   1       0.074  -0.020   1.056  0.00  0.00     0.004 A 
ATOM      3  C4  UNL d   1       0.654  -0.244  -0.191  0.00  0.00    -0.003 A 
ATOM      4  C5  UNL d   1       1.355   0.778  -0.823  0.00  0.00     0.000 A 
ATOM      5  C6  UNL d   1       1.490   2.018  -0.199  0.00  0.00     0.000 A 
ATOM      6  C7  UNL d   1       0.925   2.255   1.066  0.00  0.00    -0.073 A 
ATOM      7  C8  UNL d   1       1.096   3.613   1.690  0.00  0.00     0.078 C 
ENDROOT
BRANCH   1   8
ATOM      8  C1  UNL d   1      -0.489   1.422   3.032  0.00  0.00     0.053 C 
ATOM      9  C   UNL d   1      -1.812   0.679   3.132  0.00  0.00     0.018 C 
ENDBRANCH   1   8
TORSDOF 1
ENDMDL
