MODEL 1
REMARK minimizedAffinity -1.1649406
REMARK minimizedRMSD -1
REMARK  1 active torsions:
REMARK  status: ('A' for Active; 'I' for Inactive)
REMARK    1  A    between atoms: C1_2  and  C2_3 
ROOT
ATOM      1  C2  UNL d   1       2.036   0.810   0.095  0.00  0.00    -0.076 A 
ATOM      2  C3  UNL d   1       1.844  -0.561  -0.148  0.00  0.00     0.004 A 
ATOM      3  C4  UNL d   1       0.582  -1.140  -0.034  0.00  0.00    -0.003 A 
ATOM      4  C5  UNL d   1      -0.510  -0.358   0.325  0.00  0.00     0.000 A 
ATOM      5  C6  UNL d   1      -0.342   1.008   0.553  0.00  0.00     0.000 A 
ATOM      6  C7  UNL d   1       0.921   1.611   0.426  0.00  0.00    -0.073 A 
ATOM      7  C8  UNL d   1       1.047   3.086   0.689  0.00  0.00     0.078 C 
ENDROOT
BRANCH   1   8
ATOM      8  C1  UNL d   1       3.433   1.378  -0.018  0.00  0.00     0.053 C 
ATOM      9  C   UNL d   1       4.355   0.878   1.083  0.00  0.00     0.018 C 
ENDBRANCH   1   8
TORSDOF 1
ENDMDL
