MODEL 1
REMARK minimizedAffinity 8.69376183
REMARK minimizedRMSD -1
REMARK  1 active torsions:
REMARK  status: ('A' for Active; 'I' for Inactive)
REMARK    1  A    between atoms: C1_2  and  C2_3 
ROOT
ATOM      1  C2  UNL d   1      -0.123  -0.972   0.867  0.00  0.00    -0.076 A 
ATOM      2  C3  UNL d   1       0.907  -0.760  -0.066  0.00  0.00     0.004 A 
ATOM      3  C4  UNL d   1       1.644   0.423  -0.064  0.00  0.00    -0.003 A 
ATOM      4  C5  UNL d   1       1.363   1.413   0.870  0.00  0.00     0.000 A 
ATOM      5  C6  UNL d   1       0.356   1.213   1.814  0.00  0.00     0.000 A 
ATOM      6  C7  UNL d   1      -0.385   0.019   1.837  0.00  0.00    -0.073 A 
ATOM      7  C8  UNL d   1      -1.463  -0.141   2.873  0.00  0.00     0.078 C 
ENDROOT
BRANCH   1   8
ATOM      8  C1  UNL d   1      -0.907  -2.263   0.800  0.00  0.00     0.053 C 
ATOM      9  C   UNL d   1      -0.079  -3.469   1.216  0.00  0.00     0.018 C 
ENDBRANCH   1   8
TORSDOF 1
ENDMDL
