MODEL 1
REMARK minimizedAffinity 4.5269599
REMARK minimizedRMSD -1
REMARK  1 active torsions:
REMARK  status: ('A' for Active; 'I' for Inactive)
REMARK    1  A    between atoms: C1_2  and  C2_3 
ROOT
ATOM      1  C2  UNL d   1      -2.322   5.938  -1.383  0.00  0.00    -0.076 A 
ATOM      2  C3  UNL d   1      -2.479   5.896   0.013  0.00  0.00     0.004 A 
ATOM      3  C4  UNL d   1      -3.746   5.915   0.594  0.00  0.00    -0.003 A 
ATOM      4  C5  UNL d   1      -4.877   5.975  -0.213  0.00  0.00     0.000 A 
ATOM      5  C6  UNL d   1      -4.740   6.000  -1.600  0.00  0.00     0.000 A 
ATOM      6  C7  UNL d   1      -3.471   5.965  -2.202  0.00  0.00    -0.073 A 
ATOM      7  C8  UNL d   1      -3.382   6.000  -3.703  0.00  0.00     0.078 C 
ENDROOT
BRANCH   1   8
ATOM      8  C1  UNL d   1      -0.922   5.943  -1.955  0.00  0.00     0.053 C 
ATOM      9  C   UNL d   1      -0.006   4.947  -1.261  0.00  0.00     0.018 C 
ENDBRANCH   1   8
TORSDOF 1
ENDMDL
