MODEL 1
REMARK minimizedAffinity -0.183946431
REMARK minimizedRMSD -1
REMARK  1 active torsions:
REMARK  status: ('A' for Active; 'I' for Inactive)
REMARK    1  A    between atoms: C1_2  and  C2_3 
ROOT
ATOM      1  C2  UNL d   1       0.425   0.717   0.863  0.00  0.00    -0.076 A 
ATOM      2  C3  UNL d   1      -0.637   0.916   1.762  0.00  0.00     0.004 A 
ATOM      3  C4  UNL d   1      -1.696   0.012   1.832  0.00  0.00    -0.003 A 
ATOM      4  C5  UNL d   1      -1.710  -1.105   1.003  0.00  0.00     0.000 A 
ATOM      5  C6  UNL d   1      -0.656  -1.326   0.118  0.00  0.00     0.000 A 
ATOM      6  C7  UNL d   1       0.427  -0.434   0.047  0.00  0.00    -0.073 A 
ATOM      7  C8  UNL d   1       1.534  -0.719  -0.931  0.00  0.00     0.078 C 
ENDROOT
BRANCH   1   8
ATOM      8  C1  UNL d   1       1.533   1.745   0.813  0.00  0.00     0.053 C 
ATOM      9  C   UNL d   1       1.125   3.006   0.066  0.00  0.00     0.018 C 
ENDBRANCH   1   8
TORSDOF 1
ENDMDL
