MODEL 1
REMARK minimizedAffinity 6.12622452
REMARK minimizedRMSD -1
REMARK  1 active torsions:
REMARK  status: ('A' for Active; 'I' for Inactive)
REMARK    1  A    between atoms: C1_2  and  C2_3 
ROOT
ATOM      1  C2  UNL d   1       0.249   1.453   2.124  0.00  0.00    -0.076 A 
ATOM      2  C3  UNL d   1       0.806   2.743   2.122  0.00  0.00     0.004 A 
ATOM      3  C4  UNL d   1       1.433   3.252   0.986  0.00  0.00    -0.003 A 
ATOM      4  C5  UNL d   1       1.513   2.479  -0.167  0.00  0.00     0.000 A 
ATOM      5  C6  UNL d   1       0.950   1.203  -0.189  0.00  0.00     0.000 A 
ATOM      6  C7  UNL d   1       0.300   0.682   0.943  0.00  0.00    -0.073 A 
ATOM      7  C8  UNL d   1      -0.284  -0.703   0.866  0.00  0.00     0.078 C 
ENDROOT
BRANCH   1   8
ATOM      8  C1  UNL d   1      -0.395   0.944   3.394  0.00  0.00     0.053 C 
ATOM      9  C   UNL d   1       0.460   1.202   4.625  0.00  0.00     0.018 C 
ENDBRANCH   1   8
TORSDOF 1
ENDMDL
