MODEL 1
REMARK minimizedAffinity 3.08836269
REMARK minimizedRMSD -1
REMARK  1 active torsions:
REMARK  status: ('A' for Active; 'I' for Inactive)
REMARK    1  A    between atoms: C1_2  and  C2_3 
ROOT
ATOM      1  C2  UNL d   1       3.300   5.448  -5.267  0.00  0.00    -0.076 A 
ATOM      2  C3  UNL d   1       4.368   6.000  -5.996  0.00  0.00     0.004 A 
ATOM      3  C4  UNL d   1       5.673   5.546  -5.811  0.00  0.00    -0.003 A 
ATOM      4  C5  UNL d   1       5.931   4.532  -4.895  0.00  0.00     0.000 A 
ATOM      5  C6  UNL d   1       4.881   3.961  -4.176  0.00  0.00     0.000 A 
ATOM      6  C7  UNL d   1       3.558   4.396  -4.362  0.00  0.00    -0.073 A 
ATOM      7  C8  UNL d   1       2.465   3.749  -3.556  0.00  0.00     0.078 C 
ENDROOT
BRANCH   1   8
ATOM      8  C1  UNL d   1       1.910   5.999  -5.490  0.00  0.00     0.053 C 
ATOM      9  C   UNL d   1       0.934   4.939  -5.975  0.00  0.00     0.018 C 
ENDBRANCH   1   8
TORSDOF 1
ENDMDL
