MODEL 1
REMARK minimizedAffinity 6.93375874
REMARK minimizedRMSD -1
REMARK  1 active torsions:
REMARK  status: ('A' for Active; 'I' for Inactive)
REMARK    1  A    between atoms: C1_2  and  C2_3 
ROOT
ATOM      1  C2  UNL d   1       0.453   2.338   0.577  0.00  0.00    -0.076 A 
ATOM      2  C3  UNL d   1      -0.470   1.843   1.516  0.00  0.00     0.004 A 
ATOM      3  C4  UNL d   1      -0.821   0.495   1.535  0.00  0.00    -0.003 A 
ATOM      4  C5  UNL d   1      -0.254  -0.382   0.617  0.00  0.00     0.000 A 
ATOM      5  C6  UNL d   1       0.677   0.087  -0.309  0.00  0.00     0.000 A 
ATOM      6  C7  UNL d   1       1.054   1.441  -0.332  0.00  0.00    -0.073 A 
ATOM      7  C8  UNL d   1       2.058   1.894  -1.356  0.00  0.00     0.078 C 
ENDROOT
BRANCH   1   8
ATOM      8  C1  UNL d   1       0.774   3.815   0.587  0.00  0.00     0.053 C 
ATOM      9  C   UNL d   1      -0.115   4.610  -0.357  0.00  0.00     0.018 C 
ENDBRANCH   1   8
TORSDOF 1
ENDMDL
