MODEL 1
REMARK minimizedAffinity 6.40858507
REMARK minimizedRMSD -1
REMARK  1 active torsions:
REMARK  status: ('A' for Active; 'I' for Inactive)
REMARK    1  A    between atoms: C1_2  and  C2_3 
ROOT
ATOM      1  C2  UNL d   1      -3.681  -1.466   0.253  0.00  0.00    -0.076 A 
ATOM      2  C3  UNL d   1      -3.701  -2.867   0.148  0.00  0.00     0.004 A 
ATOM      3  C4  UNL d   1      -3.998  -3.492  -1.063  0.00  0.00    -0.003 A 
ATOM      4  C5  UNL d   1      -4.279  -2.724  -2.188  0.00  0.00     0.000 A 
ATOM      5  C6  UNL d   1      -4.246  -1.333  -2.106  0.00  0.00     0.000 A 
ATOM      6  C7  UNL d   1      -3.932  -0.688  -0.897  0.00  0.00    -0.073 A 
ATOM      7  C8  UNL d   1      -3.917   0.816  -0.864  0.00  0.00     0.078 C 
ENDROOT
BRANCH   1   8
ATOM      8  C1  UNL d   1      -3.379  -0.845   1.598  0.00  0.00     0.053 C 
ATOM      9  C   UNL d   1      -1.951  -1.107   2.054  0.00  0.00     0.018 C 
ENDBRANCH   1   8
TORSDOF 1
ENDMDL
