MODEL 1
REMARK minimizedAffinity 9.77736855
REMARK minimizedRMSD -1
REMARK  0 active torsions:
REMARK  status: ('A' for Active; 'I' for Inactive)
ROOT
ATOM      1  C   UNL d   1       3.914  -0.108  -0.712  0.00  0.00    -0.002 A 
ATOM      2  C1  UNL d   1       3.472  -1.414  -0.866  0.00  0.00     0.010 A 
ATOM      3  C2  UNL d   1       2.159  -1.763  -0.544  0.00  0.00     0.041 A 
ATOM      4  C3  UNL d   1       1.288  -0.766  -0.061  0.00  0.00    -0.075 A 
ATOM      5  S   UNL d   1      -0.363  -0.960   0.396  0.00  0.00     0.015 SA
ATOM      6  C4  UNL d   1      -0.520   0.687   0.807  0.00  0.00     0.022 A 
ATOM      7  C5  UNL d   1       0.649   1.382   0.606  0.00  0.00     0.026 A 
ATOM      8  C6  UNL d   1       1.710   0.557   0.102  0.00  0.00    -0.082 A 
ATOM      9  C7  UNL d   1       3.048   0.878  -0.232  0.00  0.00     0.045 A 
ENDROOT
TORSDOF 0
ENDMDL
