MODEL 1
REMARK minimizedAffinity 4.79901314
REMARK minimizedRMSD -1
REMARK  0 active torsions:
REMARK  status: ('A' for Active; 'I' for Inactive)
ROOT
ATOM      1  C   UNL d   1       3.872  -1.064  -1.483  0.00  0.00    -0.002 A 
ATOM      2  C1  UNL d   1       3.109  -2.219  -1.585  0.00  0.00     0.010 A 
ATOM      3  C2  UNL d   1       1.812  -2.260  -1.071  0.00  0.00     0.041 A 
ATOM      4  C3  UNL d   1       1.288  -1.110  -0.449  0.00  0.00    -0.075 A 
ATOM      5  S   UNL d   1      -0.277  -0.929   0.252  0.00  0.00     0.015 SA
ATOM      6  C4  UNL d   1       0.029   0.686   0.702  0.00  0.00     0.022 A 
ATOM      7  C5  UNL d   1       1.290   1.093   0.335  0.00  0.00     0.026 A 
ATOM      8  C6  UNL d   1       2.036   0.065  -0.335  0.00  0.00    -0.082 A 
ATOM      9  C7  UNL d   1       3.349   0.075  -0.865  0.00  0.00     0.045 A 
ENDROOT
TORSDOF 0
ENDMDL
