MODEL 1
REMARK minimizedAffinity 18.0752392
REMARK minimizedRMSD -1
REMARK  0 active torsions:
REMARK  status: ('A' for Active; 'I' for Inactive)
ROOT
ATOM      1  C   UNL d   1      -1.409  -5.513  -2.085  0.00  0.00    -0.002 A 
ATOM      2  C1  UNL d   1      -2.361  -4.785  -1.386  0.00  0.00     0.010 A 
ATOM      3  C2  UNL d   1      -3.591  -4.479  -1.971  0.00  0.00     0.041 A 
ATOM      4  C3  UNL d   1      -3.852  -4.925  -3.282  0.00  0.00    -0.075 A 
ATOM      5  S   UNL d   1      -5.290  -4.670  -4.199  0.00  0.00     0.015 SA
ATOM      6  C4  UNL d   1      -4.674  -5.524  -5.540  0.00  0.00     0.022 A 
ATOM      7  C5  UNL d   1      -3.404  -5.998  -5.311  0.00  0.00     0.026 A 
ATOM      8  C6  UNL d   1      -2.910  -5.661  -4.005  0.00  0.00    -0.082 A 
ATOM      9  C7  UNL d   1      -1.671  -5.953  -3.385  0.00  0.00     0.045 A 
ENDROOT
TORSDOF 0
ENDMDL
