MODEL 1
REMARK minimizedAffinity 6.2903614
REMARK minimizedRMSD -1
REMARK  0 active torsions:
REMARK  status: ('A' for Active; 'I' for Inactive)
ROOT
ATOM      1  C   UNL d   1       1.891  -2.876  -0.846  0.00  0.00    -0.002 A 
ATOM      2  C1  UNL d   1       0.569  -3.274  -0.988  0.00  0.00     0.010 A 
ATOM      3  C2  UNL d   1      -0.465  -2.338  -0.925  0.00  0.00     0.041 A 
ATOM      4  C3  UNL d   1      -0.145  -0.982  -0.718  0.00  0.00    -0.075 A 
ATOM      5  S   UNL d   1      -1.246   0.341  -0.608  0.00  0.00     0.015 SA
ATOM      6  C4  UNL d   1       0.013   1.465  -0.371  0.00  0.00     0.022 A 
ATOM      7  C5  UNL d   1       1.249   0.864  -0.373  0.00  0.00     0.026 A 
ATOM      8  C6  UNL d   1       1.179  -0.556  -0.574  0.00  0.00    -0.082 A 
ATOM      9  C7  UNL d   1       2.204  -1.530  -0.641  0.00  0.00     0.045 A 
ENDROOT
TORSDOF 0
ENDMDL
