MODEL 1
REMARK minimizedAffinity 2.08996034
REMARK minimizedRMSD -1
REMARK  2 active torsions:
REMARK  status: ('A' for Active; 'I' for Inactive)
REMARK    1  A    between atoms: C2'_3  and  C1'_4 
REMARK    2  A    between atoms: C1'_4  and  C1_5 
ROOT
ATOM      1  C1  I4B d   1       0.814   1.962   0.175  0.00  0.00    -0.075 A 
ATOM      2  C2  I4B d   1       2.126   1.563   0.111  0.00  0.00     0.003 A 
ATOM      3  C3  I4B d   1       3.145   2.370   0.674  0.00  0.00     0.002 A 
ATOM      4  C4  I4B d   1       2.815   3.584   1.242  0.00  0.00    -0.004 A 
ATOM      5  C5  I4B d   1       1.482   3.976   1.326  0.00  0.00     0.002 A 
ATOM      6  C6  I4B d   1       0.474   3.154   0.801  0.00  0.00     0.003 A 
ENDROOT
BRANCH   1   7
ATOM      7  C1' I4B d   1      -0.232   1.101  -0.458  0.00  0.00     0.060 C 
BRANCH   7   8
ATOM      8  C2' I4B d   1       0.134  -0.346  -0.199  0.00  0.00    -0.013 C 
ATOM      9  C4' I4B d   1      -0.727  -0.941   0.884  0.00  0.00     0.013 C 
ATOM     10  C3' I4B d   1      -0.018  -1.099  -1.486  0.00  0.00     0.013 C 
ENDBRANCH   7   8
ENDBRANCH   1   7
TORSDOF 2
ENDMDL
