MODEL 1
REMARK minimizedAffinity 2.39136338
REMARK minimizedRMSD -1
REMARK  2 active torsions:
REMARK  status: ('A' for Active; 'I' for Inactive)
REMARK    1  A    between atoms: C2'_3  and  C1'_4 
REMARK    2  A    between atoms: C1'_4  and  C1_5 
ROOT
ATOM      1  C1  I4B d   1       0.346   0.349  -0.387  0.00  0.00    -0.075 A 
ATOM      2  C2  I4B d   1       1.719   0.323  -0.395  0.00  0.00     0.003 A 
ATOM      3  C3  I4B d   1       2.421   0.086  -1.602  0.00  0.00     0.002 A 
ATOM      4  C4  I4B d   1       1.715  -0.168  -2.760  0.00  0.00    -0.004 A 
ATOM      5  C5  I4B d   1       0.324  -0.119  -2.755  0.00  0.00     0.002 A 
ATOM      6  C6  I4B d   1      -0.365   0.153  -1.564  0.00  0.00     0.003 A 
ENDROOT
BRANCH   1   7
ATOM      7  C1' I4B d   1      -0.363   0.568   0.911  0.00  0.00     0.060 C 
BRANCH   7   8
ATOM      8  C2' I4B d   1      -1.574  -0.342   0.941  0.00  0.00    -0.013 C 
ATOM      9  C4' I4B d   1      -1.175  -1.772   1.191  0.00  0.00     0.013 C 
ATOM     10  C3' I4B d   1      -2.502   0.157   2.009  0.00  0.00     0.013 C 
ENDBRANCH   7   8
ENDBRANCH   1   7
TORSDOF 2
ENDMDL
