MODEL 1
REMARK minimizedAffinity 0.502050698
REMARK minimizedRMSD -1
REMARK  2 active torsions:
REMARK  status: ('A' for Active; 'I' for Inactive)
REMARK    1  A    between atoms: C2'_3  and  C1'_4 
REMARK    2  A    between atoms: C1'_4  and  C1_5 
ROOT
ATOM      1  C1  I4B d   1       0.570   1.349   0.377  0.00  0.00    -0.075 A 
ATOM      2  C2  I4B d   1       0.429   0.903  -0.914  0.00  0.00     0.003 A 
ATOM      3  C3  I4B d   1      -0.622   0.016  -1.250  0.00  0.00     0.002 A 
ATOM      4  C4  I4B d   1      -1.473  -0.435  -0.262  0.00  0.00    -0.004 A 
ATOM      5  C5  I4B d   1      -1.343   0.036   1.041  0.00  0.00     0.002 A 
ATOM      6  C6  I4B d   1      -0.322   0.943   1.360  0.00  0.00     0.003 A 
ENDROOT
BRANCH   1   7
ATOM      7  C1' I4B d   1       1.712   2.259   0.704  0.00  0.00     0.060 C 
BRANCH   7   8
ATOM      8  C2' I4B d   1       1.143   3.629   1.011  0.00  0.00    -0.013 C 
ATOM      9  C4' I4B d   1       1.018   3.848   2.496  0.00  0.00     0.013 C 
ATOM     10  C3' I4B d   1       2.042   4.654   0.386  0.00  0.00     0.013 C 
ENDBRANCH   7   8
ENDBRANCH   1   7
TORSDOF 2
ENDMDL
