MODEL 1
REMARK minimizedAffinity -0.23602885
REMARK minimizedRMSD -1
REMARK  2 active torsions:
REMARK  status: ('A' for Active; 'I' for Inactive)
REMARK    1  A    between atoms: C2'_3  and  C1'_4 
REMARK    2  A    between atoms: C1'_4  and  C1_5 
ROOT
ATOM      1  C1  I4B d   1      -0.067   0.134  -0.292  0.00  0.00    -0.075 A 
ATOM      2  C2  I4B d   1       1.251   0.266   0.068  0.00  0.00     0.003 A 
ATOM      3  C3  I4B d   1       2.272   0.141  -0.905  0.00  0.00     0.002 A 
ATOM      4  C4  I4B d   1       1.935  -0.165  -2.208  0.00  0.00    -0.004 A 
ATOM      5  C5  I4B d   1       0.597  -0.275  -2.576  0.00  0.00     0.002 A 
ATOM      6  C6  I4B d   1      -0.411  -0.113  -1.615  0.00  0.00     0.003 A 
ENDROOT
BRANCH   1   7
ATOM      7  C1' I4B d   1      -1.118   0.239   0.767  0.00  0.00     0.060 C 
BRANCH   7   8
ATOM      8  C2' I4B d   1      -0.867  -0.855   1.785  0.00  0.00    -0.013 C 
ATOM      9  C4' I4B d   1      -1.449  -0.496   3.126  0.00  0.00     0.013 C 
ATOM     10  C3' I4B d   1      -1.465  -2.124   1.257  0.00  0.00     0.013 C 
ENDBRANCH   7   8
ENDBRANCH   1   7
TORSDOF 2
ENDMDL
