MODEL 1
REMARK minimizedAffinity -2.25126243
REMARK minimizedRMSD -1
REMARK  2 active torsions:
REMARK  status: ('A' for Active; 'I' for Inactive)
REMARK    1  A    between atoms: C2'_3  and  C1'_4 
REMARK    2  A    between atoms: C1'_4  and  C1_5 
ROOT
ATOM      1  C1  I4B d   1      -0.340   0.278   0.111  0.00  0.00    -0.075 A 
ATOM      2  C2  I4B d   1      -0.445  -0.829  -0.694  0.00  0.00     0.003 A 
ATOM      3  C3  I4B d   1      -0.851  -2.071  -0.148  0.00  0.00     0.002 A 
ATOM      4  C4  I4B d   1      -1.091  -2.172   1.207  0.00  0.00    -0.004 A 
ATOM      5  C5  I4B d   1      -1.006  -1.043   2.017  0.00  0.00     0.002 A 
ATOM      6  C6  I4B d   1      -0.640   0.193   1.464  0.00  0.00     0.003 A 
ENDROOT
BRANCH   1   7
ATOM      7  C1' I4B d   1       0.124   1.566  -0.493  0.00  0.00     0.060 C 
BRANCH   7   8
ATOM      8  C2' I4B d   1       0.906   2.321   0.563  0.00  0.00    -0.013 C 
ATOM      9  C4' I4B d   1       2.349   2.481   0.161  0.00  0.00     0.013 C 
ATOM     10  C3' I4B d   1       0.249   3.654   0.761  0.00  0.00     0.013 C 
ENDBRANCH   7   8
ENDBRANCH   1   7
TORSDOF 2
ENDMDL
