MODEL 1
REMARK minimizedAffinity 1.87258732
REMARK minimizedRMSD -1
REMARK  2 active torsions:
REMARK  status: ('A' for Active; 'I' for Inactive)
REMARK    1  A    between atoms: C2'_3  and  C1'_4 
REMARK    2  A    between atoms: C1'_4  and  C1_5 
ROOT
ATOM      1  C1  I4B d   1      -0.613  -0.959   0.594  0.00  0.00    -0.075 A 
ATOM      2  C2  I4B d   1      -0.782   0.105   1.445  0.00  0.00     0.003 A 
ATOM      3  C3  I4B d   1      -0.264   1.378   1.105  0.00  0.00     0.002 A 
ATOM      4  C4  I4B d   1       0.454   1.530  -0.064  0.00  0.00    -0.004 A 
ATOM      5  C5  I4B d   1       0.604   0.456  -0.936  0.00  0.00     0.002 A 
ATOM      6  C6  I4B d   1       0.057  -0.794  -0.611  0.00  0.00     0.003 A 
ENDROOT
BRANCH   1   7
ATOM      7  C1' I4B d   1      -1.144  -2.298   0.999  0.00  0.00     0.060 C 
BRANCH   7   8
ATOM      8  C2' I4B d   1      -1.852  -2.901  -0.196  0.00  0.00    -0.013 C 
ATOM      9  C4' I4B d   1      -1.142  -4.135  -0.686  0.00  0.00     0.013 C 
ATOM     10  C3' I4B d   1      -3.262  -3.213   0.209  0.00  0.00     0.013 C 
ENDBRANCH   7   8
ENDBRANCH   1   7
TORSDOF 2
ENDMDL
