MODEL 1
REMARK minimizedAffinity -3.65772939
REMARK minimizedRMSD -1
REMARK  2 active torsions:
REMARK  status: ('A' for Active; 'I' for Inactive)
REMARK    1  A    between atoms: C2'_3  and  C1'_4 
REMARK    2  A    between atoms: C1'_4  and  C1_5 
ROOT
ATOM      1  C1  I4B d   1       2.037   1.349  -0.403  0.00  0.00    -0.075 A 
ATOM      2  C2  I4B d   1       3.089   2.189  -0.135  0.00  0.00     0.003 A 
ATOM      3  C3  I4B d   1       2.893   3.347   0.656  0.00  0.00     0.002 A 
ATOM      4  C4  I4B d   1       1.627   3.651   1.113  0.00  0.00    -0.004 A 
ATOM      5  C5  I4B d   1       0.567   2.787   0.860  0.00  0.00     0.002 A 
ATOM      6  C6  I4B d   1       0.775   1.622   0.107  0.00  0.00     0.003 A 
ENDROOT
BRANCH   1   7
ATOM      7  C1' I4B d   1       2.273   0.152  -1.269  0.00  0.00     0.060 C 
BRANCH   7   8
ATOM      8  C2' I4B d   1       1.173   0.106  -2.310  0.00  0.00    -0.013 C 
ATOM      9  C4' I4B d   1       1.689  -0.417  -3.625  0.00  0.00     0.013 C 
ATOM     10  C3' I4B d   1       0.069  -0.758  -1.779  0.00  0.00     0.013 C 
ENDBRANCH   7   8
ENDBRANCH   1   7
TORSDOF 2
ENDMDL
