MODEL 1
REMARK minimizedAffinity -1.63549757
REMARK minimizedRMSD -1
REMARK  2 active torsions:
REMARK  status: ('A' for Active; 'I' for Inactive)
REMARK    1  A    between atoms: C2'_3  and  C1'_4 
REMARK    2  A    between atoms: C1'_4  and  C1_5 
ROOT
ATOM      1  C1  I4B d   1       0.803   2.693   0.113  0.00  0.00    -0.075 A 
ATOM      2  C2  I4B d   1       0.501   3.655   1.044  0.00  0.00     0.003 A 
ATOM      3  C3  I4B d   1       1.536   4.393   1.668  0.00  0.00     0.002 A 
ATOM      4  C4  I4B d   1       2.852   4.102   1.372  0.00  0.00    -0.004 A 
ATOM      5  C5  I4B d   1       3.155   3.141   0.411  0.00  0.00     0.002 A 
ATOM      6  C6  I4B d   1       2.124   2.440  -0.231  0.00  0.00     0.003 A 
ENDROOT
BRANCH   1   7
ATOM      7  C1' I4B d   1      -0.314   1.910  -0.503  0.00  0.00     0.060 C 
BRANCH   7   8
ATOM      8  C2' I4B d   1       0.014   0.438  -0.359  0.00  0.00    -0.013 C 
ATOM      9  C4' I4B d   1      -0.959  -0.250   0.562  0.00  0.00     0.013 C 
ATOM     10  C3' I4B d   1      -0.009  -0.177  -1.727  0.00  0.00     0.013 C 
ENDBRANCH   7   8
ENDBRANCH   1   7
TORSDOF 2
ENDMDL
