MODEL 1
REMARK minimizedAffinity -4.78767538
REMARK minimizedRMSD -1
REMARK  2 active torsions:
REMARK  status: ('A' for Active; 'I' for Inactive)
REMARK    1  A    between atoms: C1_2  and  C2_3 
REMARK    2  A    between atoms: C2_3  and  C3_4 
ROOT
ATOM      1  C3  UNL d   1      -0.825  -0.542  -0.030  0.00  0.00    -0.075 A 
ATOM      2  C4  UNL d   1      -0.630  -1.534   0.942  0.00  0.00     0.002 A 
ATOM      3  C5  UNL d   1      -1.600  -2.514   1.159  0.00  0.00     0.002 A 
ATOM      4  C6  UNL d   1      -2.778  -2.508   0.415  0.00  0.00    -0.004 A 
ATOM      5  C7  UNL d   1      -2.989  -1.518  -0.541  0.00  0.00     0.002 A 
ATOM      6  C8  UNL d   1      -2.019  -0.539  -0.763  0.00  0.00     0.002 A 
ENDROOT
BRANCH   1   7
ATOM      7  C2  UNL d   1       0.234   0.503  -0.290  0.00  0.00     0.056 C 
BRANCH   7   8
ATOM      8  C1  UNL d   1       1.604   0.166   0.308  0.00  0.00     0.007 C 
ATOM      9  C   UNL d   1       2.539   1.365   0.381  0.00  0.00     0.009 C 
ENDBRANCH   7   8
ENDBRANCH   1   7
TORSDOF 2
ENDMDL
