MODEL 1
REMARK minimizedAffinity -5.1218605
REMARK minimizedRMSD -1
REMARK  2 active torsions:
REMARK  status: ('A' for Active; 'I' for Inactive)
REMARK    1  A    between atoms: C1_2  and  C2_3 
REMARK    2  A    between atoms: C2_3  and  C3_4 
ROOT
ATOM      1  C3  UNL d   1       0.338  -0.439  -0.182  0.00  0.00    -0.075 A 
ATOM      2  C4  UNL d   1      -0.590  -1.371   0.306  0.00  0.00     0.002 A 
ATOM      3  C5  UNL d   1      -1.881  -1.428  -0.221  0.00  0.00     0.002 A 
ATOM      4  C6  UNL d   1      -2.263  -0.548  -1.232  0.00  0.00    -0.004 A 
ATOM      5  C7  UNL d   1      -1.354   0.392  -1.712  0.00  0.00     0.002 A 
ATOM      6  C8  UNL d   1      -0.061   0.448  -1.190  0.00  0.00     0.002 A 
ENDROOT
BRANCH   1   7
ATOM      7  C2  UNL d   1       1.745  -0.393   0.364  0.00  0.00     0.056 C 
BRANCH   7   8
ATOM      8  C1  UNL d   1       2.499   0.899   0.034  0.00  0.00     0.007 C 
ATOM      9  C   UNL d   1       2.336   1.978   1.097  0.00  0.00     0.009 C 
ENDBRANCH   7   8
ENDBRANCH   1   7
TORSDOF 2
ENDMDL
