MODEL 1
REMARK minimizedAffinity -4.9758029
REMARK minimizedRMSD -1
REMARK  2 active torsions:
REMARK  status: ('A' for Active; 'I' for Inactive)
REMARK    1  A    between atoms: C1_2  and  C2_3 
REMARK    2  A    between atoms: C2_3  and  C3_4 
ROOT
ATOM      1  C3  UNL d   1       0.480   0.267  -0.094  0.00  0.00    -0.075 A 
ATOM      2  C4  UNL d   1       0.170  -0.870   0.666  0.00  0.00     0.002 A 
ATOM      3  C5  UNL d   1      -1.040  -1.539   0.480  0.00  0.00     0.002 A 
ATOM      4  C6  UNL d   1      -1.958  -1.075  -0.460  0.00  0.00    -0.004 A 
ATOM      5  C7  UNL d   1      -1.668   0.063  -1.209  0.00  0.00     0.002 A 
ATOM      6  C8  UNL d   1      -0.456   0.732  -1.028  0.00  0.00     0.002 A 
ENDROOT
BRANCH   1   7
ATOM      7  C2  UNL d   1       1.801   0.978   0.082  0.00  0.00     0.056 C 
BRANCH   7   8
ATOM      8  C1  UNL d   1       1.858   1.891   1.311  0.00  0.00     0.007 C 
ATOM      9  C   UNL d   1       2.278   3.317   0.981  0.00  0.00     0.009 C 
ENDBRANCH   7   8
ENDBRANCH   1   7
TORSDOF 2
ENDMDL
