MODEL 1
REMARK minimizedAffinity -0.0599674992
REMARK minimizedRMSD -1
REMARK  2 active torsions:
REMARK  status: ('A' for Active; 'I' for Inactive)
REMARK    1  A    between atoms: C1_2  and  C2_3 
REMARK    2  A    between atoms: C2_3  and  C3_4 
ROOT
ATOM      1  C3  UNL d   1      -1.665  -1.334  -0.495  0.00  0.00    -0.075 A 
ATOM      2  C4  UNL d   1      -1.640  -0.888  -1.824  0.00  0.00     0.002 A 
ATOM      3  C5  UNL d   1      -0.624  -0.042  -2.269  0.00  0.00     0.002 A 
ATOM      4  C6  UNL d   1       0.373   0.376  -1.390  0.00  0.00    -0.004 A 
ATOM      5  C7  UNL d   1       0.349  -0.047  -0.063  0.00  0.00     0.002 A 
ATOM      6  C8  UNL d   1      -0.664  -0.897   0.383  0.00  0.00     0.002 A 
ENDROOT
BRANCH   1   7
ATOM      7  C2  UNL d   1      -2.746  -2.273  -0.015  0.00  0.00     0.056 C 
BRANCH   7   8
ATOM      8  C1  UNL d   1      -2.258  -3.326   0.986  0.00  0.00     0.007 C 
ATOM      9  C   UNL d   1      -2.255  -4.739   0.418  0.00  0.00     0.009 C 
ENDBRANCH   7   8
ENDBRANCH   1   7
TORSDOF 2
ENDMDL
