MODEL 1
REMARK minimizedAffinity -0.412920743
REMARK minimizedRMSD -1
REMARK  2 active torsions:
REMARK  status: ('A' for Active; 'I' for Inactive)
REMARK    1  A    between atoms: C1_2  and  C2_3 
REMARK    2  A    between atoms: C2_3  and  C3_4 
ROOT
ATOM      1  C3  UNL d   1       1.024   0.810   0.598  0.00  0.00    -0.075 A 
ATOM      2  C4  UNL d   1       1.149   0.944   1.989  0.00  0.00     0.002 A 
ATOM      3  C5  UNL d   1       1.830   2.031   2.537  0.00  0.00     0.002 A 
ATOM      4  C6  UNL d   1       2.402   2.991   1.705  0.00  0.00    -0.004 A 
ATOM      5  C7  UNL d   1       2.297   2.860   0.322  0.00  0.00     0.002 A 
ATOM      6  C8  UNL d   1       1.612   1.775  -0.230  0.00  0.00     0.002 A 
ENDROOT
BRANCH   1   7
ATOM      7  C2  UNL d   1       0.262  -0.348  -0.001  0.00  0.00     0.056 C 
BRANCH   7   8
ATOM      8  C1  UNL d   1      -0.602   0.031  -1.208  0.00  0.00     0.007 C 
ATOM      9  C   UNL d   1      -1.961  -0.657  -1.213  0.00  0.00     0.009 C 
ENDBRANCH   7   8
ENDBRANCH   1   7
TORSDOF 2
ENDMDL
