MODEL 1
REMARK minimizedAffinity -3.91944003
REMARK minimizedRMSD -1
REMARK  2 active torsions:
REMARK  status: ('A' for Active; 'I' for Inactive)
REMARK    1  A    between atoms: C1_2  and  C2_3 
REMARK    2  A    between atoms: C2_3  and  C3_4 
ROOT
ATOM      1  C3  UNL d   1       0.808   1.096   0.337  0.00  0.00    -0.075 A 
ATOM      2  C4  UNL d   1       0.077   2.138   0.925  0.00  0.00     0.002 A 
ATOM      3  C5  UNL d   1       0.733   3.190   1.565  0.00  0.00     0.002 A 
ATOM      4  C6  UNL d   1       2.124   3.209   1.633  0.00  0.00    -0.004 A 
ATOM      5  C7  UNL d   1       2.860   2.171   1.066  0.00  0.00     0.002 A 
ATOM      6  C8  UNL d   1       2.206   1.119   0.422  0.00  0.00     0.002 A 
ENDROOT
BRANCH   1   7
ATOM      7  C2  UNL d   1       0.105  -0.030  -0.383  0.00  0.00     0.056 C 
BRANCH   7   8
ATOM      8  C1  UNL d   1      -1.155   0.403  -1.140  0.00  0.00     0.007 C 
ATOM      9  C   UNL d   1      -2.196  -0.702  -1.256  0.00  0.00     0.009 C 
ENDBRANCH   7   8
ENDBRANCH   1   7
TORSDOF 2
ENDMDL
