MODEL 1
REMARK minimizedAffinity 5.41264868
REMARK minimizedRMSD -1
REMARK  2 active torsions:
REMARK  status: ('A' for Active; 'I' for Inactive)
REMARK    1  A    between atoms: C1_2  and  C2_3 
REMARK    2  A    between atoms: C2_3  and  C3_4 
ROOT
ATOM      1  C3  UNL d   1      -1.942  -1.963   0.492  0.00  0.00    -0.075 A 
ATOM      2  C4  UNL d   1      -2.975  -1.305  -0.191  0.00  0.00     0.002 A 
ATOM      3  C5  UNL d   1      -2.685  -0.320  -1.136  0.00  0.00     0.002 A 
ATOM      4  C6  UNL d   1      -1.362   0.026  -1.401  0.00  0.00    -0.004 A 
ATOM      5  C7  UNL d   1      -0.328  -0.609  -0.717  0.00  0.00     0.002 A 
ATOM      6  C8  UNL d   1      -0.615  -1.598   0.225  0.00  0.00     0.002 A 
ENDROOT
BRANCH   1   7
ATOM      7  C2  UNL d   1      -2.248  -3.051   1.494  0.00  0.00     0.056 C 
BRANCH   7   8
ATOM      8  C1  UNL d   1      -1.178  -4.145   1.573  0.00  0.00     0.007 C 
ATOM      9  C   UNL d   1      -1.339  -5.220   0.506  0.00  0.00     0.009 C 
ENDBRANCH   7   8
ENDBRANCH   1   7
TORSDOF 2
ENDMDL
