MODEL 1
REMARK minimizedAffinity -3.75835967
REMARK minimizedRMSD -1
REMARK  2 active torsions:
REMARK  status: ('A' for Active; 'I' for Inactive)
REMARK    1  A    between atoms: C1_2  and  C2_3 
REMARK    2  A    between atoms: C2_3  and  C3_4 
ROOT
ATOM      1  C3  UNL d   1       0.733   0.809   0.371  0.00  0.00    -0.075 A 
ATOM      2  C4  UNL d   1       0.644   1.579   1.539  0.00  0.00     0.002 A 
ATOM      3  C5  UNL d   1       1.691   2.422   1.914  0.00  0.00     0.002 A 
ATOM      4  C6  UNL d   1       2.842   2.498   1.133  0.00  0.00    -0.004 A 
ATOM      5  C7  UNL d   1       2.948   1.725  -0.022  0.00  0.00     0.002 A 
ATOM      6  C8  UNL d   1       1.900   0.884  -0.401  0.00  0.00     0.002 A 
ENDROOT
BRANCH   1   7
ATOM      7  C2  UNL d   1      -0.408  -0.083  -0.056  0.00  0.00     0.056 C 
BRANCH   7   8
ATOM      8  C1  UNL d   1      -1.099   0.364  -1.349  0.00  0.00     0.007 C 
ATOM      9  C   UNL d   1      -2.243  -0.551  -1.765  0.00  0.00     0.009 C 
ENDBRANCH   7   8
ENDBRANCH   1   7
TORSDOF 2
ENDMDL
