MODEL 1
REMARK minimizedAffinity -4.0462184
REMARK minimizedRMSD -1
REMARK  2 active torsions:
REMARK  status: ('A' for Active; 'I' for Inactive)
REMARK    1  A    between atoms: C1_2  and  C2_3 
REMARK    2  A    between atoms: C2_3  and  C3_4 
ROOT
ATOM      1  C3  UNL d   1      -0.759  -0.813  -0.110  0.00  0.00    -0.075 A 
ATOM      2  C4  UNL d   1      -1.893  -1.148  -0.864  0.00  0.00     0.002 A 
ATOM      3  C5  UNL d   1      -2.600  -2.321  -0.596  0.00  0.00     0.002 A 
ATOM      4  C6  UNL d   1      -2.178  -3.176   0.419  0.00  0.00    -0.004 A 
ATOM      5  C7  UNL d   1      -1.043  -2.862   1.163  0.00  0.00     0.002 A 
ATOM      6  C8  UNL d   1      -0.336  -1.687   0.900  0.00  0.00     0.002 A 
ENDROOT
BRANCH   1   7
ATOM      7  C2  UNL d   1      -0.007   0.469  -0.375  0.00  0.00     0.056 C 
BRANCH   7   8
ATOM      8  C1  UNL d   1       0.540   1.144   0.887  0.00  0.00     0.007 C 
ATOM      9  C   UNL d   1       1.992   1.584   0.753  0.00  0.00     0.009 C 
ENDBRANCH   7   8
ENDBRANCH   1   7
TORSDOF 2
ENDMDL
