MODEL 1
REMARK minimizedAffinity -0.467693895
REMARK minimizedRMSD -1
REMARK  0 active torsions:
REMARK  status: ('A' for Active; 'I' for Inactive)
ROOT
ATOM      1  C1  DEN d   1      -0.738  -4.035  -3.392  0.00  0.00     0.130 A 
ATOM      2  C2  DEN d   1      -1.596  -3.329  -4.340  0.00  0.00    -0.031 A 
ATOM      3  C3  DEN d   1      -2.153  -2.144  -3.657  0.00  0.00     0.027 A 
ATOM      4  C4  DEN d   1      -1.770  -1.336  -1.238  0.00  0.00     0.027 A 
ATOM      5  C5  DEN d   1      -1.131  -1.613  -0.050  0.00  0.00    -0.003 A 
ATOM      6  C6  DEN d   1      -0.350  -2.726   0.117  0.00  0.00     0.001 A 
ATOM      7  C7  DEN d   1      -0.151  -3.580  -0.936  0.00  0.00     0.017 A 
ATOM      8  C8  DEN d   1      -0.798  -3.311  -2.135  0.00  0.00    -0.094 A 
ATOM      9  C9  DEN d   1      -1.574  -2.174  -2.287  0.00  0.00    -0.072 A 
ENDROOT
TORSDOF 0
ENDMDL
