MODEL 1
REMARK minimizedAffinity 15.392355
REMARK minimizedRMSD -1
REMARK  0 active torsions:
REMARK  status: ('A' for Active; 'I' for Inactive)
ROOT
ATOM      1  C1  DEN d   1       2.990   2.358  -3.299  0.00  0.00     0.130 A 
ATOM      2  C2  DEN d   1       2.922   2.753  -1.894  0.00  0.00    -0.031 A 
ATOM      3  C3  DEN d   1       2.648   4.203  -1.841  0.00  0.00     0.027 A 
ATOM      4  C4  DEN d   1       2.320   5.866  -3.785  0.00  0.00     0.027 A 
ATOM      5  C5  DEN d   1       2.299   6.000  -5.155  0.00  0.00    -0.003 A 
ATOM      6  C6  DEN d   1       2.538   4.946  -5.996  0.00  0.00     0.001 A 
ATOM      7  C7  DEN d   1       2.765   3.699  -5.475  0.00  0.00     0.017 A 
ATOM      8  C8  DEN d   1       2.795   3.557  -4.093  0.00  0.00    -0.094 A 
ATOM      9  C9  DEN d   1       2.538   4.633  -3.260  0.00  0.00    -0.072 A 
ENDROOT
TORSDOF 0
ENDMDL
