MODEL 1
REMARK minimizedAffinity 12.656703
REMARK minimizedRMSD -1
REMARK  0 active torsions:
REMARK  status: ('A' for Active; 'I' for Inactive)
ROOT
ATOM      1  C1  DEN d   1      -3.232  -2.941  -1.985  0.00  0.00     0.130 A 
ATOM      2  C2  DEN d   1      -2.091  -2.154  -1.524  0.00  0.00    -0.031 A 
ATOM      3  C3  DEN d   1      -1.201  -1.919  -2.678  0.00  0.00     0.027 A 
ATOM      4  C4  DEN d   1      -1.480  -2.689  -5.124  0.00  0.00     0.027 A 
ATOM      5  C5  DEN d   1      -2.282  -3.392  -5.995  0.00  0.00    -0.003 A 
ATOM      6  C6  DEN d   1      -3.430  -4.018  -5.587  0.00  0.00     0.001 A 
ATOM      7  C7  DEN d   1      -3.832  -3.914  -4.281  0.00  0.00     0.017 A 
ATOM      8  C8  DEN d   1      -3.025  -3.213  -3.396  0.00  0.00    -0.094 A 
ATOM      9  C9  DEN d   1      -1.874  -2.577  -3.830  0.00  0.00    -0.072 A 
ENDROOT
TORSDOF 0
ENDMDL
