MODEL 1
REMARK minimizedAffinity 9.65551472
REMARK minimizedRMSD -1
REMARK  0 active torsions:
REMARK  status: ('A' for Active; 'I' for Inactive)
ROOT
ATOM      1  C1  DEN d   1      -0.806  -0.616   4.612  0.00  0.00     0.130 A 
ATOM      2  C2  DEN d   1      -1.951  -1.510   4.762  0.00  0.00    -0.031 A 
ATOM      3  C3  DEN d   1      -2.141  -2.227   3.485  0.00  0.00     0.027 A 
ATOM      4  C4  DEN d   1      -0.777  -2.045   1.304  0.00  0.00     0.027 A 
ATOM      5  C5  DEN d   1       0.281  -1.411   0.691  0.00  0.00    -0.003 A 
ATOM      6  C6  DEN d   1       1.024  -0.451   1.326  0.00  0.00     0.001 A 
ATOM      7  C7  DEN d   1       0.747  -0.129   2.628  0.00  0.00     0.017 A 
ATOM      8  C8  DEN d   1      -0.323  -0.759   3.250  0.00  0.00    -0.094 A 
ATOM      9  C9  DEN d   1      -1.055  -1.735   2.596  0.00  0.00    -0.072 A 
ENDROOT
TORSDOF 0
ENDMDL
