MODEL 1
REMARK minimizedAffinity 10.0013342
REMARK minimizedRMSD -1
REMARK  0 active torsions:
REMARK  status: ('A' for Active; 'I' for Inactive)
ROOT
ATOM      1  C1  DEN d   1      -0.162   1.188   3.387  0.00  0.00     0.130 A 
ATOM      2  C2  DEN d   1       0.996   0.301   3.307  0.00  0.00    -0.031 A 
ATOM      3  C3  DEN d   1       2.023   0.965   2.480  0.00  0.00     0.027 A 
ATOM      4  C4  DEN d   1       1.937   3.270   1.326  0.00  0.00     0.027 A 
ATOM      5  C5  DEN d   1       1.157   4.383   1.098  0.00  0.00    -0.003 A 
ATOM      6  C6  DEN d   1      -0.118   4.493   1.585  0.00  0.00     0.001 A 
ATOM      7  C7  DEN d   1      -0.637   3.492   2.363  0.00  0.00     0.017 A 
ATOM      8  C8  DEN d   1       0.140   2.364   2.591  0.00  0.00    -0.094 A 
ATOM      9  C9  DEN d   1       1.432   2.276   2.100  0.00  0.00    -0.072 A 
ENDROOT
TORSDOF 0
ENDMDL
