MODEL 1
REMARK minimizedAffinity 8.72589493
REMARK minimizedRMSD -1
REMARK  0 active torsions:
REMARK  status: ('A' for Active; 'I' for Inactive)
ROOT
ATOM      1  C1  DEN d   1       1.984   5.425  -5.966  0.00  0.00     0.130 A 
ATOM      2  C2  DEN d   1       3.326   6.000  -6.000  0.00  0.00    -0.031 A 
ATOM      3  C3  DEN d   1       3.993   5.677  -4.723  0.00  0.00     0.027 A 
ATOM      4  C4  DEN d   1       3.085   4.346  -2.709  0.00  0.00     0.027 A 
ATOM      5  C5  DEN d   1       1.994   3.669  -2.210  0.00  0.00    -0.003 A 
ATOM      6  C6  DEN d   1       0.821   3.560  -2.909  0.00  0.00     0.001 A 
ATOM      7  C7  DEN d   1       0.726   4.099  -4.165  0.00  0.00     0.017 A 
ATOM      8  C8  DEN d   1       1.820   4.789  -4.671  0.00  0.00    -0.094 A 
ATOM      9  C9  DEN d   1       3.001   4.877  -3.955  0.00  0.00    -0.072 A 
ENDROOT
TORSDOF 0
ENDMDL
