MODEL 1
REMARK minimizedAffinity 12.6189947
REMARK minimizedRMSD -1
REMARK  0 active torsions:
REMARK  status: ('A' for Active; 'I' for Inactive)
ROOT
ATOM      1  C1  DEN d   1      -3.006  -1.695  -1.721  0.00  0.00     0.130 A 
ATOM      2  C2  DEN d   1      -2.207  -2.266  -2.802  0.00  0.00    -0.031 A 
ATOM      3  C3  DEN d   1      -1.022  -2.911  -2.202  0.00  0.00     0.027 A 
ATOM      4  C4  DEN d   1      -0.352  -3.083   0.283  0.00  0.00     0.027 A 
ATOM      5  C5  DEN d   1      -0.710  -2.741   1.569  0.00  0.00    -0.003 A 
ATOM      6  C6  DEN d   1      -1.831  -2.003   1.843  0.00  0.00     0.001 A 
ATOM      7  C7  DEN d   1      -2.659  -1.621   0.820  0.00  0.00     0.017 A 
ATOM      8  C8  DEN d   1      -2.301  -1.956  -0.479  0.00  0.00    -0.094 A 
ATOM      9  C9  DEN d   1      -1.170  -2.713  -0.734  0.00  0.00    -0.072 A 
ENDROOT
TORSDOF 0
ENDMDL
