MODEL 1
REMARK minimizedAffinity 11.5312424
REMARK minimizedRMSD -1
REMARK  0 active torsions:
REMARK  status: ('A' for Active; 'I' for Inactive)
ROOT
ATOM      1  C1  DEN d   1       2.517  -2.568  -5.487  0.00  0.00     0.130 A 
ATOM      2  C2  DEN d   1       3.272  -3.604  -4.786  0.00  0.00    -0.031 A 
ATOM      3  C3  DEN d   1       4.364  -2.947  -4.040  0.00  0.00     0.027 A 
ATOM      4  C4  DEN d   1       4.954  -0.440  -3.900  0.00  0.00     0.027 A 
ATOM      5  C5  DEN d   1       4.607   0.821  -4.333  0.00  0.00    -0.003 A 
ATOM      6  C6  DEN d   1       3.569   1.035  -5.201  0.00  0.00     0.001 A 
ATOM      7  C7  DEN d   1       2.812  -0.024  -5.629  0.00  0.00     0.017 A 
ATOM      8  C8  DEN d   1       3.160  -1.299  -5.202  0.00  0.00    -0.094 A 
ATOM      9  C9  DEN d   1       4.205  -1.493  -4.315  0.00  0.00    -0.072 A 
ENDROOT
TORSDOF 0
ENDMDL
