MODEL 1
REMARK minimizedAffinity 12.7112408
REMARK minimizedRMSD -1
REMARK  0 active torsions:
REMARK  status: ('A' for Active; 'I' for Inactive)
ROOT
ATOM      1  C1  DEN d   1      -1.510  -1.940  -2.379  0.00  0.00     0.130 A 
ATOM      2  C2  DEN d   1      -2.676  -2.255  -1.559  0.00  0.00    -0.031 A 
ATOM      3  C3  DEN d   1      -3.642  -2.988  -2.401  0.00  0.00     0.027 A 
ATOM      4  C4  DEN d   1      -3.444  -3.668  -4.881  0.00  0.00     0.027 A 
ATOM      5  C5  DEN d   1      -2.642  -3.611  -6.000  0.00  0.00    -0.003 A 
ATOM      6  C6  DEN d   1      -1.432  -2.969  -5.999  0.00  0.00     0.001 A 
ATOM      7  C7  DEN d   1      -0.968  -2.397  -4.845  0.00  0.00     0.017 A 
ATOM      8  C8  DEN d   1      -1.774  -2.443  -3.715  0.00  0.00    -0.094 A 
ATOM      9  C9  DEN d   1      -2.988  -3.107  -3.732  0.00  0.00    -0.072 A 
ENDROOT
TORSDOF 0
ENDMDL
