MODEL 1
REMARK minimizedAffinity -0.784809411
REMARK minimizedRMSD -1
REMARK  0 active torsions:
REMARK  status: ('A' for Active; 'I' for Inactive)
ROOT
ATOM      1  C1  DEN d   1       4.661  -2.560  -4.643  0.00  0.00     0.130 A 
ATOM      2  C2  DEN d   1       3.378  -2.887  -5.259  0.00  0.00    -0.031 A 
ATOM      3  C3  DEN d   1       2.854  -1.663  -5.899  0.00  0.00     0.027 A 
ATOM      4  C4  DEN d   1       3.901   0.692  -5.999  0.00  0.00     0.027 A 
ATOM      5  C5  DEN d   1       4.977   1.459  -5.611  0.00  0.00    -0.003 A 
ATOM      6  C6  DEN d   1       5.998   0.954  -4.851  0.00  0.00     0.001 A 
ATOM      7  C7  DEN d   1       5.987  -0.368  -4.492  0.00  0.00     0.017 A 
ATOM      8  C8  DEN d   1       4.902  -1.147  -4.873  0.00  0.00    -0.094 A 
ATOM      9  C9  DEN d   1       3.886  -0.620  -5.652  0.00  0.00    -0.072 A 
ENDROOT
TORSDOF 0
ENDMDL
