MODEL 1
REMARK minimizedAffinity 15.1963158
REMARK minimizedRMSD -1
REMARK  0 active torsions:
REMARK  status: ('A' for Active; 'I' for Inactive)
ROOT
ATOM      1  C1  DEN d   1       1.127   1.411   2.501  0.00  0.00     0.130 A 
ATOM      2  C2  DEN d   1       2.269   1.775   1.668  0.00  0.00    -0.031 A 
ATOM      3  C3  DEN d   1       1.978   3.079   1.038  0.00  0.00     0.027 A 
ATOM      4  C4  DEN d   1      -0.119   4.562   1.275  0.00  0.00     0.027 A 
ATOM      5  C5  DEN d   1      -1.359   4.666   1.864  0.00  0.00    -0.003 A 
ATOM      6  C6  DEN d   1      -1.868   3.686   2.673  0.00  0.00     0.001 A 
ATOM      7  C7  DEN d   1      -1.114   2.577   2.952  0.00  0.00     0.017 A 
ATOM      8  C8  DEN d   1       0.135   2.461   2.356  0.00  0.00    -0.094 A 
ATOM      9  C9  DEN d   1       0.637   3.469   1.550  0.00  0.00    -0.072 A 
ENDROOT
TORSDOF 0
ENDMDL
