MODEL 1
REMARK minimizedAffinity 10.9815817
REMARK minimizedRMSD -1
REMARK  0 active torsions:
REMARK  status: ('A' for Active; 'I' for Inactive)
ROOT
ATOM      1  C1  DEN d   1       3.738   5.936  -4.741  0.00  0.00     0.130 A 
ATOM      2  C2  DEN d   1       3.000   6.000  -6.000  0.00  0.00    -0.031 A 
ATOM      3  C3  DEN d   1       1.789   5.165  -5.862  0.00  0.00     0.027 A 
ATOM      4  C4  DEN d   1       0.987   3.794  -3.830  0.00  0.00     0.027 A 
ATOM      5  C5  DEN d   1       1.286   3.421  -2.538  0.00  0.00    -0.003 A 
ATOM      6  C6  DEN d   1       2.431   3.831  -1.907  0.00  0.00     0.001 A 
ATOM      7  C7  DEN d   1       3.297   4.674  -2.551  0.00  0.00     0.017 A 
ATOM      8  C8  DEN d   1       3.006   5.047  -3.857  0.00  0.00    -0.094 A 
ATOM      9  C9  DEN d   1       1.838   4.633  -4.473  0.00  0.00    -0.072 A 
ENDROOT
TORSDOF 0
ENDMDL
