MODEL 1
REMARK minimizedAffinity 5.00164127
REMARK minimizedRMSD -1
REMARK  1 active torsions:
REMARK  status: ('A' for Active; 'I' for Inactive)
REMARK    1  A    between atoms: C1_2  and  C2_3 
ROOT
ATOM      1  C2  UNL d   1       1.630   4.090  -0.001  0.00  0.00    -0.081 A 
ATOM      2  C3  UNL d   1       1.511   2.856   0.649  0.00  0.00     0.006 A 
ATOM      3  C4  UNL d   1       0.258   2.259   0.810  0.00  0.00     0.002 A 
ATOM      4  C5  UNL d   1      -0.894   2.882   0.318  0.00  0.00    -0.080 A 
ATOM      5  C6  UNL d   1      -2.241   2.237   0.457  0.00  0.00     0.076 C 
ATOM      6  C7  UNL d   1      -0.777   4.123  -0.316  0.00  0.00     0.002 A 
ATOM      7  C8  UNL d   1       0.475   4.721  -0.476  0.00  0.00     0.006 A 
ENDROOT
BRANCH   1   8
ATOM      8  C1  UNL d   1       2.986   4.706  -0.233  0.00  0.00     0.054 C 
ATOM      9  C   UNL d   1       2.878   5.999  -1.029  0.00  0.00     0.018 C 
ENDBRANCH   1   8
TORSDOF 1
ENDMDL
