MODEL 1
REMARK minimizedAffinity 12.4210043
REMARK minimizedRMSD -1
REMARK  1 active torsions:
REMARK  status: ('A' for Active; 'I' for Inactive)
REMARK    1  A    between atoms: C1_2  and  C2_3 
ROOT
ATOM      1  C2  UNL d   1      -1.961   3.024   0.974  0.00  0.00    -0.081 A 
ATOM      2  C3  UNL d   1      -3.119   2.593   0.314  0.00  0.00     0.006 A 
ATOM      3  C4  UNL d   1      -4.357   3.168   0.608  0.00  0.00     0.002 A 
ATOM      4  C5  UNL d   1      -4.458   4.188   1.560  0.00  0.00    -0.080 A 
ATOM      5  C6  UNL d   1      -5.777   4.835   1.863  0.00  0.00     0.076 C 
ATOM      6  C7  UNL d   1      -3.304   4.607   2.232  0.00  0.00     0.002 A 
ATOM      7  C8  UNL d   1      -2.066   4.031   1.939  0.00  0.00     0.006 A 
ENDROOT
BRANCH   1   8
ATOM      8  C1  UNL d   1      -0.615   2.450   0.613  0.00  0.00     0.054 C 
ATOM      9  C   UNL d   1       0.154   3.383  -0.311  0.00  0.00     0.018 C 
ENDBRANCH   1   8
TORSDOF 1
ENDMDL
