MODEL 1
REMARK minimizedAffinity 10.1371412
REMARK minimizedRMSD -1
REMARK  1 active torsions:
REMARK  status: ('A' for Active; 'I' for Inactive)
REMARK    1  A    between atoms: C1_2  and  C2_3 
ROOT
ATOM      1  C2  UNL d   1       0.786   4.096  -0.858  0.00  0.00    -0.081 A 
ATOM      2  C3  UNL d   1      -0.436   4.613  -1.306  0.00  0.00     0.006 A 
ATOM      3  C4  UNL d   1      -1.642   4.048  -0.884  0.00  0.00     0.002 A 
ATOM      4  C5  UNL d   1      -1.646   2.962  -0.002  0.00  0.00    -0.080 A 
ATOM      5  C6  UNL d   1      -2.934   2.365   0.482  0.00  0.00     0.076 C 
ATOM      6  C7  UNL d   1      -0.426   2.434   0.432  0.00  0.00     0.002 A 
ATOM      7  C8  UNL d   1       0.780   2.998   0.010  0.00  0.00     0.006 A 
ENDROOT
BRANCH   1   8
ATOM      8  C1  UNL d   1       2.086   4.744  -1.260  0.00  0.00     0.054 C 
ATOM      9  C   UNL d   1       1.846   5.999  -2.088  0.00  0.00     0.018 C 
ENDBRANCH   1   8
TORSDOF 1
ENDMDL
