MODEL 1
REMARK minimizedAffinity 9.6524744
REMARK minimizedRMSD -1
REMARK  1 active torsions:
REMARK  status: ('A' for Active; 'I' for Inactive)
REMARK    1  A    between atoms: C1_2  and  C2_3 
ROOT
ATOM      1  C2  UNL d   1       1.118  -1.301  -0.950  0.00  0.00    -0.081 A 
ATOM      2  C3  UNL d   1       1.149  -0.928   0.399  0.00  0.00     0.006 A 
ATOM      3  C4  UNL d   1       0.960   0.405   0.770  0.00  0.00     0.002 A 
ATOM      4  C5  UNL d   1       0.729   1.386  -0.200  0.00  0.00    -0.080 A 
ATOM      5  C6  UNL d   1       0.495   2.816   0.186  0.00  0.00     0.076 C 
ATOM      6  C7  UNL d   1       0.716   1.017  -1.550  0.00  0.00     0.002 A 
ATOM      7  C8  UNL d   1       0.906  -0.316  -1.921  0.00  0.00     0.006 A 
ENDROOT
BRANCH   1   8
ATOM      8  C1  UNL d   1       1.258  -2.748  -1.349  0.00  0.00     0.054 C 
ATOM      9  C   UNL d   1       0.019  -3.548  -0.970  0.00  0.00     0.018 C 
ENDBRANCH   1   8
TORSDOF 1
ENDMDL
