MODEL 1
REMARK minimizedAffinity 3.55781102
REMARK minimizedRMSD -1
REMARK  0 active torsions:
REMARK  status: ('A' for Active; 'I' for Inactive)
ROOT
ATOM      1  C   UNL d   1       0.124   5.124  -0.978  0.00  0.00     0.023 A 
ATOM      2  C1  UNL d   1       0.284   3.785  -1.334  0.00  0.00     0.003 A 
ATOM      3  C2  UNL d   1      -0.361   2.785  -0.603  0.00  0.00     0.048 A 
ATOM      4  C3  UNL d   1      -1.166   3.132   0.482  0.00  0.00     0.023 A 
ATOM      5  C4  UNL d   1      -1.329   4.471   0.842  0.00  0.00     0.048 A 
ATOM      6  C5  UNL d   1      -0.681   5.467   0.108  0.00  0.00     0.003 A 
ATOM      7  I   UNL d   1      -2.127   1.646   1.572  0.00  0.00    -0.146 I 
ENDROOT
TORSDOF 0
ENDMDL
