MODEL 1
REMARK minimizedAffinity 3.317307
REMARK minimizedRMSD -1
REMARK  0 active torsions:
REMARK  status: ('A' for Active; 'I' for Inactive)
ROOT
ATOM      1  C   UNL d   1      -0.533   2.155   2.916  0.00  0.00     0.023 A 
ATOM      2  C1  UNL d   1       0.571   1.347   3.187  0.00  0.00     0.003 A 
ATOM      3  C2  UNL d   1       1.068   0.488   2.205  0.00  0.00     0.048 A 
ATOM      4  C3  UNL d   1       0.457   0.443   0.952  0.00  0.00     0.023 A 
ATOM      5  C4  UNL d   1      -0.648   1.250   0.676  0.00  0.00     0.048 A 
ATOM      6  C5  UNL d   1      -1.142   2.106   1.661  0.00  0.00     0.003 A 
ATOM      7  I   UNL d   1       1.195  -0.835  -0.512  0.00  0.00    -0.146 I 
ENDROOT
TORSDOF 0
ENDMDL
