MODEL 1
REMARK minimizedAffinity 2.79506588
REMARK minimizedRMSD -1
REMARK  0 active torsions:
REMARK  status: ('A' for Active; 'I' for Inactive)
ROOT
ATOM      1  C   UNL d   1      -0.259   4.581  -0.433  0.00  0.00     0.023 A 
ATOM      2  C1  UNL d   1      -0.815   3.595   0.382  0.00  0.00     0.003 A 
ATOM      3  C2  UNL d   1      -0.634   2.246   0.071  0.00  0.00     0.048 A 
ATOM      4  C3  UNL d   1       0.107   1.890  -1.056  0.00  0.00     0.023 A 
ATOM      5  C4  UNL d   1       0.666   2.873  -1.874  0.00  0.00     0.048 A 
ATOM      6  C5  UNL d   1       0.481   4.221  -1.559  0.00  0.00     0.003 A 
ATOM      7  I   UNL d   1       0.379  -0.117  -1.521  0.00  0.00    -0.146 I 
ENDROOT
TORSDOF 0
ENDMDL
