MODEL 1
REMARK minimizedAffinity 10.928031
REMARK minimizedRMSD -1
REMARK  0 active torsions:
REMARK  status: ('A' for Active; 'I' for Inactive)
ROOT
ATOM      1  C   UNL d   1      -0.821  -0.776  -2.632  0.00  0.00     0.023 A 
ATOM      2  C1  UNL d   1       0.408  -0.227  -2.265  0.00  0.00     0.003 A 
ATOM      3  C2  UNL d   1       0.473   0.724  -1.245  0.00  0.00     0.048 A 
ATOM      4  C3  UNL d   1      -0.695   1.121  -0.595  0.00  0.00     0.023 A 
ATOM      5  C4  UNL d   1      -1.927   0.575  -0.958  0.00  0.00     0.048 A 
ATOM      6  C5  UNL d   1      -1.987  -0.375  -1.979  0.00  0.00     0.003 A 
ATOM      7  I   UNL d   1      -0.601   2.537   0.924  0.00  0.00    -0.146 I 
ENDROOT
TORSDOF 0
ENDMDL
