MODEL 1
REMARK minimizedAffinity 6.02887154
REMARK minimizedRMSD -1
REMARK  0 active torsions:
REMARK  status: ('A' for Active; 'I' for Inactive)
ROOT
ATOM      1  C   UNL d   1       4.755  -1.144   0.543  0.00  0.00     0.023 A 
ATOM      2  C1  UNL d   1       3.433  -0.893   0.176  0.00  0.00     0.003 A 
ATOM      3  C2  UNL d   1       2.566  -1.956  -0.085  0.00  0.00     0.048 A 
ATOM      4  C3  UNL d   1       3.027  -3.267   0.023  0.00  0.00     0.023 A 
ATOM      5  C4  UNL d   1       4.350  -3.523   0.390  0.00  0.00     0.048 A 
ATOM      6  C5  UNL d   1       5.213  -2.457   0.650  0.00  0.00     0.003 A 
ATOM      7  I   UNL d   1       1.739  -4.851  -0.365  0.00  0.00    -0.146 I 
ENDROOT
TORSDOF 0
ENDMDL
