MODEL 1
REMARK minimizedAffinity 8.06637001
REMARK minimizedRMSD -1
REMARK  0 active torsions:
REMARK  status: ('A' for Active; 'I' for Inactive)
ROOT
ATOM      1  C   UNL d   1       2.808  -0.530   0.710  0.00  0.00     0.023 A 
ATOM      2  C1  UNL d   1       2.045  -0.104  -0.378  0.00  0.00     0.003 A 
ATOM      3  C2  UNL d   1       0.889   0.650  -0.170  0.00  0.00     0.048 A 
ATOM      4  C3  UNL d   1       0.501   0.976   1.129  0.00  0.00     0.023 A 
ATOM      5  C4  UNL d   1       1.261   0.553   2.221  0.00  0.00     0.048 A 
ATOM      6  C5  UNL d   1       2.416  -0.202   2.008  0.00  0.00     0.003 A 
ATOM      7  I   UNL d   1      -1.220   2.099   1.443  0.00  0.00    -0.146 I 
ENDROOT
TORSDOF 0
ENDMDL
