MODEL 1
REMARK minimizedAffinity 10.5491285
REMARK minimizedRMSD -1
REMARK  0 active torsions:
REMARK  status: ('A' for Active; 'I' for Inactive)
ROOT
ATOM      1  C   UNL d   1      -1.800   1.192   3.015  0.00  0.00     0.023 A 
ATOM      2  C1  UNL d   1      -0.447   1.263   2.683  0.00  0.00     0.003 A 
ATOM      3  C2  UNL d   1      -0.043   1.945   1.533  0.00  0.00     0.048 A 
ATOM      4  C3  UNL d   1      -0.998   2.555   0.721  0.00  0.00     0.023 A 
ATOM      5  C4  UNL d   1      -2.353   2.488   1.049  0.00  0.00     0.048 A 
ATOM      6  C5  UNL d   1      -2.752   1.803   2.199  0.00  0.00     0.003 A 
ATOM      7  I   UNL d   1      -0.400   3.572  -0.991  0.00  0.00    -0.146 I 
ENDROOT
TORSDOF 0
ENDMDL
