MODEL 1
REMARK minimizedAffinity 3.33286309
REMARK minimizedRMSD -1
REMARK  0 active torsions:
REMARK  status: ('A' for Active; 'I' for Inactive)
ROOT
ATOM      1  C   UNL d   1      -1.902   3.533  -0.142  0.00  0.00     0.023 A 
ATOM      2  C1  UNL d   1      -0.657   2.947   0.087  0.00  0.00     0.003 A 
ATOM      3  C2  UNL d   1      -0.519   1.952   1.058  0.00  0.00     0.048 A 
ATOM      4  C3  UNL d   1      -1.631   1.549   1.796  0.00  0.00     0.023 A 
ATOM      5  C4  UNL d   1      -2.879   2.132   1.570  0.00  0.00     0.048 A 
ATOM      6  C5  UNL d   1      -3.011   3.126   0.599  0.00  0.00     0.003 A 
ATOM      7  I   UNL d   1      -1.429   0.069   3.241  0.00  0.00    -0.146 I 
ENDROOT
TORSDOF 0
ENDMDL
