MODEL 1
REMARK minimizedAffinity 3.59343457
REMARK minimizedRMSD -1
REMARK  0 active torsions:
REMARK  status: ('A' for Active; 'I' for Inactive)
ROOT
ATOM      1  C   UNL d   1      -2.219   4.210   0.396  0.00  0.00     0.023 A 
ATOM      2  C1  UNL d   1      -1.277   3.204   0.173  0.00  0.00     0.003 A 
ATOM      3  C2  UNL d   1      -1.373   1.992   0.859  0.00  0.00     0.048 A 
ATOM      4  C3  UNL d   1      -2.413   1.791   1.766  0.00  0.00     0.023 A 
ATOM      5  C4  UNL d   1      -3.358   2.793   1.992  0.00  0.00     0.048 A 
ATOM      6  C5  UNL d   1      -3.257   4.004   1.304  0.00  0.00     0.003 A 
ATOM      7  I   UNL d   1      -2.558  -0.013   2.788  0.00  0.00    -0.146 I 
ENDROOT
TORSDOF 0
ENDMDL
