MODEL 1
REMARK minimizedAffinity 11.8221846
REMARK minimizedRMSD -1
REMARK  0 active torsions:
REMARK  status: ('A' for Active; 'I' for Inactive)
ROOT
ATOM      1  C   UNL d   1       0.353   0.406  -2.706  0.00  0.00     0.023 A 
ATOM      2  C1  UNL d   1      -0.527  -0.555  -3.204  0.00  0.00     0.003 A 
ATOM      3  C2  UNL d   1      -1.822  -0.651  -2.691  0.00  0.00     0.048 A 
ATOM      4  C3  UNL d   1      -2.231   0.219  -1.680  0.00  0.00     0.023 A 
ATOM      5  C4  UNL d   1      -1.354   1.182  -1.180  0.00  0.00     0.048 A 
ATOM      6  C5  UNL d   1      -0.060   1.273  -1.695  0.00  0.00     0.003 A 
ATOM      7  I   UNL d   1      -4.158   0.079  -0.915  0.00  0.00    -0.146 I 
ENDROOT
TORSDOF 0
ENDMDL
