MODEL 1
REMARK minimizedAffinity 6.3722167
REMARK minimizedRMSD -1
REMARK  0 active torsions:
REMARK  status: ('A' for Active; 'I' for Inactive)
ROOT
ATOM      1  C   UNL d   1      -0.480   3.836   0.396  0.00  0.00     0.023 A 
ATOM      2  C1  UNL d   1      -0.846   2.624   0.980  0.00  0.00     0.003 A 
ATOM      3  C2  UNL d   1      -0.756   1.439   0.247  0.00  0.00     0.048 A 
ATOM      4  C3  UNL d   1      -0.298   1.474  -1.070  0.00  0.00     0.023 A 
ATOM      5  C4  UNL d   1       0.070   2.685  -1.658  0.00  0.00     0.048 A 
ATOM      6  C5  UNL d   1      -0.022   3.867  -0.921  0.00  0.00     0.003 A 
ATOM      7  I   UNL d   1      -0.164  -0.288  -2.164  0.00  0.00    -0.146 I 
ENDROOT
TORSDOF 0
ENDMDL
