MODEL 1
REMARK minimizedAffinity 10.4413805
REMARK minimizedRMSD -1
REMARK  0 active torsions:
REMARK  status: ('A' for Active; 'I' for Inactive)
ROOT
ATOM      1  C   UNL d   1       0.396   5.123   1.894  0.00  0.00     0.023 A 
ATOM      2  C1  UNL d   1       0.906   4.053   2.630  0.00  0.00     0.003 A 
ATOM      3  C2  UNL d   1       0.149   2.890   2.790  0.00  0.00     0.048 A 
ATOM      4  C3  UNL d   1      -1.117   2.804   2.211  0.00  0.00     0.023 A 
ATOM      5  C4  UNL d   1      -1.630   3.872   1.473  0.00  0.00     0.048 A 
ATOM      6  C5  UNL d   1      -0.870   5.033   1.316  0.00  0.00     0.003 A 
ATOM      7  I   UNL d   1      -2.245   1.075   2.447  0.00  0.00    -0.146 I 
ENDROOT
TORSDOF 0
ENDMDL
