MODEL 1
REMARK minimizedAffinity 9.27427578
REMARK minimizedRMSD -1
REMARK  0 active torsions:
REMARK  status: ('A' for Active; 'I' for Inactive)
ROOT
ATOM      1  C   UNL d   1       4.617  -4.275   0.749  0.00  0.00     0.023 A 
ATOM      2  C1  UNL d   1       5.180  -3.012   0.931  0.00  0.00     0.003 A 
ATOM      3  C2  UNL d   1       4.362  -1.917   1.219  0.00  0.00     0.048 A 
ATOM      4  C3  UNL d   1       2.983  -2.092   1.324  0.00  0.00     0.023 A 
ATOM      5  C4  UNL d   1       2.416  -3.354   1.144  0.00  0.00     0.048 A 
ATOM      6  C5  UNL d   1       3.237  -4.446   0.855  0.00  0.00     0.003 A 
ATOM      7  I   UNL d   1       1.765  -0.464   1.753  0.00  0.00    -0.146 I 
ENDROOT
TORSDOF 0
ENDMDL
