MODEL 1
REMARK minimizedAffinity 1.7616322
REMARK minimizedRMSD -1
REMARK  0 active torsions:
REMARK  status: ('A' for Active; 'I' for Inactive)
ROOT
ATOM      1  C   UNL d   1      -1.198  -0.568  -2.960  0.00  0.00     0.023 A 
ATOM      2  C1  UNL d   1      -2.178   0.406  -2.772  0.00  0.00     0.003 A 
ATOM      3  C2  UNL d   1      -1.880   1.571  -2.062  0.00  0.00     0.048 A 
ATOM      4  C3  UNL d   1      -0.599   1.755  -1.543  0.00  0.00     0.023 A 
ATOM      5  C4  UNL d   1       0.385   0.783  -1.729  0.00  0.00     0.048 A 
ATOM      6  C5  UNL d   1       0.082  -0.380  -2.439  0.00  0.00     0.003 A 
ATOM      7  I   UNL d   1      -0.152   3.488  -0.485  0.00  0.00    -0.146 I 
ENDROOT
TORSDOF 0
ENDMDL
