MODEL 1
REMARK minimizedAffinity 1.20762432
REMARK minimizedRMSD -1
REMARK  0 active torsions:
REMARK  status: ('A' for Active; 'I' for Inactive)
ROOT
ATOM      1  C   UNL d   1      -0.385   2.463  -0.974  0.00  0.00     0.023 A 
ATOM      2  C1  UNL d   1      -0.355   3.748  -1.517  0.00  0.00     0.003 A 
ATOM      3  C2  UNL d   1      -1.129   4.764  -0.952  0.00  0.00     0.048 A 
ATOM      4  C3  UNL d   1      -1.930   4.489   0.156  0.00  0.00     0.023 A 
ATOM      5  C4  UNL d   1      -1.962   3.206   0.703  0.00  0.00     0.048 A 
ATOM      6  C5  UNL d   1      -1.187   2.192   0.135  0.00  0.00     0.003 A 
ATOM      7  I   UNL d   1      -3.082   6.000   0.998  0.00  0.00    -0.146 I 
ENDROOT
TORSDOF 0
ENDMDL
