MODEL 1
REMARK minimizedAffinity -6.36721468
REMARK minimizedRMSD -1
REMARK  3 active torsions:
REMARK  status: ('A' for Active; 'I' for Inactive)
REMARK    1  A    between atoms: C3'_2  and  C2'_3 
REMARK    2  A    between atoms: C2'_3  and  C1'_4 
REMARK    3  A    between atoms: C1'_4  and  C1_5 
ROOT
ATOM      1  C1  N4B d   1      -0.145   0.177   0.494  0.00  0.00    -0.075 A 
ATOM      2  C2  N4B d   1      -1.264  -0.379   1.151  0.00  0.00     0.002 A 
ATOM      3  C3  N4B d   1      -1.102  -1.038   2.344  0.00  0.00     0.002 A 
ATOM      4  C4  N4B d   1       0.166  -1.169   2.889  0.00  0.00    -0.004 A 
ATOM      5  C5  N4B d   1       1.239  -0.607   2.260  0.00  0.00     0.002 A 
ATOM      6  C6  N4B d   1       1.090   0.061   1.062  0.00  0.00     0.002 A 
ENDROOT
BRANCH   1   7
ATOM      7  C1' N4B d   1      -0.261   0.832  -0.856  0.00  0.00     0.057 C 
BRANCH   7   8
ATOM      8  C2' N4B d   1       1.055   0.662  -1.609  0.00  0.00     0.009 C 
BRANCH   8   9
ATOM      9  C3' N4B d   1       1.590   1.987  -2.126  0.00  0.00     0.004 C 
ATOM     10  C4' N4B d   1       1.904   2.955  -1.024  0.00  0.00     0.003 C 
ENDBRANCH   8   9
ENDBRANCH   7   8
ENDBRANCH   1   7
TORSDOF 3
ENDMDL
