MODEL 1
REMARK minimizedAffinity -3.98626852
REMARK minimizedRMSD -1
REMARK  3 active torsions:
REMARK  status: ('A' for Active; 'I' for Inactive)
REMARK    1  A    between atoms: C3'_2  and  C2'_3 
REMARK    2  A    between atoms: C2'_3  and  C1'_4 
REMARK    3  A    between atoms: C1'_4  and  C1_5 
ROOT
ATOM      1  C1  N4B d   1       1.977   2.016  -0.168  0.00  0.00    -0.075 A 
ATOM      2  C2  N4B d   1       1.538   2.934  -1.146  0.00  0.00     0.002 A 
ATOM      3  C3  N4B d   1       2.198   4.127  -1.314  0.00  0.00     0.002 A 
ATOM      4  C4  N4B d   1       3.283   4.430  -0.506  0.00  0.00    -0.004 A 
ATOM      5  C5  N4B d   1       3.717   3.526   0.420  0.00  0.00     0.002 A 
ATOM      6  C6  N4B d   1       3.066   2.322   0.597  0.00  0.00     0.002 A 
ENDROOT
BRANCH   1   7
ATOM      7  C1' N4B d   1       1.236   0.737   0.111  0.00  0.00     0.057 C 
BRANCH   7   8
ATOM      8  C2' N4B d   1       1.815   0.084   1.362  0.00  0.00     0.009 C 
BRANCH   8   9
ATOM      9  C3' N4B d   1       0.730  -0.473   2.267  0.00  0.00     0.004 C 
ATOM     10  C4' N4B d   1      -0.153   0.595   2.840  0.00  0.00     0.003 C 
ENDBRANCH   8   9
ENDBRANCH   7   8
ENDBRANCH   1   7
TORSDOF 3
ENDMDL
