MODEL 1
REMARK minimizedAffinity -1.94727397
REMARK minimizedRMSD -1
REMARK  3 active torsions:
REMARK  status: ('A' for Active; 'I' for Inactive)
REMARK    1  A    between atoms: C3'_2  and  C2'_3 
REMARK    2  A    between atoms: C2'_3  and  C1'_4 
REMARK    3  A    between atoms: C1'_4  and  C1_5 
ROOT
ATOM      1  C1  N4B d   1       1.563  -1.469  -3.727  0.00  0.00    -0.075 A 
ATOM      2  C2  N4B d   1       1.218  -2.628  -4.457  0.00  0.00     0.002 A 
ATOM      3  C3  N4B d   1      -0.103  -2.945  -4.658  0.00  0.00     0.002 A 
ATOM      4  C4  N4B d   1      -1.092  -2.133  -4.124  0.00  0.00    -0.004 A 
ATOM      5  C5  N4B d   1      -0.751  -1.002  -3.443  0.00  0.00     0.002 A 
ATOM      6  C6  N4B d   1       0.572  -0.668  -3.237  0.00  0.00     0.002 A 
ENDROOT
BRANCH   1   7
ATOM      7  C1' N4B d   1       2.992  -1.126  -3.408  0.00  0.00     0.057 C 
BRANCH   7   8
ATOM      8  C2' N4B d   1       3.671  -0.588  -4.665  0.00  0.00     0.009 C 
BRANCH   8   9
ATOM      9  C3' N4B d   1       3.753   0.928  -4.661  0.00  0.00     0.004 C 
ATOM     10  C4' N4B d   1       4.123   1.493  -6.000  0.00  0.00     0.003 C 
ENDBRANCH   8   9
ENDBRANCH   7   8
ENDBRANCH   1   7
TORSDOF 3
ENDMDL
