MODEL 1
REMARK minimizedAffinity 9.7861557
REMARK minimizedRMSD -1
REMARK  3 active torsions:
REMARK  status: ('A' for Active; 'I' for Inactive)
REMARK    1  A    between atoms: C3'_2  and  C2'_3 
REMARK    2  A    between atoms: C2'_3  and  C1'_4 
REMARK    3  A    between atoms: C1'_4  and  C1_5 
ROOT
ATOM      1  C1  N4B d   1      -0.493  -1.766  -3.007  0.00  0.00    -0.075 A 
ATOM      2  C2  N4B d   1      -1.211  -2.636  -3.857  0.00  0.00     0.002 A 
ATOM      3  C3  N4B d   1      -0.583  -3.223  -4.928  0.00  0.00     0.002 A 
ATOM      4  C4  N4B d   1       0.751  -2.940  -5.180  0.00  0.00    -0.004 A 
ATOM      5  C5  N4B d   1       1.444  -2.118  -4.340  0.00  0.00     0.002 A 
ATOM      6  C6  N4B d   1       0.827  -1.525  -3.257  0.00  0.00     0.002 A 
ENDROOT
BRANCH   1   7
ATOM      7  C1' N4B d   1      -1.158  -1.034  -1.874  0.00  0.00     0.057 C 
BRANCH   7   8
ATOM      8  C2' N4B d   1      -0.308   0.173  -1.489  0.00  0.00     0.009 C 
BRANCH   8   9
ATOM      9  C3' N4B d   1      -0.103   0.268   0.013  0.00  0.00     0.004 C 
ATOM     10  C4' N4B d   1       1.289  -0.099   0.433  0.00  0.00     0.003 C 
ENDBRANCH   8   9
ENDBRANCH   7   8
ENDBRANCH   1   7
TORSDOF 3
ENDMDL
