MODEL 1
REMARK minimizedAffinity 7.10478306
REMARK minimizedRMSD -1
REMARK  3 active torsions:
REMARK  status: ('A' for Active; 'I' for Inactive)
REMARK    1  A    between atoms: C3'_2  and  C2'_3 
REMARK    2  A    between atoms: C2'_3  and  C1'_4 
REMARK    3  A    between atoms: C1'_4  and  C1_5 
ROOT
ATOM      1  C1  N4B d   1      -0.940   2.105   4.484  0.00  0.00    -0.075 A 
ATOM      2  C2  N4B d   1      -0.610   2.895   5.607  0.00  0.00     0.002 A 
ATOM      3  C3  N4B d   1       0.674   3.352   5.772  0.00  0.00     0.002 A 
ATOM      4  C4  N4B d   1       1.646   3.018   4.840  0.00  0.00    -0.004 A 
ATOM      5  C5  N4B d   1       1.313   2.276   3.745  0.00  0.00     0.002 A 
ATOM      6  C6  N4B d   1       0.025   1.813   3.565  0.00  0.00     0.002 A 
ENDROOT
BRANCH   1   7
ATOM      7  C1' N4B d   1      -2.310   1.511   4.306  0.00  0.00     0.057 C 
BRANCH   7   8
ATOM      8  C2' N4B d   1      -2.710   0.781   5.585  0.00  0.00     0.009 C 
BRANCH   8   9
ATOM      9  C3' N4B d   1      -4.136   1.100   5.999  0.00  0.00     0.004 C 
ATOM     10  C4' N4B d   1      -5.003   1.495   4.841  0.00  0.00     0.003 C 
ENDBRANCH   8   9
ENDBRANCH   7   8
ENDBRANCH   1   7
TORSDOF 3
ENDMDL
