MODEL 1
REMARK minimizedAffinity 2.6787312
REMARK minimizedRMSD -1
REMARK  3 active torsions:
REMARK  status: ('A' for Active; 'I' for Inactive)
REMARK    1  A    between atoms: C3'_2  and  C2'_3 
REMARK    2  A    between atoms: C2'_3  and  C1'_4 
REMARK    3  A    between atoms: C1'_4  and  C1_5 
ROOT
ATOM      1  C1  N4B d   1      -2.580  -3.384   1.130  0.00  0.00    -0.075 A 
ATOM      2  C2  N4B d   1      -3.874  -3.821   0.768  0.00  0.00     0.002 A 
ATOM      3  C3  N4B d   1      -4.252  -5.119   1.008  0.00  0.00     0.002 A 
ATOM      4  C4  N4B d   1      -3.352  -6.000   1.587  0.00  0.00    -0.004 A 
ATOM      5  C5  N4B d   1      -2.113  -5.564   1.957  0.00  0.00     0.002 A 
ATOM      6  C6  N4B d   1      -1.720  -4.261   1.726  0.00  0.00     0.002 A 
ENDROOT
BRANCH   1   7
ATOM      7  C1' N4B d   1      -2.091  -1.998   0.810  0.00  0.00     0.057 C 
BRANCH   7   8
ATOM      8  C2' N4B d   1      -0.758  -1.762   1.514  0.00  0.00     0.009 C 
BRANCH   8   9
ATOM      9  C3' N4B d   1      -0.375  -0.292   1.527  0.00  0.00     0.004 C 
ATOM     10  C4' N4B d   1       0.375   0.123   0.297  0.00  0.00     0.003 C 
ENDBRANCH   8   9
ENDBRANCH   7   8
ENDBRANCH   1   7
TORSDOF 3
ENDMDL
