MODEL 1
REMARK minimizedAffinity -1.39720201
REMARK minimizedRMSD -1
REMARK  0 active torsions:
REMARK  status: ('A' for Active; 'I' for Inactive)
ROOT
ATOM      1  C2' OXE d   1      -1.299   0.896  -0.197  0.00  0.00     0.078 C 
ATOM      2  C1' OXE d   1       0.717   2.850  -0.151  0.00  0.00     0.078 C 
ATOM      3  C1  OXE d   1       1.139   1.402  -0.131  0.00  0.00    -0.078 A 
ATOM      4  C2  OXE d   1       0.146   0.454  -0.107  0.00  0.00    -0.078 A 
ATOM      5  C3  OXE d   1       0.481  -0.897  -0.143  0.00  0.00     0.003 A 
ATOM      6  C4  OXE d   1       1.819  -1.298  -0.049  0.00  0.00    -0.002 A 
ATOM      7  C5  OXE d   1       2.845  -0.348  -0.034  0.00  0.00    -0.002 A 
ATOM      8  C6  OXE d   1       2.525   1.003  -0.117  0.00  0.00     0.003 A 
ENDROOT
TORSDOF 0
ENDMDL
