MODEL 1
REMARK minimizedAffinity -4.45397139
REMARK minimizedRMSD -1
REMARK  0 active torsions:
REMARK  status: ('A' for Active; 'I' for Inactive)
ROOT
ATOM      1  C2' OXE d   1       2.214   1.760   0.196  0.00  0.00     0.078 C 
ATOM      2  C1' OXE d   1       3.053  -0.898   0.528  0.00  0.00     0.078 C 
ATOM      3  C1  OXE d   1       1.616  -0.658   0.138  0.00  0.00    -0.078 A 
ATOM      4  C2  OXE d   1       1.202   0.647   0.023  0.00  0.00    -0.078 A 
ATOM      5  C3  OXE d   1      -0.098   0.925  -0.387  0.00  0.00     0.003 A 
ATOM      6  C4  OXE d   1      -1.031  -0.110  -0.535  0.00  0.00    -0.002 A 
ATOM      7  C5  OXE d   1      -0.640  -1.444  -0.384  0.00  0.00    -0.002 A 
ATOM      8  C6  OXE d   1       0.687  -1.737  -0.090  0.00  0.00     0.003 A 
ENDROOT
TORSDOF 0
ENDMDL
