MODEL 1
REMARK minimizedAffinity -1.65076709
REMARK minimizedRMSD -1
REMARK  0 active torsions:
REMARK  status: ('A' for Active; 'I' for Inactive)
ROOT
ATOM      1  C2' OXE d   1       0.527  -2.580  -0.570  0.00  0.00     0.078 C 
ATOM      2  C1' OXE d   1       2.518  -1.475   1.072  0.00  0.00     0.078 C 
ATOM      3  C1  OXE d   1       1.577  -0.527   0.371  0.00  0.00    -0.078 A 
ATOM      4  C2  OXE d   1       0.636  -1.074  -0.467  0.00  0.00    -0.078 A 
ATOM      5  C3  OXE d   1      -0.292  -0.248  -1.095  0.00  0.00     0.003 A 
ATOM      6  C4  OXE d   1      -0.178   1.144  -1.002  0.00  0.00    -0.002 A 
ATOM      7  C5  OXE d   1       0.798   1.724  -0.185  0.00  0.00    -0.002 A 
ATOM      8  C6  OXE d   1       1.655   0.903   0.540  0.00  0.00     0.003 A 
ENDROOT
TORSDOF 0
ENDMDL
