MODEL 1
REMARK minimizedAffinity -5.36269236
REMARK minimizedRMSD -1
REMARK  2 active torsions:
REMARK  status: ('A' for Active; 'I' for Inactive)
REMARK    1  A    between atoms: C1_2  and  C2_3 
REMARK    2  A    between atoms: C2_3  and  C3_4 
ROOT
ATOM      1  C3  UNL d   1       1.276   1.176   0.032  0.00  0.00    -0.075 A 
ATOM      2  C4  UNL d   1       0.440   0.097   0.354  0.00  0.00     0.002 A 
ATOM      3  C5  UNL d   1       0.395  -1.032  -0.464  0.00  0.00     0.002 A 
ATOM      4  C6  UNL d   1       1.175  -1.093  -1.616  0.00  0.00    -0.004 A 
ATOM      5  C7  UNL d   1       1.997  -0.020  -1.955  0.00  0.00     0.002 A 
ATOM      6  C8  UNL d   1       2.047   1.110  -1.136  0.00  0.00     0.002 A 
ENDROOT
BRANCH   1   7
ATOM      7  C2  UNL d   1       1.351   2.389   0.928  0.00  0.00     0.056 C 
BRANCH   7   8
ATOM      8  C1  UNL d   1       1.311   2.063   2.424  0.00  0.00     0.007 C 
ATOM      9  C   UNL d   1       2.524   1.272   2.898  0.00  0.00     0.009 C 
ENDBRANCH   7   8
ENDBRANCH   1   7
TORSDOF 2
ENDMDL
