MODEL 1
REMARK minimizedAffinity -5.0113883
REMARK minimizedRMSD -1
REMARK  2 active torsions:
REMARK  status: ('A' for Active; 'I' for Inactive)
REMARK    1  A    between atoms: C1_2  and  C2_3 
REMARK    2  A    between atoms: C2_3  and  C3_4 
ROOT
ATOM      1  C3  UNL d   1       0.769   0.433   0.294  0.00  0.00    -0.075 A 
ATOM      2  C4  UNL d   1       0.466  -0.910   0.026  0.00  0.00     0.002 A 
ATOM      3  C5  UNL d   1       0.874  -1.503  -1.170  0.00  0.00     0.002 A 
ATOM      4  C6  UNL d   1       1.579  -0.759  -2.114  0.00  0.00    -0.004 A 
ATOM      5  C7  UNL d   1       1.870   0.580  -1.865  0.00  0.00     0.002 A 
ATOM      6  C8  UNL d   1       1.467   1.174  -0.668  0.00  0.00     0.002 A 
ENDROOT
BRANCH   1   7
ATOM      7  C2  UNL d   1       0.356   1.072   1.599  0.00  0.00     0.056 C 
BRANCH   7   8
ATOM      8  C1  UNL d   1       1.443   1.046   2.678  0.00  0.00     0.007 C 
ATOM      9  C   UNL d   1       2.167   2.377   2.834  0.00  0.00     0.009 C 
ENDBRANCH   7   8
ENDBRANCH   1   7
TORSDOF 2
ENDMDL
