MODEL 1
REMARK minimizedAffinity -5.26924276
REMARK minimizedRMSD -1
REMARK  2 active torsions:
REMARK  status: ('A' for Active; 'I' for Inactive)
REMARK    1  A    between atoms: C1_2  and  C2_3 
REMARK    2  A    between atoms: C2_3  and  C3_4 
ROOT
ATOM      1  C3  UNL d   1       1.561   1.783  -0.187  0.00  0.00    -0.075 A 
ATOM      2  C4  UNL d   1       2.575   1.433  -1.091  0.00  0.00     0.002 A 
ATOM      3  C5  UNL d   1       2.318   0.544  -2.135  0.00  0.00     0.002 A 
ATOM      4  C6  UNL d   1       1.049  -0.013  -2.283  0.00  0.00    -0.004 A 
ATOM      5  C7  UNL d   1       0.039   0.314  -1.381  0.00  0.00     0.002 A 
ATOM      6  C8  UNL d   1       0.293   1.207  -0.338  0.00  0.00     0.002 A 
ENDROOT
BRANCH   1   7
ATOM      7  C2  UNL d   1       1.825   2.767   0.927  0.00  0.00     0.056 C 
BRANCH   7   8
ATOM      8  C1  UNL d   1       2.554   2.163   2.133  0.00  0.00     0.007 C 
ATOM      9  C   UNL d   1       1.615   1.495   3.129  0.00  0.00     0.009 C 
ENDBRANCH   7   8
ENDBRANCH   1   7
TORSDOF 2
ENDMDL
