MODEL 1
REMARK minimizedAffinity -2.06291199
REMARK minimizedRMSD -1
REMARK  2 active torsions:
REMARK  status: ('A' for Active; 'I' for Inactive)
REMARK    1  A    between atoms: C1_2  and  C2_3 
REMARK    2  A    between atoms: C2_3  and  C3_4 
ROOT
ATOM      1  C3  UNL d   1      -0.139  -0.233  -0.065  0.00  0.00    -0.075 A 
ATOM      2  C4  UNL d   1       0.534   0.997  -0.070  0.00  0.00     0.002 A 
ATOM      3  C5  UNL d   1       1.352   1.354  -1.142  0.00  0.00     0.002 A 
ATOM      4  C6  UNL d   1       1.515   0.482  -2.217  0.00  0.00    -0.004 A 
ATOM      5  C7  UNL d   1       0.865  -0.750  -2.215  0.00  0.00     0.002 A 
ATOM      6  C8  UNL d   1       0.042  -1.107  -1.145  0.00  0.00     0.002 A 
ENDROOT
BRANCH   1   7
ATOM      7  C2  UNL d   1      -1.049  -0.612   1.079  0.00  0.00     0.056 C 
BRANCH   7   8
ATOM      8  C1  UNL d   1      -2.102   0.448   1.416  0.00  0.00     0.007 C 
ATOM      9  C   UNL d   1      -3.498  -0.131   1.605  0.00  0.00     0.009 C 
ENDBRANCH   7   8
ENDBRANCH   1   7
TORSDOF 2
ENDMDL
