MODEL 1
REMARK minimizedAffinity -4.13420248
REMARK minimizedRMSD -1
REMARK  2 active torsions:
REMARK  status: ('A' for Active; 'I' for Inactive)
REMARK    1  A    between atoms: C1_2  and  C2_3 
REMARK    2  A    between atoms: C2_3  and  C3_4 
ROOT
ATOM      1  C3  UNL d   1       1.001   1.283   1.685  0.00  0.00    -0.075 A 
ATOM      2  C4  UNL d   1       1.538   2.036   0.630  0.00  0.00     0.002 A 
ATOM      3  C5  UNL d   1       1.189   1.752  -0.691  0.00  0.00     0.002 A 
ATOM      4  C6  UNL d   1       0.311   0.709  -0.974  0.00  0.00    -0.004 A 
ATOM      5  C7  UNL d   1      -0.216  -0.055   0.065  0.00  0.00     0.002 A 
ATOM      6  C8  UNL d   1       0.128   0.229   1.388  0.00  0.00     0.002 A 
ENDROOT
BRANCH   1   7
ATOM      7  C2  UNL d   1       1.351   1.603   3.119  0.00  0.00     0.056 C 
BRANCH   7   8
ATOM      8  C1  UNL d   1       2.829   1.943   3.339  0.00  0.00     0.007 C 
ATOM      9  C   UNL d   1       3.103   3.440   3.370  0.00  0.00     0.009 C 
ENDBRANCH   7   8
ENDBRANCH   1   7
TORSDOF 2
ENDMDL
