MODEL 1
REMARK minimizedAffinity 0.676080763
REMARK minimizedRMSD -1
REMARK  2 active torsions:
REMARK  status: ('A' for Active; 'I' for Inactive)
REMARK    1  A    between atoms: C1_2  and  C2_3 
REMARK    2  A    between atoms: C2_3  and  C3_4 
ROOT
ATOM      1  C3  UNL d   1      -0.710  -0.268   0.319  0.00  0.00    -0.075 A 
ATOM      2  C4  UNL d   1      -0.082   0.328  -0.784  0.00  0.00     0.002 A 
ATOM      3  C5  UNL d   1       0.668  -0.442  -1.674  0.00  0.00     0.002 A 
ATOM      4  C6  UNL d   1       0.808  -1.813  -1.466  0.00  0.00    -0.004 A 
ATOM      5  C7  UNL d   1       0.203  -2.412  -0.364  0.00  0.00     0.002 A 
ATOM      6  C8  UNL d   1      -0.552  -1.645   0.525  0.00  0.00     0.002 A 
ENDROOT
BRANCH   1   7
ATOM      7  C2  UNL d   1      -1.547   0.556   1.269  0.00  0.00     0.056 C 
BRANCH   7   8
ATOM      8  C1  UNL d   1      -3.056   0.341   1.117  0.00  0.00     0.007 C 
ATOM      9  C   UNL d   1      -3.888   1.365   1.877  0.00  0.00     0.009 C 
ENDBRANCH   7   8
ENDBRANCH   1   7
TORSDOF 2
ENDMDL
