MODEL 1
REMARK minimizedAffinity -2.95151949
REMARK minimizedRMSD -1
REMARK  2 active torsions:
REMARK  status: ('A' for Active; 'I' for Inactive)
REMARK    1  A    between atoms: C1_2  and  C2_3 
REMARK    2  A    between atoms: C2_3  and  C3_4 
ROOT
ATOM      1  C3  UNL d   1       1.283   1.401   1.584  0.00  0.00    -0.075 A 
ATOM      2  C4  UNL d   1       0.411   0.303   1.629  0.00  0.00     0.002 A 
ATOM      3  C5  UNL d   1      -0.085  -0.256   0.451  0.00  0.00     0.002 A 
ATOM      4  C6  UNL d   1       0.273   0.281  -0.784  0.00  0.00    -0.004 A 
ATOM      5  C7  UNL d   1       1.125   1.382  -0.839  0.00  0.00     0.002 A 
ATOM      6  C8  UNL d   1       1.627   1.940   0.338  0.00  0.00     0.002 A 
ENDROOT
BRANCH   1   7
ATOM      7  C2  UNL d   1       1.848   1.991   2.854  0.00  0.00     0.056 C 
BRANCH   7   8
ATOM      8  C1  UNL d   1       2.960   3.019   2.623  0.00  0.00     0.007 C 
ATOM      9  C   UNL d   1       2.927   4.173   3.617  0.00  0.00     0.009 C 
ENDBRANCH   7   8
ENDBRANCH   1   7
TORSDOF 2
ENDMDL
