MODEL 1
REMARK minimizedAffinity -3.42487097
REMARK minimizedRMSD -1
REMARK  2 active torsions:
REMARK  status: ('A' for Active; 'I' for Inactive)
REMARK    1  A    between atoms: C1_2  and  C2_3 
REMARK    2  A    between atoms: C2_3  and  C3_4 
ROOT
ATOM      1  C3  UNL d   1      -0.583  -0.392   0.036  0.00  0.00    -0.075 A 
ATOM      2  C4  UNL d   1      -0.075   0.323  -1.058  0.00  0.00     0.002 A 
ATOM      3  C5  UNL d   1       0.660  -0.327  -2.050  0.00  0.00     0.002 A 
ATOM      4  C6  UNL d   1       0.905  -1.695  -1.955  0.00  0.00    -0.004 A 
ATOM      5  C7  UNL d   1       0.420  -2.412  -0.864  0.00  0.00     0.002 A 
ATOM      6  C8  UNL d   1      -0.320  -1.765   0.128  0.00  0.00     0.002 A 
ENDROOT
BRANCH   1   7
ATOM      7  C2  UNL d   1      -1.404   0.300   1.098  0.00  0.00     0.056 C 
BRANCH   7   8
ATOM      8  C1  UNL d   1      -2.829  -0.246   1.239  0.00  0.00     0.007 C 
ATOM      9  C   UNL d   1      -3.698   0.578   2.179  0.00  0.00     0.009 C 
ENDBRANCH   7   8
ENDBRANCH   1   7
TORSDOF 2
ENDMDL
