MODEL 1
REMARK minimizedAffinity -3.51513481
REMARK minimizedRMSD -1
REMARK  2 active torsions:
REMARK  status: ('A' for Active; 'I' for Inactive)
REMARK    1  A    between atoms: C1_2  and  C2_3 
REMARK    2  A    between atoms: C2_3  and  C3_4 
ROOT
ATOM      1  C3  UNL d   1      -0.211   0.878   3.180  0.00  0.00    -0.075 A 
ATOM      2  C4  UNL d   1      -1.434   1.379   3.649  0.00  0.00     0.002 A 
ATOM      3  C5  UNL d   1      -2.632   1.011   3.036  0.00  0.00     0.002 A 
ATOM      4  C6  UNL d   1      -2.622   0.148   1.943  0.00  0.00    -0.004 A 
ATOM      5  C7  UNL d   1      -1.411  -0.343   1.458  0.00  0.00     0.002 A 
ATOM      6  C8  UNL d   1      -0.212   0.021   2.072  0.00  0.00     0.002 A 
ENDROOT
BRANCH   1   7
ATOM      7  C2  UNL d   1       1.087   1.249   3.858  0.00  0.00     0.056 C 
BRANCH   7   8
ATOM      8  C1  UNL d   1       2.092   1.950   2.938  0.00  0.00     0.007 C 
ATOM      9  C   UNL d   1       2.830   3.096   3.617  0.00  0.00     0.009 C 
ENDBRANCH   7   8
ENDBRANCH   1   7
TORSDOF 2
ENDMDL
