MODEL 1
REMARK minimizedAffinity -3.27442813
REMARK minimizedRMSD -1
REMARK  2 active torsions:
REMARK  status: ('A' for Active; 'I' for Inactive)
REMARK    1  A    between atoms: C1_2  and  C2_3 
REMARK    2  A    between atoms: C2_3  and  C3_4 
ROOT
ATOM      1  C3  UNL d   1       0.629   0.379   0.606  0.00  0.00    -0.075 A 
ATOM      2  C4  UNL d   1       0.328  -0.961   0.324  0.00  0.00     0.002 A 
ATOM      3  C5  UNL d   1       0.607  -1.501  -0.932  0.00  0.00     0.002 A 
ATOM      4  C6  UNL d   1       1.179  -0.706  -1.923  0.00  0.00    -0.004 A 
ATOM      5  C7  UNL d   1       1.468   0.631  -1.659  0.00  0.00     0.002 A 
ATOM      6  C8  UNL d   1       1.194   1.172  -0.402  0.00  0.00     0.002 A 
ENDROOT
BRANCH   1   7
ATOM      7  C2  UNL d   1       0.357   0.961   1.973  0.00  0.00     0.056 C 
BRANCH   7   8
ATOM      8  C1  UNL d   1       1.579   0.979   2.898  0.00  0.00     0.007 C 
ATOM      9  C   UNL d   1       2.371   2.277   2.822  0.00  0.00     0.009 C 
ENDBRANCH   7   8
ENDBRANCH   1   7
TORSDOF 2
ENDMDL
