MODEL 1
REMARK minimizedAffinity -4.88554192
REMARK minimizedRMSD -1
REMARK  2 active torsions:
REMARK  status: ('A' for Active; 'I' for Inactive)
REMARK    1  A    between atoms: C1_2  and  C2_3 
REMARK    2  A    between atoms: C2_3  and  C3_4 
ROOT
ATOM      1  C3  UNL d   1       0.101   0.016  -0.648  0.00  0.00    -0.075 A 
ATOM      2  C4  UNL d   1      -0.530  -0.492  -1.793  0.00  0.00     0.002 A 
ATOM      3  C5  UNL d   1       0.146  -0.536  -3.013  0.00  0.00     0.002 A 
ATOM      4  C6  UNL d   1       1.454  -0.064  -3.106  0.00  0.00    -0.004 A 
ATOM      5  C7  UNL d   1       2.084   0.458  -1.979  0.00  0.00     0.002 A 
ATOM      6  C8  UNL d   1       1.412   0.499  -0.756  0.00  0.00     0.002 A 
ENDROOT
BRANCH   1   7
ATOM      7  C2  UNL d   1      -0.614   0.040   0.682  0.00  0.00     0.056 C 
BRANCH   7   8
ATOM      8  C1  UNL d   1      -2.125  -0.196   0.582  0.00  0.00     0.007 C 
ATOM      9  C   UNL d   1      -2.920   0.540   1.652  0.00  0.00     0.009 C 
ENDBRANCH   7   8
ENDBRANCH   1   7
TORSDOF 2
ENDMDL
