MODEL 1
REMARK minimizedAffinity 0.209945753
REMARK minimizedRMSD -1
REMARK  2 active torsions:
REMARK  status: ('A' for Active; 'I' for Inactive)
REMARK    1  A    between atoms: C1_2  and  C2_3 
REMARK    2  A    between atoms: C2_3  and  C3_4 
ROOT
ATOM      1  C3  UNL d   1       0.515   0.362  -0.012  0.00  0.00    -0.075 A 
ATOM      2  C4  UNL d   1       0.192  -0.839   0.636  0.00  0.00     0.002 A 
ATOM      3  C5  UNL d   1       0.016  -2.013  -0.097  0.00  0.00     0.002 A 
ATOM      4  C6  UNL d   1       0.150  -2.000  -1.483  0.00  0.00    -0.004 A 
ATOM      5  C7  UNL d   1       0.455  -0.809  -2.138  0.00  0.00     0.002 A 
ATOM      6  C8  UNL d   1       0.636   0.367  -1.408  0.00  0.00     0.002 A 
ENDROOT
BRANCH   1   7
ATOM      7  C2  UNL d   1       0.736   1.630   0.778  0.00  0.00     0.056 C 
BRANCH   7   8
ATOM      8  C1  UNL d   1       0.691   1.435   2.297  0.00  0.00     0.007 C 
ATOM      9  C   UNL d   1       1.635   2.363   3.050  0.00  0.00     0.009 C 
ENDBRANCH   7   8
ENDBRANCH   1   7
TORSDOF 2
ENDMDL
