MODEL 1
REMARK minimizedAffinity -4.70986223
REMARK minimizedRMSD -1
REMARK  2 active torsions:
REMARK  status: ('A' for Active; 'I' for Inactive)
REMARK    1  A    between atoms: C1_2  and  C2_3 
REMARK    2  A    between atoms: C2_3  and  C3_4 
ROOT
ATOM      1  C3  UNL d   1      -1.251   0.651  -0.425  0.00  0.00    -0.075 A 
ATOM      2  C4  UNL d   1      -0.564   0.991  -1.599  0.00  0.00     0.002 A 
ATOM      3  C5  UNL d   1       0.699   0.459  -1.861  0.00  0.00     0.002 A 
ATOM      4  C6  UNL d   1       1.294  -0.410  -0.949  0.00  0.00    -0.004 A 
ATOM      5  C7  UNL d   1       0.628  -0.742   0.229  0.00  0.00     0.002 A 
ATOM      6  C8  UNL d   1      -0.638  -0.214   0.491  0.00  0.00     0.002 A 
ENDROOT
BRANCH   1   7
ATOM      7  C2  UNL d   1      -2.630   1.201  -0.150  0.00  0.00     0.056 C 
BRANCH   7   8
ATOM      8  C1  UNL d   1      -3.194   0.815   1.222  0.00  0.00     0.007 C 
ATOM      9  C   UNL d   1      -4.620   0.284   1.158  0.00  0.00     0.009 C 
ENDBRANCH   7   8
ENDBRANCH   1   7
TORSDOF 2
ENDMDL
