MODEL 1
REMARK minimizedAffinity -5.43436146
REMARK minimizedRMSD -1
REMARK  2 active torsions:
REMARK  status: ('A' for Active; 'I' for Inactive)
REMARK    1  A    between atoms: C1_2  and  C2_3 
REMARK    2  A    between atoms: C2_3  and  C3_4 
ROOT
ATOM      1  C3  UNL d   1       1.251   0.923  -0.374  0.00  0.00    -0.075 A 
ATOM      2  C4  UNL d   1       2.157   0.872  -1.444  0.00  0.00     0.002 A 
ATOM      3  C5  UNL d   1       1.932   0.017  -2.523  0.00  0.00     0.002 A 
ATOM      4  C6  UNL d   1       0.807  -0.805  -2.542  0.00  0.00    -0.004 A 
ATOM      5  C7  UNL d   1      -0.091  -0.775  -1.477  0.00  0.00     0.002 A 
ATOM      6  C8  UNL d   1       0.129   0.083  -0.398  0.00  0.00     0.002 A 
ENDROOT
BRANCH   1   7
ATOM      7  C2  UNL d   1       1.473   1.868   0.782  0.00  0.00     0.056 C 
BRANCH   7   8
ATOM      8  C1  UNL d   1       1.408   1.196   2.158  0.00  0.00     0.007 C 
ATOM      9  C   UNL d   1       2.211   1.930   3.223  0.00  0.00     0.009 C 
ENDBRANCH   7   8
ENDBRANCH   1   7
TORSDOF 2
ENDMDL
