MODEL 1
REMARK minimizedAffinity -1.61671829
REMARK minimizedRMSD -1
REMARK  2 active torsions:
REMARK  status: ('A' for Active; 'I' for Inactive)
REMARK    1  A    between atoms: C1_2  and  C2_3 
REMARK    2  A    between atoms: C2_3  and  C3_4 
ROOT
ATOM      1  C3  UNL d   1       1.686   2.121   1.690  0.00  0.00    -0.075 A 
ATOM      2  C4  UNL d   1       1.968   3.020   0.651  0.00  0.00     0.002 A 
ATOM      3  C5  UNL d   1       1.489   2.786  -0.638  0.00  0.00     0.002 A 
ATOM      4  C6  UNL d   1       0.734   1.647  -0.908  0.00  0.00    -0.004 A 
ATOM      5  C7  UNL d   1       0.462   0.738   0.113  0.00  0.00     0.002 A 
ATOM      6  C8  UNL d   1       0.935   0.973   1.405  0.00  0.00     0.002 A 
ENDROOT
BRANCH   1   7
ATOM      7  C2  UNL d   1       2.176   2.384   3.094  0.00  0.00     0.056 C 
BRANCH   7   8
ATOM      8  C1  UNL d   1       2.516   3.852   3.371  0.00  0.00     0.007 C 
ATOM      9  C   UNL d   1       4.006   4.096   3.571  0.00  0.00     0.009 C 
ENDBRANCH   7   8
ENDBRANCH   1   7
TORSDOF 2
ENDMDL
