MODEL 1
REMARK minimizedAffinity -2.17955089
REMARK minimizedRMSD -1
REMARK  2 active torsions:
REMARK  status: ('A' for Active; 'I' for Inactive)
REMARK    1  A    between atoms: C1_2  and  C2_3 
REMARK    2  A    between atoms: C2_3  and  C3_4 
ROOT
ATOM      1  C3  UNL d   1      -3.254   3.258  -5.697  0.00  0.00    -0.075 A 
ATOM      2  C4  UNL d   1      -4.185   4.307  -5.674  0.00  0.00     0.002 A 
ATOM      3  C5  UNL d   1      -5.549   4.046  -5.799  0.00  0.00     0.002 A 
ATOM      4  C6  UNL d   1      -6.000   2.738  -5.958  0.00  0.00    -0.004 A 
ATOM      5  C7  UNL d   1      -5.083   1.689  -5.998  0.00  0.00     0.002 A 
ATOM      6  C8  UNL d   1      -3.717   1.947  -5.869  0.00  0.00     0.002 A 
ENDROOT
BRANCH   1   7
ATOM      7  C2  UNL d   1      -1.778   3.531  -5.532  0.00  0.00     0.056 C 
BRANCH   7   8
ATOM      8  C1  UNL d   1      -0.888   2.305  -5.757  0.00  0.00     0.007 C 
ATOM      9  C   UNL d   1      -1.025   1.255  -4.662  0.00  0.00     0.009 C 
ENDBRANCH   7   8
ENDBRANCH   1   7
TORSDOF 2
ENDMDL
