MODEL 1
REMARK minimizedAffinity -4.8727622
REMARK minimizedRMSD -1
REMARK  0 active torsions:
REMARK  status: ('A' for Active; 'I' for Inactive)
ROOT
ATOM      1  C   UNL d   1      -0.400   0.080   0.874  0.00  0.00     0.078 C 
ATOM      2  C1  UNL d   1       0.398   0.111  -0.395  0.00  0.00    -0.077 A 
ATOM      3  C2  UNL d   1       0.415  -0.988  -1.263  0.00  0.00    -0.001 A 
ATOM      4  C3  UNL d   1       1.170  -0.950  -2.436  0.00  0.00     0.003 A 
ATOM      5  C4  UNL d   1       1.915   0.185  -2.752  0.00  0.00    -0.005 A 
ATOM      6  C5  UNL d   1       1.906   1.282  -1.893  0.00  0.00     0.003 A 
ATOM      7  C6  UNL d   1       1.152   1.246  -0.720  0.00  0.00    -0.001 A 
ENDROOT
TORSDOF 0
ENDMDL
