MODEL 1
REMARK minimizedAffinity -4.27389669
REMARK minimizedRMSD -1
REMARK  0 active torsions:
REMARK  status: ('A' for Active; 'I' for Inactive)
ROOT
ATOM      1  C   UNL d   1       0.041  -0.236   1.311  0.00  0.00     0.078 C 
ATOM      2  C1  UNL d   1       0.543   0.005  -0.081  0.00  0.00    -0.077 A 
ATOM      3  C2  UNL d   1       1.560   0.936  -0.329  0.00  0.00    -0.001 A 
ATOM      4  C3  UNL d   1       2.011   1.158  -1.631  0.00  0.00     0.003 A 
ATOM      5  C4  UNL d   1       1.451   0.454  -2.696  0.00  0.00    -0.005 A 
ATOM      6  C5  UNL d   1       0.438  -0.473  -2.459  0.00  0.00     0.003 A 
ATOM      7  C6  UNL d   1      -0.015  -0.696  -1.158  0.00  0.00    -0.001 A 
ENDROOT
TORSDOF 0
ENDMDL
