MODEL 1
REMARK minimizedAffinity -4.38248348
REMARK minimizedRMSD -1
REMARK  0 active torsions:
REMARK  status: ('A' for Active; 'I' for Inactive)
ROOT
ATOM      1  C   UNL d   1       0.537  -2.859   0.281  0.00  0.00     0.078 C 
ATOM      2  C1  UNL d   1       0.880  -1.820  -0.745  0.00  0.00    -0.077 A 
ATOM      3  C2  UNL d   1       0.041  -0.721  -0.966  0.00  0.00    -0.001 A 
ATOM      4  C3  UNL d   1       0.368   0.234  -1.931  0.00  0.00     0.003 A 
ATOM      5  C4  UNL d   1       1.533   0.098  -2.682  0.00  0.00    -0.005 A 
ATOM      6  C5  UNL d   1       2.373  -0.993  -2.470  0.00  0.00     0.003 A 
ATOM      7  C6  UNL d   1       2.048  -1.948  -1.506  0.00  0.00    -0.001 A 
ENDROOT
TORSDOF 0
ENDMDL
