MODEL 1
REMARK minimizedAffinity -4.38922882
REMARK minimizedRMSD -1
REMARK  0 active torsions:
REMARK  status: ('A' for Active; 'I' for Inactive)
ROOT
ATOM      1  C   UNL d   1      -0.353   0.144   1.127  0.00  0.00     0.078 C 
ATOM      2  C1  UNL d   1       0.577   0.008  -0.041  0.00  0.00    -0.077 A 
ATOM      3  C2  UNL d   1       0.399  -1.005  -0.991  0.00  0.00    -0.001 A 
ATOM      4  C3  UNL d   1       1.278  -1.125  -2.068  0.00  0.00     0.003 A 
ATOM      5  C4  UNL d   1       2.343  -0.237  -2.205  0.00  0.00    -0.005 A 
ATOM      6  C5  UNL d   1       2.530   0.773  -1.263  0.00  0.00     0.003 A 
ATOM      7  C6  UNL d   1       1.651   0.895  -0.186  0.00  0.00    -0.001 A 
ENDROOT
TORSDOF 0
ENDMDL
