MODEL 1
REMARK minimizedAffinity -5.72373247
REMARK minimizedRMSD -1
REMARK  0 active torsions:
REMARK  status: ('A' for Active; 'I' for Inactive)
ROOT
ATOM      1  C   UNL d   1       0.058  -0.221   0.993  0.00  0.00     0.078 C 
ATOM      2  C1  UNL d   1       0.753  -0.602  -0.280  0.00  0.00    -0.077 A 
ATOM      3  C2  UNL d   1       1.128  -1.928  -0.528  0.00  0.00    -0.001 A 
ATOM      4  C3  UNL d   1       1.782  -2.267  -1.713  0.00  0.00     0.003 A 
ATOM      5  C4  UNL d   1       2.069  -1.285  -2.660  0.00  0.00    -0.005 A 
ATOM      6  C5  UNL d   1       1.701   0.037  -2.421  0.00  0.00     0.003 A 
ATOM      7  C6  UNL d   1       1.047   0.378  -1.236  0.00  0.00    -0.001 A 
ENDROOT
TORSDOF 0
ENDMDL
