MODEL 1
REMARK minimizedAffinity -4.41670895
REMARK minimizedRMSD -1
REMARK  0 active torsions:
REMARK  status: ('A' for Active; 'I' for Inactive)
ROOT
ATOM      1  C   UNL d   1      -0.438  -0.025   1.021  0.00  0.00     0.078 C 
ATOM      2  C1  UNL d   1       0.387   0.062  -0.228  0.00  0.00    -0.077 A 
ATOM      3  C2  UNL d   1       1.435   0.985  -0.337  0.00  0.00    -0.001 A 
ATOM      4  C3  UNL d   1       2.188   1.063  -1.509  0.00  0.00     0.003 A 
ATOM      5  C4  UNL d   1       1.902   0.220  -2.582  0.00  0.00    -0.005 A 
ATOM      6  C5  UNL d   1       0.860  -0.700  -2.483  0.00  0.00     0.003 A 
ATOM      7  C6  UNL d   1       0.106  -0.778  -1.312  0.00  0.00    -0.001 A 
ENDROOT
TORSDOF 0
ENDMDL
