MODEL 1
REMARK minimizedAffinity -4.70044804
REMARK minimizedRMSD -1
REMARK  0 active torsions:
REMARK  status: ('A' for Active; 'I' for Inactive)
ROOT
ATOM      1  C   UNL d   1      -1.411   0.582   1.471  0.00  0.00     0.078 C 
ATOM      2  C1  UNL d   1      -0.760  -0.122   0.318  0.00  0.00    -0.077 A 
ATOM      3  C2  UNL d   1      -0.529   0.540  -0.894  0.00  0.00    -0.001 A 
ATOM      4  C3  UNL d   1       0.069  -0.131  -1.962  0.00  0.00     0.003 A 
ATOM      5  C4  UNL d   1       0.440  -1.468  -1.829  0.00  0.00    -0.005 A 
ATOM      6  C5  UNL d   1       0.213  -2.135  -0.627  0.00  0.00     0.003 A 
ATOM      7  C6  UNL d   1      -0.385  -1.466   0.442  0.00  0.00    -0.001 A 
ENDROOT
TORSDOF 0
ENDMDL
