MODEL 1
REMARK minimizedAffinity -2.89893222
REMARK minimizedRMSD -1
REMARK  0 active torsions:
REMARK  status: ('A' for Active; 'I' for Inactive)
ROOT
ATOM      1  C   UNL d   1      -4.734   1.709  -5.999  0.00  0.00     0.078 C 
ATOM      2  C1  UNL d   1      -4.768   3.204  -5.877  0.00  0.00    -0.077 A 
ATOM      3  C2  UNL d   1      -5.983   3.892  -5.778  0.00  0.00    -0.001 A 
ATOM      4  C3  UNL d   1      -5.999   5.284  -5.674  0.00  0.00     0.003 A 
ATOM      5  C4  UNL d   1      -4.803   5.999  -5.670  0.00  0.00    -0.005 A 
ATOM      6  C5  UNL d   1      -3.589   5.323  -5.771  0.00  0.00     0.003 A 
ATOM      7  C6  UNL d   1      -3.571   3.931  -5.874  0.00  0.00    -0.001 A 
ENDROOT
TORSDOF 0
ENDMDL
