MODEL 1
REMARK minimizedAffinity -3.44726014
REMARK minimizedRMSD -1
REMARK  0 active torsions:
REMARK  status: ('A' for Active; 'I' for Inactive)
ROOT
ATOM      1  C   UNL d   1      -2.924   3.707   3.086  0.00  0.00     0.078 C 
ATOM      2  C1  UNL d   1      -2.982   2.371   2.409  0.00  0.00    -0.077 A 
ATOM      3  C2  UNL d   1      -4.207   1.798   2.048  0.00  0.00    -0.001 A 
ATOM      4  C3  UNL d   1      -4.246   0.549   1.426  0.00  0.00     0.003 A 
ATOM      5  C4  UNL d   1      -3.063  -0.138   1.161  0.00  0.00    -0.005 A 
ATOM      6  C5  UNL d   1      -1.839   0.423   1.518  0.00  0.00     0.003 A 
ATOM      7  C6  UNL d   1      -1.798   1.672   2.140  0.00  0.00    -0.001 A 
ENDROOT
TORSDOF 0
ENDMDL
