MODEL 1
REMARK minimizedAffinity -5.01879168
REMARK minimizedRMSD -1
REMARK  0 active torsions:
REMARK  status: ('A' for Active; 'I' for Inactive)
ROOT
ATOM      1  C   UNL d   1      -0.784   0.062   1.224  0.00  0.00     0.078 C 
ATOM      2  C1  UNL d   1       0.019  -0.142  -0.026  0.00  0.00    -0.077 A 
ATOM      3  C2  UNL d   1      -0.034  -1.354  -0.727  0.00  0.00    -0.001 A 
ATOM      4  C3  UNL d   1       0.726  -1.533  -1.884  0.00  0.00     0.003 A 
ATOM      5  C4  UNL d   1       1.544  -0.507  -2.350  0.00  0.00    -0.005 A 
ATOM      6  C5  UNL d   1       1.605   0.701  -1.658  0.00  0.00     0.003 A 
ATOM      7  C6  UNL d   1       0.846   0.883  -0.501  0.00  0.00    -0.001 A 
ENDROOT
TORSDOF 0
ENDMDL
