MODEL 1
REMARK minimizedAffinity -4.49856234
REMARK minimizedRMSD -1
REMARK  0 active torsions:
REMARK  status: ('A' for Active; 'I' for Inactive)
ROOT
ATOM      1  C   UNL d   1      -2.972   4.068   3.301  0.00  0.00     0.078 C 
ATOM      2  C1  UNL d   1      -3.029   2.676   2.746  0.00  0.00    -0.077 A 
ATOM      3  C2  UNL d   1      -4.230   2.138   2.270  0.00  0.00    -0.001 A 
ATOM      4  C3  UNL d   1      -4.271   0.837   1.765  0.00  0.00     0.003 A 
ATOM      5  C4  UNL d   1      -3.112   0.063   1.733  0.00  0.00    -0.005 A 
ATOM      6  C5  UNL d   1      -1.912   0.589   2.206  0.00  0.00     0.003 A 
ATOM      7  C6  UNL d   1      -1.870   1.890   2.711  0.00  0.00    -0.001 A 
ENDROOT
TORSDOF 0
ENDMDL
