MODEL 1
REMARK minimizedAffinity -3.44806743
REMARK minimizedRMSD -1
REMARK  0 active torsions:
REMARK  status: ('A' for Active; 'I' for Inactive)
ROOT
ATOM      1  C   UNL d   1      -0.413  -0.495   1.435  0.00  0.00     0.078 C 
ATOM      2  C1  UNL d   1       0.262  -0.161   0.139  0.00  0.00    -0.077 A 
ATOM      3  C2  UNL d   1       1.224   0.855   0.067  0.00  0.00    -0.001 A 
ATOM      4  C3  UNL d   1       1.837   1.162  -1.149  0.00  0.00     0.003 A 
ATOM      5  C4  UNL d   1       1.495   0.459  -2.302  0.00  0.00    -0.005 A 
ATOM      6  C5  UNL d   1       0.537  -0.552  -2.241  0.00  0.00     0.003 A 
ATOM      7  C6  UNL d   1      -0.077  -0.860  -1.026  0.00  0.00    -0.001 A 
ENDROOT
TORSDOF 0
ENDMDL
