MODEL 1
REMARK minimizedAffinity -2.03407669
REMARK minimizedRMSD -1
REMARK  0 active torsions:
REMARK  status: ('A' for Active; 'I' for Inactive)
ROOT
ATOM      1  C   UNL d   1      -1.083   0.527   1.551  0.00  0.00     0.078 C 
ATOM      2  C1  UNL d   1      -0.095   0.257   0.456  0.00  0.00    -0.077 A 
ATOM      3  C2  UNL d   1       0.673   1.291  -0.093  0.00  0.00    -0.001 A 
ATOM      4  C3  UNL d   1       1.582   1.027  -1.119  0.00  0.00     0.003 A 
ATOM      5  C4  UNL d   1       1.731  -0.271  -1.605  0.00  0.00    -0.005 A 
ATOM      6  C5  UNL d   1       0.970  -1.306  -1.065  0.00  0.00     0.003 A 
ATOM      7  C6  UNL d   1       0.060  -1.043  -0.040  0.00  0.00    -0.001 A 
ENDROOT
TORSDOF 0
ENDMDL
