MODEL 1
REMARK minimizedAffinity -5.43910599
REMARK minimizedRMSD -1
REMARK  0 active torsions:
REMARK  status: ('A' for Active; 'I' for Inactive)
ROOT
ATOM      1  C   UNL d   1      -1.082   0.264   1.323  0.00  0.00     0.078 C 
ATOM      2  C1  UNL d   1      -0.231   0.341   0.090  0.00  0.00    -0.077 A 
ATOM      3  C2  UNL d   1       1.098   0.777   0.157  0.00  0.00    -0.001 A 
ATOM      4  C3  UNL d   1       1.875   0.852  -1.000  0.00  0.00     0.003 A 
ATOM      5  C4  UNL d   1       1.332   0.493  -2.232  0.00  0.00    -0.005 A 
ATOM      6  C5  UNL d   1       0.010   0.060  -2.309  0.00  0.00     0.003 A 
ATOM      7  C6  UNL d   1      -0.769  -0.015  -1.153  0.00  0.00    -0.001 A 
ENDROOT
TORSDOF 0
ENDMDL
