MODEL 1
REMARK minimizedAffinity -4.14079285
REMARK minimizedRMSD -1
REMARK  0 active torsions:
REMARK  status: ('A' for Active; 'I' for Inactive)
ROOT
ATOM      1  C   UNL d   1       1.864   0.427  -2.861  0.00  0.00     0.078 C 
ATOM      2  C1  UNL d   1       1.223   0.310  -1.510  0.00  0.00    -0.077 A 
ATOM      3  C2  UNL d   1       0.649  -0.895  -1.087  0.00  0.00    -0.001 A 
ATOM      4  C3  UNL d   1       0.047  -0.988   0.169  0.00  0.00     0.003 A 
ATOM      5  C4  UNL d   1       0.013   0.121   1.011  0.00  0.00    -0.005 A 
ATOM      6  C5  UNL d   1       0.579   1.325   0.598  0.00  0.00     0.003 A 
ATOM      7  C6  UNL d   1       1.182   1.420  -0.658  0.00  0.00    -0.001 A 
ENDROOT
TORSDOF 0
ENDMDL
