MODEL 1
REMARK minimizedAffinity -5.38666916
REMARK minimizedRMSD -1
REMARK  0 active torsions:
REMARK  status: ('A' for Active; 'I' for Inactive)
ROOT
ATOM      1  C   UNL d   1       1.136  -0.202  -2.874  0.00  0.00     0.078 C 
ATOM      2  C1  UNL d   1       0.822  -0.437  -1.427  0.00  0.00    -0.077 A 
ATOM      3  C2  UNL d   1       0.910   0.602  -0.492  0.00  0.00    -0.001 A 
ATOM      4  C3  UNL d   1       0.625   0.366   0.854  0.00  0.00     0.003 A 
ATOM      5  C4  UNL d   1       0.250  -0.907   1.277  0.00  0.00    -0.005 A 
ATOM      6  C5  UNL d   1       0.162  -1.948   0.354  0.00  0.00     0.003 A 
ATOM      7  C6  UNL d   1       0.447  -1.714  -0.992  0.00  0.00    -0.001 A 
ENDROOT
TORSDOF 0
ENDMDL
