MODEL 1
REMARK minimizedAffinity -1.07593572
REMARK minimizedRMSD -1
REMARK  0 active torsions:
REMARK  status: ('A' for Active; 'I' for Inactive)
ROOT
ATOM      1  C   UNL d   1      -2.208   0.802   0.939  0.00  0.00     0.078 C 
ATOM      2  C1  UNL d   1      -0.886   0.331   0.410  0.00  0.00    -0.077 A 
ATOM      3  C2  UNL d   1      -0.505  -1.012   0.514  0.00  0.00    -0.001 A 
ATOM      4  C3  UNL d   1       0.733  -1.434   0.026  0.00  0.00     0.003 A 
ATOM      5  C4  UNL d   1       1.600  -0.519  -0.568  0.00  0.00    -0.005 A 
ATOM      6  C5  UNL d   1       1.230   0.820  -0.674  0.00  0.00     0.003 A 
ATOM      7  C6  UNL d   1      -0.007   1.244  -0.187  0.00  0.00    -0.001 A 
ENDROOT
TORSDOF 0
ENDMDL
