MODEL 1
REMARK minimizedAffinity 7.77647209
REMARK minimizedRMSD -1
REMARK  2 active torsions:
REMARK  status: ('A' for Active; 'I' for Inactive)
REMARK    1  A    between atoms: C2'_3  and  C1'_4 
REMARK    2  A    between atoms: C1'_4  and  C1_5 
ROOT
ATOM      1  C1  I4B d   1      -5.188  -0.713   0.543  0.00  0.00    -0.075 A 
ATOM      2  C2  I4B d   1      -6.000  -1.499   1.322  0.00  0.00     0.003 A 
ATOM      3  C3  I4B d   1      -5.460  -2.216   2.417  0.00  0.00     0.002 A 
ATOM      4  C4  I4B d   1      -4.103  -2.159   2.664  0.00  0.00    -0.004 A 
ATOM      5  C5  I4B d   1      -3.286  -1.343   1.888  0.00  0.00     0.002 A 
ATOM      6  C6  I4B d   1      -3.833  -0.606   0.827  0.00  0.00     0.003 A 
ENDROOT
BRANCH   1   7
ATOM      7  C1' I4B d   1      -5.785   0.005  -0.626  0.00  0.00     0.060 C 
BRANCH   7   8
ATOM      8  C2' I4B d   1      -4.902   1.194  -0.945  0.00  0.00    -0.013 C 
ATOM      9  C4' I4B d   1      -3.870   0.843  -1.983  0.00  0.00     0.013 C 
ATOM     10  C3' I4B d   1      -5.784   2.313  -1.413  0.00  0.00     0.013 C 
ENDBRANCH   7   8
ENDBRANCH   1   7
TORSDOF 2
ENDMDL
