MODEL 1
REMARK minimizedAffinity 2.1528945
REMARK minimizedRMSD -1
REMARK  2 active torsions:
REMARK  status: ('A' for Active; 'I' for Inactive)
REMARK    1  A    between atoms: C2'_3  and  C1'_4 
REMARK    2  A    between atoms: C1'_4  and  C1_5 
ROOT
ATOM      1  C1  I4B d   1       0.510   3.496  -0.285  0.00  0.00    -0.075 A 
ATOM      2  C2  I4B d   1       0.125   3.268  -1.582  0.00  0.00     0.003 A 
ATOM      3  C3  I4B d   1      -0.356   1.994  -1.970  0.00  0.00     0.002 A 
ATOM      4  C4  I4B d   1      -0.387   0.969  -1.046  0.00  0.00    -0.004 A 
ATOM      5  C5  I4B d   1      -0.018   1.208   0.274  0.00  0.00     0.002 A 
ATOM      6  C6  I4B d   1       0.422   2.482   0.661  0.00  0.00     0.003 A 
ENDROOT
BRANCH   1   7
ATOM      7  C1' I4B d   1       1.044   4.844   0.082  0.00  0.00     0.060 C 
BRANCH   7   8
ATOM      8  C2' I4B d   1       2.483   4.671   0.524  0.00  0.00    -0.013 C 
ATOM      9  C4' I4B d   1       3.190   5.998   0.610  0.00  0.00     0.013 C 
ATOM     10  C3' I4B d   1       2.479   3.973   1.851  0.00  0.00     0.013 C 
ENDBRANCH   7   8
ENDBRANCH   1   7
TORSDOF 2
ENDMDL
