MODEL 1
REMARK minimizedAffinity 11.6868229
REMARK minimizedRMSD -1
REMARK  2 active torsions:
REMARK  status: ('A' for Active; 'I' for Inactive)
REMARK    1  A    between atoms: C2'_3  and  C1'_4 
REMARK    2  A    between atoms: C1'_4  and  C1_5 
ROOT
ATOM      1  C1  I4B d   1       5.164  -2.666  -3.113  0.00  0.00    -0.075 A 
ATOM      2  C2  I4B d   1       3.808  -2.649  -3.327  0.00  0.00     0.003 A 
ATOM      3  C3  I4B d   1       2.993  -1.701  -2.663  0.00  0.00     0.002 A 
ATOM      4  C4  I4B d   1       3.564  -0.827  -1.761  0.00  0.00    -0.004 A 
ATOM      5  C5  I4B d   1       4.942  -0.830  -1.562  0.00  0.00     0.002 A 
ATOM      6  C6  I4B d   1       5.749  -1.747  -2.251  0.00  0.00     0.003 A 
ENDROOT
BRANCH   1   7
ATOM      7  C1' I4B d   1       5.991  -3.702  -3.805  0.00  0.00     0.060 C 
BRANCH   7   8
ATOM      8  C2' I4B d   1       5.372  -5.056  -3.527  0.00  0.00    -0.013 C 
ATOM      9  C4' I4B d   1       5.581  -6.000  -4.681  0.00  0.00     0.013 C 
ATOM     10  C3' I4B d   1       5.984  -5.595  -2.268  0.00  0.00     0.013 C 
ENDBRANCH   7   8
ENDBRANCH   1   7
TORSDOF 2
ENDMDL
