MODEL 1
REMARK minimizedAffinity 0.109914139
REMARK minimizedRMSD -1
REMARK  2 active torsions:
REMARK  status: ('A' for Active; 'I' for Inactive)
REMARK    1  A    between atoms: C2'_3  and  C1'_4 
REMARK    2  A    between atoms: C1'_4  and  C1_5 
ROOT
ATOM      1  C1  I4B d   1       4.250  -4.131  -1.482  0.00  0.00    -0.075 A 
ATOM      2  C2  I4B d   1       3.073  -4.624  -0.976  0.00  0.00     0.003 A 
ATOM      3  C3  I4B d   1       2.236  -5.437  -1.778  0.00  0.00     0.002 A 
ATOM      4  C4  I4B d   1       2.587  -5.688  -3.089  0.00  0.00    -0.004 A 
ATOM      5  C5  I4B d   1       3.791  -5.206  -3.594  0.00  0.00     0.002 A 
ATOM      6  C6  I4B d   1       4.634  -4.433  -2.782  0.00  0.00     0.003 A 
ENDROOT
BRANCH   1   7
ATOM      7  C1' I4B d   1       5.093  -3.249  -0.618  0.00  0.00     0.060 C 
BRANCH   7   8
ATOM      8  C2' I4B d   1       4.633  -1.820  -0.819  0.00  0.00    -0.013 C 
ATOM      9  C4' I4B d   1       3.784  -1.690  -2.056  0.00  0.00     0.013 C 
ATOM     10  C3' I4B d   1       3.874  -1.401   0.405  0.00  0.00     0.013 C 
ENDBRANCH   7   8
ENDBRANCH   1   7
TORSDOF 2
ENDMDL
