MODEL 1
REMARK minimizedAffinity -5.25825834
REMARK minimizedRMSD -1
REMARK  0 active torsions:
REMARK  status: ('A' for Active; 'I' for Inactive)
ROOT
ATOM      1  C   UNL d   1       1.749  -1.235   2.953  0.00  0.00    -0.002 A 
ATOM      2  C1  UNL d   1       2.594  -1.350   1.858  0.00  0.00     0.010 A 
ATOM      3  C2  UNL d   1       2.156  -0.991   0.582  0.00  0.00     0.041 A 
ATOM      4  C3  UNL d   1       0.842  -0.508   0.423  0.00  0.00    -0.075 A 
ATOM      5  S   UNL d   1       0.089  -0.008  -1.045  0.00  0.00     0.015 SA
ATOM      6  C4  UNL d   1      -1.372   0.371  -0.253  0.00  0.00     0.022 A 
ATOM      7  C5  UNL d   1      -1.304   0.128   1.098  0.00  0.00     0.026 A 
ATOM      8  C6  UNL d   1      -0.027  -0.382   1.510  0.00  0.00    -0.082 A 
ATOM      9  C7  UNL d   1       0.447  -0.755   2.791  0.00  0.00     0.045 A 
ENDROOT
TORSDOF 0
ENDMDL
