MODEL 1
REMARK minimizedAffinity -4.17057514
REMARK minimizedRMSD -1
REMARK  0 active torsions:
REMARK  status: ('A' for Active; 'I' for Inactive)
ROOT
ATOM      1  C   UNL d   1       1.598  -1.232   2.839  0.00  0.00    -0.002 A 
ATOM      2  C1  UNL d   1       2.335  -2.063   2.007  0.00  0.00     0.010 A 
ATOM      3  C2  UNL d   1       2.176  -2.002   0.621  0.00  0.00     0.041 A 
ATOM      4  C3  UNL d   1       1.257  -1.081   0.080  0.00  0.00    -0.075 A 
ATOM      5  S   UNL d   1       0.896  -0.829  -1.587  0.00  0.00     0.015 SA
ATOM      6  C4  UNL d   1      -0.243   0.388  -1.233  0.00  0.00     0.022 A 
ATOM      7  C5  UNL d   1      -0.358   0.610   0.119  0.00  0.00     0.026 A 
ATOM      8  C6  UNL d   1       0.504  -0.233   0.898  0.00  0.00    -0.082 A 
ATOM      9  C7  UNL d   1       0.688  -0.320   2.299  0.00  0.00     0.045 A 
ENDROOT
TORSDOF 0
ENDMDL
