MODEL 1
REMARK minimizedAffinity -4.69875336
REMARK minimizedRMSD -1
REMARK  0 active torsions:
REMARK  status: ('A' for Active; 'I' for Inactive)
ROOT
ATOM      1  C   UNL d   1       2.547  -1.916   1.653  0.00  0.00    -0.002 A 
ATOM      2  C1  UNL d   1       1.733  -1.712   2.759  0.00  0.00     0.010 A 
ATOM      3  C2  UNL d   1       0.521  -1.030   2.632  0.00  0.00     0.041 A 
ATOM      4  C3  UNL d   1       0.137  -0.553   1.363  0.00  0.00    -0.075 A 
ATOM      5  S   UNL d   1      -1.304   0.308   0.969  0.00  0.00     0.015 SA
ATOM      6  C4  UNL d   1      -0.873   0.424  -0.676  0.00  0.00     0.022 A 
ATOM      7  C5  UNL d   1       0.338  -0.173  -0.936  0.00  0.00     0.026 A 
ATOM      8  C6  UNL d   1       0.939  -0.747   0.235  0.00  0.00    -0.082 A 
ATOM      9  C7  UNL d   1       2.162  -1.442   0.396  0.00  0.00     0.045 A 
ENDROOT
TORSDOF 0
ENDMDL
