MODEL 1
REMARK minimizedAffinity -3.07927418
REMARK minimizedRMSD -1
REMARK  0 active torsions:
REMARK  status: ('A' for Active; 'I' for Inactive)
ROOT
ATOM      1  C   UNL d   1      -0.849  -0.597   2.432  0.00  0.00    -0.002 A 
ATOM      2  C1  UNL d   1       0.375  -1.080   2.873  0.00  0.00     0.010 A 
ATOM      3  C2  UNL d   1       1.417  -1.303   1.971  0.00  0.00     0.041 A 
ATOM      4  C3  UNL d   1       1.207  -1.028   0.605  0.00  0.00    -0.075 A 
ATOM      5  S   UNL d   1       2.339  -1.224  -0.680  0.00  0.00     0.015 SA
ATOM      6  C4  UNL d   1       1.225  -0.670  -1.845  0.00  0.00     0.022 A 
ATOM      7  C5  UNL d   1       0.013  -0.340  -1.285  0.00  0.00     0.026 A 
ATOM      8  C6  UNL d   1      -0.017  -0.540   0.137  0.00  0.00    -0.082 A 
ATOM      9  C7  UNL d   1      -1.054  -0.326   1.076  0.00  0.00     0.045 A 
ENDROOT
TORSDOF 0
ENDMDL
