MODEL 1
REMARK minimizedAffinity -4.60127211
REMARK minimizedRMSD -1
REMARK  0 active torsions:
REMARK  status: ('A' for Active; 'I' for Inactive)
ROOT
ATOM      1  C   UNL d   1       2.694  -2.385   1.444  0.00  0.00    -0.002 A 
ATOM      2  C1  UNL d   1       2.638  -2.136   0.080  0.00  0.00     0.010 A 
ATOM      3  C2  UNL d   1       1.635  -1.324  -0.453  0.00  0.00     0.041 A 
ATOM      4  C3  UNL d   1       0.681  -0.760   0.417  0.00  0.00    -0.075 A 
ATOM      5  S   UNL d   1      -0.637   0.267  -0.011  0.00  0.00     0.015 SA
ATOM      6  C4  UNL d   1      -1.155   0.400   1.607  0.00  0.00     0.022 A 
ATOM      7  C5  UNL d   1      -0.354  -0.315   2.466  0.00  0.00     0.026 A 
ATOM      8  C6  UNL d   1       0.718  -0.994   1.794  0.00  0.00    -0.082 A 
ATOM      9  C7  UNL d   1       1.747  -1.823   2.304  0.00  0.00     0.045 A 
ENDROOT
TORSDOF 0
ENDMDL
