MODEL 1
REMARK minimizedAffinity -6.08937693
REMARK minimizedRMSD -1
REMARK  0 active torsions:
REMARK  status: ('A' for Active; 'I' for Inactive)
ROOT
ATOM      1  C   UNL d   1       1.917  -1.429   2.727  0.00  0.00    -0.002 A 
ATOM      2  C1  UNL d   1       2.522  -1.908   1.574  0.00  0.00     0.010 A 
ATOM      3  C2  UNL d   1       2.011  -1.582   0.315  0.00  0.00     0.041 A 
ATOM      4  C3  UNL d   1       0.872  -0.757   0.235  0.00  0.00    -0.075 A 
ATOM      5  S   UNL d   1       0.073  -0.226  -1.197  0.00  0.00     0.015 SA
ATOM      6  C4  UNL d   1      -1.091   0.650  -0.312  0.00  0.00     0.022 A 
ATOM      7  C5  UNL d   1      -0.889   0.551   1.044  0.00  0.00     0.026 A 
ATOM      8  C6  UNL d   1       0.246  -0.261   1.382  0.00  0.00    -0.082 A 
ATOM      9  C7  UNL d   1       0.787  -0.610   2.643  0.00  0.00     0.045 A 
ENDROOT
TORSDOF 0
ENDMDL
