MODEL 1
REMARK minimizedAffinity -0.649120927
REMARK minimizedRMSD -1
REMARK  1 active torsions:
REMARK  status: ('A' for Active; 'I' for Inactive)
REMARK    1  A    between atoms: C1_2  and  C2_3 
ROOT
ATOM      1  C2  UNL d   1       0.948  -0.172  -3.131  0.00  0.00    -0.073 A 
ATOM      2  C3  UNL d   1       0.113  -1.103  -2.503  0.00  0.00    -0.002 A 
ATOM      3  C4  UNL d   1       0.317  -1.442  -1.164  0.00  0.00     0.004 A 
ATOM      4  C5  UNL d   1       1.350  -0.848  -0.439  0.00  0.00    -0.004 A 
ATOM      5  C6  UNL d   1       2.187   0.094  -1.046  0.00  0.00    -0.075 A 
ATOM      6  C7  UNL d   1       3.304   0.740  -0.281  0.00  0.00     0.076 C 
ATOM      7  C8  UNL d   1       1.978   0.426  -2.392  0.00  0.00     0.001 A 
ENDROOT
BRANCH   1   8
ATOM      8  C1  UNL d   1       0.728   0.201  -4.575  0.00  0.00     0.053 C 
ATOM      9  C   UNL d   1      -0.633  -0.251  -5.080  0.00  0.00     0.018 C 
ENDBRANCH   1   8
TORSDOF 1
ENDMDL
