MODEL 1
REMARK minimizedAffinity 8.87134743
REMARK minimizedRMSD -1
REMARK  1 active torsions:
REMARK  status: ('A' for Active; 'I' for Inactive)
REMARK    1  A    between atoms: C1_2  and  C2_3 
ROOT
ATOM      1  C2  UNL d   1      -0.120  -0.440   2.319  0.00  0.00    -0.073 A 
ATOM      2  C3  UNL d   1      -1.369  -0.192   2.900  0.00  0.00    -0.002 A 
ATOM      3  C4  UNL d   1      -2.454   0.182   2.105  0.00  0.00     0.004 A 
ATOM      4  C5  UNL d   1      -2.304   0.304   0.724  0.00  0.00    -0.004 A 
ATOM      5  C6  UNL d   1      -1.067   0.049   0.124  0.00  0.00    -0.075 A 
ATOM      6  C7  UNL d   1      -0.888   0.178  -1.360  0.00  0.00     0.076 C 
ATOM      7  C8  UNL d   1       0.019  -0.323   0.928  0.00  0.00     0.001 A 
ENDROOT
BRANCH   1   8
ATOM      8  C1  UNL d   1       1.053  -0.850   3.171  0.00  0.00     0.053 C 
ATOM      9  C   UNL d   1       0.613  -1.412   4.514  0.00  0.00     0.018 C 
ENDBRANCH   1   8
TORSDOF 1
ENDMDL
