MODEL 1
REMARK minimizedAffinity 1.7439729
REMARK minimizedRMSD -1
REMARK  1 active torsions:
REMARK  status: ('A' for Active; 'I' for Inactive)
REMARK    1  A    between atoms: C1_2  and  C2_3 
ROOT
ATOM      1  C2  UNL d   1      -0.188   0.751   0.781  0.00  0.00    -0.073 A 
ATOM      2  C3  UNL d   1       0.481  -0.344   0.223  0.00  0.00    -0.002 A 
ATOM      3  C4  UNL d   1       1.841  -0.260  -0.079  0.00  0.00     0.004 A 
ATOM      4  C5  UNL d   1       2.546   0.915   0.180  0.00  0.00    -0.004 A 
ATOM      5  C6  UNL d   1       1.898   2.016   0.749  0.00  0.00    -0.075 A 
ATOM      6  C7  UNL d   1       2.642   3.288   1.032  0.00  0.00     0.076 C 
ATOM      7  C8  UNL d   1       0.532   1.925   1.047  0.00  0.00     0.001 A 
ENDROOT
BRANCH   1   8
ATOM      8  C1  UNL d   1      -1.655   0.663   1.115  0.00  0.00     0.053 C 
ATOM      9  C   UNL d   1      -2.460   0.039  -0.014  0.00  0.00     0.018 C 
ENDBRANCH   1   8
TORSDOF 1
ENDMDL
