MODEL 1
REMARK minimizedAffinity 4.95735979
REMARK minimizedRMSD -1
REMARK  1 active torsions:
REMARK  status: ('A' for Active; 'I' for Inactive)
REMARK    1  A    between atoms: C1_2  and  C2_3 
ROOT
ATOM      1  C2  UNL d   1       4.043   3.750  -0.001  0.00  0.00    -0.073 A 
ATOM      2  C3  UNL d   1       3.381   2.895   0.887  0.00  0.00    -0.002 A 
ATOM      3  C4  UNL d   1       3.551   3.039   2.264  0.00  0.00     0.004 A 
ATOM      4  C5  UNL d   1       4.378   4.043   2.768  0.00  0.00    -0.004 A 
ATOM      5  C6  UNL d   1       5.038   4.916   1.897  0.00  0.00    -0.075 A 
ATOM      6  C7  UNL d   1       5.933   6.000   2.423  0.00  0.00     0.076 C 
ATOM      7  C8  UNL d   1       4.864   4.763   0.515  0.00  0.00     0.001 A 
ENDROOT
BRANCH   1   8
ATOM      8  C1  UNL d   1       3.857   3.602  -1.489  0.00  0.00     0.053 C 
ATOM      9  C   UNL d   1       3.807   2.144  -1.915  0.00  0.00     0.018 C 
ENDBRANCH   1   8
TORSDOF 1
ENDMDL
