MODEL 1
REMARK minimizedAffinity 1.74562252
REMARK minimizedRMSD -1
REMARK  1 active torsions:
REMARK  status: ('A' for Active; 'I' for Inactive)
REMARK    1  A    between atoms: C1_2  and  C2_3 
ROOT
ATOM      1  C2  UNL d   1      -0.530  -0.370   0.715  0.00  0.00    -0.073 A 
ATOM      2  C3  UNL d   1      -1.921  -0.275   0.836  0.00  0.00    -0.002 A 
ATOM      3  C4  UNL d   1      -2.552  -0.650   2.023  0.00  0.00     0.004 A 
ATOM      4  C5  UNL d   1      -1.800  -1.118   3.101  0.00  0.00    -0.004 A 
ATOM      5  C6  UNL d   1      -0.408  -1.210   3.003  0.00  0.00    -0.075 A 
ATOM      6  C7  UNL d   1       0.414  -1.713   4.152  0.00  0.00     0.076 C 
ATOM      7  C8  UNL d   1       0.218  -0.833   1.807  0.00  0.00     0.001 A 
ENDROOT
BRANCH   1   8
ATOM      8  C1  UNL d   1       0.157   0.040  -0.562  0.00  0.00     0.053 C 
ATOM      9  C   UNL d   1      -0.577   1.171  -1.266  0.00  0.00     0.018 C 
ENDBRANCH   1   8
TORSDOF 1
ENDMDL
