MODEL 1
REMARK minimizedAffinity 0.235884607
REMARK minimizedRMSD -1
REMARK  1 active torsions:
REMARK  status: ('A' for Active; 'I' for Inactive)
REMARK    1  A    between atoms: C1_2  and  C2_3 
ROOT
ATOM      1  C2  UNL d   1       0.198  -0.645   1.438  0.00  0.00    -0.073 A 
ATOM      2  C3  UNL d   1      -0.251  -0.725   2.762  0.00  0.00    -0.002 A 
ATOM      3  C4  UNL d   1      -1.606  -0.572   3.057  0.00  0.00     0.004 A 
ATOM      4  C5  UNL d   1      -2.526  -0.344   2.034  0.00  0.00    -0.004 A 
ATOM      5  C6  UNL d   1      -2.099  -0.273   0.704  0.00  0.00    -0.075 A 
ATOM      6  C7  UNL d   1      -3.076  -0.026  -0.408  0.00  0.00     0.076 C 
ATOM      7  C8  UNL d   1      -0.736  -0.425   0.416  0.00  0.00     0.001 A 
ENDROOT
BRANCH   1   8
ATOM      8  C1  UNL d   1       1.659  -0.817   1.114  0.00  0.00     0.053 C 
ATOM      9  C   UNL d   1       2.387   0.516   1.042  0.00  0.00     0.018 C 
ENDBRANCH   1   8
TORSDOF 1
ENDMDL
