MODEL 1
REMARK minimizedAffinity -1.80430293
REMARK minimizedRMSD -1
REMARK  1 active torsions:
REMARK  status: ('A' for Active; 'I' for Inactive)
REMARK    1  A    between atoms: C1_2  and  C2_3 
ROOT
ATOM      1  C2  UNL d   1       3.395   5.276   2.628  0.00  0.00    -0.073 A 
ATOM      2  C3  UNL d   1       4.326   6.000   3.382  0.00  0.00    -0.002 A 
ATOM      3  C4  UNL d   1       5.208   5.337   4.237  0.00  0.00     0.004 A 
ATOM      4  C5  UNL d   1       5.173   3.947   4.342  0.00  0.00    -0.004 A 
ATOM      5  C6  UNL d   1       4.257   3.205   3.588  0.00  0.00    -0.075 A 
ATOM      6  C7  UNL d   1       4.205   1.709   3.692  0.00  0.00     0.076 C 
ATOM      7  C8  UNL d   1       3.373   3.878   2.734  0.00  0.00     0.001 A 
ENDROOT
BRANCH   1   8
ATOM      8  C1  UNL d   1       2.444   5.986   1.699  0.00  0.00     0.053 C 
ATOM      9  C   UNL d   1       2.952   6.000   0.266  0.00  0.00     0.018 C 
ENDBRANCH   1   8
TORSDOF 1
ENDMDL
