MODEL 1
REMARK minimizedAffinity -4.78824425
REMARK minimizedRMSD -1
REMARK  0 active torsions:
REMARK  status: ('A' for Active; 'I' for Inactive)
ROOT
ATOM      1  C   UNL d   1       1.350  -1.173  -2.236  0.00  0.00     0.077 C 
ATOM      2  C1  UNL d   1       0.715  -0.809  -0.926  0.00  0.00    -0.074 A 
ATOM      3  C2  UNL d   1      -0.643  -0.486  -0.851  0.00  0.00    -0.005 A 
ATOM      4  C3  UNL d   1      -1.222  -0.159   0.375  0.00  0.00     0.006 A 
ATOM      5  C4  UNL d   1      -0.449  -0.152   1.537  0.00  0.00    -0.005 A 
ATOM      6  C5  UNL d   1       0.911  -0.473   1.481  0.00  0.00    -0.074 A 
ATOM      7  C6  UNL d   1       1.754  -0.479   2.722  0.00  0.00     0.077 C 
ATOM      8  C7  UNL d   1       1.483  -0.807   0.246  0.00  0.00    -0.001 A 
ENDROOT
TORSDOF 0
ENDMDL
