MODEL 1
REMARK minimizedAffinity -2.40207672
REMARK minimizedRMSD -1
REMARK  0 active torsions:
REMARK  status: ('A' for Active; 'I' for Inactive)
ROOT
ATOM      1  C   UNL d   1       1.322  -0.139   2.854  0.00  0.00     0.077 C 
ATOM      2  C1  UNL d   1       0.536  -0.073   1.578  0.00  0.00    -0.074 A 
ATOM      3  C2  UNL d   1      -0.862  -0.079   1.594  0.00  0.00    -0.005 A 
ATOM      4  C3  UNL d   1      -1.579  -0.008   0.399  0.00  0.00     0.006 A 
ATOM      5  C4  UNL d   1      -0.906   0.071  -0.820  0.00  0.00    -0.005 A 
ATOM      6  C5  UNL d   1       0.492   0.079  -0.855  0.00  0.00    -0.074 A 
ATOM      7  C6  UNL d   1       1.231   0.173  -2.157  0.00  0.00     0.077 C 
ATOM      8  C7  UNL d   1       1.205   0.014   0.349  0.00  0.00    -0.001 A 
ENDROOT
TORSDOF 0
ENDMDL
