MODEL 1
REMARK minimizedAffinity -3.85329485
REMARK minimizedRMSD -1
REMARK  0 active torsions:
REMARK  status: ('A' for Active; 'I' for Inactive)
ROOT
ATOM      1  C   UNL d   1       1.948  -0.989   3.022  0.00  0.00     0.077 C 
ATOM      2  C1  UNL d   1       1.131  -0.683   1.801  0.00  0.00    -0.074 A 
ATOM      3  C2  UNL d   1       1.744  -0.437   0.569  0.00  0.00    -0.005 A 
ATOM      4  C3  UNL d   1       0.971  -0.163  -0.559  0.00  0.00     0.006 A 
ATOM      5  C4  UNL d   1      -0.421  -0.132  -0.467  0.00  0.00    -0.005 A 
ATOM      6  C5  UNL d   1      -1.052  -0.377   0.757  0.00  0.00    -0.074 A 
ATOM      7  C6  UNL d   1      -2.547  -0.357   0.872  0.00  0.00     0.077 C 
ATOM      8  C7  UNL d   1      -0.268  -0.658   1.885  0.00  0.00    -0.001 A 
ENDROOT
TORSDOF 0
ENDMDL
