MODEL 1
REMARK minimizedAffinity -5.96226168
REMARK minimizedRMSD -1
REMARK  0 active torsions:
REMARK  status: ('A' for Active; 'I' for Inactive)
ROOT
ATOM      1  C   UNL d   1      -1.331   0.143   2.319  0.00  0.00     0.077 C 
ATOM      2  C1  UNL d   1      -0.107  -0.456   1.691  0.00  0.00    -0.074 A 
ATOM      3  C2  UNL d   1       0.969  -0.880   2.477  0.00  0.00    -0.005 A 
ATOM      4  C3  UNL d   1       2.096  -1.445   1.880  0.00  0.00     0.006 A 
ATOM      5  C4  UNL d   1       2.158  -1.590   0.493  0.00  0.00    -0.005 A 
ATOM      6  C5  UNL d   1       1.091  -1.173  -0.308  0.00  0.00    -0.074 A 
ATOM      7  C6  UNL d   1       1.138  -1.331  -1.799  0.00  0.00     0.077 C 
ATOM      8  C7  UNL d   1      -0.041  -0.613   0.300  0.00  0.00    -0.001 A 
ENDROOT
TORSDOF 0
ENDMDL
