MODEL 1
REMARK minimizedAffinity -5.35637712
REMARK minimizedRMSD -1
REMARK  0 active torsions:
REMARK  status: ('A' for Active; 'I' for Inactive)
ROOT
ATOM      1  C   UNL d   1       1.542  -1.466   2.916  0.00  0.00     0.077 C 
ATOM      2  C1  UNL d   1       1.443  -1.294   1.430  0.00  0.00    -0.074 A 
ATOM      3  C2  UNL d   1       2.357  -1.913   0.571  0.00  0.00    -0.005 A 
ATOM      4  C3  UNL d   1       2.246  -1.752  -0.810  0.00  0.00     0.006 A 
ATOM      5  C4  UNL d   1       1.221  -0.971  -1.346  0.00  0.00    -0.005 A 
ATOM      6  C5  UNL d   1       0.297  -0.346  -0.503  0.00  0.00    -0.074 A 
ATOM      7  C6  UNL d   1      -0.817   0.488  -1.063  0.00  0.00     0.077 C 
ATOM      8  C7  UNL d   1       0.411  -0.518   0.883  0.00  0.00    -0.001 A 
ENDROOT
TORSDOF 0
ENDMDL
