MODEL 1
REMARK minimizedAffinity -4.69556999
REMARK minimizedRMSD -1
REMARK  0 active torsions:
REMARK  status: ('A' for Active; 'I' for Inactive)
ROOT
ATOM      1  C   UNL d   1      -2.283   0.665   2.322  0.00  0.00     0.077 C 
ATOM      2  C1  UNL d   1      -0.941   0.279   1.776  0.00  0.00    -0.074 A 
ATOM      3  C2  UNL d   1       0.167   0.146   2.618  0.00  0.00    -0.005 A 
ATOM      4  C3  UNL d   1       1.407  -0.223   2.097  0.00  0.00     0.006 A 
ATOM      5  C4  UNL d   1       1.552  -0.462   0.730  0.00  0.00    -0.005 A 
ATOM      6  C5  UNL d   1       0.455  -0.334  -0.128  0.00  0.00    -0.074 A 
ATOM      7  C6  UNL d   1       0.590  -0.596  -1.599  0.00  0.00     0.077 C 
ATOM      8  C7  UNL d   1      -0.790   0.030   0.404  0.00  0.00    -0.001 A 
ENDROOT
TORSDOF 0
ENDMDL
