MODEL 1
REMARK minimizedAffinity -3.31048298
REMARK minimizedRMSD -1
REMARK  0 active torsions:
REMARK  status: ('A' for Active; 'I' for Inactive)
ROOT
ATOM      1  C   UNL d   1       3.361  -2.263   0.031  0.00  0.00     0.077 C 
ATOM      2  C1  UNL d   1       2.333  -1.693   0.962  0.00  0.00    -0.074 A 
ATOM      3  C2  UNL d   1       2.519  -1.730   2.348  0.00  0.00    -0.005 A 
ATOM      4  C3  UNL d   1       1.558  -1.187   3.201  0.00  0.00     0.006 A 
ATOM      5  C4  UNL d   1       0.404  -0.603   2.678  0.00  0.00    -0.005 A 
ATOM      6  C5  UNL d   1       0.201  -0.557   1.296  0.00  0.00    -0.074 A 
ATOM      7  C6  UNL d   1      -1.030   0.076   0.717  0.00  0.00     0.077 C 
ATOM      8  C7  UNL d   1       1.174  -1.098   0.444  0.00  0.00    -0.001 A 
ENDROOT
TORSDOF 0
ENDMDL
