MODEL 1
REMARK minimizedAffinity -2.74445391
REMARK minimizedRMSD -1
REMARK  0 active torsions:
REMARK  status: ('A' for Active; 'I' for Inactive)
ROOT
ATOM      1  C   UNL d   1      -2.622   0.107   0.641  0.00  0.00     0.077 C 
ATOM      2  C1  UNL d   1      -1.143  -0.104   0.508  0.00  0.00    -0.074 A 
ATOM      3  C2  UNL d   1      -0.523  -0.085  -0.746  0.00  0.00    -0.005 A 
ATOM      4  C3  UNL d   1       0.854  -0.273  -0.853  0.00  0.00     0.006 A 
ATOM      5  C4  UNL d   1       1.626  -0.483   0.291  0.00  0.00    -0.005 A 
ATOM      6  C5  UNL d   1       1.024  -0.505   1.553  0.00  0.00    -0.074 A 
ATOM      7  C6  UNL d   1       1.840  -0.719   2.793  0.00  0.00     0.077 C 
ATOM      8  C7  UNL d   1      -0.360  -0.307   1.653  0.00  0.00    -0.001 A 
ENDROOT
TORSDOF 0
ENDMDL
