MODEL 1
REMARK minimizedAffinity -3.28911948
REMARK minimizedRMSD -1
REMARK  0 active torsions:
REMARK  status: ('A' for Active; 'I' for Inactive)
ROOT
ATOM      1  C   UNL d   1       1.818  -0.081   2.858  0.00  0.00     0.077 C 
ATOM      2  C1  UNL d   1       0.666  -0.126   1.899  0.00  0.00    -0.074 A 
ATOM      3  C2  UNL d   1      -0.617  -0.473   2.332  0.00  0.00    -0.005 A 
ATOM      4  C3  UNL d   1      -1.681  -0.501   1.430  0.00  0.00     0.006 A 
ATOM      5  C4  UNL d   1      -1.472  -0.182   0.088  0.00  0.00    -0.005 A 
ATOM      6  C5  UNL d   1      -0.196   0.169  -0.364  0.00  0.00    -0.074 A 
ATOM      7  C6  UNL d   1       0.043   0.525  -1.801  0.00  0.00     0.077 C 
ATOM      8  C7  UNL d   1       0.866   0.202   0.550  0.00  0.00    -0.001 A 
ENDROOT
TORSDOF 0
ENDMDL
