MODEL 1
REMARK minimizedAffinity -3.65554214
REMARK minimizedRMSD -1
REMARK  0 active torsions:
REMARK  status: ('A' for Active; 'I' for Inactive)
ROOT
ATOM      1  C   UNL d   1      -1.081  -1.576   2.832  0.00  0.00     0.078 C 
ATOM      2  C1  UNL d   1      -0.020  -1.364   1.794  0.00  0.00    -0.077 A 
ATOM      3  C2  UNL d   1       1.262  -1.905   1.951  0.00  0.00    -0.001 A 
ATOM      4  C3  UNL d   1       2.242  -1.692   0.981  0.00  0.00     0.003 A 
ATOM      5  C4  UNL d   1       1.952  -0.935  -0.152  0.00  0.00    -0.005 A 
ATOM      6  C5  UNL d   1       0.680  -0.390  -0.317  0.00  0.00     0.003 A 
ATOM      7  C6  UNL d   1      -0.302  -0.603   0.652  0.00  0.00    -0.001 A 
ENDROOT
TORSDOF 0
ENDMDL
