MODEL 1
REMARK minimizedAffinity -3.519274
REMARK minimizedRMSD -1
REMARK  0 active torsions:
REMARK  status: ('A' for Active; 'I' for Inactive)
ROOT
ATOM      1  C   UNL d   1      -0.515   0.488  -0.047  0.00  0.00     0.078 C 
ATOM      2  C1  UNL d   1       0.246  -0.582   0.677  0.00  0.00    -0.077 A 
ATOM      3  C2  UNL d   1      -0.245  -1.139   1.864  0.00  0.00    -0.001 A 
ATOM      4  C3  UNL d   1       0.479  -2.128   2.532  0.00  0.00     0.003 A 
ATOM      5  C4  UNL d   1       1.700  -2.566   2.022  0.00  0.00    -0.005 A 
ATOM      6  C5  UNL d   1       2.198  -2.016   0.843  0.00  0.00     0.003 A 
ATOM      7  C6  UNL d   1       1.475  -1.028   0.173  0.00  0.00    -0.001 A 
ENDROOT
TORSDOF 0
ENDMDL
