MODEL 1
REMARK minimizedAffinity -6.43251944
REMARK minimizedRMSD -1
REMARK  0 active torsions:
REMARK  status: ('A' for Active; 'I' for Inactive)
ROOT
ATOM      1  C   UNL d   1      -0.947   0.534  -0.037  0.00  0.00     0.078 C 
ATOM      2  C1  UNL d   1      -0.294  -0.590   0.712  0.00  0.00    -0.077 A 
ATOM      3  C2  UNL d   1       0.886  -1.179   0.242  0.00  0.00    -0.001 A 
ATOM      4  C3  UNL d   1       1.478  -2.231   0.944  0.00  0.00     0.003 A 
ATOM      5  C4  UNL d   1       0.896  -2.703   2.119  0.00  0.00    -0.005 A 
ATOM      6  C5  UNL d   1      -0.280  -2.124   2.592  0.00  0.00     0.003 A 
ATOM      7  C6  UNL d   1      -0.873  -1.073   1.892  0.00  0.00    -0.001 A 
ENDROOT
TORSDOF 0
ENDMDL
