MODEL 1
REMARK minimizedAffinity -5.01456738
REMARK minimizedRMSD -1
REMARK  0 active torsions:
REMARK  status: ('A' for Active; 'I' for Inactive)
ROOT
ATOM      1  C   UNL d   1       0.299   0.009  -0.890  0.00  0.00     0.078 C 
ATOM      2  C1  UNL d   1       0.298  -0.802   0.371  0.00  0.00    -0.077 A 
ATOM      3  C2  UNL d   1       1.256  -1.800   0.587  0.00  0.00    -0.001 A 
ATOM      4  C3  UNL d   1       1.237  -2.554   1.762  0.00  0.00     0.003 A 
ATOM      5  C4  UNL d   1       0.262  -2.319   2.729  0.00  0.00    -0.005 A 
ATOM      6  C5  UNL d   1      -0.697  -1.330   2.521  0.00  0.00     0.003 A 
ATOM      7  C6  UNL d   1      -0.680  -0.575   1.348  0.00  0.00    -0.001 A 
ENDROOT
TORSDOF 0
ENDMDL
