MODEL 1
REMARK minimizedAffinity -5.02185631
REMARK minimizedRMSD -1
REMARK  0 active torsions:
REMARK  status: ('A' for Active; 'I' for Inactive)
ROOT
ATOM      1  C   UNL d   1      -0.461   0.364  -0.241  0.00  0.00     0.078 C 
ATOM      2  C1  UNL d   1       0.266  -0.775   0.409  0.00  0.00    -0.077 A 
ATOM      3  C2  UNL d   1      -0.238  -1.388   1.563  0.00  0.00    -0.001 A 
ATOM      4  C3  UNL d   1       0.455  -2.441   2.163  0.00  0.00     0.003 A 
ATOM      5  C4  UNL d   1       1.655  -2.890   1.616  0.00  0.00    -0.005 A 
ATOM      6  C5  UNL d   1       2.166  -2.285   0.470  0.00  0.00     0.003 A 
ATOM      7  C6  UNL d   1       1.475  -1.232  -0.132  0.00  0.00    -0.001 A 
ENDROOT
TORSDOF 0
ENDMDL
