MODEL 1
REMARK minimizedAffinity -2.87923813
REMARK minimizedRMSD -1
REMARK  0 active torsions:
REMARK  status: ('A' for Active; 'I' for Inactive)
ROOT
ATOM      1  C   UNL d   1      -0.606   0.638  -0.425  0.00  0.00     0.078 C 
ATOM      2  C1  UNL d   1       0.103  -0.300   0.506  0.00  0.00    -0.077 A 
ATOM      3  C2  UNL d   1       1.407  -0.734   0.238  0.00  0.00    -0.001 A 
ATOM      4  C3  UNL d   1       2.051  -1.614   1.109  0.00  0.00     0.003 A 
ATOM      5  C4  UNL d   1       1.399  -2.069   2.253  0.00  0.00    -0.005 A 
ATOM      6  C5  UNL d   1       0.101  -1.643   2.528  0.00  0.00     0.003 A 
ATOM      7  C6  UNL d   1      -0.545  -0.763   1.658  0.00  0.00    -0.001 A 
ENDROOT
TORSDOF 0
ENDMDL
