MODEL 1
REMARK minimizedAffinity -3.98825884
REMARK minimizedRMSD -1
REMARK  0 active torsions:
REMARK  status: ('A' for Active; 'I' for Inactive)
ROOT
ATOM      1  C   UNL d   1      -0.745  -1.621   3.093  0.00  0.00     0.078 C 
ATOM      2  C1  UNL d   1       0.167  -1.337   1.937  0.00  0.00    -0.077 A 
ATOM      3  C2  UNL d   1      -0.197  -0.425   0.938  0.00  0.00    -0.001 A 
ATOM      4  C3  UNL d   1       0.657  -0.178  -0.137  0.00  0.00     0.003 A 
ATOM      5  C4  UNL d   1       1.881  -0.838  -0.225  0.00  0.00    -0.005 A 
ATOM      6  C5  UNL d   1       2.251  -1.748   0.763  0.00  0.00     0.003 A 
ATOM      7  C6  UNL d   1       1.398  -1.997   1.840  0.00  0.00    -0.001 A 
ENDROOT
TORSDOF 0
ENDMDL
