MODEL 1
REMARK minimizedAffinity -4.64818287
REMARK minimizedRMSD -1
REMARK  0 active torsions:
REMARK  status: ('A' for Active; 'I' for Inactive)
ROOT
ATOM      1  C   UNL d   1      -0.050   0.407  -0.245  0.00  0.00     0.078 C 
ATOM      2  C1  UNL d   1       0.362  -0.817   0.516  0.00  0.00    -0.077 A 
ATOM      3  C2  UNL d   1      -0.339  -1.227   1.657  0.00  0.00    -0.001 A 
ATOM      4  C3  UNL d   1       0.062  -2.363   2.362  0.00  0.00     0.003 A 
ATOM      5  C4  UNL d   1       1.165  -3.099   1.933  0.00  0.00    -0.005 A 
ATOM      6  C5  UNL d   1       1.869  -2.698   0.800  0.00  0.00     0.003 A 
ATOM      7  C6  UNL d   1       1.470  -1.562   0.095  0.00  0.00    -0.001 A 
ENDROOT
TORSDOF 0
ENDMDL
