MODEL 1
REMARK minimizedAffinity -5.12632799
REMARK minimizedRMSD -1
REMARK  0 active torsions:
REMARK  status: ('A' for Active; 'I' for Inactive)
ROOT
ATOM      1  C   UNL d   1      -0.473  -1.930   2.805  0.00  0.00     0.078 C 
ATOM      2  C1  UNL d   1       0.158  -1.401   1.551  0.00  0.00    -0.077 A 
ATOM      3  C2  UNL d   1       1.458  -1.771   1.186  0.00  0.00    -0.001 A 
ATOM      4  C3  UNL d   1       2.036  -1.263   0.022  0.00  0.00     0.003 A 
ATOM      5  C4  UNL d   1       1.322  -0.381  -0.787  0.00  0.00    -0.005 A 
ATOM      6  C5  UNL d   1       0.029  -0.005  -0.431  0.00  0.00     0.003 A 
ATOM      7  C6  UNL d   1      -0.551  -0.512   0.733  0.00  0.00    -0.001 A 
ENDROOT
TORSDOF 0
ENDMDL
