MODEL 1
REMARK minimizedAffinity -5.80107117
REMARK minimizedRMSD -1
REMARK  0 active torsions:
REMARK  status: ('A' for Active; 'I' for Inactive)
ROOT
ATOM      1  C   UNL d   1      -0.335   0.537  -0.369  0.00  0.00     0.078 C 
ATOM      2  C1  UNL d   1       0.361  -0.658   0.209  0.00  0.00    -0.077 A 
ATOM      3  C2  UNL d   1       1.578  -1.108  -0.318  0.00  0.00    -0.001 A 
ATOM      4  C3  UNL d   1       2.210  -2.229   0.224  0.00  0.00     0.003 A 
ATOM      5  C4  UNL d   1       1.632  -2.909   1.294  0.00  0.00    -0.005 A 
ATOM      6  C5  UNL d   1       0.420  -2.470   1.823  0.00  0.00     0.003 A 
ATOM      7  C6  UNL d   1      -0.213  -1.350   1.282  0.00  0.00    -0.001 A 
ENDROOT
TORSDOF 0
ENDMDL
