MODEL 1
REMARK minimizedAffinity -3.5029726
REMARK minimizedRMSD -1
REMARK  0 active torsions:
REMARK  status: ('A' for Active; 'I' for Inactive)
ROOT
ATOM      1  C   UNL d   1       1.356  -2.983   0.645  0.00  0.00     0.078 C 
ATOM      2  C1  UNL d   1       0.743  -1.659   0.298  0.00  0.00    -0.077 A 
ATOM      3  C2  UNL d   1      -0.642  -1.466   0.365  0.00  0.00    -0.001 A 
ATOM      4  C3  UNL d   1      -1.200  -0.231   0.030  0.00  0.00     0.003 A 
ATOM      5  C4  UNL d   1      -0.380   0.820  -0.375  0.00  0.00    -0.005 A 
ATOM      6  C5  UNL d   1       0.999   0.637  -0.446  0.00  0.00     0.003 A 
ATOM      7  C6  UNL d   1       1.559  -0.597  -0.112  0.00  0.00    -0.001 A 
ENDROOT
TORSDOF 0
ENDMDL
