MODEL 1
REMARK minimizedAffinity -3.06517458
REMARK minimizedRMSD -1
REMARK  0 active torsions:
REMARK  status: ('A' for Active; 'I' for Inactive)
ROOT
ATOM      1  C   UNL d   1       1.585  -2.444   2.300  0.00  0.00     0.078 C 
ATOM      2  C1  UNL d   1       1.010  -1.267   1.568  0.00  0.00    -0.077 A 
ATOM      3  C2  UNL d   1      -0.256  -0.765   1.892  0.00  0.00    -0.001 A 
ATOM      4  C3  UNL d   1      -0.782   0.325   1.197  0.00  0.00     0.003 A 
ATOM      5  C4  UNL d   1      -0.049   0.921   0.172  0.00  0.00    -0.005 A 
ATOM      6  C5  UNL d   1       1.211   0.427  -0.158  0.00  0.00     0.003 A 
ATOM      7  C6  UNL d   1       1.738  -0.663   0.536  0.00  0.00    -0.001 A 
ENDROOT
TORSDOF 0
ENDMDL
