MODEL 1
REMARK minimizedAffinity -6.01930189
REMARK minimizedRMSD -1
REMARK  0 active torsions:
REMARK  status: ('A' for Active; 'I' for Inactive)
ROOT
ATOM      1  C   UNL d   1      -1.243  -1.637   3.086  0.00  0.00     0.078 C 
ATOM      2  C1  UNL d   1      -0.096  -1.973   2.181  0.00  0.00    -0.077 A 
ATOM      3  C2  UNL d   1      -0.001  -1.417   0.899  0.00  0.00    -0.001 A 
ATOM      4  C3  UNL d   1       1.067  -1.747   0.063  0.00  0.00     0.003 A 
ATOM      5  C4  UNL d   1       2.048  -2.636   0.500  0.00  0.00    -0.005 A 
ATOM      6  C5  UNL d   1       1.961  -3.195   1.773  0.00  0.00     0.003 A 
ATOM      7  C6  UNL d   1       0.894  -2.867   2.610  0.00  0.00    -0.001 A 
ENDROOT
TORSDOF 0
ENDMDL
