MODEL 1
REMARK minimizedAffinity -4.26931953
REMARK minimizedRMSD -1
REMARK  0 active torsions:
REMARK  status: ('A' for Active; 'I' for Inactive)
ROOT
ATOM      1  C   UNL d   1      -0.736   0.604  -0.320  0.00  0.00     0.078 C 
ATOM      2  C1  UNL d   1      -0.173  -0.498   0.528  0.00  0.00    -0.077 A 
ATOM      3  C2  UNL d   1      -0.784  -0.864   1.734  0.00  0.00    -0.001 A 
ATOM      4  C3  UNL d   1      -0.244  -1.885   2.517  0.00  0.00     0.003 A 
ATOM      5  C4  UNL d   1       0.911  -2.547   2.105  0.00  0.00    -0.005 A 
ATOM      6  C5  UNL d   1       1.527  -2.189   0.908  0.00  0.00     0.003 A 
ATOM      7  C6  UNL d   1       0.988  -1.168   0.123  0.00  0.00    -0.001 A 
ENDROOT
TORSDOF 0
ENDMDL
