MODEL 1
REMARK minimizedAffinity -0.693428457
REMARK minimizedRMSD -1
REMARK  0 active torsions:
REMARK  status: ('A' for Active; 'I' for Inactive)
ROOT
ATOM      1  C   UNL d   1      -0.932   1.114  -0.226  0.00  0.00     0.078 C 
ATOM      2  C1  UNL d   1      -1.913   1.631  -1.236  0.00  0.00    -0.077 A 
ATOM      3  C2  UNL d   1      -1.577   2.685  -2.094  0.00  0.00    -0.001 A 
ATOM      4  C3  UNL d   1      -2.503   3.162  -3.023  0.00  0.00     0.003 A 
ATOM      5  C4  UNL d   1      -3.772   2.592  -3.101  0.00  0.00    -0.005 A 
ATOM      6  C5  UNL d   1      -4.116   1.544  -2.250  0.00  0.00     0.003 A 
ATOM      7  C6  UNL d   1      -3.191   1.066  -1.321  0.00  0.00    -0.001 A 
ENDROOT
TORSDOF 0
ENDMDL
