MODEL 1
REMARK minimizedAffinity -4.81383944
REMARK minimizedRMSD -1
REMARK  0 active torsions:
REMARK  status: ('A' for Active; 'I' for Inactive)
ROOT
ATOM      1  C   UNL d   1      -0.833   0.682  -0.057  0.00  0.00     0.078 C 
ATOM      2  C1  UNL d   1      -0.274  -0.527   0.630  0.00  0.00    -0.077 A 
ATOM      3  C2  UNL d   1       0.949  -1.082   0.233  0.00  0.00    -0.001 A 
ATOM      4  C3  UNL d   1       1.453  -2.214   0.875  0.00  0.00     0.003 A 
ATOM      5  C4  UNL d   1       0.740  -2.802   1.918  0.00  0.00    -0.005 A 
ATOM      6  C5  UNL d   1      -0.478  -2.258   2.320  0.00  0.00     0.003 A 
ATOM      7  C6  UNL d   1      -0.984  -1.126   1.678  0.00  0.00    -0.001 A 
ENDROOT
TORSDOF 0
ENDMDL
