MODEL 1
REMARK minimizedAffinity -3.4927218
REMARK minimizedRMSD -1
REMARK  0 active torsions:
REMARK  status: ('A' for Active; 'I' for Inactive)
ROOT
ATOM      1  C   UNL d   1      -0.718   1.084  -0.304  0.00  0.00     0.078 C 
ATOM      2  C1  UNL d   1       0.354   0.036  -0.326  0.00  0.00    -0.077 A 
ATOM      3  C2  UNL d   1       1.067  -0.291   0.833  0.00  0.00    -0.001 A 
ATOM      4  C3  UNL d   1       2.069  -1.262   0.796  0.00  0.00     0.003 A 
ATOM      5  C4  UNL d   1       2.367  -1.914  -0.399  0.00  0.00    -0.005 A 
ATOM      6  C5  UNL d   1       1.664  -1.594  -1.559  0.00  0.00     0.003 A 
ATOM      7  C6  UNL d   1       0.662  -0.624  -1.523  0.00  0.00    -0.001 A 
ENDROOT
TORSDOF 0
ENDMDL
