MODEL 1
REMARK minimizedAffinity -4.76489782
REMARK minimizedRMSD -1
REMARK  0 active torsions:
REMARK  status: ('A' for Active; 'I' for Inactive)
ROOT
ATOM      1  C   UNL d   1      -0.923   0.194  -0.232  0.00  0.00     0.078 C 
ATOM      2  C1  UNL d   1      -0.433  -0.827   0.752  0.00  0.00    -0.077 A 
ATOM      3  C2  UNL d   1      -1.107  -1.046   1.959  0.00  0.00    -0.001 A 
ATOM      4  C3  UNL d   1      -0.634  -1.993   2.870  0.00  0.00     0.003 A 
ATOM      5  C4  UNL d   1       0.515  -2.726   2.583  0.00  0.00    -0.005 A 
ATOM      6  C5  UNL d   1       1.194  -2.514   1.385  0.00  0.00     0.003 A 
ATOM      7  C6  UNL d   1       0.722  -1.568   0.473  0.00  0.00    -0.001 A 
ENDROOT
TORSDOF 0
ENDMDL
