MODEL 1
REMARK minimizedAffinity -1.90203881
REMARK minimizedRMSD -1
REMARK  0 active torsions:
REMARK  status: ('A' for Active; 'I' for Inactive)
ROOT
ATOM      1  C   UNL d   1       2.327   5.634   4.208  0.00  0.00     0.077 C 
ATOM      2  C1  UNL d   1       3.610   5.268   3.524  0.00  0.00    -0.074 A 
ATOM      3  C2  UNL d   1       4.780   6.000   3.752  0.00  0.00    -0.005 A 
ATOM      4  C3  UNL d   1       5.969   5.642   3.117  0.00  0.00     0.006 A 
ATOM      5  C4  UNL d   1       6.000   4.550   2.248  0.00  0.00    -0.005 A 
ATOM      6  C5  UNL d   1       4.840   3.806   2.008  0.00  0.00    -0.074 A 
ATOM      7  C6  UNL d   1       4.859   2.625   1.085  0.00  0.00     0.077 C 
ATOM      8  C7  UNL d   1       3.651   4.168   2.656  0.00  0.00    -0.001 A 
ENDROOT
TORSDOF 0
ENDMDL
