MODEL 1
REMARK minimizedAffinity 2.39133787
REMARK minimizedRMSD -1
REMARK  0 active torsions:
REMARK  status: ('A' for Active; 'I' for Inactive)
ROOT
ATOM      1  C   UNL d   1      -0.770   0.363   1.495  0.00  0.00     0.077 C 
ATOM      2  C1  UNL d   1      -0.364  -1.036   1.852  0.00  0.00    -0.074 A 
ATOM      3  C2  UNL d   1      -1.078  -1.771   2.803  0.00  0.00    -0.005 A 
ATOM      4  C3  UNL d   1      -0.694  -3.075   3.118  0.00  0.00     0.006 A 
ATOM      5  C4  UNL d   1       0.407  -3.655   2.486  0.00  0.00    -0.005 A 
ATOM      6  C5  UNL d   1       1.133  -2.935   1.532  0.00  0.00    -0.074 A 
ATOM      7  C6  UNL d   1       2.312  -3.547   0.836  0.00  0.00     0.077 C 
ATOM      8  C7  UNL d   1       0.736  -1.628   1.216  0.00  0.00    -0.001 A 
ENDROOT
TORSDOF 0
ENDMDL
