MODEL 1
REMARK minimizedAffinity -2.06962991
REMARK minimizedRMSD -1
REMARK  0 active torsions:
REMARK  status: ('A' for Active; 'I' for Inactive)
ROOT
ATOM      1  C   UNL d   1      -1.296  -0.244   0.928  0.00  0.00     0.077 C 
ATOM      2  C1  UNL d   1      -0.339  -1.092   1.711  0.00  0.00    -0.074 A 
ATOM      3  C2  UNL d   1      -0.206  -0.935   3.095  0.00  0.00    -0.005 A 
ATOM      4  C3  UNL d   1       0.681  -1.738   3.811  0.00  0.00     0.006 A 
ATOM      5  C4  UNL d   1       1.443  -2.705   3.153  0.00  0.00    -0.005 A 
ATOM      6  C5  UNL d   1       1.322  -2.877   1.771  0.00  0.00    -0.074 A 
ATOM      7  C6  UNL d   1       2.126  -3.918   1.049  0.00  0.00     0.077 C 
ATOM      8  C7  UNL d   1       0.424  -2.071   1.058  0.00  0.00    -0.001 A 
ENDROOT
TORSDOF 0
ENDMDL
