MODEL 1
REMARK minimizedAffinity -1.09518611
REMARK minimizedRMSD -1
REMARK  0 active torsions:
REMARK  status: ('A' for Active; 'I' for Inactive)
ROOT
ATOM      1  C   UNL d   1       1.368  -1.896   3.162  0.00  0.00     0.077 C 
ATOM      2  C1  UNL d   1       0.586  -1.434   1.968  0.00  0.00    -0.074 A 
ATOM      3  C2  UNL d   1       1.190  -1.328   0.710  0.00  0.00    -0.005 A 
ATOM      4  C3  UNL d   1       0.448  -0.907  -0.393  0.00  0.00     0.006 A 
ATOM      5  C4  UNL d   1      -0.903  -0.587  -0.250  0.00  0.00    -0.005 A 
ATOM      6  C5  UNL d   1      -1.524  -0.687   0.999  0.00  0.00    -0.074 A 
ATOM      7  C6  UNL d   1      -2.977  -0.357   1.167  0.00  0.00     0.077 C 
ATOM      8  C7  UNL d   1      -0.773  -1.118   2.101  0.00  0.00    -0.001 A 
ENDROOT
TORSDOF 0
ENDMDL
