MODEL 1
REMARK minimizedAffinity -3.19838357
REMARK minimizedRMSD -1
REMARK  0 active torsions:
REMARK  status: ('A' for Active; 'I' for Inactive)
ROOT
ATOM      1  C   UNL d   1       5.814   5.558   0.990  0.00  0.00     0.077 C 
ATOM      2  C1  UNL d   1       5.007   5.517   2.254  0.00  0.00    -0.074 A 
ATOM      3  C2  UNL d   1       3.641   5.215   2.225  0.00  0.00    -0.005 A 
ATOM      4  C3  UNL d   1       2.906   5.171   3.410  0.00  0.00     0.006 A 
ATOM      5  C4  UNL d   1       3.527   5.428   4.632  0.00  0.00    -0.005 A 
ATOM      6  C5  UNL d   1       4.891   5.730   4.681  0.00  0.00    -0.074 A 
ATOM      7  C6  UNL d   1       5.577   5.999   5.988  0.00  0.00     0.077 C 
ATOM      8  C7  UNL d   1       5.625   5.766   3.487  0.00  0.00    -0.001 A 
ENDROOT
TORSDOF 0
ENDMDL
