MODEL 1
REMARK minimizedAffinity 0.719302535
REMARK minimizedRMSD -1
REMARK  0 active torsions:
REMARK  status: ('A' for Active; 'I' for Inactive)
ROOT
ATOM      1  C   UNL d   1       1.702  -4.010   1.966  0.00  0.00     0.077 C 
ATOM      2  C1  UNL d   1       0.842  -2.796   1.785  0.00  0.00    -0.074 A 
ATOM      3  C2  UNL d   1       0.049  -2.314   2.832  0.00  0.00    -0.005 A 
ATOM      4  C3  UNL d   1      -0.739  -1.177   2.651  0.00  0.00     0.006 A 
ATOM      5  C4  UNL d   1      -0.743  -0.512   1.424  0.00  0.00    -0.005 A 
ATOM      6  C5  UNL d   1       0.044  -0.979   0.367  0.00  0.00    -0.074 A 
ATOM      7  C6  UNL d   1       0.060  -0.270  -0.955  0.00  0.00     0.077 C 
ATOM      8  C7  UNL d   1       0.839  -2.117   0.558  0.00  0.00    -0.001 A 
ENDROOT
TORSDOF 0
ENDMDL
