MODEL 1
REMARK minimizedAffinity -2.40495467
REMARK minimizedRMSD -1
REMARK  0 active torsions:
REMARK  status: ('A' for Active; 'I' for Inactive)
ROOT
ATOM      1  C   UNL d   1       1.859  -3.520   1.481  0.00  0.00     0.077 C 
ATOM      2  C1  UNL d   1       0.794  -2.479   1.660  0.00  0.00    -0.074 A 
ATOM      3  C2  UNL d   1       0.535  -1.925   2.917  0.00  0.00    -0.005 A 
ATOM      4  C3  UNL d   1      -0.453  -0.951   3.067  0.00  0.00     0.006 A 
ATOM      5  C4  UNL d   1      -1.189  -0.522   1.962  0.00  0.00    -0.005 A 
ATOM      6  C5  UNL d   1      -0.943  -1.064   0.697  0.00  0.00    -0.074 A 
ATOM      7  C6  UNL d   1      -1.719  -0.607  -0.503  0.00  0.00     0.077 C 
ATOM      8  C7  UNL d   1       0.055  -2.037   0.553  0.00  0.00    -0.001 A 
ENDROOT
TORSDOF 0
ENDMDL
