MODEL 1
REMARK minimizedAffinity 1.2603389
REMARK minimizedRMSD -1
REMARK  0 active torsions:
REMARK  status: ('A' for Active; 'I' for Inactive)
ROOT
ATOM      1  C   UNL d   1      -4.621  -0.505   1.352  0.00  0.00     0.077 C 
ATOM      2  C1  UNL d   1      -3.148  -0.515   1.067  0.00  0.00    -0.074 A 
ATOM      3  C2  UNL d   1      -2.669  -0.426  -0.244  0.00  0.00    -0.005 A 
ATOM      4  C3  UNL d   1      -1.297  -0.427  -0.493  0.00  0.00     0.006 A 
ATOM      5  C4  UNL d   1      -0.391  -0.517   0.565  0.00  0.00    -0.005 A 
ATOM      6  C5  UNL d   1      -0.851  -0.606   1.882  0.00  0.00    -0.074 A 
ATOM      7  C6  UNL d   1       0.109  -0.693   3.031  0.00  0.00     0.077 C 
ATOM      8  C7  UNL d   1      -2.232  -0.597   2.125  0.00  0.00    -0.001 A 
ENDROOT
TORSDOF 0
ENDMDL
