MODEL 1
REMARK minimizedAffinity 1.46315002
REMARK minimizedRMSD -1
REMARK  0 active torsions:
REMARK  status: ('A' for Active; 'I' for Inactive)
ROOT
ATOM      1  C   UNL d   1       5.211   4.347  -5.726  0.00  0.00     0.023 A 
ATOM      2  C1  UNL d   1       4.879   3.469  -4.694  0.00  0.00     0.003 A 
ATOM      3  C2  UNL d   1       5.105   3.835  -3.365  0.00  0.00     0.048 A 
ATOM      4  C3  UNL d   1       5.663   5.079  -3.076  0.00  0.00     0.023 A 
ATOM      5  C4  UNL d   1       5.996   5.961  -4.105  0.00  0.00     0.048 A 
ATOM      6  C5  UNL d   1       5.769   5.591  -5.432  0.00  0.00     0.003 A 
ATOM      7  I   UNL d   1       6.000   5.626  -1.099  0.00  0.00    -0.146 I 
ENDROOT
TORSDOF 0
ENDMDL
