MODEL 1
REMARK minimizedAffinity 0.733290195
REMARK minimizedRMSD -1
REMARK  0 active torsions:
REMARK  status: ('A' for Active; 'I' for Inactive)
ROOT
ATOM      1  C   UNL d   1      -0.568  -2.488  -3.253  0.00  0.00     0.023 A 
ATOM      2  C1  UNL d   1      -0.737  -2.109  -1.921  0.00  0.00     0.003 A 
ATOM      3  C2  UNL d   1       0.377  -1.833  -1.125  0.00  0.00     0.048 A 
ATOM      4  C3  UNL d   1       1.657  -1.937  -1.668  0.00  0.00     0.023 A 
ATOM      5  C4  UNL d   1       1.831  -2.315  -3.001  0.00  0.00     0.048 A 
ATOM      6  C5  UNL d   1       0.714  -2.591  -3.792  0.00  0.00     0.003 A 
ATOM      7  I   UNL d   1       3.317  -1.527  -0.487  0.00  0.00    -0.146 I 
ENDROOT
TORSDOF 0
ENDMDL
