MODEL 1
REMARK minimizedAffinity 7.03942537
REMARK minimizedRMSD -1
REMARK  0 active torsions:
REMARK  status: ('A' for Active; 'I' for Inactive)
ROOT
ATOM      1  C   UNL d   1       4.035   5.647  -1.685  0.00  0.00     0.023 A 
ATOM      2  C1  UNL d   1       3.189   5.333  -2.749  0.00  0.00     0.003 A 
ATOM      3  C2  UNL d   1       3.726   4.960  -3.983  0.00  0.00     0.048 A 
ATOM      4  C3  UNL d   1       5.109   4.900  -4.145  0.00  0.00     0.023 A 
ATOM      5  C4  UNL d   1       5.960   5.211  -3.083  0.00  0.00     0.048 A 
ATOM      6  C5  UNL d   1       5.419   5.586  -1.852  0.00  0.00     0.003 A 
ATOM      7  I   UNL d   1       5.911   4.343  -5.980  0.00  0.00    -0.146 I 
ENDROOT
TORSDOF 0
ENDMDL
