MODEL 1
REMARK minimizedAffinity 5.10527515
REMARK minimizedRMSD -1
REMARK  0 active torsions:
REMARK  status: ('A' for Active; 'I' for Inactive)
ROOT
ATOM      1  C   UNL d   1      -1.444  -1.923  -1.672  0.00  0.00     0.023 A 
ATOM      2  C1  UNL d   1      -0.384  -2.098  -0.781  0.00  0.00     0.003 A 
ATOM      3  C2  UNL d   1       0.926  -2.165  -1.258  0.00  0.00     0.048 A 
ATOM      4  C3  UNL d   1       1.171  -2.054  -2.626  0.00  0.00     0.023 A 
ATOM      5  C4  UNL d   1       0.114  -1.878  -3.521  0.00  0.00     0.048 A 
ATOM      6  C5  UNL d   1      -1.195  -1.813  -3.040  0.00  0.00     0.003 A 
ATOM      7  I   UNL d   1       3.121  -2.153  -3.339  0.00  0.00    -0.146 I 
ENDROOT
TORSDOF 0
ENDMDL
