MODEL 1
REMARK minimizedAffinity 0.353422552
REMARK minimizedRMSD -1
REMARK  0 active torsions:
REMARK  status: ('A' for Active; 'I' for Inactive)
ROOT
ATOM      1  C   UNL d   1       4.441   3.469  -4.900  0.00  0.00     0.023 A 
ATOM      2  C1  UNL d   1       4.806   2.803  -3.730  0.00  0.00     0.003 A 
ATOM      3  C2  UNL d   1       5.254   3.528  -2.623  0.00  0.00     0.048 A 
ATOM      4  C3  UNL d   1       5.332   4.919  -2.693  0.00  0.00     0.023 A 
ATOM      5  C4  UNL d   1       4.966   5.589  -3.862  0.00  0.00     0.048 A 
ATOM      6  C5  UNL d   1       4.521   4.860  -4.966  0.00  0.00     0.003 A 
ATOM      7  I   UNL d   1       5.997   6.000  -1.047  0.00  0.00    -0.146 I 
ENDROOT
TORSDOF 0
ENDMDL
