MODEL 1
REMARK minimizedAffinity 6.8813324
REMARK minimizedRMSD -1
REMARK  0 active torsions:
REMARK  status: ('A' for Active; 'I' for Inactive)
ROOT
ATOM      1  C   UNL d   1       1.869  -2.218  -4.126  0.00  0.00     0.023 A 
ATOM      2  C1  UNL d   1       2.498  -1.816  -2.948  0.00  0.00     0.003 A 
ATOM      3  C2  UNL d   1       1.742  -1.564  -1.801  0.00  0.00     0.048 A 
ATOM      4  C3  UNL d   1       0.356  -1.717  -1.839  0.00  0.00     0.023 A 
ATOM      5  C4  UNL d   1      -0.278  -2.120  -3.016  0.00  0.00     0.048 A 
ATOM      6  C5  UNL d   1       0.482  -2.370  -4.160  0.00  0.00     0.003 A 
ATOM      7  I   UNL d   1      -0.771  -1.342  -0.134  0.00  0.00    -0.146 I 
ENDROOT
TORSDOF 0
ENDMDL
