MODEL 1
REMARK minimizedAffinity -3.18084168
REMARK minimizedRMSD -1
REMARK  0 active torsions:
REMARK  status: ('A' for Active; 'I' for Inactive)
ROOT
ATOM      1  C   UNL d   1       0.138  -2.529  -3.564  0.00  0.00     0.023 A 
ATOM      2  C1  UNL d   1       0.563  -1.698  -2.528  0.00  0.00     0.003 A 
ATOM      3  C2  UNL d   1      -0.024  -1.798  -1.265  0.00  0.00     0.048 A 
ATOM      4  C3  UNL d   1      -1.035  -2.733  -1.045  0.00  0.00     0.023 A 
ATOM      5  C4  UNL d   1      -1.463  -3.568  -2.078  0.00  0.00     0.048 A 
ATOM      6  C5  UNL d   1      -0.874  -3.463  -3.340  0.00  0.00     0.003 A 
ATOM      7  I   UNL d   1      -1.911  -2.885   0.834  0.00  0.00    -0.146 I 
ENDROOT
TORSDOF 0
ENDMDL
