MODEL 1
REMARK minimizedAffinity -0.165830642
REMARK minimizedRMSD -1
REMARK  0 active torsions:
REMARK  status: ('A' for Active; 'I' for Inactive)
ROOT
ATOM      1  C   UNL d   1      -2.850  -3.037  -0.901  0.00  0.00     0.023 A 
ATOM      2  C1  UNL d   1      -1.759  -2.554  -0.178  0.00  0.00     0.003 A 
ATOM      3  C2  UNL d   1      -0.651  -2.033  -0.850  0.00  0.00     0.048 A 
ATOM      4  C3  UNL d   1      -0.641  -1.996  -2.243  0.00  0.00     0.023 A 
ATOM      5  C4  UNL d   1      -1.731  -2.478  -2.971  0.00  0.00     0.048 A 
ATOM      6  C5  UNL d   1      -2.836  -2.999  -2.295  0.00  0.00     0.003 A 
ATOM      7  I   UNL d   1       1.007  -1.221  -3.245  0.00  0.00    -0.146 I 
ENDROOT
TORSDOF 0
ENDMDL
