MODEL 1
REMARK minimizedAffinity -0.0758700594
REMARK minimizedRMSD -1
REMARK  0 active torsions:
REMARK  status: ('A' for Active; 'I' for Inactive)
ROOT
ATOM      1  C   UNL d   1       4.457   4.152  -4.997  0.00  0.00     0.023 A 
ATOM      2  C1  UNL d   1       3.806   5.252  -4.437  0.00  0.00     0.003 A 
ATOM      3  C2  UNL d   1       4.247   5.782  -3.224  0.00  0.00     0.048 A 
ATOM      4  C3  UNL d   1       5.341   5.210  -2.575  0.00  0.00     0.023 A 
ATOM      5  C4  UNL d   1       5.996   4.110  -3.132  0.00  0.00     0.048 A 
ATOM      6  C5  UNL d   1       5.550   3.582  -4.345  0.00  0.00     0.003 A 
ATOM      7  I   UNL d   1       5.999   5.998  -0.769  0.00  0.00    -0.146 I 
ENDROOT
TORSDOF 0
ENDMDL
