MODEL 1
REMARK minimizedAffinity -0.0667276084
REMARK minimizedRMSD -1
REMARK  0 active torsions:
REMARK  status: ('A' for Active; 'I' for Inactive)
ROOT
ATOM      1  C   UNL d   1      -0.305  -3.235  -3.669  0.00  0.00     0.023 A 
ATOM      2  C1  UNL d   1      -0.891  -4.222  -2.876  0.00  0.00     0.003 A 
ATOM      3  C2  UNL d   1      -1.103  -3.991  -1.515  0.00  0.00     0.048 A 
ATOM      4  C3  UNL d   1      -0.726  -2.772  -0.954  0.00  0.00     0.023 A 
ATOM      5  C4  UNL d   1      -0.140  -1.781  -1.743  0.00  0.00     0.048 A 
ATOM      6  C5  UNL d   1       0.071  -2.016  -3.103  0.00  0.00     0.003 A 
ATOM      7  I   UNL d   1      -1.040  -2.427   1.072  0.00  0.00    -0.146 I 
ENDROOT
TORSDOF 0
ENDMDL
