MODEL 1
REMARK minimizedAffinity 3.12086964
REMARK minimizedRMSD -1
REMARK  0 active torsions:
REMARK  status: ('A' for Active; 'I' for Inactive)
ROOT
ATOM      1  C   UNL d   1      -0.772  -3.265  -4.493  0.00  0.00     0.023 A 
ATOM      2  C1  UNL d   1      -0.471  -2.183  -3.665  0.00  0.00     0.003 A 
ATOM      3  C2  UNL d   1      -0.957  -2.149  -2.356  0.00  0.00     0.048 A 
ATOM      4  C3  UNL d   1      -1.741  -3.200  -1.882  0.00  0.00     0.023 A 
ATOM      5  C4  UNL d   1      -2.044  -4.284  -2.707  0.00  0.00     0.048 A 
ATOM      6  C5  UNL d   1      -1.557  -4.314  -4.015  0.00  0.00     0.003 A 
ATOM      7  I   UNL d   1      -2.465  -3.151   0.066  0.00  0.00    -0.146 I 
ENDROOT
TORSDOF 0
ENDMDL
