MODEL 1
REMARK minimizedAffinity 2.41891789
REMARK minimizedRMSD -1
REMARK  0 active torsions:
REMARK  status: ('A' for Active; 'I' for Inactive)
ROOT
ATOM      1  C   UNL d   1       4.157   4.929  -5.905  0.00  0.00     0.023 A 
ATOM      2  C1  UNL d   1       3.374   5.349  -4.830  0.00  0.00     0.003 A 
ATOM      3  C2  UNL d   1       3.901   5.344  -3.537  0.00  0.00     0.048 A 
ATOM      4  C3  UNL d   1       5.212   4.919  -3.326  0.00  0.00     0.023 A 
ATOM      5  C4  UNL d   1       6.000   4.499  -4.399  0.00  0.00     0.048 A 
ATOM      6  C5  UNL d   1       5.468   4.504  -5.690  0.00  0.00     0.003 A 
ATOM      7  I   UNL d   1       5.999   4.911  -1.402  0.00  0.00    -0.146 I 
ENDROOT
TORSDOF 0
ENDMDL
