MODEL 1
REMARK minimizedAffinity -1.96677542
REMARK minimizedRMSD -1
REMARK  0 active torsions:
REMARK  status: ('A' for Active; 'I' for Inactive)
ROOT
ATOM      1  C   UNL d   1       4.227   5.110  -5.909  0.00  0.00     0.023 A 
ATOM      2  C1  UNL d   1       5.472   4.577  -5.574  0.00  0.00     0.003 A 
ATOM      3  C2  UNL d   1       5.982   4.749  -4.286  0.00  0.00     0.048 A 
ATOM      4  C3  UNL d   1       5.242   5.453  -3.337  0.00  0.00     0.023 A 
ATOM      5  C4  UNL d   1       3.996   5.987  -3.667  0.00  0.00     0.048 A 
ATOM      6  C5  UNL d   1       3.490   5.814  -4.957  0.00  0.00     0.003 A 
ATOM      7  I   UNL d   1       6.000   5.709  -1.419  0.00  0.00    -0.146 I 
ENDROOT
TORSDOF 0
ENDMDL
