MODEL 1
REMARK minimizedAffinity 1.92219114
REMARK minimizedRMSD -1
REMARK  0 active torsions:
REMARK  status: ('A' for Active; 'I' for Inactive)
ROOT
ATOM      1  C   UNL d   1      -1.751   0.799   4.694  0.00  0.00     0.023 A 
ATOM      2  C1  UNL d   1      -2.299  -0.478   4.811  0.00  0.00     0.003 A 
ATOM      3  C2  UNL d   1      -2.321  -1.334   3.708  0.00  0.00     0.048 A 
ATOM      4  C3  UNL d   1      -1.792  -0.906   2.491  0.00  0.00     0.023 A 
ATOM      5  C4  UNL d   1      -1.242   0.371   2.369  0.00  0.00     0.048 A 
ATOM      6  C5  UNL d   1      -1.223   1.223   3.475  0.00  0.00     0.003 A 
ATOM      7  I   UNL d   1      -1.824  -2.178   0.847  0.00  0.00    -0.146 I 
ENDROOT
TORSDOF 0
ENDMDL
