MODEL 1
REMARK minimizedAffinity 5.75286627
REMARK minimizedRMSD -1
REMARK  0 active torsions:
REMARK  status: ('A' for Active; 'I' for Inactive)
ROOT
ATOM      1  C   UNL d   1      -3.143  -3.236   0.151  0.00  0.00     0.023 A 
ATOM      2  C1  UNL d   1      -2.730  -3.595   1.434  0.00  0.00     0.003 A 
ATOM      3  C2  UNL d   1      -1.409  -3.378   1.830  0.00  0.00     0.048 A 
ATOM      4  C3  UNL d   1      -0.506  -2.799   0.938  0.00  0.00     0.023 A 
ATOM      5  C4  UNL d   1      -0.916  -2.437  -0.346  0.00  0.00     0.048 A 
ATOM      6  C5  UNL d   1      -2.237  -2.657  -0.738  0.00  0.00     0.003 A 
ATOM      7  I   UNL d   1       1.461  -2.474   1.525  0.00  0.00    -0.146 I 
ENDROOT
TORSDOF 0
ENDMDL
