MODEL 1
REMARK minimizedAffinity -1.11589622
REMARK minimizedRMSD -1
REMARK  0 active torsions:
REMARK  status: ('A' for Active; 'I' for Inactive)
ROOT
ATOM      1  C   UNL d   1       5.272   4.985  -0.943  0.00  0.00     0.023 A 
ATOM      2  C1  UNL d   1       5.999   5.913  -1.688  0.00  0.00     0.003 A 
ATOM      3  C2  UNL d   1       5.842   5.974  -3.074  0.00  0.00     0.048 A 
ATOM      4  C3  UNL d   1       4.956   5.105  -3.709  0.00  0.00     0.023 A 
ATOM      5  C4  UNL d   1       4.226   4.175  -2.967  0.00  0.00     0.048 A 
ATOM      6  C5  UNL d   1       4.386   4.117  -1.582  0.00  0.00     0.003 A 
ATOM      7  I   UNL d   1       4.722   5.194  -5.772  0.00  0.00    -0.146 I 
ENDROOT
TORSDOF 0
ENDMDL
