MODEL 1
REMARK minimizedAffinity 4.05748367
REMARK minimizedRMSD -1
REMARK  0 active torsions:
REMARK  status: ('A' for Active; 'I' for Inactive)
ROOT
ATOM      1  C   UNL d   1       4.410   1.763   1.846  0.00  0.00     0.172 C 
ATOM      2  N   UNL d   1       3.905   1.138   0.646  0.00  0.00    -0.070 N 
ATOM      3  C1  UNL d   1       4.430   1.282  -0.610  0.00  0.00    -0.004 A 
ATOM      4  C2  UNL d   1       3.666   0.529  -1.475  0.00  0.00    -0.047 A 
ATOM      5  C3  UNL d   1       2.647  -0.089  -0.712  0.00  0.00    -0.047 A 
ATOM      6  C4  UNL d   1       2.819   0.305   0.598  0.00  0.00    -0.004 A 
ENDROOT
TORSDOF 0
ENDMDL
