MODEL 1
REMARK minimizedAffinity 9.03401566
REMARK minimizedRMSD -1
REMARK  0 active torsions:
REMARK  status: ('A' for Active; 'I' for Inactive)
ROOT
ATOM      1  C   UNL d   1      -1.782   2.065   0.885  0.00  0.00     0.172 C 
ATOM      2  N   UNL d   1      -0.566   1.333   0.617  0.00  0.00    -0.070 N 
ATOM      3  C1  UNL d   1      -0.033   1.098  -0.622  0.00  0.00    -0.004 A 
ATOM      4  C2  UNL d   1       1.124   0.370  -0.452  0.00  0.00    -0.047 A 
ATOM      5  C3  UNL d   1       1.292   0.158   0.937  0.00  0.00    -0.047 A 
ATOM      6  C4  UNL d   1       0.231   0.765   1.576  0.00  0.00    -0.004 A 
ENDROOT
TORSDOF 0
ENDMDL
