MODEL 1
REMARK minimizedAffinity 2.62277436
REMARK minimizedRMSD -1
REMARK  0 active torsions:
REMARK  status: ('A' for Active; 'I' for Inactive)
ROOT
ATOM      1  C   UNL d   1       6.000   2.919   1.097  0.00  0.00     0.172 C 
ATOM      2  N   UNL d   1       5.279   2.081   0.168  0.00  0.00    -0.070 N 
ATOM      3  C1  UNL d   1       4.118   1.406   0.437  0.00  0.00    -0.004 A 
ATOM      4  C2  UNL d   1       3.751   0.726  -0.704  0.00  0.00    -0.047 A 
ATOM      5  C3  UNL d   1       4.725   1.001  -1.693  0.00  0.00    -0.047 A 
ATOM      6  C4  UNL d   1       5.659   1.843  -1.127  0.00  0.00    -0.004 A 
ENDROOT
TORSDOF 0
ENDMDL
