MODEL 1
REMARK minimizedAffinity 6.29133511
REMARK minimizedRMSD -1
REMARK  0 active torsions:
REMARK  status: ('A' for Active; 'I' for Inactive)
ROOT
ATOM      1  C   UNL d   1       5.999   5.511  -1.090  0.00  0.00     0.172 C 
ATOM      2  N   UNL d   1       5.999   4.153  -0.599  0.00  0.00    -0.070 N 
ATOM      3  C1  UNL d   1       5.997   3.024  -1.375  0.00  0.00    -0.004 A 
ATOM      4  C2  UNL d   1       5.998   1.933  -0.533  0.00  0.00    -0.047 A 
ATOM      5  C3  UNL d   1       5.999   2.423   0.795  0.00  0.00    -0.047 A 
ATOM      6  C4  UNL d   1       6.000   3.800   0.724  0.00  0.00    -0.004 A 
ENDROOT
TORSDOF 0
ENDMDL
