MODEL 1
REMARK minimizedAffinity 10.3701315
REMARK minimizedRMSD -1
REMARK  0 active torsions:
REMARK  status: ('A' for Active; 'I' for Inactive)
ROOT
ATOM      1  C   UNL d   1       5.254   0.863  -2.491  0.00  0.00     0.172 C 
ATOM      2  N   UNL d   1       4.238   0.354  -1.600  0.00  0.00    -0.070 N 
ATOM      3  C1  UNL d   1       3.415   1.112  -0.812  0.00  0.00    -0.004 A 
ATOM      4  C2  UNL d   1       2.591   0.255  -0.115  0.00  0.00    -0.047 A 
ATOM      5  C3  UNL d   1       2.932  -1.064  -0.497  0.00  0.00    -0.047 A 
ATOM      6  C4  UNL d   1       3.954  -0.974  -1.417  0.00  0.00    -0.004 A 
ENDROOT
TORSDOF 0
ENDMDL
