MODEL 1
REMARK minimizedAffinity 5.3109498
REMARK minimizedRMSD -1
REMARK  0 active torsions:
REMARK  status: ('A' for Active; 'I' for Inactive)
ROOT
ATOM      1  C   UNL d   1      -0.191   1.223  -0.912  0.00  0.00     0.172 C 
ATOM      2  N   UNL d   1      -1.136   1.825  -0.001  0.00  0.00    -0.070 N 
ATOM      3  C1  UNL d   1      -0.978   3.030   0.631  0.00  0.00    -0.004 A 
ATOM      4  C2  UNL d   1      -2.094   3.247   1.410  0.00  0.00    -0.047 A 
ATOM      5  C3  UNL d   1      -2.952   2.134   1.241  0.00  0.00    -0.047 A 
ATOM      6  C4  UNL d   1      -2.334   1.269   0.363  0.00  0.00    -0.004 A 
ENDROOT
TORSDOF 0
ENDMDL
