MODEL 1
REMARK minimizedAffinity 2.57105088
REMARK minimizedRMSD -1
REMARK  0 active torsions:
REMARK  status: ('A' for Active; 'I' for Inactive)
ROOT
ATOM      1  C   UNL d   1       1.058   1.323   1.661  0.00  0.00     0.172 C 
ATOM      2  N   UNL d   1       1.915   0.703   0.679  0.00  0.00    -0.070 N 
ATOM      3  C1  UNL d   1       3.200   1.079   0.390  0.00  0.00    -0.004 A 
ATOM      4  C2  UNL d   1       3.672   0.243  -0.599  0.00  0.00    -0.047 A 
ATOM      5  C3  UNL d   1       2.635  -0.666  -0.916  0.00  0.00    -0.047 A 
ATOM      6  C4  UNL d   1       1.559  -0.359  -0.110  0.00  0.00    -0.004 A 
ENDROOT
TORSDOF 0
ENDMDL
