MODEL 1
REMARK minimizedAffinity 1.48957682
REMARK minimizedRMSD -1
REMARK  0 active torsions:
REMARK  status: ('A' for Active; 'I' for Inactive)
ROOT
ATOM      1  C   UNL d   1       5.997   2.388  -0.382  0.00  0.00     0.172 C 
ATOM      2  N   UNL d   1       5.389   1.078  -0.392  0.00  0.00    -0.070 N 
ATOM      3  C1  UNL d   1       6.000  -0.089  -0.016  0.00  0.00    -0.004 A 
ATOM      4  C2  UNL d   1       5.088  -1.111  -0.169  0.00  0.00    -0.047 A 
ATOM      5  C3  UNL d   1       3.888  -0.539  -0.654  0.00  0.00    -0.047 A 
ATOM      6  C4  UNL d   1       4.102   0.817  -0.783  0.00  0.00    -0.004 A 
ENDROOT
TORSDOF 0
ENDMDL
