MODEL 1
REMARK minimizedAffinity 9.16812515
REMARK minimizedRMSD -1
REMARK  0 active torsions:
REMARK  status: ('A' for Active; 'I' for Inactive)
ROOT
ATOM      1  C   UNL d   1       5.391   2.352  -0.965  0.00  0.00     0.172 C 
ATOM      2  N   UNL d   1       5.638   3.551  -0.198  0.00  0.00    -0.070 N 
ATOM      3  C1  UNL d   1       5.773   3.614   1.163  0.00  0.00    -0.004 A 
ATOM      4  C2  UNL d   1       5.998   4.930   1.505  0.00  0.00    -0.047 A 
ATOM      5  C3  UNL d   1       5.996   5.684   0.307  0.00  0.00    -0.047 A 
ATOM      6  C4  UNL d   1       5.771   4.805  -0.731  0.00  0.00    -0.004 A 
ENDROOT
TORSDOF 0
ENDMDL
