MODEL 1
REMARK minimizedAffinity -0.539812922
REMARK minimizedRMSD -1
REMARK  0 active torsions:
REMARK  status: ('A' for Active; 'I' for Inactive)
ROOT
ATOM      1  C   UNL d   1       0.596  -2.897   4.125  0.00  0.00     0.172 C 
ATOM      2  N   UNL d   1       0.703  -4.120   4.884  0.00  0.00    -0.070 N 
ATOM      3  C1  UNL d   1       1.871  -4.705   5.295  0.00  0.00    -0.004 A 
ATOM      4  C2  UNL d   1       1.547  -5.851   5.989  0.00  0.00    -0.047 A 
ATOM      5  C3  UNL d   1       0.136  -5.959   5.995  0.00  0.00    -0.047 A 
ATOM      6  C4  UNL d   1      -0.361  -4.874   5.304  0.00  0.00    -0.004 A 
ENDROOT
TORSDOF 0
ENDMDL
