MODEL 1
REMARK minimizedAffinity 3.79318023
REMARK minimizedRMSD -1
REMARK  1 active torsions:
REMARK  status: ('A' for Active; 'I' for Inactive)
REMARK    1  A    between atoms: C1_2  and  C2_3 
ROOT
ATOM      1  C2  UNL d   1      -3.282   2.028  -2.805  0.00  0.00    -0.077 A 
ATOM      2  C3  UNL d   1      -3.615   2.726  -3.974  0.00  0.00     0.002 A 
ATOM      3  C4  UNL d   1      -4.444   3.848  -3.915  0.00  0.00     0.002 A 
ATOM      4  C5  UNL d   1      -4.944   4.283  -2.690  0.00  0.00    -0.004 A 
ATOM      5  C6  UNL d   1      -4.621   3.594  -1.522  0.00  0.00     0.002 A 
ATOM      6  C7  UNL d   1      -3.793   2.472  -1.579  0.00  0.00     0.002 A 
ENDROOT
BRANCH   1   7
ATOM      7  C1  UNL d   1      -2.348   0.847  -2.861  0.00  0.00     0.055 C 
ATOM      8  C   UNL d   1      -2.998  -0.341  -3.555  0.00  0.00     0.019 C 
ENDBRANCH   1   7
TORSDOF 1
ENDMDL
