MODEL 1
REMARK minimizedAffinity -3.31698132
REMARK minimizedRMSD -1
REMARK  1 active torsions:
REMARK  status: ('A' for Active; 'I' for Inactive)
REMARK    1  A    between atoms: C1_2  and  C2_3 
ROOT
ATOM      1  C2  UNL d   1       1.777  -2.681   1.543  0.00  0.00    -0.077 A 
ATOM      2  C3  UNL d   1       2.258  -3.684   2.396  0.00  0.00     0.002 A 
ATOM      3  C4  UNL d   1       2.537  -3.399   3.734  0.00  0.00     0.002 A 
ATOM      4  C5  UNL d   1       2.334  -2.113   4.231  0.00  0.00    -0.004 A 
ATOM      5  C6  UNL d   1       1.857  -1.108   3.390  0.00  0.00     0.002 A 
ATOM      6  C7  UNL d   1       1.579  -1.391   2.052  0.00  0.00     0.002 A 
ENDROOT
BRANCH   1   7
ATOM      7  C1  UNL d   1       1.429  -2.999   0.112  0.00  0.00     0.055 C 
ATOM      8  C   UNL d   1       0.594  -1.891  -0.514  0.00  0.00     0.019 C 
ENDBRANCH   1   7
TORSDOF 1
ENDMDL
