MODEL 1
REMARK minimizedAffinity 3.79199195
REMARK minimizedRMSD -1
REMARK  1 active torsions:
REMARK  status: ('A' for Active; 'I' for Inactive)
REMARK    1  A    between atoms: C1_2  and  C2_3 
ROOT
ATOM      1  C2  UNL d   1       1.713  -2.115   1.275  0.00  0.00    -0.077 A 
ATOM      2  C3  UNL d   1       2.202  -3.283   1.877  0.00  0.00     0.002 A 
ATOM      3  C4  UNL d   1       2.488  -3.307   3.243  0.00  0.00     0.002 A 
ATOM      4  C5  UNL d   1       2.284  -2.168   4.019  0.00  0.00    -0.004 A 
ATOM      5  C6  UNL d   1       1.800  -1.001   3.430  0.00  0.00     0.002 A 
ATOM      6  C7  UNL d   1       1.515  -0.975   2.064  0.00  0.00     0.002 A 
ENDROOT
BRANCH   1   7
ATOM      7  C1  UNL d   1       1.358  -2.102  -0.189  0.00  0.00     0.055 C 
ATOM      8  C   UNL d   1      -0.061  -1.599  -0.410  0.00  0.00     0.019 C 
ENDBRANCH   1   7
TORSDOF 1
ENDMDL
