MODEL 1
REMARK minimizedAffinity 5.7350111
REMARK minimizedRMSD -1
REMARK  1 active torsions:
REMARK  status: ('A' for Active; 'I' for Inactive)
REMARK    1  A    between atoms: C1_2  and  C2_3 
ROOT
ATOM      1  C2  UNL d   1       1.484  -0.812   1.643  0.00  0.00    -0.077 A 
ATOM      2  C3  UNL d   1       0.096  -0.692   1.804  0.00  0.00     0.002 A 
ATOM      3  C4  UNL d   1      -0.770  -1.072   0.777  0.00  0.00     0.002 A 
ATOM      4  C5  UNL d   1      -0.258  -1.576  -0.417  0.00  0.00    -0.004 A 
ATOM      5  C6  UNL d   1       1.120  -1.697  -0.588  0.00  0.00     0.002 A 
ATOM      6  C7  UNL d   1       1.987  -1.317   0.437  0.00  0.00     0.002 A 
ENDROOT
BRANCH   1   7
ATOM      7  C1  UNL d   1       2.417  -0.450   2.768  0.00  0.00     0.055 C 
ATOM      8  C   UNL d   1       1.976  -1.083   4.080  0.00  0.00     0.019 C 
ENDBRANCH   1   7
TORSDOF 1
ENDMDL
