MODEL 1
REMARK minimizedAffinity 6.11544371
REMARK minimizedRMSD -1
REMARK  1 active torsions:
REMARK  status: ('A' for Active; 'I' for Inactive)
REMARK    1  A    between atoms: C1_2  and  C2_3 
ROOT
ATOM      1  C2  UNL d   1       2.930  -0.455   2.268  0.00  0.00    -0.077 A 
ATOM      2  C3  UNL d   1       1.742  -0.158   2.950  0.00  0.00     0.002 A 
ATOM      3  C4  UNL d   1       1.317  -0.961   4.011  0.00  0.00     0.002 A 
ATOM      4  C5  UNL d   1       2.077  -2.061   4.402  0.00  0.00    -0.004 A 
ATOM      5  C6  UNL d   1       3.259  -2.366   3.728  0.00  0.00     0.002 A 
ATOM      6  C7  UNL d   1       3.684  -1.566   2.667  0.00  0.00     0.002 A 
ENDROOT
BRANCH   1   7
ATOM      7  C1  UNL d   1       3.415   0.438   1.156  0.00  0.00     0.055 C 
ATOM      8  C   UNL d   1       3.045   1.892   1.411  0.00  0.00     0.019 C 
ENDBRANCH   1   7
TORSDOF 1
ENDMDL
