MODEL 1
REMARK minimizedAffinity 8.53310966
REMARK minimizedRMSD -1
REMARK  1 active torsions:
REMARK  status: ('A' for Active; 'I' for Inactive)
REMARK    1  A    between atoms: C1_2  and  C2_3 
ROOT
ATOM      1  C2  UNL d   1       2.763   0.520   2.268  0.00  0.00    -0.077 A 
ATOM      2  C3  UNL d   1       3.089  -0.023   3.519  0.00  0.00     0.002 A 
ATOM      3  C4  UNL d   1       2.615  -1.283   3.887  0.00  0.00     0.002 A 
ATOM      4  C5  UNL d   1       1.815  -2.012   3.009  0.00  0.00    -0.004 A 
ATOM      5  C6  UNL d   1       1.483  -1.480   1.764  0.00  0.00     0.002 A 
ATOM      6  C7  UNL d   1       1.955  -0.220   1.395  0.00  0.00     0.002 A 
ENDROOT
BRANCH   1   7
ATOM      7  C1  UNL d   1       3.314   1.858   1.849  0.00  0.00     0.055 C 
ATOM      8  C   UNL d   1       2.986   2.161   0.394  0.00  0.00     0.019 C 
ENDBRANCH   1   7
TORSDOF 1
ENDMDL
