MODEL 1
REMARK minimizedAffinity 6.97790766
REMARK minimizedRMSD -1
REMARK  1 active torsions:
REMARK  status: ('A' for Active; 'I' for Inactive)
REMARK    1  A    between atoms: C1_2  and  C2_3 
ROOT
ATOM      1  C2  UNL d   1       3.679  -1.006   2.198  0.00  0.00    -0.077 A 
ATOM      2  C3  UNL d   1       2.951   0.191   2.158  0.00  0.00     0.002 A 
ATOM      3  C4  UNL d   1       1.782   0.333   2.908  0.00  0.00     0.002 A 
ATOM      4  C5  UNL d   1       1.334  -0.717   3.708  0.00  0.00    -0.004 A 
ATOM      5  C6  UNL d   1       2.050  -1.912   3.754  0.00  0.00     0.002 A 
ATOM      6  C7  UNL d   1       3.218  -2.056   3.003  0.00  0.00     0.002 A 
ENDROOT
BRANCH   1   7
ATOM      7  C1  UNL d   1       4.966  -1.144   1.428  0.00  0.00     0.055 C 
ATOM      8  C   UNL d   1       5.989  -1.964   2.200  0.00  0.00     0.019 C 
ENDBRANCH   1   7
TORSDOF 1
ENDMDL
