MODEL 1
REMARK minimizedAffinity -2.32203126
REMARK minimizedRMSD -1
REMARK  2 active torsions:
REMARK  status: ('A' for Active; 'I' for Inactive)
REMARK    1  A    between atoms: C1_2  and  C2_3 
REMARK    2  A    between atoms: C2_3  and  C3_4 
ROOT
ATOM      1  C3  UNL d   1       0.372   0.160  -0.009  0.00  0.00    -0.075 A 
ATOM      2  C4  UNL d   1       1.130   1.262   0.413  0.00  0.00     0.002 A 
ATOM      3  C5  UNL d   1       2.482   1.114   0.726  0.00  0.00     0.002 A 
ATOM      4  C6  UNL d   1       3.089  -0.137   0.632  0.00  0.00    -0.004 A 
ATOM      5  C7  UNL d   1       2.341  -1.241   0.229  0.00  0.00     0.002 A 
ATOM      6  C8  UNL d   1       0.990  -1.095  -0.089  0.00  0.00     0.002 A 
ENDROOT
BRANCH   1   7
ATOM      7  C2  UNL d   1      -1.083   0.320  -0.378  0.00  0.00     0.056 C 
BRANCH   7   8
ATOM      8  C1  UNL d   1      -1.393   0.005  -1.845  0.00  0.00     0.007 C 
ATOM      9  C   UNL d   1      -2.251   1.068  -2.519  0.00  0.00     0.009 C 
ENDBRANCH   7   8
ENDBRANCH   1   7
TORSDOF 2
ENDMDL
