MODEL 1
REMARK minimizedAffinity -4.12384605
REMARK minimizedRMSD -1
REMARK  2 active torsions:
REMARK  status: ('A' for Active; 'I' for Inactive)
REMARK    1  A    between atoms: C1_2  and  C2_3 
REMARK    2  A    between atoms: C2_3  and  C3_4 
ROOT
ATOM      1  C3  UNL d   1       0.164   0.047  -0.091  0.00  0.00    -0.075 A 
ATOM      2  C4  UNL d   1       1.115   1.076  -0.028  0.00  0.00     0.002 A 
ATOM      3  C5  UNL d   1       2.412   0.816   0.415  0.00  0.00     0.002 A 
ATOM      4  C6  UNL d   1       2.772  -0.471   0.809  0.00  0.00    -0.004 A 
ATOM      5  C7  UNL d   1       1.831  -1.497   0.766  0.00  0.00     0.002 A 
ATOM      6  C8  UNL d   1       0.534  -1.241   0.320  0.00  0.00     0.002 A 
ENDROOT
BRANCH   1   7
ATOM      7  C2  UNL d   1      -1.233   0.316  -0.597  0.00  0.00     0.056 C 
BRANCH   7   8
ATOM      8  C1  UNL d   1      -1.632  -0.534  -1.808  0.00  0.00     0.007 C 
ATOM      9  C   UNL d   1      -2.533   0.205  -2.788  0.00  0.00     0.009 C 
ENDBRANCH   7   8
ENDBRANCH   1   7
TORSDOF 2
ENDMDL
