MODEL 1
REMARK minimizedAffinity -5.47317076
REMARK minimizedRMSD -1
REMARK  2 active torsions:
REMARK  status: ('A' for Active; 'I' for Inactive)
REMARK    1  A    between atoms: C1_2  and  C2_3 
REMARK    2  A    between atoms: C2_3  and  C3_4 
ROOT
ATOM      1  C3  UNL d   1       1.194  -0.014   0.622  0.00  0.00    -0.075 A 
ATOM      2  C4  UNL d   1       1.132  -1.340   1.076  0.00  0.00     0.002 A 
ATOM      3  C5  UNL d   1       2.278  -1.983   1.544  0.00  0.00     0.002 A 
ATOM      4  C6  UNL d   1       3.500  -1.314   1.556  0.00  0.00    -0.004 A 
ATOM      5  C7  UNL d   1       3.577  -0.002   1.092  0.00  0.00     0.002 A 
ATOM      6  C8  UNL d   1       2.431   0.645   0.627  0.00  0.00     0.002 A 
ENDROOT
BRANCH   1   7
ATOM      7  C2  UNL d   1      -0.048   0.697   0.141  0.00  0.00     0.056 C 
BRANCH   7   8
ATOM      8  C1  UNL d   1      -1.261  -0.222  -0.041  0.00  0.00     0.007 C 
ATOM      9  C   UNL d   1      -2.049   0.071  -1.311  0.00  0.00     0.009 C 
ENDBRANCH   7   8
ENDBRANCH   1   7
TORSDOF 2
ENDMDL
