MODEL 1
REMARK minimizedAffinity -4.75005341
REMARK minimizedRMSD -1
REMARK  2 active torsions:
REMARK  status: ('A' for Active; 'I' for Inactive)
REMARK    1  A    between atoms: C1_2  and  C2_3 
REMARK    2  A    between atoms: C2_3  and  C3_4 
ROOT
ATOM      1  C3  UNL d   1      -0.127   0.076   0.240  0.00  0.00    -0.075 A 
ATOM      2  C4  UNL d   1       0.142  -1.084   0.981  0.00  0.00     0.002 A 
ATOM      3  C5  UNL d   1       1.366  -1.240   1.632  0.00  0.00     0.002 A 
ATOM      4  C6  UNL d   1       2.339  -0.246   1.541  0.00  0.00    -0.004 A 
ATOM      5  C7  UNL d   1       2.088   0.902   0.794  0.00  0.00     0.002 A 
ATOM      6  C8  UNL d   1       0.863   1.063   0.145  0.00  0.00     0.002 A 
ENDROOT
BRANCH   1   7
ATOM      7  C2  UNL d   1      -1.461   0.264  -0.442  0.00  0.00     0.056 C 
BRANCH   7   8
ATOM      8  C1  UNL d   1      -1.677  -0.649  -1.654  0.00  0.00     0.007 C 
ATOM      9  C   UNL d   1      -2.553  -0.022  -2.730  0.00  0.00     0.009 C 
ENDBRANCH   7   8
ENDBRANCH   1   7
TORSDOF 2
ENDMDL
