MODEL 1
REMARK minimizedAffinity -5.56370735
REMARK minimizedRMSD -1
REMARK  2 active torsions:
REMARK  status: ('A' for Active; 'I' for Inactive)
REMARK    1  A    between atoms: C1_2  and  C2_3 
REMARK    2  A    between atoms: C2_3  and  C3_4 
ROOT
ATOM      1  C3  UNL d   1      -0.084  -0.046   0.066  0.00  0.00    -0.075 A 
ATOM      2  C4  UNL d   1       0.642   1.139  -0.121  0.00  0.00     0.002 A 
ATOM      3  C5  UNL d   1       1.989   1.210   0.235  0.00  0.00     0.002 A 
ATOM      4  C6  UNL d   1       2.624   0.101   0.791  0.00  0.00    -0.004 A 
ATOM      5  C7  UNL d   1       1.909  -1.076   0.997  0.00  0.00     0.002 A 
ATOM      6  C8  UNL d   1       0.562  -1.151   0.637  0.00  0.00     0.002 A 
ENDROOT
BRANCH   1   7
ATOM      7  C2  UNL d   1      -1.534  -0.138  -0.345  0.00  0.00     0.056 C 
BRANCH   7   8
ATOM      8  C1  UNL d   1      -1.767   0.027  -1.850  0.00  0.00     0.007 C 
ATOM      9  C   UNL d   1      -3.220   0.314  -2.205  0.00  0.00     0.009 C 
ENDBRANCH   7   8
ENDBRANCH   1   7
TORSDOF 2
ENDMDL
