MODEL 1
REMARK minimizedAffinity -4.92112684
REMARK minimizedRMSD -1
REMARK  2 active torsions:
REMARK  status: ('A' for Active; 'I' for Inactive)
REMARK    1  A    between atoms: C1_2  and  C2_3 
REMARK    2  A    between atoms: C2_3  and  C3_4 
ROOT
ATOM      1  C3  UNL d   1      -0.014   0.000   0.007  0.00  0.00    -0.075 A 
ATOM      2  C4  UNL d   1       0.535   1.237   0.376  0.00  0.00     0.002 A 
ATOM      3  C5  UNL d   1       1.835   1.315   0.874  0.00  0.00     0.002 A 
ATOM      4  C6  UNL d   1       2.599   0.159   1.020  0.00  0.00    -0.004 A 
ATOM      5  C7  UNL d   1       2.058  -1.077   0.673  0.00  0.00     0.002 A 
ATOM      6  C8  UNL d   1       0.759  -1.158   0.170  0.00  0.00     0.002 A 
ENDROOT
BRANCH   1   7
ATOM      7  C2  UNL d   1      -1.410  -0.088  -0.561  0.00  0.00     0.056 C 
BRANCH   7   8
ATOM      8  C1  UNL d   1      -1.526  -0.988  -1.795  0.00  0.00     0.007 C 
ATOM      9  C   UNL d   1      -2.391  -0.389  -2.896  0.00  0.00     0.009 C 
ENDBRANCH   7   8
ENDBRANCH   1   7
TORSDOF 2
ENDMDL
