MODEL 1
REMARK minimizedAffinity -5.94155216
REMARK minimizedRMSD -1
REMARK  2 active torsions:
REMARK  status: ('A' for Active; 'I' for Inactive)
REMARK    1  A    between atoms: C1_2  and  C2_3 
REMARK    2  A    between atoms: C2_3  and  C3_4 
ROOT
ATOM      1  C3  UNL d   1       0.010  -0.341   0.357  0.00  0.00    -0.075 A 
ATOM      2  C4  UNL d   1       0.948  -1.368   0.173  0.00  0.00     0.002 A 
ATOM      3  C5  UNL d   1       2.286  -1.176   0.521  0.00  0.00     0.002 A 
ATOM      4  C6  UNL d   1       2.704   0.045   1.046  0.00  0.00    -0.004 A 
ATOM      5  C7  UNL d   1       1.784   1.077   1.217  0.00  0.00     0.002 A 
ATOM      6  C8  UNL d   1       0.444   0.886   0.874  0.00  0.00     0.002 A 
ENDROOT
BRANCH   1   7
ATOM      7  C2  UNL d   1      -1.444  -0.553   0.010  0.00  0.00     0.056 C 
BRANCH   7   8
ATOM      8  C1  UNL d   1      -1.894   0.176  -1.261  0.00  0.00     0.007 C 
ATOM      9  C   UNL d   1      -2.184  -0.766  -2.422  0.00  0.00     0.009 C 
ENDBRANCH   7   8
ENDBRANCH   1   7
TORSDOF 2
ENDMDL
