MODEL 1
REMARK minimizedAffinity 2.7715745
REMARK minimizedRMSD -1
REMARK  0 active torsions:
REMARK  status: ('A' for Active; 'I' for Inactive)
ROOT
ATOM      1  N1  IND d   1       5.241  -3.862  -5.945  0.00  0.00    -0.196 N 
ATOM      2  C2  IND d   1       5.990  -5.005  -6.000  0.00  0.00     0.054 A 
ATOM      3  C3  IND d   1       5.384  -5.998  -5.311  0.00  0.00    -0.031 A 
ATOM      4  C4  IND d   1       3.110  -5.999  -4.104  0.00  0.00     0.051 A 
ATOM      5  C5  IND d   1       2.078  -5.177  -3.750  0.00  0.00    -0.031 A 
ATOM      6  C6  IND d   1       2.046  -3.847  -4.119  0.00  0.00     0.015 A 
ATOM      7  C7  IND d   1       3.043  -3.292  -4.869  0.00  0.00    -0.016 A 
ATOM      8  C8  IND d   1       4.096  -4.123  -5.225  0.00  0.00    -0.047 A 
ATOM      9  C9  IND d   1       4.156  -5.462  -4.817  0.00  0.00    -0.096 A 
ATOM     10  HN1 IND d   1       5.450  -3.108  -6.301  0.00  0.00     0.298 HD
ENDROOT
TORSDOF 0
ENDMDL
