MODEL 1
REMARK minimizedAffinity -2.45247078
REMARK minimizedRMSD -1
REMARK  0 active torsions:
REMARK  status: ('A' for Active; 'I' for Inactive)
ROOT
ATOM      1  N1  IND d   1      -0.580   5.292  -5.990  0.00  0.00    -0.196 N 
ATOM      2  C2  IND d   1      -1.437   4.227  -5.984  0.00  0.00     0.054 A 
ATOM      3  C3  IND d   1      -0.744   3.066  -5.995  0.00  0.00    -0.031 A 
ATOM      4  C4  IND d   1       1.800   2.678  -5.920  0.00  0.00     0.051 A 
ATOM      5  C5  IND d   1       2.992   3.345  -5.953  0.00  0.00    -0.031 A 
ATOM      6  C6  IND d   1       3.057   4.723  -5.998  0.00  0.00     0.015 A 
ATOM      7  C7  IND d   1       1.926   5.489  -6.000  0.00  0.00    -0.016 A 
ATOM      8  C8  IND d   1       0.713   4.815  -5.974  0.00  0.00    -0.047 A 
ATOM      9  C9  IND d   1       0.641   3.416  -5.972  0.00  0.00    -0.096 A 
ATOM     10  HN1 IND d   1      -0.809   6.121  -6.001  0.00  0.00     0.298 HD
ENDROOT
TORSDOF 0
ENDMDL
