MODEL 1
REMARK minimizedAffinity -1.1486783
REMARK minimizedRMSD -1
REMARK  0 active torsions:
REMARK  status: ('A' for Active; 'I' for Inactive)
ROOT
ATOM      1  N1  IND d   1      -3.683   4.724  -5.913  0.00  0.00    -0.196 N 
ATOM      2  C2  IND d   1      -3.986   3.391  -5.922  0.00  0.00     0.054 A 
ATOM      3  C3  IND d   1      -2.856   2.651  -5.974  0.00  0.00    -0.031 A 
ATOM      4  C4  IND d   1      -0.398   3.417  -5.951  0.00  0.00     0.051 A 
ATOM      5  C5  IND d   1       0.381   4.539  -5.985  0.00  0.00    -0.031 A 
ATOM      6  C6  IND d   1      -0.166   5.806  -5.994  0.00  0.00     0.015 A 
ATOM      7  C7  IND d   1      -1.518   5.999  -5.959  0.00  0.00    -0.016 A 
ATOM      8  C8  IND d   1      -2.312   4.861  -5.931  0.00  0.00    -0.047 A 
ATOM      9  C9  IND d   1      -1.764   3.572  -5.964  0.00  0.00    -0.096 A 
ATOM     10  HN1 IND d   1      -4.252   5.368  -5.900  0.00  0.00     0.298 HD
ENDROOT
TORSDOF 0
ENDMDL
