MODEL 1
REMARK minimizedAffinity -1.30175531
REMARK minimizedRMSD -1
REMARK  0 active torsions:
REMARK  status: ('A' for Active; 'I' for Inactive)
ROOT
ATOM      1  N1  IND d   1       4.700   5.755  -5.964  0.00  0.00    -0.196 N 
ATOM      2  C2  IND d   1       5.970   5.249  -5.922  0.00  0.00     0.054 A 
ATOM      3  C3  IND d   1       5.938   3.898  -5.886  0.00  0.00    -0.031 A 
ATOM      4  C4  IND d   1       3.916   2.307  -5.988  0.00  0.00     0.051 A 
ATOM      5  C5  IND d   1       2.550   2.301  -5.996  0.00  0.00    -0.031 A 
ATOM      6  C6  IND d   1       1.815   3.469  -5.996  0.00  0.00     0.015 A 
ATOM      7  C7  IND d   1       2.423   4.693  -5.999  0.00  0.00    -0.016 A 
ATOM      8  C8  IND d   1       3.811   4.703  -5.985  0.00  0.00    -0.047 A 
ATOM      9  C9  IND d   1       4.561   3.521  -5.942  0.00  0.00    -0.096 A 
ATOM     10  HN1 IND d   1       4.493   6.589  -5.974  0.00  0.00     0.298 HD
ENDROOT
TORSDOF 0
ENDMDL
