MODEL 1
REMARK minimizedAffinity -3.40167904
REMARK minimizedRMSD -1
REMARK  0 active torsions:
REMARK  status: ('A' for Active; 'I' for Inactive)
ROOT
ATOM      1  N1  IND d   1      -0.097   5.630  -5.944  0.00  0.00    -0.196 N 
ATOM      2  C2  IND d   1       0.702   4.521  -5.915  0.00  0.00     0.054 A 
ATOM      3  C3  IND d   1      -0.051   3.399  -5.892  0.00  0.00    -0.031 A 
ATOM      4  C4  IND d   1      -2.610   3.144  -5.999  0.00  0.00     0.051 A 
ATOM      5  C5  IND d   1      -3.766   3.873  -5.998  0.00  0.00    -0.031 A 
ATOM      6  C6  IND d   1      -3.758   5.253  -5.982  0.00  0.00     0.015 A 
ATOM      7  C7  IND d   1      -2.588   5.958  -5.977  0.00  0.00    -0.016 A 
ATOM      8  C8  IND d   1      -1.412   5.221  -5.970  0.00  0.00    -0.047 A 
ATOM      9  C9  IND d   1      -1.415   3.820  -5.944  0.00  0.00    -0.096 A 
ATOM     10  HN1 IND d   1       0.176   6.445  -5.945  0.00  0.00     0.298 HD
ENDROOT
TORSDOF 0
ENDMDL
