MODEL 1
REMARK minimizedAffinity -0.185684174
REMARK minimizedRMSD -1
REMARK  0 active torsions:
REMARK  status: ('A' for Active; 'I' for Inactive)
ROOT
ATOM      1  N1  IND d   1      -1.759   4.716  -5.863  0.00  0.00    -0.196 N 
ATOM      2  C2  IND d   1      -1.285   5.997  -5.844  0.00  0.00     0.054 A 
ATOM      3  C3  IND d   1       0.067   5.999  -5.852  0.00  0.00    -0.031 A 
ATOM      4  C4  IND d   1       1.704   4.017  -5.997  0.00  0.00     0.051 A 
ATOM      5  C5  IND d   1       1.744   2.651  -5.999  0.00  0.00    -0.031 A 
ATOM      6  C6  IND d   1       0.595   1.888  -5.956  0.00  0.00     0.015 A 
ATOM      7  C7  IND d   1      -0.643   2.465  -5.923  0.00  0.00    -0.016 A 
ATOM      8  C8  IND d   1      -0.687   3.852  -5.914  0.00  0.00    -0.047 A 
ATOM      9  C9  IND d   1       0.477   4.631  -5.914  0.00  0.00    -0.096 A 
ATOM     10  HN1 IND d   1      -2.588   4.487  -5.845  0.00  0.00     0.298 HD
ENDROOT
TORSDOF 0
ENDMDL
