MODEL 1
REMARK minimizedAffinity -3.30439401
REMARK minimizedRMSD -1
REMARK  0 active torsions:
REMARK  status: ('A' for Active; 'I' for Inactive)
ROOT
ATOM      1  N1  IND d   1      -0.238   2.490  -6.000  0.00  0.00    -0.196 N 
ATOM      2  C2  IND d   1       0.988   3.094  -5.998  0.00  0.00     0.054 A 
ATOM      3  C3  IND d   1       0.850   4.439  -6.000  0.00  0.00    -0.031 A 
ATOM      4  C4  IND d   1      -1.293   5.863  -5.903  0.00  0.00     0.051 A 
ATOM      5  C5  IND d   1      -2.656   5.761  -5.928  0.00  0.00    -0.031 A 
ATOM      6  C6  IND d   1      -3.295   4.539  -5.975  0.00  0.00     0.015 A 
ATOM      7  C7  IND d   1      -2.593   3.368  -5.989  0.00  0.00    -0.016 A 
ATOM      8  C8  IND d   1      -1.209   3.467  -5.972  0.00  0.00    -0.047 A 
ATOM      9  C9  IND d   1      -0.554   4.706  -5.966  0.00  0.00    -0.096 A 
ATOM     10  HN1 IND d   1      -0.379   1.642  -6.015  0.00  0.00     0.298 HD
ENDROOT
TORSDOF 0
ENDMDL
