MODEL 1
REMARK minimizedAffinity 0.298694074
REMARK minimizedRMSD -1
REMARK  0 active torsions:
REMARK  status: ('A' for Active; 'I' for Inactive)
ROOT
ATOM      1  N1  IND d   1      -3.602   3.868  -5.973  0.00  0.00    -0.196 N 
ATOM      2  C2  IND d   1      -4.008   5.173  -5.940  0.00  0.00     0.054 A 
ATOM      3  C3  IND d   1      -2.937   5.998  -5.905  0.00  0.00    -0.031 A 
ATOM      4  C4  IND d   1      -0.429   5.427  -6.000  0.00  0.00     0.051 A 
ATOM      5  C5  IND d   1       0.436   4.369  -6.000  0.00  0.00    -0.031 A 
ATOM      6  C6  IND d   1      -0.010   3.063  -5.994  0.00  0.00     0.015 A 
ATOM      7  C7  IND d   1      -1.344   2.766  -5.999  0.00  0.00    -0.016 A 
ATOM      8  C8  IND d   1      -2.224   3.838  -5.992  0.00  0.00    -0.047 A 
ATOM      9  C9  IND d   1      -1.778   5.165  -5.955  0.00  0.00    -0.096 A 
ATOM     10  HN1 IND d   1      -4.119   3.182  -5.982  0.00  0.00     0.298 HD
ENDROOT
TORSDOF 0
ENDMDL
