MODEL 1
REMARK minimizedAffinity 11.7752838
REMARK minimizedRMSD -1
REMARK  0 active torsions:
REMARK  status: ('A' for Active; 'I' for Inactive)
ROOT
ATOM      1  N1  IND d   1      -5.255   4.715   0.454  0.00  0.00    -0.196 N 
ATOM      2  C2  IND d   1      -5.377   5.997  -0.005  0.00  0.00     0.054 A 
ATOM      3  C3  IND d   1      -5.635   6.000  -1.332  0.00  0.00    -0.031 A 
ATOM      4  C4  IND d   1      -6.000   4.015  -2.930  0.00  0.00     0.051 A 
ATOM      5  C5  IND d   1      -5.953   2.650  -2.981  0.00  0.00    -0.031 A 
ATOM      6  C6  IND d   1      -5.668   1.888  -1.866  0.00  0.00     0.015 A 
ATOM      7  C7  IND d   1      -5.430   2.465  -0.651  0.00  0.00    -0.016 A 
ATOM      8  C8  IND d   1      -5.470   3.851  -0.598  0.00  0.00    -0.047 A 
ATOM      9  C9  IND d   1      -5.716   4.631  -1.735  0.00  0.00    -0.096 A 
ATOM     10  HN1 IND d   1      -5.076   4.487   1.263  0.00  0.00     0.298 HD
ENDROOT
TORSDOF 0
ENDMDL
