MODEL 1
REMARK minimizedAffinity 7.2348299
REMARK minimizedRMSD -1
REMARK  0 active torsions:
REMARK  status: ('A' for Active; 'I' for Inactive)
ROOT
ATOM      1  N1  IND d   1       1.279   0.470  -5.979  0.00  0.00    -0.196 N 
ATOM      2  C2  IND d   1       0.023  -0.067  -5.935  0.00  0.00     0.054 A 
ATOM      3  C3  IND d   1      -0.906   0.913  -5.886  0.00  0.00    -0.031 A 
ATOM      4  C4  IND d   1      -0.595   3.467  -5.968  0.00  0.00     0.051 A 
ATOM      5  C5  IND d   1       0.370   4.435  -5.973  0.00  0.00    -0.031 A 
ATOM      6  C6  IND d   1       1.715   4.124  -5.982  0.00  0.00     0.015 A 
ATOM      7  C7  IND d   1       2.146   2.828  -6.000  0.00  0.00    -0.016 A 
ATOM      8  C8  IND d   1       1.169   1.843  -5.988  0.00  0.00    -0.047 A 
ATOM      9  C9  IND d   1      -0.196   2.152  -5.935  0.00  0.00    -0.096 A 
ATOM     10  HN1 IND d   1       2.015   0.025  -5.998  0.00  0.00     0.298 HD
ENDROOT
TORSDOF 0
ENDMDL
