MODEL 1
REMARK minimizedAffinity 3.28056288
REMARK minimizedRMSD -1
REMARK  0 active torsions:
REMARK  status: ('A' for Active; 'I' for Inactive)
ROOT
ATOM      1  N1  IND d   1      -2.175  -5.992  -3.050  0.00  0.00    -0.196 N 
ATOM      2  C2  IND d   1      -2.855  -5.999  -4.235  0.00  0.00     0.054 A 
ATOM      3  C3  IND d   1      -4.122  -5.564  -4.053  0.00  0.00    -0.031 A 
ATOM      4  C4  IND d   1      -5.260  -4.693  -1.914  0.00  0.00     0.051 A 
ATOM      5  C5  IND d   1      -5.053  -4.530  -0.573  0.00  0.00    -0.031 A 
ATOM      6  C6  IND d   1      -3.850  -4.850   0.022  0.00  0.00     0.015 A 
ATOM      7  C7  IND d   1      -2.801  -5.337  -0.706  0.00  0.00    -0.016 A 
ATOM      8  C8  IND d   1      -3.011  -5.510  -2.067  0.00  0.00    -0.047 A 
ATOM      9  C9  IND d   1      -4.243  -5.227  -2.670  0.00  0.00    -0.096 A 
ATOM     10  HN1 IND d   1      -1.361  -6.246  -2.937  0.00  0.00     0.298 HD
ENDROOT
TORSDOF 0
ENDMDL
