MODEL 1
REMARK minimizedAffinity -0.448650807
REMARK minimizedRMSD -1
REMARK  0 active torsions:
REMARK  status: ('A' for Active; 'I' for Inactive)
ROOT
ATOM      1  N1  IND d   1       1.403   4.561  -6.000  0.00  0.00    -0.196 N 
ATOM      2  C2  IND d   1       2.121   3.868  -5.066  0.00  0.00     0.054 A 
ATOM      3  C3  IND d   1       1.408   3.740  -3.925  0.00  0.00    -0.031 A 
ATOM      4  C4  IND d   1      -0.995   4.501  -3.403  0.00  0.00     0.051 A 
ATOM      5  C5  IND d   1      -2.040   5.207  -3.931  0.00  0.00    -0.031 A 
ATOM      6  C6  IND d   1      -1.990   5.742  -5.201  0.00  0.00     0.015 A 
ATOM      7  C7  IND d   1      -0.894   5.581  -6.000  0.00  0.00    -0.016 A 
ATOM      8  C8  IND d   1       0.172   4.871  -5.465  0.00  0.00    -0.047 A 
ATOM      9  C9  IND d   1       0.144   4.362  -4.160  0.00  0.00    -0.096 A 
ATOM     10  HN1 IND d   1       1.675   4.769  -6.789  0.00  0.00     0.298 HD
ENDROOT
TORSDOF 0
ENDMDL
