MODEL 1
REMARK minimizedAffinity 9.36311722
REMARK minimizedRMSD -1
REMARK  0 active torsions:
REMARK  status: ('A' for Active; 'I' for Inactive)
ROOT
ATOM      1  N1  IND d   1      -4.399   0.070   2.069  0.00  0.00    -0.196 N 
ATOM      2  C2  IND d   1      -5.372  -0.471   2.863  0.00  0.00     0.054 A 
ATOM      3  C3  IND d   1      -4.925  -1.606   3.446  0.00  0.00    -0.031 A 
ATOM      4  C4  IND d   1      -2.600  -2.704   3.319  0.00  0.00     0.051 A 
ATOM      5  C5  IND d   1      -1.391  -2.597   2.691  0.00  0.00    -0.031 A 
ATOM      6  C6  IND d   1      -1.116  -1.573   1.808  0.00  0.00     0.015 A 
ATOM      7  C7  IND d   1      -2.041  -0.608   1.527  0.00  0.00    -0.016 A 
ATOM      8  C8  IND d   1      -3.272  -0.717   2.158  0.00  0.00    -0.047 A 
ATOM      9  C9  IND d   1      -3.571  -1.778   3.022  0.00  0.00    -0.096 A 
ATOM     10  HN1 IND d   1      -4.478   0.783   1.594  0.00  0.00     0.298 HD
ENDROOT
TORSDOF 0
ENDMDL
