MODEL 1
REMARK minimizedAffinity 4.65919209
REMARK minimizedRMSD -1
REMARK  0 active torsions:
REMARK  status: ('A' for Active; 'I' for Inactive)
ROOT
ATOM      1  N1  IND d   1      -1.385   0.612   1.318  0.00  0.00    -0.196 N 
ATOM      2  C2  IND d   1      -0.197  -0.017   1.068  0.00  0.00     0.054 A 
ATOM      3  C3  IND d   1      -0.241  -1.296   1.504  0.00  0.00    -0.031 A 
ATOM      4  C4  IND d   1      -2.194  -2.596   2.564  0.00  0.00     0.051 A 
ATOM      5  C5  IND d   1      -3.470  -2.436   3.025  0.00  0.00    -0.031 A 
ATOM      6  C6  IND d   1      -4.131  -1.228   2.937  0.00  0.00     0.015 A 
ATOM      7  C7  IND d   1      -3.541  -0.133   2.371  0.00  0.00    -0.016 A 
ATOM      8  C8  IND d   1      -2.243  -0.290   1.908  0.00  0.00    -0.047 A 
ATOM      9  C9  IND d   1      -1.552  -1.502   2.033  0.00  0.00    -0.096 A 
ATOM     10  HN1 IND d   1      -1.566   1.433   1.137  0.00  0.00     0.298 HD
ENDROOT
TORSDOF 0
ENDMDL
