MODEL 1
REMARK minimizedAffinity 12.3256893
REMARK minimizedRMSD -1
REMARK  0 active torsions:
REMARK  status: ('A' for Active; 'I' for Inactive)
ROOT
ATOM      1  N1  IND d   1       5.190   4.300  -0.705  0.00  0.00    -0.196 N 
ATOM      2  C2  IND d   1       4.698   5.309   0.075  0.00  0.00     0.054 A 
ATOM      3  C3  IND d   1       3.350   5.232   0.149  0.00  0.00    -0.031 A 
ATOM      4  C4  IND d   1       1.756   3.474  -0.847  0.00  0.00     0.051 A 
ATOM      5  C5  IND d   1       1.735   2.380  -1.666  0.00  0.00    -0.031 A 
ATOM      6  C6  IND d   1       2.888   1.858  -2.215  0.00  0.00     0.015 A 
ATOM      7  C7  IND d   1       4.112   2.406  -1.956  0.00  0.00    -0.016 A 
ATOM      8  C8  IND d   1       4.136   3.521  -1.130  0.00  0.00    -0.047 A 
ATOM      9  C9  IND d   1       2.965   4.081  -0.604  0.00  0.00    -0.096 A 
ATOM     10  HN1 IND d   1       6.019   4.173  -0.897  0.00  0.00     0.298 HD
ENDROOT
TORSDOF 0
ENDMDL
