MODEL 1
REMARK minimizedAffinity 11.5330477
REMARK minimizedRMSD -1
REMARK  0 active torsions:
REMARK  status: ('A' for Active; 'I' for Inactive)
ROOT
ATOM      1  C   UNL d   1       0.343   3.872   0.713  0.00  0.00     0.077 C 
ATOM      2  C1  UNL d   1       0.965   2.545   1.030  0.00  0.00    -0.074 A 
ATOM      3  C2  UNL d   1       2.035   2.053   0.275  0.00  0.00    -0.005 A 
ATOM      4  C3  UNL d   1       2.609   0.821   0.589  0.00  0.00     0.006 A 
ATOM      5  C4  UNL d   1       2.121   0.070   1.659  0.00  0.00    -0.005 A 
ATOM      6  C5  UNL d   1       1.053   0.546   2.426  0.00  0.00    -0.074 A 
ATOM      7  C6  UNL d   1       0.522  -0.244   3.585  0.00  0.00     0.077 C 
ATOM      8  C7  UNL d   1       0.486   1.788   2.109  0.00  0.00    -0.001 A 
ENDROOT
TORSDOF 0
ENDMDL
