MODEL 1
REMARK minimizedAffinity 10.2655621
REMARK minimizedRMSD -1
REMARK  0 active torsions:
REMARK  status: ('A' for Active; 'I' for Inactive)
ROOT
ATOM      1  C   UNL d   1       5.756   2.911  -3.070  0.00  0.00     0.077 C 
ATOM      2  C1  UNL d   1       5.176   3.844  -4.091  0.00  0.00    -0.074 A 
ATOM      3  C2  UNL d   1       5.999   4.519  -4.998  0.00  0.00    -0.005 A 
ATOM      4  C3  UNL d   1       5.445   5.377  -5.947  0.00  0.00     0.006 A 
ATOM      5  C4  UNL d   1       4.064   5.569  -6.000  0.00  0.00    -0.005 A 
ATOM      6  C5  UNL d   1       3.224   4.902  -5.102  0.00  0.00    -0.074 A 
ATOM      7  C6  UNL d   1       1.737   5.089  -5.151  0.00  0.00     0.077 C 
ATOM      8  C7  UNL d   1       3.788   4.036  -4.155  0.00  0.00    -0.001 A 
ENDROOT
TORSDOF 0
ENDMDL
