MODEL 1
REMARK minimizedAffinity 19.9054699
REMARK minimizedRMSD -1
REMARK  0 active torsions:
REMARK  status: ('A' for Active; 'I' for Inactive)
ROOT
ATOM      1  C   UNL d   1       5.540   4.867  -2.988  0.00  0.00     0.077 C 
ATOM      2  C1  UNL d   1       4.811   4.865  -1.677  0.00  0.00    -0.074 A 
ATOM      3  C2  UNL d   1       4.798   6.000  -0.860  0.00  0.00    -0.005 A 
ATOM      4  C3  UNL d   1       4.108   5.986   0.352  0.00  0.00     0.006 A 
ATOM      5  C4  UNL d   1       3.425   4.839   0.759  0.00  0.00    -0.005 A 
ATOM      6  C5  UNL d   1       3.425   3.696  -0.046  0.00  0.00    -0.074 A 
ATOM      7  C6  UNL d   1       2.688   2.458   0.371  0.00  0.00     0.077 C 
ATOM      8  C7  UNL d   1       4.115   3.720  -1.266  0.00  0.00    -0.001 A 
ENDROOT
TORSDOF 0
ENDMDL
