MODEL 1
REMARK minimizedAffinity 5.33685875
REMARK minimizedRMSD -1
REMARK  0 active torsions:
REMARK  status: ('A' for Active; 'I' for Inactive)
ROOT
ATOM      1  C   UNL d   1       4.036   0.572   2.628  0.00  0.00     0.077 C 
ATOM      2  C1  UNL d   1       3.179   0.583   1.397  0.00  0.00    -0.074 A 
ATOM      3  C2  UNL d   1       3.332   1.576   0.424  0.00  0.00    -0.005 A 
ATOM      4  C3  UNL d   1       2.534   1.567  -0.720  0.00  0.00     0.006 A 
ATOM      5  C4  UNL d   1       1.577   0.568  -0.902  0.00  0.00    -0.005 A 
ATOM      6  C5  UNL d   1       1.411  -0.433   0.060  0.00  0.00    -0.074 A 
ATOM      7  C6  UNL d   1       0.394  -1.520  -0.125  0.00  0.00     0.077 C 
ATOM      8  C7  UNL d   1       2.221  -0.422   1.203  0.00  0.00    -0.001 A 
ENDROOT
TORSDOF 0
ENDMDL
