MODEL 1
REMARK minimizedAffinity 18.2121239
REMARK minimizedRMSD -1
REMARK  0 active torsions:
REMARK  status: ('A' for Active; 'I' for Inactive)
ROOT
ATOM      1  C   UNL d   1      -1.876  -2.621  -4.456  0.00  0.00     0.077 C 
ATOM      2  C1  UNL d   1      -2.271  -2.793  -3.019  0.00  0.00    -0.074 A 
ATOM      3  C2  UNL d   1      -3.580  -3.140  -2.670  0.00  0.00    -0.005 A 
ATOM      4  C3  UNL d   1      -3.930  -3.306  -1.330  0.00  0.00     0.006 A 
ATOM      5  C4  UNL d   1      -2.976  -3.126  -0.327  0.00  0.00    -0.005 A 
ATOM      6  C5  UNL d   1      -1.662  -2.780  -0.657  0.00  0.00    -0.074 A 
ATOM      7  C6  UNL d   1      -0.623  -2.593   0.408  0.00  0.00     0.077 C 
ATOM      8  C7  UNL d   1      -1.316  -2.622  -2.006  0.00  0.00    -0.001 A 
ENDROOT
TORSDOF 0
ENDMDL
