MODEL 1
REMARK minimizedAffinity 8.5687933
REMARK minimizedRMSD -1
REMARK  0 active torsions:
REMARK  status: ('A' for Active; 'I' for Inactive)
ROOT
ATOM      1  C   UNL d   1      -5.999  -5.493  -3.228  0.00  0.00     0.077 C 
ATOM      2  C1  UNL d   1      -4.665  -4.976  -2.778  0.00  0.00    -0.074 A 
ATOM      3  C2  UNL d   1      -3.787  -5.786  -2.051  0.00  0.00    -0.005 A 
ATOM      4  C3  UNL d   1      -2.546  -5.295  -1.647  0.00  0.00     0.006 A 
ATOM      5  C4  UNL d   1      -2.170  -3.989  -1.966  0.00  0.00    -0.005 A 
ATOM      6  C5  UNL d   1      -3.034  -3.164  -2.693  0.00  0.00    -0.074 A 
ATOM      7  C6  UNL d   1      -2.641  -1.762  -3.053  0.00  0.00     0.077 C 
ATOM      8  C7  UNL d   1      -4.276  -3.668  -3.101  0.00  0.00    -0.001 A 
ENDROOT
TORSDOF 0
ENDMDL
