MODEL 1
REMARK minimizedAffinity 9.55458164
REMARK minimizedRMSD -1
REMARK  0 active torsions:
REMARK  status: ('A' for Active; 'I' for Inactive)
ROOT
ATOM      1  C   UNL d   1       3.262  -0.638   0.971  0.00  0.00     0.077 C 
ATOM      2  C1  UNL d   1       2.356   0.441   1.485  0.00  0.00    -0.074 A 
ATOM      3  C2  UNL d   1       1.456   0.189   2.525  0.00  0.00    -0.005 A 
ATOM      4  C3  UNL d   1       0.626   1.205   2.999  0.00  0.00     0.006 A 
ATOM      5  C4  UNL d   1       0.687   2.481   2.437  0.00  0.00    -0.005 A 
ATOM      6  C5  UNL d   1       1.581   2.752   1.396  0.00  0.00    -0.074 A 
ATOM      7  C6  UNL d   1       1.666   4.120   0.788  0.00  0.00     0.077 C 
ATOM      8  C7  UNL d   1       2.416   1.727   0.931  0.00  0.00    -0.001 A 
ENDROOT
TORSDOF 0
ENDMDL
