MODEL 1
REMARK minimizedAffinity 15.7887802
REMARK minimizedRMSD -1
REMARK  0 active torsions:
REMARK  status: ('A' for Active; 'I' for Inactive)
ROOT
ATOM      1  C   UNL d   1      -4.014  -5.999   0.315  0.00  0.00     0.077 C 
ATOM      2  C1  UNL d   1      -4.241  -5.072  -0.841  0.00  0.00    -0.074 A 
ATOM      3  C2  UNL d   1      -5.336  -5.241  -1.695  0.00  0.00    -0.005 A 
ATOM      4  C3  UNL d   1      -5.540  -4.364  -2.760  0.00  0.00     0.006 A 
ATOM      5  C4  UNL d   1      -4.652  -3.311  -2.983  0.00  0.00    -0.005 A 
ATOM      6  C5  UNL d   1      -3.552  -3.125  -2.139  0.00  0.00    -0.074 A 
ATOM      7  C6  UNL d   1      -2.594  -1.993  -2.359  0.00  0.00     0.077 C 
ATOM      8  C7  UNL d   1      -3.358  -4.006  -1.067  0.00  0.00    -0.001 A 
ENDROOT
TORSDOF 0
ENDMDL
