MODEL 1
REMARK minimizedAffinity 9.68690491
REMARK minimizedRMSD -1
REMARK  0 active torsions:
REMARK  status: ('A' for Active; 'I' for Inactive)
ROOT
ATOM      1  C   UNL d   1      -0.201  -4.873  -3.761  0.00  0.00     0.077 C 
ATOM      2  C1  UNL d   1      -1.498  -4.421  -3.159  0.00  0.00    -0.074 A 
ATOM      3  C2  UNL d   1      -1.775  -3.061  -2.986  0.00  0.00    -0.005 A 
ATOM      4  C3  UNL d   1      -2.989  -2.655  -2.433  0.00  0.00     0.006 A 
ATOM      5  C4  UNL d   1      -3.938  -3.603  -2.049  0.00  0.00    -0.005 A 
ATOM      6  C5  UNL d   1      -3.680  -4.967  -2.216  0.00  0.00    -0.074 A 
ATOM      7  C6  UNL d   1      -4.693  -5.999  -1.817  0.00  0.00     0.077 C 
ATOM      8  C7  UNL d   1      -2.460  -5.367  -2.778  0.00  0.00    -0.001 A 
ENDROOT
TORSDOF 0
ENDMDL
