MODEL 1
REMARK minimizedAffinity 13.9009457
REMARK minimizedRMSD -1
REMARK  0 active torsions:
REMARK  status: ('A' for Active; 'I' for Inactive)
ROOT
ATOM      1  C   UNL d   1      -0.007   3.094  -2.223  0.00  0.00     0.077 C 
ATOM      2  C1  UNL d   1       1.378   2.542  -2.389  0.00  0.00    -0.074 A 
ATOM      3  C2  UNL d   1       2.185   2.282  -1.277  0.00  0.00    -0.005 A 
ATOM      4  C3  UNL d   1       3.467   1.759  -1.446  0.00  0.00     0.006 A 
ATOM      5  C4  UNL d   1       3.954   1.492  -2.726  0.00  0.00    -0.005 A 
ATOM      6  C5  UNL d   1       3.161   1.745  -3.849  0.00  0.00    -0.074 A 
ATOM      7  C6  UNL d   1       3.665   1.454  -5.232  0.00  0.00     0.077 C 
ATOM      8  C7  UNL d   1       1.871   2.263  -3.671  0.00  0.00    -0.001 A 
ENDROOT
TORSDOF 0
ENDMDL
