MODEL 1
REMARK minimizedAffinity 8.50528145
REMARK minimizedRMSD -1
REMARK  0 active torsions:
REMARK  status: ('A' for Active; 'I' for Inactive)
ROOT
ATOM      1  C   UNL d   1       1.893   0.494   0.101  0.00  0.00     0.077 C 
ATOM      2  C1  UNL d   1       2.071   1.143  -1.239  0.00  0.00    -0.074 A 
ATOM      3  C2  UNL d   1       1.109   2.023  -1.745  0.00  0.00    -0.005 A 
ATOM      4  C3  UNL d   1       1.293   2.627  -2.989  0.00  0.00     0.006 A 
ATOM      5  C4  UNL d   1       2.439   2.357  -3.738  0.00  0.00    -0.005 A 
ATOM      6  C5  UNL d   1       3.412   1.481  -3.247  0.00  0.00    -0.074 A 
ATOM      7  C6  UNL d   1       4.655   1.188  -4.035  0.00  0.00     0.077 C 
ATOM      8  C7  UNL d   1       3.224   0.884  -1.994  0.00  0.00    -0.001 A 
ENDROOT
TORSDOF 0
ENDMDL
