MODEL 1
REMARK minimizedAffinity 0.581686616
REMARK minimizedRMSD -1
REMARK  0 active torsions:
REMARK  status: ('A' for Active; 'I' for Inactive)
ROOT
ATOM      1  C   UNL d   1       0.756   3.066  -2.623  0.00  0.00     0.077 C 
ATOM      2  C1  UNL d   1       1.876   3.286  -3.596  0.00  0.00    -0.074 A 
ATOM      3  C2  UNL d   1       2.847   2.302  -3.807  0.00  0.00    -0.005 A 
ATOM      4  C3  UNL d   1       3.878   2.517  -4.722  0.00  0.00     0.006 A 
ATOM      5  C4  UNL d   1       3.948   3.715  -5.434  0.00  0.00    -0.005 A 
ATOM      6  C5  UNL d   1       2.985   4.710  -5.236  0.00  0.00    -0.074 A 
ATOM      7  C6  UNL d   1       3.039   6.000  -6.000  0.00  0.00     0.077 C 
ATOM      8  C7  UNL d   1       1.948   4.484  -4.320  0.00  0.00    -0.001 A 
ENDROOT
TORSDOF 0
ENDMDL
