MODEL 1
REMARK minimizedAffinity 5.3010664
REMARK minimizedRMSD -1
REMARK  0 active torsions:
REMARK  status: ('A' for Active; 'I' for Inactive)
ROOT
ATOM      1  C   UNL d   1      -1.679  -5.271   1.883  0.00  0.00     0.077 C 
ATOM      2  C1  UNL d   1      -1.937  -4.111   0.968  0.00  0.00    -0.074 A 
ATOM      3  C2  UNL d   1      -1.676  -2.800   1.379  0.00  0.00    -0.005 A 
ATOM      4  C3  UNL d   1      -1.912  -1.732   0.514  0.00  0.00     0.006 A 
ATOM      5  C4  UNL d   1      -2.412  -1.963  -0.768  0.00  0.00    -0.005 A 
ATOM      6  C5  UNL d   1      -2.679  -3.267  -1.197  0.00  0.00    -0.074 A 
ATOM      7  C6  UNL d   1      -3.207  -3.534  -2.575  0.00  0.00     0.077 C 
ATOM      8  C7  UNL d   1      -2.432  -4.336  -0.324  0.00  0.00    -0.001 A 
ENDROOT
TORSDOF 0
ENDMDL
