MODEL 1
REMARK minimizedAffinity 12.7300434
REMARK minimizedRMSD -1
REMARK  0 active torsions:
REMARK  status: ('A' for Active; 'I' for Inactive)
ROOT
ATOM      1  C   UNL d   1      -3.818   0.442   2.665  0.00  0.00     0.077 C 
ATOM      2  C1  UNL d   1      -4.580   1.147   3.748  0.00  0.00    -0.074 A 
ATOM      3  C2  UNL d   1      -5.224   0.428   4.759  0.00  0.00    -0.005 A 
ATOM      4  C3  UNL d   1      -5.921   1.099   5.764  0.00  0.00     0.006 A 
ATOM      5  C4  UNL d   1      -5.980   2.493   5.768  0.00  0.00    -0.005 A 
ATOM      6  C5  UNL d   1      -5.341   3.229   4.765  0.00  0.00    -0.074 A 
ATOM      7  C6  UNL d   1      -5.387   4.728   4.760  0.00  0.00     0.077 C 
ATOM      8  C7  UNL d   1      -4.637   2.548   3.763  0.00  0.00    -0.001 A 
ENDROOT
TORSDOF 0
ENDMDL
