MODEL 1
REMARK minimizedAffinity 3.01359367
REMARK minimizedRMSD -1
REMARK  0 active torsions:
REMARK  status: ('A' for Active; 'I' for Inactive)
ROOT
ATOM      1  C   UNL d   1      -5.991   4.929   1.755  0.00  0.00     0.077 C 
ATOM      2  C1  UNL d   1      -5.986   4.694   3.236  0.00  0.00    -0.074 A 
ATOM      3  C2  UNL d   1      -5.995   5.766   4.134  0.00  0.00    -0.005 A 
ATOM      4  C3  UNL d   1      -6.000   5.532   5.509  0.00  0.00     0.006 A 
ATOM      5  C4  UNL d   1      -5.997   4.225   5.999  0.00  0.00    -0.005 A 
ATOM      6  C5  UNL d   1      -5.989   3.141   5.116  0.00  0.00    -0.074 A 
ATOM      7  C6  UNL d   1      -5.996   1.730   5.626  0.00  0.00     0.077 C 
ATOM      8  C7  UNL d   1      -5.991   3.384   3.736  0.00  0.00    -0.001 A 
ENDROOT
TORSDOF 0
ENDMDL
