MODEL 1
REMARK minimizedAffinity 4.09743166
REMARK minimizedRMSD -1
REMARK  0 active torsions:
REMARK  status: ('A' for Active; 'I' for Inactive)
ROOT
ATOM      1  C   UNL d   1      -0.398  -1.434   2.573  0.00  0.00     0.077 C 
ATOM      2  C1  UNL d   1      -0.189  -0.058   2.015  0.00  0.00    -0.074 A 
ATOM      3  C2  UNL d   1       1.069   0.350   1.559  0.00  0.00    -0.005 A 
ATOM      4  C3  UNL d   1       1.246   1.630   1.034  0.00  0.00     0.006 A 
ATOM      5  C4  UNL d   1       0.169   2.514   0.960  0.00  0.00    -0.005 A 
ATOM      6  C5  UNL d   1      -1.097   2.124   1.410  0.00  0.00    -0.074 A 
ATOM      7  C6  UNL d   1      -2.267   3.058   1.329  0.00  0.00     0.077 C 
ATOM      8  C7  UNL d   1      -1.268   0.834   1.930  0.00  0.00    -0.001 A 
ENDROOT
TORSDOF 0
ENDMDL
