MODEL 1
REMARK minimizedAffinity -1.24906087
REMARK minimizedRMSD -1
REMARK  1 active torsions:
REMARK  status: ('A' for Active; 'I' for Inactive)
REMARK    1  A    between atoms: C1_2  and  C2_3 
ROOT
ATOM      1  C2  UNL d   1      -5.302   3.644  -4.847  0.00  0.00    -0.073 A 
ATOM      2  C3  UNL d   1      -4.035   3.973  -4.352  0.00  0.00    -0.002 A 
ATOM      3  C4  UNL d   1      -3.410   3.152  -3.413  0.00  0.00     0.004 A 
ATOM      4  C5  UNL d   1      -4.042   1.992  -2.964  0.00  0.00    -0.004 A 
ATOM      5  C6  UNL d   1      -5.304   1.641  -3.455  0.00  0.00    -0.075 A 
ATOM      6  C7  UNL d   1      -5.997   0.398  -2.980  0.00  0.00     0.076 C 
ATOM      7  C8  UNL d   1      -5.925   2.472  -4.396  0.00  0.00     0.001 A 
ENDROOT
BRANCH   1   8
ATOM      8  C1  UNL d   1      -5.978   4.525  -5.867  0.00  0.00     0.053 C 
ATOM      9  C   UNL d   1      -5.290   5.874  -6.000  0.00  0.00     0.018 C 
ENDBRANCH   1   8
TORSDOF 1
ENDMDL
