MODEL 1
REMARK minimizedAffinity 7.75802708
REMARK minimizedRMSD -1
REMARK  1 active torsions:
REMARK  status: ('A' for Active; 'I' for Inactive)
REMARK    1  A    between atoms: C1_2  and  C2_3 
ROOT
ATOM      1  C2  UNL d   1       3.822  -1.465   1.442  0.00  0.00    -0.073 A 
ATOM      2  C3  UNL d   1       3.223  -0.933   2.590  0.00  0.00    -0.002 A 
ATOM      3  C4  UNL d   1       1.849  -0.687   2.618  0.00  0.00     0.004 A 
ATOM      4  C5  UNL d   1       1.061  -0.975   1.504  0.00  0.00    -0.004 A 
ATOM      5  C6  UNL d   1       1.640  -1.518   0.352  0.00  0.00    -0.075 A 
ATOM      6  C7  UNL d   1       0.806  -1.832  -0.855  0.00  0.00     0.076 C 
ATOM      7  C8  UNL d   1       3.020  -1.760   0.330  0.00  0.00     0.001 A 
ENDROOT
BRANCH   1   8
ATOM      8  C1  UNL d   1       5.303  -1.739   1.409  0.00  0.00     0.053 C 
ATOM      9  C   UNL d   1       5.707  -2.814   2.405  0.00  0.00     0.018 C 
ENDBRANCH   1   8
TORSDOF 1
ENDMDL
