MODEL 1
REMARK minimizedAffinity 6.27238798
REMARK minimizedRMSD -1
REMARK  1 active torsions:
REMARK  status: ('A' for Active; 'I' for Inactive)
REMARK    1  A    between atoms: C1_2  and  C2_3 
ROOT
ATOM      1  C2  UNL d   1       2.066  -1.762   0.581  0.00  0.00    -0.073 A 
ATOM      2  C3  UNL d   1       1.535  -1.156   1.726  0.00  0.00    -0.002 A 
ATOM      3  C4  UNL d   1       2.337  -0.947   2.849  0.00  0.00     0.004 A 
ATOM      4  C5  UNL d   1       3.677  -1.335   2.836  0.00  0.00    -0.004 A 
ATOM      5  C6  UNL d   1       4.228  -1.931   1.698  0.00  0.00    -0.075 A 
ATOM      6  C7  UNL d   1       5.667  -2.356   1.669  0.00  0.00     0.076 C 
ATOM      7  C8  UNL d   1       3.416  -2.140   0.575  0.00  0.00     0.001 A 
ENDROOT
BRANCH   1   8
ATOM      8  C1  UNL d   1       1.205  -1.984  -0.636  0.00  0.00     0.053 C 
ATOM      9  C   UNL d   1       0.541  -3.351  -0.623  0.00  0.00     0.018 C 
ENDBRANCH   1   8
TORSDOF 1
ENDMDL
