MODEL 1
REMARK minimizedAffinity 15.2303085
REMARK minimizedRMSD -1
REMARK  1 active torsions:
REMARK  status: ('A' for Active; 'I' for Inactive)
REMARK    1  A    between atoms: C1_2  and  C2_3 
ROOT
ATOM      1  C2  UNL d   1      -2.960   1.321  -3.296  0.00  0.00    -0.073 A 
ATOM      2  C3  UNL d   1      -2.745   1.152  -4.668  0.00  0.00    -0.002 A 
ATOM      3  C4  UNL d   1      -1.502   0.728  -5.140  0.00  0.00     0.004 A 
ATOM      4  C5  UNL d   1      -0.466   0.461  -4.245  0.00  0.00    -0.004 A 
ATOM      5  C6  UNL d   1      -0.665   0.611  -2.869  0.00  0.00    -0.075 A 
ATOM      6  C7  UNL d   1       0.440   0.330  -1.894  0.00  0.00     0.076 C 
ATOM      7  C8  UNL d   1      -1.915   1.041  -2.404  0.00  0.00     0.001 A 
ENDROOT
BRANCH   1   8
ATOM      8  C1  UNL d   1      -4.302   1.773  -2.781  0.00  0.00     0.053 C 
ATOM      9  C   UNL d   1      -5.237   0.602  -2.520  0.00  0.00     0.018 C 
ENDBRANCH   1   8
TORSDOF 1
ENDMDL
