MODEL 1
REMARK minimizedAffinity 13.1462345
REMARK minimizedRMSD -1
REMARK  1 active torsions:
REMARK  status: ('A' for Active; 'I' for Inactive)
REMARK    1  A    between atoms: C1_2  and  C2_3 
ROOT
ATOM      1  C2  UNL d   1      -1.701   2.079  -1.805  0.00  0.00    -0.073 A 
ATOM      2  C3  UNL d   1      -1.486   2.684  -0.562  0.00  0.00    -0.002 A 
ATOM      3  C4  UNL d   1      -2.563   3.159   0.188  0.00  0.00     0.004 A 
ATOM      4  C5  UNL d   1      -3.865   3.027  -0.294  0.00  0.00    -0.004 A 
ATOM      5  C6  UNL d   1      -4.102   2.414  -1.528  0.00  0.00    -0.075 A 
ATOM      6  C7  UNL d   1      -5.497   2.267  -2.062  0.00  0.00     0.076 C 
ATOM      7  C8  UNL d   1      -3.015   1.943  -2.276  0.00  0.00     0.001 A 
ENDROOT
BRANCH   1   8
ATOM      8  C1  UNL d   1      -0.542   1.560  -2.615  0.00  0.00     0.053 C 
ATOM      9  C   UNL d   1      -0.969   0.477  -3.593  0.00  0.00     0.018 C 
ENDBRANCH   1   8
TORSDOF 1
ENDMDL
