MODEL 1
REMARK minimizedAffinity 12.0004969
REMARK minimizedRMSD -1
REMARK  1 active torsions:
REMARK  status: ('A' for Active; 'I' for Inactive)
REMARK    1  A    between atoms: C1_2  and  C2_3 
ROOT
ATOM      1  C2  UNL d   1       2.136  -5.280  -0.773  0.00  0.00    -0.073 A 
ATOM      2  C3  UNL d   1       0.939  -5.998  -0.667  0.00  0.00    -0.002 A 
ATOM      3  C4  UNL d   1      -0.285  -5.329  -0.633  0.00  0.00     0.004 A 
ATOM      4  C5  UNL d   1      -0.326  -3.937  -0.712  0.00  0.00    -0.004 A 
ATOM      5  C6  UNL d   1       0.858  -3.202  -0.830  0.00  0.00    -0.075 A 
ATOM      6  C7  UNL d   1       0.831  -1.704  -0.913  0.00  0.00     0.076 C 
ATOM      7  C8  UNL d   1       2.083  -3.881  -0.860  0.00  0.00     0.001 A 
ENDROOT
BRANCH   1   8
ATOM      8  C1  UNL d   1       3.459  -5.998  -0.817  0.00  0.00     0.053 C 
ATOM      9  C   UNL d   1       4.061  -6.000  -2.213  0.00  0.00     0.018 C 
ENDBRANCH   1   8
TORSDOF 1
ENDMDL
