MODEL 1
REMARK minimizedAffinity 16.4740086
REMARK minimizedRMSD -1
REMARK  1 active torsions:
REMARK  status: ('A' for Active; 'I' for Inactive)
REMARK    1  A    between atoms: C1_2  and  C2_3 
ROOT
ATOM      1  C2  UNL d   1      -3.428   0.752  -4.088  0.00  0.00    -0.073 A 
ATOM      2  C3  UNL d   1      -3.188   0.343  -5.405  0.00  0.00    -0.002 A 
ATOM      3  C4  UNL d   1      -1.882   0.165  -5.861  0.00  0.00     0.004 A 
ATOM      4  C5  UNL d   1      -0.803   0.387  -5.006  0.00  0.00    -0.004 A 
ATOM      5  C6  UNL d   1      -1.022   0.784  -3.683  0.00  0.00    -0.075 A 
ATOM      6  C7  UNL d   1       0.128   1.029  -2.750  0.00  0.00     0.076 C 
ATOM      7  C8  UNL d   1      -2.337   0.964  -3.233  0.00  0.00     0.001 A 
ENDROOT
BRANCH   1   8
ATOM      8  C1  UNL d   1      -4.837   0.939  -3.589  0.00  0.00     0.053 C 
ATOM      9  C   UNL d   1      -4.889   1.114  -2.079  0.00  0.00     0.018 C 
ENDBRANCH   1   8
TORSDOF 1
ENDMDL
