MODEL 1
REMARK minimizedAffinity -4.38341951
REMARK minimizedRMSD -1
REMARK  0 active torsions:
REMARK  status: ('A' for Active; 'I' for Inactive)
ROOT
ATOM      1  C   UNL d   1       0.671  -0.476  -1.302  0.00  0.00     0.078 C 
ATOM      2  C1  UNL d   1       0.053   0.100  -0.063  0.00  0.00    -0.077 A 
ATOM      3  C2  UNL d   1      -1.333   0.066   0.135  0.00  0.00    -0.001 A 
ATOM      4  C3  UNL d   1      -1.895   0.615   1.288  0.00  0.00     0.003 A 
ATOM      5  C4  UNL d   1      -1.079   1.202   2.253  0.00  0.00    -0.005 A 
ATOM      6  C5  UNL d   1       0.301   1.242   2.064  0.00  0.00     0.003 A 
ATOM      7  C6  UNL d   1       0.865   0.694   0.911  0.00  0.00    -0.001 A 
ENDROOT
TORSDOF 0
ENDMDL
