MODEL 1
REMARK minimizedAffinity -3.55213428
REMARK minimizedRMSD -1
REMARK  0 active torsions:
REMARK  status: ('A' for Active; 'I' for Inactive)
ROOT
ATOM      1  C   UNL d   1       0.748  -0.962  -1.449  0.00  0.00     0.078 C 
ATOM      2  C1  UNL d   1       0.574  -0.181  -0.181  0.00  0.00    -0.077 A 
ATOM      3  C2  UNL d   1      -0.646   0.433   0.127  0.00  0.00    -0.001 A 
ATOM      4  C3  UNL d   1      -0.791   1.165   1.307  0.00  0.00     0.003 A 
ATOM      5  C4  UNL d   1       0.282   1.292   2.187  0.00  0.00    -0.005 A 
ATOM      6  C5  UNL d   1       1.501   0.686   1.889  0.00  0.00     0.003 A 
ATOM      7  C6  UNL d   1       1.647  -0.046   0.710  0.00  0.00    -0.001 A 
ENDROOT
TORSDOF 0
ENDMDL
