MODEL 1
REMARK minimizedAffinity -3.18729711
REMARK minimizedRMSD -1
REMARK  0 active torsions:
REMARK  status: ('A' for Active; 'I' for Inactive)
ROOT
ATOM      1  C   UNL d   1      -0.733   1.502   2.271  0.00  0.00     0.078 C 
ATOM      2  C1  UNL d   1      -0.237   0.754   1.070  0.00  0.00    -0.077 A 
ATOM      3  C2  UNL d   1      -1.113   0.373   0.046  0.00  0.00    -0.001 A 
ATOM      4  C3  UNL d   1      -0.639  -0.331  -1.062  0.00  0.00     0.003 A 
ATOM      5  C4  UNL d   1       0.712  -0.662  -1.156  0.00  0.00    -0.005 A 
ATOM      6  C5  UNL d   1       1.590  -0.289  -0.140  0.00  0.00     0.003 A 
ATOM      7  C6  UNL d   1       1.118   0.416   0.968  0.00  0.00    -0.001 A 
ENDROOT
TORSDOF 0
ENDMDL
