MODEL 1
REMARK minimizedAffinity -4.15623045
REMARK minimizedRMSD -1
REMARK  0 active torsions:
REMARK  status: ('A' for Active; 'I' for Inactive)
ROOT
ATOM      1  C   UNL d   1      -0.730   1.357   3.162  0.00  0.00     0.078 C 
ATOM      2  C1  UNL d   1      -0.664   0.740   1.797  0.00  0.00    -0.077 A 
ATOM      3  C2  UNL d   1       0.566   0.455   1.193  0.00  0.00    -0.001 A 
ATOM      4  C3  UNL d   1       0.613  -0.111  -0.082  0.00  0.00     0.003 A 
ATOM      5  C4  UNL d   1      -0.569  -0.394  -0.765  0.00  0.00    -0.005 A 
ATOM      6  C5  UNL d   1      -1.798  -0.111  -0.173  0.00  0.00     0.003 A 
ATOM      7  C6  UNL d   1      -1.846   0.454   1.102  0.00  0.00    -0.001 A 
ENDROOT
TORSDOF 0
ENDMDL
