MODEL 1
REMARK minimizedAffinity -5.26208401
REMARK minimizedRMSD -1
REMARK  0 active torsions:
REMARK  status: ('A' for Active; 'I' for Inactive)
ROOT
ATOM      1  C   UNL d   1      -0.859   1.180   3.345  0.00  0.00     0.078 C 
ATOM      2  C1  UNL d   1      -0.866   0.611   1.958  0.00  0.00    -0.077 A 
ATOM      3  C2  UNL d   1       0.328   0.256   1.317  0.00  0.00    -0.001 A 
ATOM      4  C3  UNL d   1       0.306  -0.263   0.022  0.00  0.00     0.003 A 
ATOM      5  C4  UNL d   1      -0.906  -0.431  -0.645  0.00  0.00    -0.005 A 
ATOM      6  C5  UNL d   1      -2.098  -0.078  -0.017  0.00  0.00     0.003 A 
ATOM      7  C6  UNL d   1      -2.079   0.441   1.279  0.00  0.00    -0.001 A 
ENDROOT
TORSDOF 0
ENDMDL
