MODEL 1
REMARK minimizedAffinity -3.4565115
REMARK minimizedRMSD -1
REMARK  0 active torsions:
REMARK  status: ('A' for Active; 'I' for Inactive)
ROOT
ATOM      1  C   UNL d   1      -1.584  -0.713  -5.519  0.00  0.00     0.078 C 
ATOM      2  C1  UNL d   1      -0.300  -0.422  -4.802  0.00  0.00    -0.077 A 
ATOM      3  C2  UNL d   1       0.660   0.433  -5.359  0.00  0.00    -0.001 A 
ATOM      4  C3  UNL d   1       1.855   0.687  -4.685  0.00  0.00     0.003 A 
ATOM      5  C4  UNL d   1       2.103   0.090  -3.450  0.00  0.00    -0.005 A 
ATOM      6  C5  UNL d   1       1.155  -0.763  -2.889  0.00  0.00     0.003 A 
ATOM      7  C6  UNL d   1      -0.041  -1.018  -3.561  0.00  0.00    -0.001 A 
ENDROOT
TORSDOF 0
ENDMDL
