MODEL 1
REMARK minimizedAffinity -4.19220114
REMARK minimizedRMSD -1
REMARK  0 active torsions:
REMARK  status: ('A' for Active; 'I' for Inactive)
ROOT
ATOM      1  C   UNL d   1      -0.846   1.755   3.006  0.00  0.00     0.078 C 
ATOM      2  C1  UNL d   1      -0.672   0.890   1.794  0.00  0.00    -0.077 A 
ATOM      3  C2  UNL d   1       0.599   0.645   1.258  0.00  0.00    -0.001 A 
ATOM      4  C3  UNL d   1       0.745  -0.155   0.124  0.00  0.00     0.003 A 
ATOM      5  C4  UNL d   1      -0.376  -0.715  -0.486  0.00  0.00    -0.005 A 
ATOM      6  C5  UNL d   1      -1.645  -0.475   0.038  0.00  0.00     0.003 A 
ATOM      7  C6  UNL d   1      -1.793   0.324   1.172  0.00  0.00    -0.001 A 
ENDROOT
TORSDOF 0
ENDMDL
