MODEL 1
REMARK minimizedAffinity -3.2360208
REMARK minimizedRMSD -1
REMARK  0 active torsions:
REMARK  status: ('A' for Active; 'I' for Inactive)
ROOT
ATOM      1  C   UNL d   1      -1.360  -1.197  -0.012  0.00  0.00     0.078 C 
ATOM      2  C1  UNL d   1      -0.794  -0.163   0.915  0.00  0.00    -0.077 A 
ATOM      3  C2  UNL d   1      -1.114  -0.163   2.278  0.00  0.00    -0.001 A 
ATOM      4  C3  UNL d   1      -0.587   0.811   3.127  0.00  0.00     0.003 A 
ATOM      5  C4  UNL d   1       0.262   1.794   2.623  0.00  0.00    -0.005 A 
ATOM      6  C5  UNL d   1       0.584   1.804   1.267  0.00  0.00     0.003 A 
ATOM      7  C6  UNL d   1       0.058   0.831   0.416  0.00  0.00    -0.001 A 
ENDROOT
TORSDOF 0
ENDMDL
