MODEL 1
REMARK minimizedAffinity -6.46289492
REMARK minimizedRMSD -1
REMARK  0 active torsions:
REMARK  status: ('A' for Active; 'I' for Inactive)
ROOT
ATOM      1  C   UNL d   1       1.131  -0.819  -0.786  0.00  0.00     0.078 C 
ATOM      2  C1  UNL d   1       1.154   0.680  -0.773  0.00  0.00    -0.077 A 
ATOM      3  C2  UNL d   1       1.585   1.405  -1.892  0.00  0.00    -0.001 A 
ATOM      4  C3  UNL d   1       1.609   2.800  -1.863  0.00  0.00     0.003 A 
ATOM      5  C4  UNL d   1       1.206   3.483  -0.717  0.00  0.00    -0.005 A 
ATOM      6  C5  UNL d   1       0.778   2.771   0.401  0.00  0.00     0.003 A 
ATOM      7  C6  UNL d   1       0.752   1.376   0.374  0.00  0.00    -0.001 A 
ENDROOT
TORSDOF 0
ENDMDL
