MODEL 1
REMARK minimizedAffinity -5.59772587
REMARK minimizedRMSD -1
REMARK  0 active torsions:
REMARK  status: ('A' for Active; 'I' for Inactive)
ROOT
ATOM      1  C   UNL d   1       2.188   4.450  -0.799  0.00  0.00     0.078 C 
ATOM      2  C1  UNL d   1       1.667   3.048  -0.688  0.00  0.00    -0.077 A 
ATOM      3  C2  UNL d   1       1.305   2.321  -1.829  0.00  0.00    -0.001 A 
ATOM      4  C3  UNL d   1       0.813   1.021  -1.710  0.00  0.00     0.003 A 
ATOM      5  C4  UNL d   1       0.676   0.436  -0.452  0.00  0.00    -0.005 A 
ATOM      6  C5  UNL d   1       1.032   1.153   0.689  0.00  0.00     0.003 A 
ATOM      7  C6  UNL d   1       1.525   2.453   0.572  0.00  0.00    -0.001 A 
ENDROOT
TORSDOF 0
ENDMDL
