MODEL 1
REMARK minimizedAffinity -1.23114061
REMARK minimizedRMSD -1
REMARK  0 active torsions:
REMARK  status: ('A' for Active; 'I' for Inactive)
ROOT
ATOM      1  C   UNL d   1       1.706   4.875  -0.729  0.00  0.00     0.078 C 
ATOM      2  C1  UNL d   1       1.395   3.409  -0.776  0.00  0.00    -0.077 A 
ATOM      3  C2  UNL d   1       1.057   2.706   0.386  0.00  0.00    -0.001 A 
ATOM      4  C3  UNL d   1       0.779   1.339   0.329  0.00  0.00     0.003 A 
ATOM      5  C4  UNL d   1       0.837   0.664  -0.889  0.00  0.00    -0.005 A 
ATOM      6  C5  UNL d   1       1.174   1.355  -2.051  0.00  0.00     0.003 A 
ATOM      7  C6  UNL d   1       1.453   2.722  -1.995  0.00  0.00    -0.001 A 
ENDROOT
TORSDOF 0
ENDMDL
