MODEL 1
REMARK minimizedAffinity 0.15644227
REMARK minimizedRMSD -1
REMARK  0 active torsions:
REMARK  status: ('A' for Active; 'I' for Inactive)
ROOT
ATOM      1  C   UNL d   1       0.867   1.229   1.593  0.00  0.00     0.078 C 
ATOM      2  C1  UNL d   1       1.297   1.282   0.158  0.00  0.00    -0.077 A 
ATOM      3  C2  UNL d   1       1.657   0.117  -0.530  0.00  0.00    -0.001 A 
ATOM      4  C3  UNL d   1       2.065   0.182  -1.864  0.00  0.00     0.003 A 
ATOM      5  C4  UNL d   1       2.118   1.410  -2.520  0.00  0.00    -0.005 A 
ATOM      6  C5  UNL d   1       1.764   2.575  -1.842  0.00  0.00     0.003 A 
ATOM      7  C6  UNL d   1       1.356   2.512  -0.509  0.00  0.00    -0.001 A 
ENDROOT
TORSDOF 0
ENDMDL
