MODEL 1
REMARK minimizedAffinity -0.686230063
REMARK minimizedRMSD -1
REMARK  0 active torsions:
REMARK  status: ('A' for Active; 'I' for Inactive)
ROOT
ATOM      1  C   UNL d   1       1.142  -1.390  -0.215  0.00  0.00     0.078 C 
ATOM      2  C1  UNL d   1       1.236   0.090  -0.433  0.00  0.00    -0.077 A 
ATOM      3  C2  UNL d   1       2.029   0.619  -1.460  0.00  0.00    -0.001 A 
ATOM      4  C3  UNL d   1       2.114   2.000  -1.645  0.00  0.00     0.003 A 
ATOM      5  C4  UNL d   1       1.411   2.863  -0.807  0.00  0.00    -0.005 A 
ATOM      6  C5  UNL d   1       0.622   2.346   0.218  0.00  0.00     0.003 A 
ATOM      7  C6  UNL d   1       0.535   0.966   0.405  0.00  0.00    -0.001 A 
ENDROOT
TORSDOF 0
ENDMDL
