MODEL 1
REMARK minimizedAffinity -1.57331407
REMARK minimizedRMSD -1
REMARK  0 active torsions:
REMARK  status: ('A' for Active; 'I' for Inactive)
ROOT
ATOM      1  C   UNL d   1       2.062   5.680  -0.966  0.00  0.00     0.078 C 
ATOM      2  C1  UNL d   1       1.555   4.309  -1.300  0.00  0.00    -0.077 A 
ATOM      3  C2  UNL d   1       1.902   3.201  -0.517  0.00  0.00    -0.001 A 
ATOM      4  C3  UNL d   1       1.431   1.929  -0.845  0.00  0.00     0.003 A 
ATOM      5  C4  UNL d   1       0.612   1.752  -1.958  0.00  0.00    -0.005 A 
ATOM      6  C5  UNL d   1       0.263   2.848  -2.745  0.00  0.00     0.003 A 
ATOM      7  C6  UNL d   1       0.733   4.121  -2.418  0.00  0.00    -0.001 A 
ENDROOT
TORSDOF 0
ENDMDL
