MODEL 1
REMARK minimizedAffinity -3.60892963
REMARK minimizedRMSD -1
REMARK  0 active torsions:
REMARK  status: ('A' for Active; 'I' for Inactive)
ROOT
ATOM      1  C   UNL d   1       1.317  -1.115  -0.947  0.00  0.00     0.078 C 
ATOM      2  C1  UNL d   1       1.322   0.362  -0.687  0.00  0.00    -0.077 A 
ATOM      3  C2  UNL d   1       1.727   1.267  -1.676  0.00  0.00    -0.001 A 
ATOM      4  C3  UNL d   1       1.736   2.638  -1.417  0.00  0.00     0.003 A 
ATOM      5  C4  UNL d   1       1.344   3.117  -0.169  0.00  0.00    -0.005 A 
ATOM      6  C5  UNL d   1       0.942   2.224   0.822  0.00  0.00     0.003 A 
ATOM      7  C6  UNL d   1       0.932   0.852   0.565  0.00  0.00    -0.001 A 
ENDROOT
TORSDOF 0
ENDMDL
