MODEL 1
REMARK minimizedAffinity -0.0934662893
REMARK minimizedRMSD -1
REMARK  0 active torsions:
REMARK  status: ('A' for Active; 'I' for Inactive)
ROOT
ATOM      1  C   UNL d   1       1.820  -1.503   0.025  0.00  0.00     0.078 C 
ATOM      2  C1  UNL d   1       1.443  -0.074  -0.224  0.00  0.00    -0.077 A 
ATOM      3  C2  UNL d   1       1.352   0.432  -1.526  0.00  0.00    -0.001 A 
ATOM      4  C3  UNL d   1       1.010   1.768  -1.743  0.00  0.00     0.003 A 
ATOM      5  C4  UNL d   1       0.756   2.609  -0.661  0.00  0.00    -0.005 A 
ATOM      6  C5  UNL d   1       0.846   2.116   0.639  0.00  0.00     0.003 A 
ATOM      7  C6  UNL d   1       1.189   0.780   0.857  0.00  0.00    -0.001 A 
ENDROOT
TORSDOF 0
ENDMDL
