MODEL 1
REMARK minimizedAffinity 6.32946825
REMARK minimizedRMSD -1
REMARK  0 active torsions:
REMARK  status: ('A' for Active; 'I' for Inactive)
ROOT
ATOM      1  C   UNL d   1       0.551  -1.648  -1.684  0.00  0.00     0.078 C 
ATOM      2  C1  UNL d   1       1.014  -0.328  -1.144  0.00  0.00    -0.077 A 
ATOM      3  C2  UNL d   1       1.780  -0.256   0.025  0.00  0.00    -0.001 A 
ATOM      4  C3  UNL d   1       2.195   0.981   0.522  0.00  0.00     0.003 A 
ATOM      5  C4  UNL d   1       1.848   2.155  -0.144  0.00  0.00    -0.005 A 
ATOM      6  C5  UNL d   1       1.083   2.093  -1.307  0.00  0.00     0.003 A 
ATOM      7  C6  UNL d   1       0.667   0.857  -1.805  0.00  0.00    -0.001 A 
ENDROOT
TORSDOF 0
ENDMDL
