MODEL 1
REMARK minimizedAffinity -4.79161501
REMARK minimizedRMSD -1
REMARK  0 active torsions:
REMARK  status: ('A' for Active; 'I' for Inactive)
ROOT
ATOM      1  C   UNL d   1       1.177  -0.662  -1.060  0.00  0.00     0.078 C 
ATOM      2  C1  UNL d   1       1.198   0.776  -0.633  0.00  0.00    -0.077 A 
ATOM      3  C2  UNL d   1       1.466   1.797  -1.552  0.00  0.00    -0.001 A 
ATOM      4  C3  UNL d   1       1.492   3.130  -1.138  0.00  0.00     0.003 A 
ATOM      5  C4  UNL d   1       1.252   3.453   0.196  0.00  0.00    -0.005 A 
ATOM      6  C5  UNL d   1       0.987   2.443   1.119  0.00  0.00     0.003 A 
ATOM      7  C6  UNL d   1       0.961   1.110   0.707  0.00  0.00    -0.001 A 
ENDROOT
TORSDOF 0
ENDMDL
