MODEL 1
REMARK minimizedAffinity 3.26446652
REMARK minimizedRMSD -1
REMARK  0 active torsions:
REMARK  status: ('A' for Active; 'I' for Inactive)
ROOT
ATOM      1  C   UNL d   1       1.895   0.102  -1.450  0.00  0.00     0.078 C 
ATOM      2  C1  UNL d   1       1.693   1.491  -0.924  0.00  0.00    -0.077 A 
ATOM      3  C2  UNL d   1       1.525   1.726   0.447  0.00  0.00    -0.001 A 
ATOM      4  C3  UNL d   1       1.328   3.024   0.921  0.00  0.00     0.003 A 
ATOM      5  C4  UNL d   1       1.297   4.097   0.032  0.00  0.00    -0.005 A 
ATOM      6  C5  UNL d   1       1.460   3.873  -1.333  0.00  0.00     0.003 A 
ATOM      7  C6  UNL d   1       1.657   2.576  -1.809  0.00  0.00    -0.001 A 
ENDROOT
TORSDOF 0
ENDMDL
