MODEL 1
REMARK minimizedAffinity -5.12287569
REMARK minimizedRMSD -1
REMARK  0 active torsions:
REMARK  status: ('A' for Active; 'I' for Inactive)
ROOT
ATOM      1  C   UNL d   1       1.861   5.254  -1.121  0.00  0.00     0.078 C 
ATOM      2  C1  UNL d   1       1.557   3.788  -1.028  0.00  0.00    -0.077 A 
ATOM      3  C2  UNL d   1       1.125   3.217   0.175  0.00  0.00    -0.001 A 
ATOM      4  C3  UNL d   1       0.855   1.849   0.250  0.00  0.00     0.003 A 
ATOM      5  C4  UNL d   1       1.016   1.042  -0.875  0.00  0.00    -0.005 A 
ATOM      6  C5  UNL d   1       1.448   1.601  -2.075  0.00  0.00     0.003 A 
ATOM      7  C6  UNL d   1       1.718   2.969  -2.152  0.00  0.00    -0.001 A 
ENDROOT
TORSDOF 0
ENDMDL
