MODEL 1
REMARK minimizedAffinity -4.00909185
REMARK minimizedRMSD -1
REMARK  0 active torsions:
REMARK  status: ('A' for Active; 'I' for Inactive)
ROOT
ATOM      1  C   UNL d   1       0.431   0.998   2.136  0.00  0.00     0.078 C 
ATOM      2  C1  UNL d   1       0.864   1.235   0.720  0.00  0.00    -0.077 A 
ATOM      3  C2  UNL d   1       1.219   0.168  -0.114  0.00  0.00    -0.001 A 
ATOM      4  C3  UNL d   1       1.629   0.404  -1.427  0.00  0.00     0.003 A 
ATOM      5  C4  UNL d   1       1.689   1.707  -1.918  0.00  0.00    -0.005 A 
ATOM      6  C5  UNL d   1       1.340   2.776  -1.095  0.00  0.00     0.003 A 
ATOM      7  C6  UNL d   1       0.929   2.541   0.219  0.00  0.00    -0.001 A 
ENDROOT
TORSDOF 0
ENDMDL
