MODEL 1
REMARK minimizedAffinity 3.24881744
REMARK minimizedRMSD -1
REMARK  0 active torsions:
REMARK  status: ('A' for Active; 'I' for Inactive)
ROOT
ATOM      1  C   UNL d   1       1.858   0.182  -1.136  0.00  0.00     0.078 C 
ATOM      2  C1  UNL d   1       1.510   1.575  -0.701  0.00  0.00    -0.077 A 
ATOM      3  C2  UNL d   1       1.601   1.954   0.643  0.00  0.00    -0.001 A 
ATOM      4  C3  UNL d   1       1.264   3.250   1.036  0.00  0.00     0.003 A 
ATOM      5  C4  UNL d   1       0.833   4.178   0.089  0.00  0.00    -0.005 A 
ATOM      6  C5  UNL d   1       0.737   3.809  -1.251  0.00  0.00     0.003 A 
ATOM      7  C6  UNL d   1       1.073   2.513  -1.645  0.00  0.00    -0.001 A 
ENDROOT
TORSDOF 0
ENDMDL
