MODEL 1
REMARK minimizedAffinity -4.99625587
REMARK minimizedRMSD -1
REMARK  0 active torsions:
REMARK  status: ('A' for Active; 'I' for Inactive)
ROOT
ATOM      1  C   UNL d   1       0.882  -0.418  -1.325  0.00  0.00     0.078 C 
ATOM      2  C1  UNL d   1       1.009   0.990  -0.826  0.00  0.00    -0.077 A 
ATOM      3  C2  UNL d   1       0.845   1.292   0.531  0.00  0.00    -0.001 A 
ATOM      4  C3  UNL d   1       0.957   2.609   0.979  0.00  0.00     0.003 A 
ATOM      5  C4  UNL d   1       1.231   3.635   0.077  0.00  0.00    -0.005 A 
ATOM      6  C5  UNL d   1       1.394   3.344  -1.276  0.00  0.00     0.003 A 
ATOM      7  C6  UNL d   1       1.283   2.028  -1.726  0.00  0.00    -0.001 A 
ENDROOT
TORSDOF 0
ENDMDL
