MODEL 1
REMARK minimizedAffinity -1.29641676
REMARK minimizedRMSD -1
REMARK  0 active torsions:
REMARK  status: ('A' for Active; 'I' for Inactive)
ROOT
ATOM      1  C   UNL d   1       1.488   3.190  -2.198  0.00  0.00     0.078 C 
ATOM      2  C1  UNL d   1       1.287   2.034  -1.264  0.00  0.00    -0.077 A 
ATOM      3  C2  UNL d   1       0.997   2.242   0.090  0.00  0.00    -0.001 A 
ATOM      4  C3  UNL d   1       0.822   1.156   0.949  0.00  0.00     0.003 A 
ATOM      5  C4  UNL d   1       0.937  -0.145   0.464  0.00  0.00    -0.005 A 
ATOM      6  C5  UNL d   1       1.227  -0.362  -0.881  0.00  0.00     0.003 A 
ATOM      7  C6  UNL d   1       1.402   0.722  -1.742  0.00  0.00    -0.001 A 
ENDROOT
TORSDOF 0
ENDMDL
