MODEL 1
REMARK minimizedAffinity -1.61453485
REMARK minimizedRMSD -1
REMARK  0 active torsions:
REMARK  status: ('A' for Active; 'I' for Inactive)
ROOT
ATOM      1  C   UNL d   1       1.569   4.991  -0.859  0.00  0.00     0.078 C 
ATOM      2  C1  UNL d   1       1.320   3.512  -0.864  0.00  0.00    -0.077 A 
ATOM      3  C2  UNL d   1       1.219   2.802  -2.066  0.00  0.00    -0.001 A 
ATOM      4  C3  UNL d   1       0.978   1.427  -2.056  0.00  0.00     0.003 A 
ATOM      5  C4  UNL d   1       0.835   0.751  -0.846  0.00  0.00    -0.005 A 
ATOM      6  C5  UNL d   1       0.932   1.449   0.355  0.00  0.00     0.003 A 
ATOM      7  C6  UNL d   1       1.173   2.824   0.347  0.00  0.00    -0.001 A 
ENDROOT
TORSDOF 0
ENDMDL
