MODEL 1
REMARK minimizedAffinity -2.85334086
REMARK minimizedRMSD -1
REMARK  0 active torsions:
REMARK  status: ('A' for Active; 'I' for Inactive)
ROOT
ATOM      1  C   UNL d   1       1.124  -1.081  -0.740  0.00  0.00     0.078 C 
ATOM      2  C1  UNL d   1       1.184   0.417  -0.705  0.00  0.00    -0.077 A 
ATOM      3  C2  UNL d   1       1.037   1.116   0.500  0.00  0.00    -0.001 A 
ATOM      4  C3  UNL d   1       1.086   2.511   0.516  0.00  0.00     0.003 A 
ATOM      5  C4  UNL d   1       1.280   3.219  -0.668  0.00  0.00    -0.005 A 
ATOM      6  C5  UNL d   1       1.425   2.532  -1.872  0.00  0.00     0.003 A 
ATOM      7  C6  UNL d   1       1.377   1.137  -1.890  0.00  0.00    -0.001 A 
ENDROOT
TORSDOF 0
ENDMDL
