MODEL 1
REMARK minimizedAffinity -1.85421526
REMARK minimizedRMSD -1
REMARK  0 active torsions:
REMARK  status: ('A' for Active; 'I' for Inactive)
ROOT
ATOM      1  C   UNL d   1       2.606  -0.736   1.381  0.00  0.00    -0.002 A 
ATOM      2  C1  UNL d   1       2.824  -1.821   0.544  0.00  0.00     0.010 A 
ATOM      3  C2  UNL d   1       1.895  -2.153  -0.444  0.00  0.00     0.041 A 
ATOM      4  C3  UNL d   1       0.732  -1.369  -0.578  0.00  0.00    -0.075 A 
ATOM      5  S   UNL d   1      -0.544  -1.587  -1.716  0.00  0.00     0.015 SA
ATOM      6  C4  UNL d   1      -1.408  -0.245  -1.118  0.00  0.00     0.022 A 
ATOM      7  C5  UNL d   1      -0.753   0.366  -0.075  0.00  0.00     0.026 A 
ATOM      8  C6  UNL d   1       0.491  -0.271   0.253  0.00  0.00    -0.082 A 
ATOM      9  C7  UNL d   1       1.452   0.040   1.245  0.00  0.00     0.045 A 
ENDROOT
TORSDOF 0
ENDMDL
