MODEL 1
REMARK minimizedAffinity 10.3248177
REMARK minimizedRMSD -1
REMARK  0 active torsions:
REMARK  status: ('A' for Active; 'I' for Inactive)
ROOT
ATOM      1  C   UNL d   1       2.405  -1.455  -1.087  0.00  0.00    -0.002 A 
ATOM      2  C1  UNL d   1       1.658  -0.289  -0.999  0.00  0.00     0.010 A 
ATOM      3  C2  UNL d   1       0.448  -0.271  -0.302  0.00  0.00     0.041 A 
ATOM      4  C3  UNL d   1      -0.001  -1.456   0.312  0.00  0.00    -0.075 A 
ATOM      5  S   UNL d   1      -1.452  -1.671   1.219  0.00  0.00     0.015 SA
ATOM      6  C4  UNL d   1      -1.113  -3.316   1.512  0.00  0.00     0.022 A 
ATOM      7  C5  UNL d   1       0.073  -3.708   0.939  0.00  0.00     0.026 A 
ATOM      8  C6  UNL d   1       0.734  -2.643   0.239  0.00  0.00    -0.082 A 
ATOM      9  C7  UNL d   1       1.956  -2.628  -0.476  0.00  0.00     0.045 A 
ENDROOT
TORSDOF 0
ENDMDL
