MODEL 1
REMARK minimizedAffinity -3.76372528
REMARK minimizedRMSD -1
REMARK  0 active torsions:
REMARK  status: ('A' for Active; 'I' for Inactive)
ROOT
ATOM      1  C   UNL d   1       1.616  -2.210  -0.352  0.00  0.00    -0.002 A 
ATOM      2  C1  UNL d   1       2.602  -1.503   0.321  0.00  0.00     0.010 A 
ATOM      3  C2  UNL d   1       2.469  -0.130   0.540  0.00  0.00     0.041 A 
ATOM      4  C3  UNL d   1       1.315   0.526   0.068  0.00  0.00    -0.075 A 
ATOM      5  S   UNL d   1       0.935   2.201   0.222  0.00  0.00     0.015 SA
ATOM      6  C4  UNL d   1      -0.546   2.017  -0.601  0.00  0.00     0.022 A 
ATOM      7  C5  UNL d   1      -0.761   0.717  -0.991  0.00  0.00     0.026 A 
ATOM      8  C6  UNL d   1       0.307  -0.164  -0.612  0.00  0.00    -0.082 A 
ATOM      9  C7  UNL d   1       0.473  -1.555  -0.819  0.00  0.00     0.045 A 
ENDROOT
TORSDOF 0
ENDMDL
