MODEL 1
REMARK minimizedAffinity -3.42642474
REMARK minimizedRMSD -1
REMARK  0 active torsions:
REMARK  status: ('A' for Active; 'I' for Inactive)
ROOT
ATOM      1  C   UNL d   1       1.479  -1.976  -0.008  0.00  0.00    -0.002 A 
ATOM      2  C1  UNL d   1       2.104  -0.766   0.254  0.00  0.00     0.010 A 
ATOM      3  C2  UNL d   1       1.389   0.432   0.194  0.00  0.00     0.041 A 
ATOM      4  C3  UNL d   1       0.020   0.391  -0.135  0.00  0.00    -0.075 A 
ATOM      5  S   UNL d   1      -1.058   1.731  -0.267  0.00  0.00     0.015 SA
ATOM      6  C4  UNL d   1      -2.374   0.728  -0.674  0.00  0.00     0.022 A 
ATOM      7  C5  UNL d   1      -2.018  -0.599  -0.713  0.00  0.00     0.026 A 
ATOM      8  C6  UNL d   1      -0.633  -0.815  -0.402  0.00  0.00    -0.082 A 
ATOM      9  C7  UNL d   1       0.120  -2.012  -0.334  0.00  0.00     0.045 A 
ENDROOT
TORSDOF 0
ENDMDL
