MODEL 1
REMARK minimizedAffinity -2.74814343
REMARK minimizedRMSD -1
REMARK  0 active torsions:
REMARK  status: ('A' for Active; 'I' for Inactive)
ROOT
ATOM      1  C   UNL d   1      -1.044   4.175  -2.459  0.00  0.00     0.023 A 
ATOM      2  C1  UNL d   1       0.258   3.750  -2.725  0.00  0.00     0.003 A 
ATOM      3  C2  UNL d   1       0.580   2.393  -2.648  0.00  0.00     0.048 A 
ATOM      4  C3  UNL d   1      -0.405   1.467  -2.305  0.00  0.00     0.023 A 
ATOM      5  C4  UNL d   1      -1.709   1.889  -2.039  0.00  0.00     0.048 A 
ATOM      6  C5  UNL d   1      -2.026   3.246  -2.117  0.00  0.00     0.003 A 
ATOM      7  I   UNL d   1       0.071  -0.552  -2.189  0.00  0.00    -0.146 I 
ENDROOT
TORSDOF 0
ENDMDL
