MODEL 1
REMARK minimizedAffinity 0.233072057
REMARK minimizedRMSD -1
REMARK  0 active torsions:
REMARK  status: ('A' for Active; 'I' for Inactive)
ROOT
ATOM      1  C   UNL d   1       1.915  -0.481   2.757  0.00  0.00     0.023 A 
ATOM      2  C1  UNL d   1       2.222   0.562   1.883  0.00  0.00     0.003 A 
ATOM      3  C2  UNL d   1       1.427   0.788   0.757  0.00  0.00     0.048 A 
ATOM      4  C3  UNL d   1       0.327  -0.033   0.512  0.00  0.00     0.023 A 
ATOM      5  C4  UNL d   1       0.015  -1.077   1.384  0.00  0.00     0.048 A 
ATOM      6  C5  UNL d   1       0.813  -1.300   2.508  0.00  0.00     0.003 A 
ATOM      7  I   UNL d   1      -0.857   0.302  -1.163  0.00  0.00    -0.146 I 
ENDROOT
TORSDOF 0
ENDMDL
