MODEL 1
REMARK minimizedAffinity -3.66933918
REMARK minimizedRMSD -1
REMARK  0 active torsions:
REMARK  status: ('A' for Active; 'I' for Inactive)
ROOT
ATOM      1  C   UNL d   1       1.166  -1.150   2.834  0.00  0.00     0.023 A 
ATOM      2  C1  UNL d   1      -0.073  -0.512   2.771  0.00  0.00     0.003 A 
ATOM      3  C2  UNL d   1      -0.559  -0.045   1.548  0.00  0.00     0.048 A 
ATOM      4  C3  UNL d   1       0.198  -0.222   0.391  0.00  0.00     0.023 A 
ATOM      5  C4  UNL d   1       1.438  -0.861   0.448  0.00  0.00     0.048 A 
ATOM      6  C5  UNL d   1       1.920  -1.325   1.673  0.00  0.00     0.003 A 
ATOM      7  I   UNL d   1      -0.523   0.471  -1.431  0.00  0.00    -0.146 I 
ENDROOT
TORSDOF 0
ENDMDL
