MODEL 1
REMARK minimizedAffinity -2.3799789
REMARK minimizedRMSD -1
REMARK  0 active torsions:
REMARK  status: ('A' for Active; 'I' for Inactive)
ROOT
ATOM      1  C   UNL d   1       1.514  -0.583   2.792  0.00  0.00     0.023 A 
ATOM      2  C1  UNL d   1       1.942   0.588   2.165  0.00  0.00     0.003 A 
ATOM      3  C2  UNL d   1       1.326   1.016   0.988  0.00  0.00     0.048 A 
ATOM      4  C3  UNL d   1       0.282   0.269   0.442  0.00  0.00     0.023 A 
ATOM      5  C4  UNL d   1      -0.150  -0.902   1.067  0.00  0.00     0.048 A 
ATOM      6  C5  UNL d   1       0.469  -1.327   2.243  0.00  0.00     0.003 A 
ATOM      7  I   UNL d   1      -0.637   0.904  -1.311  0.00  0.00    -0.146 I 
ENDROOT
TORSDOF 0
ENDMDL
