MODEL 1
REMARK minimizedAffinity -4.12524986
REMARK minimizedRMSD -1
REMARK  0 active torsions:
REMARK  status: ('A' for Active; 'I' for Inactive)
ROOT
ATOM      1  C   UNL d   1       0.540  -0.852   2.722  0.00  0.00     0.023 A 
ATOM      2  C1  UNL d   1      -0.757  -0.402   2.478  0.00  0.00     0.003 A 
ATOM      3  C2  UNL d   1      -1.091   0.127   1.229  0.00  0.00     0.048 A 
ATOM      4  C3  UNL d   1      -0.123   0.202   0.229  0.00  0.00     0.023 A 
ATOM      5  C4  UNL d   1       1.177  -0.248   0.468  0.00  0.00     0.048 A 
ATOM      6  C5  UNL d   1       1.506  -0.775   1.718  0.00  0.00     0.003 A 
ATOM      7  I   UNL d   1      -0.617   0.988  -1.631  0.00  0.00    -0.146 I 
ENDROOT
TORSDOF 0
ENDMDL
