MODEL 1
REMARK minimizedAffinity -1.6716491
REMARK minimizedRMSD -1
REMARK  0 active torsions:
REMARK  status: ('A' for Active; 'I' for Inactive)
ROOT
ATOM      1  C   UNL d   1       0.653  -0.859   2.392  0.00  0.00     0.023 A 
ATOM      2  C1  UNL d   1      -0.701  -0.529   2.327  0.00  0.00     0.003 A 
ATOM      3  C2  UNL d   1      -1.229   0.029   1.161  0.00  0.00     0.048 A 
ATOM      4  C3  UNL d   1      -0.398   0.254   0.064  0.00  0.00     0.023 A 
ATOM      5  C4  UNL d   1       0.957  -0.076   0.124  0.00  0.00     0.048 A 
ATOM      6  C5  UNL d   1       1.481  -0.633   1.293  0.00  0.00     0.003 A 
ATOM      7  I   UNL d   1      -1.181   1.084  -1.673  0.00  0.00    -0.146 I 
ENDROOT
TORSDOF 0
ENDMDL
