MODEL 1
REMARK minimizedAffinity 2.13485408
REMARK minimizedRMSD -1
REMARK  0 active torsions:
REMARK  status: ('A' for Active; 'I' for Inactive)
ROOT
ATOM      1  C   UNL d   1      -4.387  -1.679  -3.613  0.00  0.00     0.023 A 
ATOM      2  C1  UNL d   1      -3.370  -1.497  -2.675  0.00  0.00     0.003 A 
ATOM      3  C2  UNL d   1      -2.771  -0.245  -2.527  0.00  0.00     0.048 A 
ATOM      4  C3  UNL d   1      -3.193   0.822  -3.320  0.00  0.00     0.023 A 
ATOM      5  C4  UNL d   1      -4.210   0.645  -4.260  0.00  0.00     0.048 A 
ATOM      6  C5  UNL d   1      -4.806  -0.610  -4.405  0.00  0.00     0.003 A 
ATOM      7  I   UNL d   1      -2.302   2.687  -3.102  0.00  0.00    -0.146 I 
ENDROOT
TORSDOF 0
ENDMDL
