MODEL 1
REMARK minimizedAffinity 3.39912248
REMARK minimizedRMSD -1
REMARK  0 active torsions:
REMARK  status: ('A' for Active; 'I' for Inactive)
ROOT
ATOM      1  C   UNL d   1       2.168  -0.522   3.780  0.00  0.00     0.023 A 
ATOM      2  C1  UNL d   1       1.793   0.430   2.831  0.00  0.00     0.003 A 
ATOM      3  C2  UNL d   1       0.598   0.279   2.124  0.00  0.00     0.048 A 
ATOM      4  C3  UNL d   1      -0.217  -0.825   2.372  0.00  0.00     0.023 A 
ATOM      5  C4  UNL d   1       0.154  -1.779   3.321  0.00  0.00     0.048 A 
ATOM      6  C5  UNL d   1       1.350  -1.624   4.025  0.00  0.00     0.003 A 
ATOM      7  I   UNL d   1      -1.996  -1.052   1.321  0.00  0.00    -0.146 I 
ENDROOT
TORSDOF 0
ENDMDL
