MODEL 1
REMARK minimizedAffinity -3.68711948
REMARK minimizedRMSD -1
REMARK  0 active torsions:
REMARK  status: ('A' for Active; 'I' for Inactive)
ROOT
ATOM      1  C   UNL d   1       1.546  -1.344   2.346  0.00  0.00     0.023 A 
ATOM      2  C1  UNL d   1       0.321  -0.685   2.462  0.00  0.00     0.003 A 
ATOM      3  C2  UNL d   1      -0.258  -0.085   1.342  0.00  0.00     0.048 A 
ATOM      4  C3  UNL d   1       0.391  -0.147   0.110  0.00  0.00     0.023 A 
ATOM      5  C4  UNL d   1       1.616  -0.805  -0.011  0.00  0.00     0.048 A 
ATOM      6  C5  UNL d   1       2.192  -1.404   1.111  0.00  0.00     0.003 A 
ATOM      7  I   UNL d   1      -0.469   0.746  -1.558  0.00  0.00    -0.146 I 
ENDROOT
TORSDOF 0
ENDMDL
