MODEL 1
REMARK minimizedAffinity -1.61440337
REMARK minimizedRMSD -1
REMARK  0 active torsions:
REMARK  status: ('A' for Active; 'I' for Inactive)
ROOT
ATOM      1  C   UNL d   1      -0.021  -0.641   2.485  0.00  0.00     0.023 A 
ATOM      2  C1  UNL d   1       1.091  -0.523   1.651  0.00  0.00     0.003 A 
ATOM      3  C2  UNL d   1       0.960   0.055   0.387  0.00  0.00     0.048 A 
ATOM      4  C3  UNL d   1      -0.287   0.514  -0.037  0.00  0.00     0.023 A 
ATOM      5  C4  UNL d   1      -1.403   0.398   0.794  0.00  0.00     0.048 A 
ATOM      6  C5  UNL d   1      -1.266  -0.181   2.056  0.00  0.00     0.003 A 
ATOM      7  I   UNL d   1      -0.485   1.375  -1.918  0.00  0.00    -0.146 I 
ENDROOT
TORSDOF 0
ENDMDL
