MODEL 1
REMARK minimizedAffinity -2.42760134
REMARK minimizedRMSD -1
REMARK  0 active torsions:
REMARK  status: ('A' for Active; 'I' for Inactive)
ROOT
ATOM      1  C   UNL d   1       0.082  -0.900   2.122  0.00  0.00     0.023 A 
ATOM      2  C1  UNL d   1      -1.121  -0.195   2.068  0.00  0.00     0.003 A 
ATOM      3  C2  UNL d   1      -1.477   0.492   0.906  0.00  0.00     0.048 A 
ATOM      4  C3  UNL d   1      -0.627   0.469  -0.199  0.00  0.00     0.023 A 
ATOM      5  C4  UNL d   1       0.576  -0.236  -0.150  0.00  0.00     0.048 A 
ATOM      6  C5  UNL d   1       0.929  -0.920   1.015  0.00  0.00     0.003 A 
ATOM      7  I   UNL d   1      -1.156   1.490  -1.931  0.00  0.00    -0.146 I 
ENDROOT
TORSDOF 0
ENDMDL
