MODEL 1
REMARK minimizedAffinity -1.72138858
REMARK minimizedRMSD -1
REMARK  0 active torsions:
REMARK  status: ('A' for Active; 'I' for Inactive)
ROOT
ATOM      1  C   UNL d   1      -0.051  -0.023   3.028  0.00  0.00     0.023 A 
ATOM      2  C1  UNL d   1      -0.498  -0.809   1.966  0.00  0.00     0.003 A 
ATOM      3  C2  UNL d   1       0.422  -1.477   1.154  0.00  0.00     0.048 A 
ATOM      4  C3  UNL d   1       1.787  -1.355   1.411  0.00  0.00     0.023 A 
ATOM      5  C4  UNL d   1       2.239  -0.570   2.473  0.00  0.00     0.048 A 
ATOM      6  C5  UNL d   1       1.315   0.096   3.282  0.00  0.00     0.003 A 
ATOM      7  I   UNL d   1       3.158  -2.347   0.204  0.00  0.00    -0.146 I 
ENDROOT
TORSDOF 0
ENDMDL
