MODEL 1
REMARK minimizedAffinity -2.18839622
REMARK minimizedRMSD -1
REMARK  0 active torsions:
REMARK  status: ('A' for Active; 'I' for Inactive)
ROOT
ATOM      1  C   UNL d   1      -0.423   3.467  -2.019  0.00  0.00     0.077 C 
ATOM      2  C1  UNL d   1       0.068   2.170  -1.448  0.00  0.00    -0.074 A 
ATOM      3  C2  UNL d   1       1.427   1.841  -1.475  0.00  0.00    -0.005 A 
ATOM      4  C3  UNL d   1       1.870   0.635  -0.932  0.00  0.00     0.006 A 
ATOM      5  C4  UNL d   1       0.960  -0.253  -0.358  0.00  0.00    -0.005 A 
ATOM      6  C5  UNL d   1      -0.403   0.059  -0.321  0.00  0.00    -0.074 A 
ATOM      7  C6  UNL d   1      -1.393  -0.880   0.302  0.00  0.00     0.077 C 
ATOM      8  C7  UNL d   1      -0.839   1.276  -0.862  0.00  0.00    -0.001 A 
ENDROOT
TORSDOF 0
ENDMDL
