MODEL 1
REMARK minimizedAffinity -4.58021355
REMARK minimizedRMSD -1
REMARK  0 active torsions:
REMARK  status: ('A' for Active; 'I' for Inactive)
ROOT
ATOM      1  C   UNL d   1       1.965  -1.413   2.943  0.00  0.00     0.077 C 
ATOM      2  C1  UNL d   1       1.115  -0.899   1.818  0.00  0.00    -0.074 A 
ATOM      3  C2  UNL d   1       1.654  -0.701   0.543  0.00  0.00    -0.005 A 
ATOM      4  C3  UNL d   1       0.849  -0.233  -0.495  0.00  0.00     0.006 A 
ATOM      5  C4  UNL d   1      -0.500   0.042  -0.269  0.00  0.00    -0.005 A 
ATOM      6  C5  UNL d   1      -1.057  -0.151   0.999  0.00  0.00    -0.074 A 
ATOM      7  C6  UNL d   1      -2.507   0.131   1.257  0.00  0.00     0.077 C 
ATOM      8  C7  UNL d   1      -0.243  -0.628   2.036  0.00  0.00    -0.001 A 
ENDROOT
TORSDOF 0
ENDMDL
