MODEL 1
REMARK minimizedAffinity -4.4918685
REMARK minimizedRMSD -1
REMARK  0 active torsions:
REMARK  status: ('A' for Active; 'I' for Inactive)
ROOT
ATOM      1  C   UNL d   1      -0.757   1.928  -1.901  0.00  0.00     0.077 C 
ATOM      2  C1  UNL d   1      -0.658   1.034  -0.701  0.00  0.00    -0.074 A 
ATOM      3  C2  UNL d   1      -1.775   0.336  -0.231  0.00  0.00    -0.005 A 
ATOM      4  C3  UNL d   1      -1.665  -0.500   0.881  0.00  0.00     0.006 A 
ATOM      5  C4  UNL d   1      -0.440  -0.645   1.532  0.00  0.00    -0.005 A 
ATOM      6  C5  UNL d   1       0.688   0.045   1.076  0.00  0.00    -0.074 A 
ATOM      7  C6  UNL d   1       2.015  -0.108   1.759  0.00  0.00     0.077 C 
ATOM      8  C7  UNL d   1       0.572   0.877  -0.046  0.00  0.00    -0.001 A 
ENDROOT
TORSDOF 0
ENDMDL
