MODEL 1
REMARK minimizedAffinity -3.27079916
REMARK minimizedRMSD -1
REMARK  0 active torsions:
REMARK  status: ('A' for Active; 'I' for Inactive)
ROOT
ATOM      1  C   UNL d   1       1.360  -1.162  -1.733  0.00  0.00     0.077 C 
ATOM      2  C1  UNL d   1       0.894  -0.467  -0.489  0.00  0.00    -0.074 A 
ATOM      3  C2  UNL d   1       0.204   0.748  -0.560  0.00  0.00    -0.005 A 
ATOM      4  C3  UNL d   1      -0.232   1.378   0.606  0.00  0.00     0.006 A 
ATOM      5  C4  UNL d   1       0.016   0.801   1.852  0.00  0.00    -0.005 A 
ATOM      6  C5  UNL d   1       0.703  -0.413   1.942  0.00  0.00    -0.074 A 
ATOM      7  C6  UNL d   1       0.970  -1.052   3.273  0.00  0.00     0.077 C 
ATOM      8  C7  UNL d   1       1.132  -1.044   0.766  0.00  0.00    -0.001 A 
ENDROOT
TORSDOF 0
ENDMDL
