MODEL 1
REMARK minimizedAffinity -2.06266069
REMARK minimizedRMSD -1
REMARK  0 active torsions:
REMARK  status: ('A' for Active; 'I' for Inactive)
ROOT
ATOM      1  C   UNL d   1      -3.520   0.750   2.105  0.00  0.00     0.077 C 
ATOM      2  C1  UNL d   1      -2.156   0.128   2.094  0.00  0.00    -0.074 A 
ATOM      3  C2  UNL d   1      -1.811  -0.832   1.138  0.00  0.00    -0.005 A 
ATOM      4  C3  UNL d   1      -0.535  -1.396   1.134  0.00  0.00     0.006 A 
ATOM      5  C4  UNL d   1       0.408  -1.005   2.086  0.00  0.00    -0.005 A 
ATOM      6  C5  UNL d   1       0.082  -0.046   3.050  0.00  0.00    -0.074 A 
ATOM      7  C6  UNL d   1       1.086   0.392   4.074  0.00  0.00     0.077 C 
ATOM      8  C7  UNL d   1      -1.200   0.520   3.043  0.00  0.00    -0.001 A 
ENDROOT
TORSDOF 0
ENDMDL
