MODEL 1
REMARK minimizedAffinity 4.39919186
REMARK minimizedRMSD -1
REMARK  0 active torsions:
REMARK  status: ('A' for Active; 'I' for Inactive)
ROOT
ATOM      1  C   UNL d   1       2.225  -1.499  -0.161  0.00  0.00     0.077 C 
ATOM      2  C1  UNL d   1       1.459  -1.421   1.126  0.00  0.00    -0.074 A 
ATOM      3  C2  UNL d   1       1.532  -0.285   1.938  0.00  0.00    -0.005 A 
ATOM      4  C3  UNL d   1       0.806  -0.224   3.128  0.00  0.00     0.006 A 
ATOM      5  C4  UNL d   1       0.000  -1.295   3.516  0.00  0.00    -0.005 A 
ATOM      6  C5  UNL d   1      -0.086  -2.438   2.715  0.00  0.00    -0.074 A 
ATOM      7  C6  UNL d   1      -0.955  -3.595   3.113  0.00  0.00     0.077 C 
ATOM      8  C7  UNL d   1       0.641  -2.490   1.518  0.00  0.00    -0.001 A 
ENDROOT
TORSDOF 0
ENDMDL
