MODEL 1
REMARK minimizedAffinity 0.46882987
REMARK minimizedRMSD -1
REMARK  0 active torsions:
REMARK  status: ('A' for Active; 'I' for Inactive)
ROOT
ATOM      1  C   UNL d   1       2.268  -1.731   1.032  0.00  0.00     0.020 A 
ATOM      2  C1  UNL d   1       2.506  -0.898  -0.060  0.00  0.00     0.020 A 
ATOM      3  C2  UNL d   1       1.544   0.036  -0.449  0.00  0.00     0.034 A 
ATOM      4  C3  UNL d   1       0.338   0.139   0.254  0.00  0.00     0.017 A 
ATOM      5  C4  UNL d   1       0.099  -0.698   1.350  0.00  0.00     0.017 A 
ATOM      6  C5  UNL d   1       1.067  -1.631   1.736  0.00  0.00     0.034 A 
ATOM      7 Cl   UNL d   1      -1.364  -0.629   2.267  0.00  0.00    -0.070 Cl
ATOM      8 Cl1  UNL d   1      -0.807   1.317  -0.282  0.00  0.00    -0.070 Cl
ENDROOT
TORSDOF 0
ENDMDL
