MODEL 1
REMARK minimizedAffinity -1.0207901
REMARK minimizedRMSD -1
REMARK  0 active torsions:
REMARK  status: ('A' for Active; 'I' for Inactive)
ROOT
ATOM      1  C   UNL d   1       2.465  -1.042   0.531  0.00  0.00     0.020 A 
ATOM      2  C1  UNL d   1       2.267  -1.812   1.676  0.00  0.00     0.020 A 
ATOM      3  C2  UNL d   1       1.028  -1.799   2.321  0.00  0.00     0.034 A 
ATOM      4  C3  UNL d   1      -0.017  -1.014   1.821  0.00  0.00     0.017 A 
ATOM      5  C4  UNL d   1       0.182  -0.242   0.671  0.00  0.00     0.017 A 
ATOM      6  C5  UNL d   1       1.425  -0.259   0.029  0.00  0.00     0.034 A 
ATOM      7 Cl   UNL d   1      -1.060   0.751  -0.006  0.00  0.00    -0.070 Cl
ATOM      8 Cl1  UNL d   1      -1.522  -1.046   2.669  0.00  0.00    -0.070 Cl
ENDROOT
TORSDOF 0
ENDMDL
