MODEL 1
REMARK minimizedAffinity -3.14693594
REMARK minimizedRMSD -1
REMARK  0 active torsions:
REMARK  status: ('A' for Active; 'I' for Inactive)
ROOT
ATOM      1  C   UNL d   1       0.449   0.435  -0.487  0.00  0.00     0.020 A 
ATOM      2  C1  UNL d   1       1.730  -0.095  -0.334  0.00  0.00     0.020 A 
ATOM      3  C2  UNL d   1       2.012  -0.940   0.741  0.00  0.00     0.034 A 
ATOM      4  C3  UNL d   1       1.012  -1.259   1.667  0.00  0.00     0.017 A 
ATOM      5  C4  UNL d   1      -0.273  -0.728   1.512  0.00  0.00     0.017 A 
ATOM      6  C5  UNL d   1      -0.550   0.119   0.434  0.00  0.00     0.034 A 
ATOM      7 Cl   UNL d   1      -1.559  -1.076   2.613  0.00  0.00    -0.070 Cl
ATOM      8 Cl1  UNL d   1       1.431  -2.312   2.971  0.00  0.00    -0.070 Cl
ENDROOT
TORSDOF 0
ENDMDL
