MODEL 1
REMARK minimizedAffinity -3.10742021
REMARK minimizedRMSD -1
REMARK  0 active torsions:
REMARK  status: ('A' for Active; 'I' for Inactive)
ROOT
ATOM      1  C   UNL d   1       0.131   2.184  -3.313  0.00  0.00     0.020 A 
ATOM      2  C1  UNL d   1      -1.008   2.007  -4.098  0.00  0.00     0.020 A 
ATOM      3  C2  UNL d   1      -2.211   1.619  -3.504  0.00  0.00     0.034 A 
ATOM      4  C3  UNL d   1      -2.278   1.408  -2.122  0.00  0.00     0.017 A 
ATOM      5  C4  UNL d   1      -1.134   1.587  -1.335  0.00  0.00     0.017 A 
ATOM      6  C5  UNL d   1       0.068   1.975  -1.935  0.00  0.00     0.034 A 
ATOM      7 Cl   UNL d   1      -1.139   1.345   0.376  0.00  0.00    -0.070 Cl
ATOM      8 Cl1  UNL d   1      -3.798   0.930  -1.455  0.00  0.00    -0.070 Cl
ENDROOT
TORSDOF 0
ENDMDL
