MODEL 1
REMARK minimizedAffinity -2.6633625
REMARK minimizedRMSD -1
REMARK  0 active torsions:
REMARK  status: ('A' for Active; 'I' for Inactive)
ROOT
ATOM      1  C   UNL d   1       2.169  -1.234   0.717  0.00  0.00     0.020 A 
ATOM      2  C1  UNL d   1       2.189  -0.339  -0.352  0.00  0.00     0.020 A 
ATOM      3  C2  UNL d   1       1.070   0.453  -0.620  0.00  0.00     0.034 A 
ATOM      4  C3  UNL d   1      -0.073   0.351   0.181  0.00  0.00     0.017 A 
ATOM      5  C4  UNL d   1      -0.091  -0.547   1.254  0.00  0.00     0.017 A 
ATOM      6  C5  UNL d   1       1.032  -1.338   1.518  0.00  0.00     0.034 A 
ATOM      7 Cl   UNL d   1      -1.465  -0.729   2.288  0.00  0.00    -0.070 Cl
ATOM      8 Cl1  UNL d   1      -1.420   1.361  -0.208  0.00  0.00    -0.070 Cl
ENDROOT
TORSDOF 0
ENDMDL
