MODEL 1
REMARK minimizedAffinity -2.63943005
REMARK minimizedRMSD -1
REMARK  0 active torsions:
REMARK  status: ('A' for Active; 'I' for Inactive)
ROOT
ATOM      1  C   UNL d   1       2.583  -1.209   0.594  0.00  0.00     0.020 A 
ATOM      2  C1  UNL d   1       2.643  -0.365  -0.514  0.00  0.00     0.020 A 
ATOM      3  C2  UNL d   1       1.530   0.401  -0.869  0.00  0.00     0.034 A 
ATOM      4  C3  UNL d   1       0.354   0.325  -0.114  0.00  0.00     0.017 A 
ATOM      5  C4  UNL d   1       0.295  -0.523   0.998  0.00  0.00     0.017 A 
ATOM      6  C5  UNL d   1       1.412  -1.288   1.348  0.00  0.00     0.034 A 
ATOM      7 Cl   UNL d   1      -1.121  -0.670   1.978  0.00  0.00    -0.070 Cl
ATOM      8 Cl1  UNL d   1      -0.983   1.301  -0.609  0.00  0.00    -0.070 Cl
ENDROOT
TORSDOF 0
ENDMDL
