MODEL 1
REMARK minimizedAffinity -3.00024962
REMARK minimizedRMSD -1
REMARK  0 active torsions:
REMARK  status: ('A' for Active; 'I' for Inactive)
ROOT
ATOM      1  C   UNL d   1       2.094  -1.493  -0.025  0.00  0.00     0.020 A 
ATOM      2  C1  UNL d   1       1.890  -1.611   1.349  0.00  0.00     0.020 A 
ATOM      3  C2  UNL d   1       0.779  -1.008   1.944  0.00  0.00     0.034 A 
ATOM      4  C3  UNL d   1      -0.131  -0.285   1.165  0.00  0.00     0.017 A 
ATOM      5  C4  UNL d   1       0.075  -0.167  -0.214  0.00  0.00     0.017 A 
ATOM      6  C5  UNL d   1       1.189  -0.773  -0.805  0.00  0.00     0.034 A 
ATOM      7 Cl   UNL d   1      -1.004   0.709  -1.241  0.00  0.00    -0.070 Cl
ATOM      8 Cl1  UNL d   1      -1.482   0.433   1.967  0.00  0.00    -0.070 Cl
ENDROOT
TORSDOF 0
ENDMDL
