MODEL 1
REMARK minimizedAffinity 0.451838821
REMARK minimizedRMSD -1
REMARK  0 active torsions:
REMARK  status: ('A' for Active; 'I' for Inactive)
ROOT
ATOM      1  C   UNL d   1      -3.318   1.384  -3.473  0.00  0.00     0.020 A 
ATOM      2  C1  UNL d   1      -3.312   0.518  -2.381  0.00  0.00     0.020 A 
ATOM      3  C2  UNL d   1      -2.341   0.654  -1.386  0.00  0.00     0.034 A 
ATOM      4  C3  UNL d   1      -1.372   1.659  -1.482  0.00  0.00     0.017 A 
ATOM      5  C4  UNL d   1      -1.379   2.529  -2.579  0.00  0.00     0.017 A 
ATOM      6  C5  UNL d   1      -2.353   2.387  -3.572  0.00  0.00     0.034 A 
ATOM      7 Cl   UNL d   1      -0.215   3.793  -2.766  0.00  0.00    -0.070 Cl
ATOM      8 Cl1  UNL d   1      -0.202   1.771  -0.215  0.00  0.00    -0.070 Cl
ENDROOT
TORSDOF 0
ENDMDL
