MODEL 1
REMARK minimizedAffinity -3.49905157
REMARK minimizedRMSD -1
REMARK  0 active torsions:
REMARK  status: ('A' for Active; 'I' for Inactive)
ROOT
ATOM      1  C   UNL d   1       1.004   1.482  -1.378  0.00  0.00     0.020 A 
ATOM      2  C1  UNL d   1      -0.285   1.802  -0.955  0.00  0.00     0.020 A 
ATOM      3  C2  UNL d   1      -0.900   1.045   0.045  0.00  0.00     0.034 A 
ATOM      4  C3  UNL d   1      -0.225  -0.035   0.625  0.00  0.00     0.017 A 
ATOM      5  C4  UNL d   1       1.069  -0.356   0.200  0.00  0.00     0.017 A 
ATOM      6  C5  UNL d   1       1.680   0.406  -0.802  0.00  0.00     0.034 A 
ATOM      7 Cl   UNL d   1       1.965  -1.674   0.868  0.00  0.00    -0.070 Cl
ATOM      8 Cl1  UNL d   1      -1.046  -0.927   1.856  0.00  0.00    -0.070 Cl
ENDROOT
TORSDOF 0
ENDMDL
