MODEL 1
REMARK minimizedAffinity 1.56710792
REMARK minimizedRMSD -1
REMARK  0 active torsions:
REMARK  status: ('A' for Active; 'I' for Inactive)
ROOT
ATOM      1  C   UNL d   1      -0.718   1.264  -0.766  0.00  0.00     0.020 A 
ATOM      2  C1  UNL d   1       0.618   1.107  -1.133  0.00  0.00     0.020 A 
ATOM      3  C2  UNL d   1       1.428   0.198  -0.449  0.00  0.00     0.034 A 
ATOM      4  C3  UNL d   1       0.903  -0.558   0.606  0.00  0.00     0.017 A 
ATOM      5  C4  UNL d   1      -0.438  -0.400   0.973  0.00  0.00     0.017 A 
ATOM      6  C5  UNL d   1      -1.245   0.512   0.285  0.00  0.00     0.034 A 
ATOM      7 Cl   UNL d   1      -1.158  -1.297   2.264  0.00  0.00    -0.070 Cl
ATOM      8 Cl1  UNL d   1       1.961  -1.663   1.407  0.00  0.00    -0.070 Cl
ENDROOT
TORSDOF 0
ENDMDL
