MODEL 1
REMARK minimizedAffinity -3.25727463
REMARK minimizedRMSD -1
REMARK  0 active torsions:
REMARK  status: ('A' for Active; 'I' for Inactive)
ROOT
ATOM      1  C   UNL d   1       2.085  -1.520   1.090  0.00  0.00     0.020 A 
ATOM      2  C1  UNL d   1       2.573  -0.624   0.139  0.00  0.00     0.020 A 
ATOM      3  C2  UNL d   1       1.688   0.187  -0.574  0.00  0.00     0.034 A 
ATOM      4  C3  UNL d   1       0.311   0.105  -0.337  0.00  0.00     0.017 A 
ATOM      5  C4  UNL d   1      -0.178  -0.795   0.618  0.00  0.00     0.017 A 
ATOM      6  C5  UNL d   1       0.713  -1.605   1.329  0.00  0.00     0.034 A 
ATOM      7 Cl   UNL d   1      -1.863  -0.953   0.965  0.00  0.00    -0.070 Cl
ATOM      8 Cl1  UNL d   1      -0.726   1.138  -1.255  0.00  0.00    -0.070 Cl
ENDROOT
TORSDOF 0
ENDMDL
