MODEL 1
REMARK minimizedAffinity 1.86688137
REMARK minimizedRMSD -1
REMARK  0 active torsions:
REMARK  status: ('A' for Active; 'I' for Inactive)
ROOT
ATOM      1  C   UNL d   1       2.487   0.550   0.313  0.00  0.00     0.020 A 
ATOM      2  C1  UNL d   1       2.397   0.845  -1.046  0.00  0.00     0.020 A 
ATOM      3  C2  UNL d   1       1.149   1.081  -1.628  0.00  0.00     0.034 A 
ATOM      4  C3  UNL d   1      -0.013   1.022  -0.850  0.00  0.00     0.017 A 
ATOM      5  C4  UNL d   1       0.079   0.726   0.515  0.00  0.00     0.017 A 
ATOM      6  C5  UNL d   1       1.331   0.491   1.092  0.00  0.00     0.034 A 
ATOM      7 Cl   UNL d   1      -1.310   0.637   1.539  0.00  0.00    -0.070 Cl
ATOM      8 Cl1  UNL d   1      -1.522   1.325  -1.635  0.00  0.00    -0.070 Cl
ENDROOT
TORSDOF 0
ENDMDL
