MODEL 1
REMARK minimizedAffinity -0.950963199
REMARK minimizedRMSD -1
REMARK  0 active torsions:
REMARK  status: ('A' for Active; 'I' for Inactive)
ROOT
ATOM      1  C   UNL d   1      -1.921   0.711   0.487  0.00  0.00     0.020 A 
ATOM      2  C1  UNL d   1      -1.058   0.965  -0.579  0.00  0.00     0.020 A 
ATOM      3  C2  UNL d   1       0.290   0.615  -0.484  0.00  0.00     0.034 A 
ATOM      4  C3  UNL d   1       0.780   0.009   0.679  0.00  0.00     0.017 A 
ATOM      5  C4  UNL d   1      -0.087  -0.245   1.748  0.00  0.00     0.017 A 
ATOM      6  C5  UNL d   1      -1.436   0.108   1.648  0.00  0.00     0.034 A 
ATOM      7 Cl   UNL d   1       0.444  -0.989   3.215  0.00  0.00    -0.070 Cl
ATOM      8 Cl1  UNL d   1       2.459  -0.397   0.728  0.00  0.00    -0.070 Cl
ENDROOT
TORSDOF 0
ENDMDL
