MODEL 1
REMARK minimizedAffinity 0.450804174
REMARK minimizedRMSD -1
REMARK  0 active torsions:
REMARK  status: ('A' for Active; 'I' for Inactive)
ROOT
ATOM      1  C   UNL d   1       2.621   0.334  -0.938  0.00  0.00     0.020 A 
ATOM      2  C1  UNL d   1       2.563  -0.135   0.374  0.00  0.00     0.020 A 
ATOM      3  C2  UNL d   1       1.337  -0.198   1.039  0.00  0.00     0.034 A 
ATOM      4  C3  UNL d   1       0.164   0.208   0.393  0.00  0.00     0.017 A 
ATOM      5  C4  UNL d   1       0.223   0.679  -0.924  0.00  0.00     0.017 A 
ATOM      6  C5  UNL d   1       1.453   0.740  -1.585  0.00  0.00     0.034 A 
ATOM      7 Cl   UNL d   1      -1.182   1.198  -1.786  0.00  0.00    -0.070 Cl
ATOM      8 Cl1  UNL d   1      -1.317   0.102   1.276  0.00  0.00    -0.070 Cl
ENDROOT
TORSDOF 0
ENDMDL
