MODEL 1
REMARK minimizedAffinity -3.45415449
REMARK minimizedRMSD -1
REMARK  0 active torsions:
REMARK  status: ('A' for Active; 'I' for Inactive)
ROOT
ATOM      1  C   UNL d   1      -1.622  -0.393   2.067  0.00  0.00     0.020 A 
ATOM      2  C1  UNL d   1      -0.993  -1.487   2.661  0.00  0.00     0.020 A 
ATOM      3  C2  UNL d   1       0.276  -1.880   2.232  0.00  0.00     0.034 A 
ATOM      4  C3  UNL d   1       0.921  -1.180   1.206  0.00  0.00     0.017 A 
ATOM      5  C4  UNL d   1       0.289  -0.083   0.610  0.00  0.00     0.017 A 
ATOM      6  C5  UNL d   1      -0.982   0.307   1.044  0.00  0.00     0.034 A 
ATOM      7 Cl   UNL d   1       1.021   0.831  -0.661  0.00  0.00    -0.070 Cl
ATOM      8 Cl1  UNL d   1       2.490  -1.722   0.726  0.00  0.00    -0.070 Cl
ENDROOT
TORSDOF 0
ENDMDL
