MODEL 1
REMARK minimizedAffinity 1.72532177
REMARK minimizedRMSD -1
REMARK  0 active torsions:
REMARK  status: ('A' for Active; 'I' for Inactive)
ROOT
ATOM      1  C   UNL d   1      -0.796   1.335  -0.491  0.00  0.00     0.020 A 
ATOM      2  C1  UNL d   1       0.435   0.922  -0.999  0.00  0.00     0.020 A 
ATOM      3  C2  UNL d   1       1.145  -0.099  -0.365  0.00  0.00     0.034 A 
ATOM      4  C3  UNL d   1       0.625  -0.711   0.782  0.00  0.00     0.017 A 
ATOM      5  C4  UNL d   1      -0.610  -0.296   1.291  0.00  0.00     0.017 A 
ATOM      6  C5  UNL d   1      -1.317   0.727   0.652  0.00  0.00     0.034 A 
ATOM      7 Cl   UNL d   1      -1.317  -1.003   2.701  0.00  0.00    -0.070 Cl
ATOM      8 Cl1  UNL d   1       1.557  -1.968   1.515  0.00  0.00    -0.070 Cl
ENDROOT
TORSDOF 0
ENDMDL
