MODEL 1
REMARK minimizedAffinity -2.71315575
REMARK minimizedRMSD -1
REMARK  3 active torsions:
REMARK  status: ('A' for Active; 'I' for Inactive)
REMARK    1  A    between atoms: C3'_2  and  C2'_3 
REMARK    2  A    between atoms: C2'_3  and  C1'_4 
REMARK    3  A    between atoms: C1'_4  and  C1_5 
ROOT
ATOM      1  C1  N4B d   1      -0.712   0.774   0.406  0.00  0.00    -0.075 A 
ATOM      2  C2  N4B d   1      -0.575   0.673   1.808  0.00  0.00     0.002 A 
ATOM      3  C3  N4B d   1       0.609   1.022   2.410  0.00  0.00     0.002 A 
ATOM      4  C4  N4B d   1       1.672   1.454   1.631  0.00  0.00    -0.004 A 
ATOM      5  C5  N4B d   1       1.524   1.573   0.280  0.00  0.00     0.002 A 
ATOM      6  C6  N4B d   1       0.338   1.230  -0.337  0.00  0.00     0.002 A 
ENDROOT
BRANCH   1   7
ATOM      7  C1' N4B d   1      -1.958   0.323  -0.305  0.00  0.00     0.057 C 
BRANCH   7   8
ATOM      8  C2' N4B d   1      -2.488  -0.941   0.367  0.00  0.00     0.009 C 
BRANCH   8   9
ATOM      9  C3' N4B d   1      -1.376  -1.926   0.682  0.00  0.00     0.004 C 
ATOM     10  C4' N4B d   1      -1.385  -2.373   2.113  0.00  0.00     0.003 C 
ENDBRANCH   8   9
ENDBRANCH   7   8
ENDBRANCH   1   7
TORSDOF 3
ENDMDL
