MODEL 1
REMARK minimizedAffinity -1.84851766
REMARK minimizedRMSD -1
REMARK  3 active torsions:
REMARK  status: ('A' for Active; 'I' for Inactive)
REMARK    1  A    between atoms: C3'_2  and  C2'_3 
REMARK    2  A    between atoms: C2'_3  and  C1'_4 
REMARK    3  A    between atoms: C1'_4  and  C1_5 
ROOT
ATOM      1  C1  N4B d   1      -0.095   0.341   0.087  0.00  0.00    -0.075 A 
ATOM      2  C2  N4B d   1      -1.137  -0.537   0.458  0.00  0.00     0.002 A 
ATOM      3  C3  N4B d   1      -1.291  -0.904   1.773  0.00  0.00     0.002 A 
ATOM      4  C4  N4B d   1      -0.407  -0.422   2.727  0.00  0.00    -0.004 A 
ATOM      5  C5  N4B d   1       0.581   0.446   2.364  0.00  0.00     0.002 A 
ATOM      6  C6  N4B d   1       0.745   0.826   1.047  0.00  0.00     0.002 A 
ENDROOT
BRANCH   1   7
ATOM      7  C1' N4B d   1       0.165   0.702  -1.350  0.00  0.00     0.057 C 
BRANCH   7   8
ATOM      8  C2' N4B d   1       0.665  -0.532  -2.094  0.00  0.00     0.009 C 
BRANCH   8   9
ATOM      9  C3' N4B d   1       1.791  -0.198  -3.057  0.00  0.00     0.004 C 
ATOM     10  C4' N4B d   1       2.696  -1.365  -3.319  0.00  0.00     0.003 C 
ENDBRANCH   8   9
ENDBRANCH   7   8
ENDBRANCH   1   7
TORSDOF 3
ENDMDL
