MODEL 1
REMARK minimizedAffinity -4.62543488
REMARK minimizedRMSD -1
REMARK  3 active torsions:
REMARK  status: ('A' for Active; 'I' for Inactive)
REMARK    1  A    between atoms: C3'_2  and  C2'_3 
REMARK    2  A    between atoms: C2'_3  and  C1'_4 
REMARK    3  A    between atoms: C1'_4  and  C1_5 
ROOT
ATOM      1  C1  N4B d   1      -0.246  -0.384   1.461  0.00  0.00    -0.075 A 
ATOM      2  C2  N4B d   1      -0.719  -0.740   0.179  0.00  0.00     0.002 A 
ATOM      3  C3  N4B d   1      -0.250  -0.083  -0.933  0.00  0.00     0.002 A 
ATOM      4  C4  N4B d   1       0.673   0.941  -0.786  0.00  0.00    -0.004 A 
ATOM      5  C5  N4B d   1       1.144   1.262   0.453  0.00  0.00     0.002 A 
ATOM      6  C6  N4B d   1       0.685   0.608   1.579  0.00  0.00     0.002 A 
ENDROOT
BRANCH   1   7
ATOM      7  C1' N4B d   1      -0.792  -1.014   2.712  0.00  0.00     0.057 C 
BRANCH   7   8
ATOM      8  C2' N4B d   1      -1.838  -0.088   3.325  0.00  0.00     0.009 C 
BRANCH   8   9
ATOM      9  C3' N4B d   1      -2.884   0.339   2.309  0.00  0.00     0.004 C 
ATOM     10  C4' N4B d   1      -3.393   1.729   2.549  0.00  0.00     0.003 C 
ENDBRANCH   8   9
ENDBRANCH   7   8
ENDBRANCH   1   7
TORSDOF 3
ENDMDL
