MODEL 1
REMARK minimizedAffinity -5.63814259
REMARK minimizedRMSD -1
REMARK  3 active torsions:
REMARK  status: ('A' for Active; 'I' for Inactive)
REMARK    1  A    between atoms: C3'_2  and  C2'_3 
REMARK    2  A    between atoms: C2'_3  and  C1'_4 
REMARK    3  A    between atoms: C1'_4  and  C1_5 
ROOT
ATOM      1  C1  N4B d   1       0.071   0.326   0.555  0.00  0.00    -0.075 A 
ATOM      2  C2  N4B d   1       0.868   0.423   1.717  0.00  0.00     0.002 A 
ATOM      3  C3  N4B d   1       0.338   0.097   2.941  0.00  0.00     0.002 A 
ATOM      4  C4  N4B d   1      -0.985  -0.308   3.030  0.00  0.00    -0.004 A 
ATOM      5  C5  N4B d   1      -1.741  -0.423   1.900  0.00  0.00     0.002 A 
ATOM      6  C6  N4B d   1      -1.220  -0.103   0.662  0.00  0.00     0.002 A 
ENDROOT
BRANCH   1   7
ATOM      7  C1' N4B d   1       0.580   0.752  -0.795  0.00  0.00     0.057 C 
BRANCH   7   8
ATOM      8  C2' N4B d   1       1.016  -0.482  -1.579  0.00  0.00     0.009 C 
BRANCH   8   9
ATOM      9  C3' N4B d   1       1.900  -0.122  -2.761  0.00  0.00     0.004 C 
ATOM     10  C4' N4B d   1       2.960  -1.148  -3.027  0.00  0.00     0.003 C 
ENDBRANCH   8   9
ENDBRANCH   7   8
ENDBRANCH   1   7
TORSDOF 3
ENDMDL
