MODEL 1
REMARK minimizedAffinity -3.22511458
REMARK minimizedRMSD -1
REMARK  3 active torsions:
REMARK  status: ('A' for Active; 'I' for Inactive)
REMARK    1  A    between atoms: C3'_2  and  C2'_3 
REMARK    2  A    between atoms: C2'_3  and  C1'_4 
REMARK    3  A    between atoms: C1'_4  and  C1_5 
ROOT
ATOM      1  C1  N4B d   1       0.017   0.237   0.183  0.00  0.00    -0.075 A 
ATOM      2  C2  N4B d   1       0.939   0.506   1.218  0.00  0.00     0.002 A 
ATOM      3  C3  N4B d   1       0.653   0.129   2.508  0.00  0.00     0.002 A 
ATOM      4  C4  N4B d   1      -0.552  -0.499   2.787  0.00  0.00    -0.004 A 
ATOM      5  C5  N4B d   1      -1.426  -0.778   1.778  0.00  0.00     0.002 A 
ATOM      6  C6  N4B d   1      -1.150  -0.408   0.477  0.00  0.00     0.002 A 
ENDROOT
BRANCH   1   7
ATOM      7  C1' N4B d   1       0.247   0.707  -1.227  0.00  0.00     0.057 C 
BRANCH   7   8
ATOM      8  C2' N4B d   1       0.332  -0.504  -2.151  0.00  0.00     0.009 C 
BRANCH   8   9
ATOM      9  C3' N4B d   1       1.629  -0.526  -2.942  0.00  0.00     0.004 C 
ATOM     10  C4' N4B d   1       1.638  -1.576  -4.013  0.00  0.00     0.003 C 
ENDBRANCH   8   9
ENDBRANCH   7   8
ENDBRANCH   1   7
TORSDOF 3
ENDMDL
