MODEL 1
REMARK minimizedAffinity -4.4979558
REMARK minimizedRMSD -1
REMARK  3 active torsions:
REMARK  status: ('A' for Active; 'I' for Inactive)
REMARK    1  A    between atoms: C3'_2  and  C2'_3 
REMARK    2  A    between atoms: C2'_3  and  C1'_4 
REMARK    3  A    between atoms: C1'_4  and  C1_5 
ROOT
ATOM      1  C1  N4B d   1       0.004   0.077   0.438  0.00  0.00    -0.075 A 
ATOM      2  C2  N4B d   1       0.558   0.462   1.679  0.00  0.00     0.002 A 
ATOM      3  C3  N4B d   1      -0.010   0.024   2.850  0.00  0.00     0.002 A 
ATOM      4  C4  N4B d   1      -1.140  -0.779   2.806  0.00  0.00    -0.004 A 
ATOM      5  C5  N4B d   1      -1.654  -1.166   1.603  0.00  0.00     0.002 A 
ATOM      6  C6  N4B d   1      -1.091  -0.738   0.418  0.00  0.00     0.002 A 
ENDROOT
BRANCH   1   7
ATOM      7  C1' N4B d   1       0.539   0.600  -0.867  0.00  0.00     0.057 C 
BRANCH   7   8
ATOM      8  C2' N4B d   1       1.505  -0.422  -1.457  0.00  0.00     0.009 C 
BRANCH   8   9
ATOM      9  C3' N4B d   1       2.159   0.083  -2.732  0.00  0.00     0.004 C 
ATOM     10  C4' N4B d   1       3.324  -0.758  -3.160  0.00  0.00     0.003 C 
ENDBRANCH   8   9
ENDBRANCH   7   8
ENDBRANCH   1   7
TORSDOF 3
ENDMDL
