MODEL 1
REMARK minimizedAffinity -3.70637965
REMARK minimizedRMSD -1
REMARK  3 active torsions:
REMARK  status: ('A' for Active; 'I' for Inactive)
REMARK    1  A    between atoms: C3'_2  and  C2'_3 
REMARK    2  A    between atoms: C2'_3  and  C1'_4 
REMARK    3  A    between atoms: C1'_4  and  C1_5 
ROOT
ATOM      1  C1  N4B d   1       0.057   0.081   0.335  0.00  0.00    -0.075 A 
ATOM      2  C2  N4B d   1       0.874   0.668   1.327  0.00  0.00     0.002 A 
ATOM      3  C3  N4B d   1       0.525   0.568   2.651  0.00  0.00     0.002 A 
ATOM      4  C4  N4B d   1      -0.641  -0.094   3.005  0.00  0.00    -0.004 A 
ATOM      5  C5  N4B d   1      -1.411  -0.680   2.044  0.00  0.00     0.002 A 
ATOM      6  C6  N4B d   1      -1.071  -0.590   0.709  0.00  0.00     0.002 A 
ENDROOT
BRANCH   1   7
ATOM      7  C1' N4B d   1       0.351   0.238  -1.131  0.00  0.00     0.057 C 
BRANCH   7   8
ATOM      8  C2' N4B d   1       1.857   0.128  -1.354  0.00  0.00     0.009 C 
BRANCH   8   9
ATOM      9  C3' N4B d   1       2.201  -0.081  -2.819  0.00  0.00     0.004 C 
ATOM     10  C4' N4B d   1       3.678  -0.076  -3.075  0.00  0.00     0.003 C 
ENDBRANCH   8   9
ENDBRANCH   7   8
ENDBRANCH   1   7
TORSDOF 3
ENDMDL
