MODEL 1
REMARK minimizedAffinity -4.19128895
REMARK minimizedRMSD -1
REMARK  3 active torsions:
REMARK  status: ('A' for Active; 'I' for Inactive)
REMARK    1  A    between atoms: C3'_2  and  C2'_3 
REMARK    2  A    between atoms: C2'_3  and  C1'_4 
REMARK    3  A    between atoms: C1'_4  and  C1_5 
ROOT
ATOM      1  C1  N4B d   1       0.953  -0.291  -2.100  0.00  0.00    -0.075 A 
ATOM      2  C2  N4B d   1       0.740  -1.374  -2.982  0.00  0.00     0.002 A 
ATOM      3  C3  N4B d   1       1.739  -1.772  -3.835  0.00  0.00     0.002 A 
ATOM      4  C4  N4B d   1       2.949  -1.094  -3.837  0.00  0.00    -0.004 A 
ATOM      5  C5  N4B d   1       3.156  -0.066  -2.965  0.00  0.00     0.002 A 
ATOM      6  C6  N4B d   1       2.162   0.343  -2.099  0.00  0.00     0.002 A 
ENDROOT
BRANCH   1   7
ATOM      7  C1' N4B d   1      -0.139   0.235  -1.210  0.00  0.00     0.057 C 
BRANCH   7   8
ATOM      8  C2' N4B d   1       0.407   0.408   0.204  0.00  0.00     0.009 C 
BRANCH   8   9
ATOM      9  C3' N4B d   1      -0.435  -0.326   1.233  0.00  0.00     0.004 C 
ATOM     10  C4' N4B d   1       0.207  -0.367   2.587  0.00  0.00     0.003 C 
ENDBRANCH   8   9
ENDBRANCH   7   8
ENDBRANCH   1   7
TORSDOF 3
ENDMDL
