MODEL 1
REMARK minimizedAffinity 12.715189
REMARK minimizedRMSD -1
REMARK  0 active torsions:
REMARK  status: ('A' for Active; 'I' for Inactive)
ROOT
ATOM      1  C   UNL d   1      -2.407  -2.471  -1.494  0.00  0.00     0.124 A 
ATOM      2  C1  UNL d   1      -3.387  -3.372  -1.886  0.00  0.00     0.062 A 
ATOM      3  C2  UNL d   1      -3.799  -4.380  -1.018  0.00  0.00     0.162 A 
ATOM      4  C3  UNL d   1      -3.230  -4.491   0.251  0.00  0.00    -0.034 A 
ATOM      5  C4  UNL d   1      -2.244  -3.582   0.637  0.00  0.00     0.162 A 
ATOM      6  C5  UNL d   1      -1.836  -2.576  -0.233  0.00  0.00     0.062 A 
ATOM      7  F   UNL d   1      -0.889  -1.707   0.147  0.00  0.00    -0.097 F 
ATOM      8  F1  UNL d   1      -1.677  -3.660   1.850  0.00  0.00    -0.096 F 
ATOM      9  I   UNL d   1      -3.843  -5.996   1.551  0.00  0.00    -0.060 I 
ATOM     10  F2  UNL d   1      -4.748  -5.236  -1.423  0.00  0.00    -0.096 F 
ATOM     11  F3  UNL d   1      -3.939  -3.273  -3.104  0.00  0.00    -0.097 F 
ATOM     12  F4  UNL d   1      -2.012  -1.503  -2.331  0.00  0.00    -0.092 F 
ENDROOT
TORSDOF 0
ENDMDL
