MODEL 1
REMARK minimizedAffinity 14.686924
REMARK minimizedRMSD -1
REMARK  0 active torsions:
REMARK  status: ('A' for Active; 'I' for Inactive)
ROOT
ATOM      1  C   UNL d   1       2.377   1.435  -0.027  0.00  0.00     0.124 A 
ATOM      2  C1  UNL d   1       2.090   0.717   1.126  0.00  0.00     0.062 A 
ATOM      3  C2  UNL d   1       3.122   0.219   1.916  0.00  0.00     0.162 A 
ATOM      4  C3  UNL d   1       4.452   0.438   1.556  0.00  0.00    -0.034 A 
ATOM      5  C4  UNL d   1       4.732   1.161   0.395  0.00  0.00     0.162 A 
ATOM      6  C5  UNL d   1       3.697   1.656  -0.391  0.00  0.00     0.062 A 
ATOM      7  F   UNL d   1       3.976   2.350  -1.504  0.00  0.00    -0.097 F 
ATOM      8  F1  UNL d   1       6.000   1.390   0.020  0.00  0.00    -0.096 F 
ATOM      9  I   UNL d   1       5.998  -0.304   2.735  0.00  0.00    -0.060 I 
ATOM     10  F2  UNL d   1       2.815  -0.471   3.024  0.00  0.00    -0.096 F 
ATOM     11  F3  UNL d   1       0.814   0.501   1.480  0.00  0.00    -0.097 F 
ATOM     12  F4  UNL d   1       1.381   1.912  -0.785  0.00  0.00    -0.092 F 
ENDROOT
TORSDOF 0
ENDMDL
