MODEL 1
REMARK minimizedAffinity 22.7407818
REMARK minimizedRMSD -1
REMARK  0 active torsions:
REMARK  status: ('A' for Active; 'I' for Inactive)
ROOT
ATOM      1  C   UNL d   1       2.391   0.071   1.510  0.00  0.00     0.124 A 
ATOM      2  C1  UNL d   1       2.106   1.419   1.349  0.00  0.00     0.062 A 
ATOM      3  C2  UNL d   1       3.134   2.331   1.131  0.00  0.00     0.162 A 
ATOM      4  C3  UNL d   1       4.459   1.897   1.072  0.00  0.00    -0.034 A 
ATOM      5  C4  UNL d   1       4.738   0.539   1.236  0.00  0.00     0.162 A 
ATOM      6  C5  UNL d   1       3.706  -0.368   1.453  0.00  0.00     0.062 A 
ATOM      7  F   UNL d   1       3.984  -1.671   1.608  0.00  0.00    -0.097 F 
ATOM      8  F1  UNL d   1       6.000   0.088   1.185  0.00  0.00    -0.096 F 
ATOM      9  I   UNL d   1       6.000   3.258   0.747  0.00  0.00    -0.060 I 
ATOM     10  F2  UNL d   1       2.830   3.629   0.979  0.00  0.00    -0.096 F 
ATOM     11  F3  UNL d   1       0.836   1.846   1.404  0.00  0.00    -0.097 F 
ATOM     12  F4  UNL d   1       1.399  -0.805   1.720  0.00  0.00    -0.092 F 
ENDROOT
TORSDOF 0
ENDMDL
