MODEL 1
REMARK minimizedAffinity 29.0239162
REMARK minimizedRMSD -1
REMARK  0 active torsions:
REMARK  status: ('A' for Active; 'I' for Inactive)
ROOT
ATOM      1  C   UNL d   1       2.566   0.011   1.407  0.00  0.00     0.124 A 
ATOM      2  C1  UNL d   1       3.896  -0.294   1.156  0.00  0.00     0.062 A 
ATOM      3  C2  UNL d   1       4.693  -0.831   2.163  0.00  0.00     0.162 A 
ATOM      4  C3  UNL d   1       4.162  -1.067   3.431  0.00  0.00    -0.034 A 
ATOM      5  C4  UNL d   1       2.823  -0.756   3.676  0.00  0.00     0.162 A 
ATOM      6  C5  UNL d   1       2.031  -0.219   2.667  0.00  0.00     0.062 A 
ATOM      7  F   UNL d   1       0.746   0.076   2.911  0.00  0.00    -0.097 F 
ATOM      8  F1  UNL d   1       2.280  -0.969   4.884  0.00  0.00    -0.096 F 
ATOM      9  I   UNL d   1       5.350  -1.869   4.939  0.00  0.00    -0.060 I 
ATOM     10  F2  UNL d   1       5.975  -1.117   1.892  0.00  0.00    -0.096 F 
ATOM     11  F3  UNL d   1       4.416  -0.072  -0.060  0.00  0.00    -0.097 F 
ATOM     12  F4  UNL d   1       1.801   0.529   0.437  0.00  0.00    -0.092 F 
ENDROOT
TORSDOF 0
ENDMDL
