MODEL 1
REMARK minimizedAffinity 17.4278145
REMARK minimizedRMSD -1
REMARK  0 active torsions:
REMARK  status: ('A' for Active; 'I' for Inactive)
ROOT
ATOM      1  C   UNL d   1       4.027   2.249  -3.055  0.00  0.00     0.124 A 
ATOM      2  C1  UNL d   1       4.888   2.568  -4.095  0.00  0.00     0.062 A 
ATOM      3  C2  UNL d   1       4.602   3.639  -4.938  0.00  0.00     0.162 A 
ATOM      4  C3  UNL d   1       3.448   4.398  -4.742  0.00  0.00    -0.034 A 
ATOM      5  C4  UNL d   1       2.586   4.070  -3.695  0.00  0.00     0.162 A 
ATOM      6  C5  UNL d   1       2.877   2.999  -2.856  0.00  0.00     0.062 A 
ATOM      7  F   UNL d   1       2.044   2.692  -1.851  0.00  0.00    -0.097 F 
ATOM      8  F1  UNL d   1       1.468   4.779  -3.478  0.00  0.00    -0.096 F 
ATOM      9  I   UNL d   1       3.016   6.000  -6.000  0.00  0.00    -0.060 I 
ATOM     10  F2  UNL d   1       5.452   3.925  -5.935  0.00  0.00    -0.096 F 
ATOM     11  F3  UNL d   1       6.000   1.844  -4.291  0.00  0.00    -0.097 F 
ATOM     12  F4  UNL d   1       4.305   1.218  -2.247  0.00  0.00    -0.092 F 
ENDROOT
TORSDOF 0
ENDMDL
