MODEL 1
REMARK minimizedAffinity 19.3911743
REMARK minimizedRMSD -1
REMARK  0 active torsions:
REMARK  status: ('A' for Active; 'I' for Inactive)
ROOT
ATOM      1  C   UNL d   1       3.383   0.156   1.464  0.00  0.00     0.124 A 
ATOM      2  C1  UNL d   1       4.485  -0.201   0.700  0.00  0.00     0.062 A 
ATOM      3  C2  UNL d   1       4.721   0.422  -0.522  0.00  0.00     0.162 A 
ATOM      4  C3  UNL d   1       3.852   1.409  -0.988  0.00  0.00    -0.034 A 
ATOM      5  C4  UNL d   1       2.745   1.762  -0.214  0.00  0.00     0.162 A 
ATOM      6  C5  UNL d   1       2.514   1.136   1.007  0.00  0.00     0.062 A 
ATOM      7  F   UNL d   1       1.449   1.482   1.744  0.00  0.00    -0.097 F 
ATOM      8  F1  UNL d   1       1.890   2.707  -0.632  0.00  0.00    -0.096 F 
ATOM      9  I   UNL d   1       4.200   2.343  -2.815  0.00  0.00    -0.060 I 
ATOM     10  F2  UNL d   1       5.794   0.057  -1.240  0.00  0.00    -0.096 F 
ATOM     11  F3  UNL d   1       5.326  -1.149   1.139  0.00  0.00    -0.097 F 
ATOM     12  F4  UNL d   1       3.159  -0.446   2.640  0.00  0.00    -0.092 F 
ENDROOT
TORSDOF 0
ENDMDL
