MODEL 1
REMARK minimizedAffinity 13.7978163
REMARK minimizedRMSD -1
REMARK  0 active torsions:
REMARK  status: ('A' for Active; 'I' for Inactive)
ROOT
ATOM      1  C   UNL d   1       2.360   0.235   3.026  0.00  0.00     0.124 A 
ATOM      2  C1  UNL d   1       1.566   0.985   2.169  0.00  0.00     0.062 A 
ATOM      3  C2  UNL d   1       2.044   1.353   0.915  0.00  0.00     0.162 A 
ATOM      4  C3  UNL d   1       3.323   0.973   0.509  0.00  0.00    -0.034 A 
ATOM      5  C4  UNL d   1       4.116   0.220   1.377  0.00  0.00     0.162 A 
ATOM      6  C5  UNL d   1       3.634  -0.146   2.630  0.00  0.00     0.062 A 
ATOM      7  F   UNL d   1       4.403  -0.870   3.456  0.00  0.00    -0.097 F 
ATOM      8  F1  UNL d   1       5.351  -0.163   1.019  0.00  0.00    -0.096 F 
ATOM      9  I   UNL d   1       4.041   1.522  -1.365  0.00  0.00    -0.060 I 
ATOM     10  F2  UNL d   1       1.255   2.078   0.108  0.00  0.00    -0.096 F 
ATOM     11  F3  UNL d   1       0.335   1.355   2.551  0.00  0.00    -0.097 F 
ATOM     12  F4  UNL d   1       1.899  -0.117   4.233  0.00  0.00    -0.092 F 
ENDROOT
TORSDOF 0
ENDMDL
