MODEL 1
REMARK minimizedAffinity 26.4664307
REMARK minimizedRMSD -1
REMARK  0 active torsions:
REMARK  status: ('A' for Active; 'I' for Inactive)
ROOT
ATOM      1  C   UNL d   1       4.321   2.389  -2.677  0.00  0.00     0.124 A 
ATOM      2  C1  UNL d   1       4.477   3.735  -2.374  0.00  0.00     0.062 A 
ATOM      3  C2  UNL d   1       3.876   4.706  -3.169  0.00  0.00     0.162 A 
ATOM      4  C3  UNL d   1       3.111   4.335  -4.275  0.00  0.00    -0.034 A 
ATOM      5  C4  UNL d   1       2.959   2.980  -4.574  0.00  0.00     0.162 A 
ATOM      6  C5  UNL d   1       3.562   2.013  -3.776  0.00  0.00     0.062 A 
ATOM      7  F   UNL d   1       3.409   0.714  -4.070  0.00  0.00    -0.097 F 
ATOM      8  F1  UNL d   1       2.230   2.589  -5.630  0.00  0.00    -0.096 F 
ATOM      9  I   UNL d   1       2.210   5.785  -5.467  0.00  0.00    -0.060 I 
ATOM     10  F2  UNL d   1       4.044   5.999  -2.853  0.00  0.00    -0.096 F 
ATOM     11  F3  UNL d   1       5.211   4.101  -1.313  0.00  0.00    -0.097 F 
ATOM     12  F4  UNL d   1       4.901   1.457  -1.910  0.00  0.00    -0.092 F 
ENDROOT
TORSDOF 0
ENDMDL
