MODEL 1
REMARK minimizedAffinity 29.3971081
REMARK minimizedRMSD -1
REMARK  0 active torsions:
REMARK  status: ('A' for Active; 'I' for Inactive)
ROOT
ATOM      1  C   UNL d   1       2.822   0.437   1.614  0.00  0.00     0.124 A 
ATOM      2  C1  UNL d   1       3.971  -0.337   1.527  0.00  0.00     0.062 A 
ATOM      3  C2  UNL d   1       4.879  -0.129   0.493  0.00  0.00     0.162 A 
ATOM      4  C3  UNL d   1       4.642   0.859  -0.463  0.00  0.00    -0.034 A 
ATOM      5  C4  UNL d   1       3.483   1.632  -0.371  0.00  0.00     0.162 A 
ATOM      6  C5  UNL d   1       2.579   1.420   0.665  0.00  0.00     0.062 A 
ATOM      7  F   UNL d   1       1.469   2.168   0.746  0.00  0.00    -0.097 F 
ATOM      8  F1  UNL d   1       3.224   2.590  -1.274  0.00  0.00    -0.096 F 
ATOM      9  I   UNL d   1       5.997   1.173  -2.011  0.00  0.00    -0.060 I 
ATOM     10  F2  UNL d   1       5.981  -0.891   0.435  0.00  0.00    -0.096 F 
ATOM     11  F3  UNL d   1       4.207  -1.288   2.442  0.00  0.00    -0.097 F 
ATOM     12  F4  UNL d   1       1.949   0.234   2.609  0.00  0.00    -0.092 F 
ENDROOT
TORSDOF 0
ENDMDL
