MODEL 1
REMARK minimizedAffinity 29.8706684
REMARK minimizedRMSD -1
REMARK  0 active torsions:
REMARK  status: ('A' for Active; 'I' for Inactive)
ROOT
ATOM      1  C   UNL d   1       1.783   2.985   0.822  0.00  0.00     0.124 A 
ATOM      2  C1  UNL d   1       1.947   1.843   0.051  0.00  0.00     0.062 A 
ATOM      3  C2  UNL d   1       2.920   1.804  -0.944  0.00  0.00     0.162 A 
ATOM      4  C3  UNL d   1       3.737   2.912  -1.173  0.00  0.00    -0.034 A 
ATOM      5  C4  UNL d   1       3.565   4.057  -0.393  0.00  0.00     0.162 A 
ATOM      6  C5  UNL d   1       2.591   4.090   0.600  0.00  0.00     0.062 A 
ATOM      7  F   UNL d   1       2.434   5.194   1.344  0.00  0.00    -0.097 F 
ATOM      8  F1  UNL d   1       4.333   5.139  -0.586  0.00  0.00    -0.096 F 
ATOM      9  I   UNL d   1       5.193   2.858  -2.659  0.00  0.00    -0.060 I 
ATOM     10  F2  UNL d   1       3.057   0.688  -1.675  0.00  0.00    -0.096 F 
ATOM     11  F3  UNL d   1       1.167   0.774   0.263  0.00  0.00    -0.097 F 
ATOM     12  F4  UNL d   1       0.845   3.019   1.778  0.00  0.00    -0.092 F 
ENDROOT
TORSDOF 0
ENDMDL
