MODEL 1
REMARK minimizedAffinity 19.6540527
REMARK minimizedRMSD -1
REMARK  0 active torsions:
REMARK  status: ('A' for Active; 'I' for Inactive)
ROOT
ATOM      1  C   UNL d   1       4.933   2.432  -3.392  0.00  0.00     0.124 A 
ATOM      2  C1  UNL d   1       4.748   3.712  -2.887  0.00  0.00     0.062 A 
ATOM      3  C2  UNL d   1       3.774   4.544  -3.430  0.00  0.00     0.162 A 
ATOM      4  C3  UNL d   1       2.976   4.100  -4.484  0.00  0.00    -0.034 A 
ATOM      5  C4  UNL d   1       3.168   2.812  -4.987  0.00  0.00     0.162 A 
ATOM      6  C5  UNL d   1       4.143   1.983  -4.441  0.00  0.00     0.062 A 
ATOM      7  F   UNL d   1       4.321   0.747  -4.930  0.00  0.00    -0.097 F 
ATOM      8  F1  UNL d   1       2.419   2.352  -6.000  0.00  0.00    -0.096 F 
ATOM      9  I   UNL d   1       1.518   5.342  -5.299  0.00  0.00    -0.060 I 
ATOM     10  F2  UNL d   1       3.617   5.776  -2.922  0.00  0.00    -0.096 F 
ATOM     11  F3  UNL d   1       5.510   4.148  -1.874  0.00  0.00    -0.097 F 
ATOM     12  F4  UNL d   1       5.872   1.633  -2.868  0.00  0.00    -0.092 F 
ENDROOT
TORSDOF 0
ENDMDL
