MODEL 1
REMARK minimizedAffinity 7.14982224
REMARK minimizedRMSD -1
REMARK  0 active torsions:
REMARK  status: ('A' for Active; 'I' for Inactive)
ROOT
ATOM      1  C   UNL d   1       4.523   2.379  -3.090  0.00  0.00     0.124 A 
ATOM      2  C1  UNL d   1       3.736   2.083  -4.194  0.00  0.00     0.062 A 
ATOM      3  C2  UNL d   1       3.158   3.109  -4.936  0.00  0.00     0.162 A 
ATOM      4  C3  UNL d   1       3.365   4.441  -4.578  0.00  0.00    -0.034 A 
ATOM      5  C4  UNL d   1       4.157   4.730  -3.465  0.00  0.00     0.162 A 
ATOM      6  C5  UNL d   1       4.733   3.702  -2.727  0.00  0.00     0.062 A 
ATOM      7  F   UNL d   1       5.493   3.990  -1.660  0.00  0.00    -0.097 F 
ATOM      8  F1  UNL d   1       4.378   6.000  -3.092  0.00  0.00    -0.096 F 
ATOM      9  I   UNL d   1       2.502   5.977  -5.685  0.00  0.00    -0.060 I 
ATOM     10  F2  UNL d   1       2.402   2.794  -5.999  0.00  0.00    -0.096 F 
ATOM     11  F3  UNL d   1       3.531   0.806  -4.547  0.00  0.00    -0.097 F 
ATOM     12  F4  UNL d   1       5.078   1.390  -2.377  0.00  0.00    -0.092 F 
ENDROOT
TORSDOF 0
ENDMDL
