MODEL 1
REMARK minimizedAffinity 23.0061779
REMARK minimizedRMSD -1
REMARK  0 active torsions:
REMARK  status: ('A' for Active; 'I' for Inactive)
ROOT
ATOM      1  C   UNL d   1      -1.239  -3.763   2.331  0.00  0.00     0.124 A 
ATOM      2  C1  UNL d   1      -1.210  -2.582   1.602  0.00  0.00     0.062 A 
ATOM      3  C2  UNL d   1      -1.878  -2.495   0.384  0.00  0.00     0.162 A 
ATOM      4  C3  UNL d   1      -2.583  -3.591  -0.112  0.00  0.00    -0.034 A 
ATOM      5  C4  UNL d   1      -2.607  -4.776   0.626  0.00  0.00     0.162 A 
ATOM      6  C5  UNL d   1      -1.938  -4.858   1.843  0.00  0.00     0.062 A 
ATOM      7  F   UNL d   1      -1.967  -5.999   2.546  0.00  0.00    -0.097 F 
ATOM      8  F1  UNL d   1      -3.276  -5.849   0.179  0.00  0.00    -0.096 F 
ATOM      9  I   UNL d   1      -3.584  -3.465  -1.933  0.00  0.00    -0.060 I 
ATOM     10  F2  UNL d   1      -1.833  -1.341  -0.300  0.00  0.00    -0.096 F 
ATOM     11  F3  UNL d   1      -0.535  -1.523   2.070  0.00  0.00    -0.097 F 
ATOM     12  F4  UNL d   1      -0.594  -3.844   3.502  0.00  0.00    -0.092 F 
ENDROOT
TORSDOF 0
ENDMDL
