MODEL 1
REMARK minimizedAffinity 16.3411732
REMARK minimizedRMSD -1
REMARK  0 active torsions:
REMARK  status: ('A' for Active; 'I' for Inactive)
ROOT
ATOM      1  C   UNL d   1       2.823   0.377   0.948  0.00  0.00     0.124 A 
ATOM      2  C1  UNL d   1       1.716   1.213   0.892  0.00  0.00     0.062 A 
ATOM      3  C2  UNL d   1       1.426   1.914  -0.274  0.00  0.00     0.162 A 
ATOM      4  C3  UNL d   1       2.244   1.782  -1.397  0.00  0.00    -0.034 A 
ATOM      5  C4  UNL d   1       3.356   0.940  -1.333  0.00  0.00     0.162 A 
ATOM      6  C5  UNL d   1       3.642   0.241  -0.165  0.00  0.00     0.062 A 
ATOM      7  F   UNL d   1       4.711  -0.566  -0.113  0.00  0.00    -0.097 F 
ATOM      8  F1  UNL d   1       4.163   0.790  -2.394  0.00  0.00    -0.096 F 
ATOM      9  I   UNL d   1       1.814   2.829  -3.143  0.00  0.00    -0.060 I 
ATOM     10  F2  UNL d   1       0.351   2.715  -0.299  0.00  0.00    -0.096 F 
ATOM     11  F3  UNL d   1       0.924   1.346   1.966  0.00  0.00    -0.097 F 
ATOM     12  F4  UNL d   1       3.100  -0.296   2.072  0.00  0.00    -0.092 F 
ENDROOT
TORSDOF 0
ENDMDL
