MODEL 1
REMARK minimizedAffinity 16.7055588
REMARK minimizedRMSD -1
REMARK  0 active torsions:
REMARK  status: ('A' for Active; 'I' for Inactive)
ROOT
ATOM      1  C   UNL d   1       1.888   0.703   2.805  0.00  0.00     0.124 A 
ATOM      2  C1  UNL d   1       2.946  -0.008   2.256  0.00  0.00     0.062 A 
ATOM      3  C2  UNL d   1       3.366   0.255   0.955  0.00  0.00     0.162 A 
ATOM      4  C3  UNL d   1       2.727   1.235   0.194  0.00  0.00    -0.034 A 
ATOM      5  C4  UNL d   1       1.663   1.945   0.754  0.00  0.00     0.162 A 
ATOM      6  C5  UNL d   1       1.248   1.678   2.054  0.00  0.00     0.062 A 
ATOM      7  F   UNL d   1       0.225   2.366   2.583  0.00  0.00    -0.097 F 
ATOM      8  F1  UNL d   1       1.027   2.893   0.050  0.00  0.00    -0.096 F 
ATOM      9  I   UNL d   1       3.351   1.631  -1.751  0.00  0.00    -0.060 I 
ATOM     10  F2  UNL d   1       4.391  -0.447   0.450  0.00  0.00    -0.096 F 
ATOM     11  F3  UNL d   1       3.566  -0.951   2.979  0.00  0.00    -0.097 F 
ATOM     12  F4  UNL d   1       1.486   0.447   4.057  0.00  0.00    -0.092 F 
ENDROOT
TORSDOF 0
ENDMDL
