MODEL 1
REMARK minimizedAffinity 14.1785173
REMARK minimizedRMSD -1
REMARK  0 active torsions:
REMARK  status: ('A' for Active; 'I' for Inactive)
ROOT
ATOM      1  C   UNL d   1       5.792   2.263  -2.385  0.00  0.00     0.124 A 
ATOM      2  C1  UNL d   1       5.784   1.924  -3.731  0.00  0.00     0.062 A 
ATOM      3  C2  UNL d   1       5.843   2.918  -4.704  0.00  0.00     0.162 A 
ATOM      4  C3  UNL d   1       5.912   4.261  -4.334  0.00  0.00    -0.034 A 
ATOM      5  C4  UNL d   1       5.919   4.594  -2.978  0.00  0.00     0.162 A 
ATOM      6  C5  UNL d   1       5.859   3.597  -2.010  0.00  0.00     0.062 A 
ATOM      7  F   UNL d   1       5.867   3.927  -0.710  0.00  0.00    -0.097 F 
ATOM      8  F1  UNL d   1       5.984   5.876  -2.588  0.00  0.00    -0.096 F 
ATOM      9  I   UNL d   1       6.000   5.751  -5.785  0.00  0.00    -0.060 I 
ATOM     10  F2  UNL d   1       5.833   2.562  -5.997  0.00  0.00    -0.096 F 
ATOM     11  F3  UNL d   1       5.718   0.636  -4.096  0.00  0.00    -0.097 F 
ATOM     12  F4  UNL d   1       5.734   1.305  -1.452  0.00  0.00    -0.092 F 
ENDROOT
TORSDOF 0
ENDMDL
