MODEL 1
REMARK minimizedAffinity 20.238184
REMARK minimizedRMSD -1
REMARK  0 active torsions:
REMARK  status: ('A' for Active; 'I' for Inactive)
ROOT
ATOM      1  C   UNL d   1       4.054   1.973  -2.890  0.00  0.00     0.124 A 
ATOM      2  C1  UNL d   1       4.724   2.416  -4.022  0.00  0.00     0.062 A 
ATOM      3  C2  UNL d   1       4.098   3.284  -4.912  0.00  0.00     0.162 A 
ATOM      4  C3  UNL d   1       2.793   3.716  -4.672  0.00  0.00    -0.034 A 
ATOM      5  C4  UNL d   1       2.125   3.265  -3.532  0.00  0.00     0.162 A 
ATOM      6  C5  UNL d   1       2.756   2.397  -2.646  0.00  0.00     0.062 A 
ATOM      7  F   UNL d   1       2.107   1.970  -1.553  0.00  0.00    -0.097 F 
ATOM      8  F1  UNL d   1       0.870   3.660  -3.272  0.00  0.00    -0.096 F 
ATOM      9  I   UNL d   1       1.852   5.013  -6.000  0.00  0.00    -0.060 I 
ATOM     10  F2  UNL d   1       4.769   3.696  -5.997  0.00  0.00    -0.096 F 
ATOM     11  F3  UNL d   1       5.979   2.007  -4.260  0.00  0.00    -0.097 F 
ATOM     12  F4  UNL d   1       4.660   1.137  -2.037  0.00  0.00    -0.092 F 
ENDROOT
TORSDOF 0
ENDMDL
