MODEL 1
REMARK minimizedAffinity 6.45182943
REMARK minimizedRMSD -1
REMARK  0 active torsions:
REMARK  status: ('A' for Active; 'I' for Inactive)
ROOT
ATOM      1  C   UNL d   1       4.678   2.385  -3.272  0.00  0.00     0.124 A 
ATOM      2  C1  UNL d   1       5.051   3.702  -3.038  0.00  0.00     0.062 A 
ATOM      3  C2  UNL d   1       4.460   4.735  -3.759  0.00  0.00     0.162 A 
ATOM      4  C3  UNL d   1       3.488   4.457  -4.720  0.00  0.00    -0.034 A 
ATOM      5  C4  UNL d   1       3.119   3.131  -4.950  0.00  0.00     0.162 A 
ATOM      6  C5  UNL d   1       3.713   2.101  -4.228  0.00  0.00     0.062 A 
ATOM      7  F   UNL d   1       3.351   0.830  -4.455  0.00  0.00    -0.097 F 
ATOM      8  F1  UNL d   1       2.188   2.828  -5.867  0.00  0.00    -0.096 F 
ATOM      9  I   UNL d   1       2.602   6.000  -5.799  0.00  0.00    -0.060 I 
ATOM     10  F2  UNL d   1       4.840   5.998  -3.512  0.00  0.00    -0.096 F 
ATOM     11  F3  UNL d   1       5.985   3.979  -2.116  0.00  0.00    -0.097 F 
ATOM     12  F4  UNL d   1       5.250   1.393  -2.578  0.00  0.00    -0.092 F 
ENDROOT
TORSDOF 0
ENDMDL
