MODEL 1
REMARK minimizedAffinity -4.33611202
REMARK minimizedRMSD -1
REMARK  0 active torsions:
REMARK  status: ('A' for Active; 'I' for Inactive)
ROOT
ATOM      1  C   UNL d   1      -0.100   0.275  -0.179  0.00  0.00     0.077 C 
ATOM      2  C1  UNL d   1       1.080  -0.254   0.582  0.00  0.00    -0.074 A 
ATOM      3  C2  UNL d   1       2.371  -0.178   0.050  0.00  0.00    -0.005 A 
ATOM      4  C3  UNL d   1       3.460  -0.665   0.774  0.00  0.00     0.006 A 
ATOM      5  C4  UNL d   1       3.268  -1.231   2.035  0.00  0.00    -0.005 A 
ATOM      6  C5  UNL d   1       1.984  -1.314   2.584  0.00  0.00    -0.074 A 
ATOM      7  C6  UNL d   1       1.762  -1.911   3.942  0.00  0.00     0.077 C 
ATOM      8  C7  UNL d   1       0.897  -0.817   1.853  0.00  0.00    -0.001 A 
ENDROOT
TORSDOF 0
ENDMDL
