MODEL 1
REMARK minimizedAffinity -5.00536346
REMARK minimizedRMSD -1
REMARK  0 active torsions:
REMARK  status: ('A' for Active; 'I' for Inactive)
ROOT
ATOM      1  C   UNL d   1      -3.565   3.245  -3.821  0.00  0.00     0.077 C 
ATOM      2  C1  UNL d   1      -2.903   2.219  -2.950  0.00  0.00    -0.074 A 
ATOM      3  C2  UNL d   1      -2.383   1.041  -3.495  0.00  0.00    -0.005 A 
ATOM      4  C3  UNL d   1      -1.762   0.100  -2.674  0.00  0.00     0.006 A 
ATOM      5  C4  UNL d   1      -1.653   0.328  -1.301  0.00  0.00    -0.005 A 
ATOM      6  C5  UNL d   1      -2.166   1.501  -0.738  0.00  0.00    -0.074 A 
ATOM      7  C6  UNL d   1      -2.049   1.767   0.733  0.00  0.00     0.077 C 
ATOM      8  C7  UNL d   1      -2.783   2.445  -1.571  0.00  0.00    -0.001 A 
ENDROOT
TORSDOF 0
ENDMDL
