MODEL 1
REMARK minimizedAffinity 2.81350517
REMARK minimizedRMSD -1
REMARK  0 active torsions:
REMARK  status: ('A' for Active; 'I' for Inactive)
ROOT
ATOM      1  C   UNL d   1      -0.035  -2.882   1.415  0.00  0.00     0.077 C 
ATOM      2  C1  UNL d   1      -0.159  -1.604   0.639  0.00  0.00    -0.074 A 
ATOM      3  C2  UNL d   1       0.752  -0.559   0.825  0.00  0.00    -0.005 A 
ATOM      4  C3  UNL d   1       0.631   0.620   0.090  0.00  0.00     0.006 A 
ATOM      5  C4  UNL d   1      -0.402   0.766  -0.838  0.00  0.00    -0.005 A 
ATOM      6  C5  UNL d   1      -1.322  -0.269  -1.038  0.00  0.00    -0.074 A 
ATOM      7  C6  UNL d   1      -2.431  -0.132  -2.038  0.00  0.00     0.077 C 
ATOM      8  C7  UNL d   1      -1.188  -1.453  -0.300  0.00  0.00    -0.001 A 
ENDROOT
TORSDOF 0
ENDMDL
