MODEL 1
REMARK minimizedAffinity -2.40205979
REMARK minimizedRMSD -1
REMARK  0 active torsions:
REMARK  status: ('A' for Active; 'I' for Inactive)
ROOT
ATOM      1  C   UNL d   1      -4.408  -1.920  -1.924  0.00  0.00     0.077 C 
ATOM      2  C1  UNL d   1      -3.211  -1.041  -2.141  0.00  0.00    -0.074 A 
ATOM      3  C2  UNL d   1      -2.937  -0.499  -3.401  0.00  0.00    -0.005 A 
ATOM      4  C3  UNL d   1      -1.826   0.324  -3.585  0.00  0.00     0.006 A 
ATOM      5  C4  UNL d   1      -0.980   0.613  -2.513  0.00  0.00    -0.005 A 
ATOM      6  C5  UNL d   1      -1.239   0.080  -1.247  0.00  0.00    -0.074 A 
ATOM      7  C6  UNL d   1      -0.345   0.387  -0.082  0.00  0.00     0.077 C 
ATOM      8  C7  UNL d   1      -2.361  -0.741  -1.068  0.00  0.00    -0.001 A 
ENDROOT
TORSDOF 0
ENDMDL
