MODEL 1
REMARK minimizedAffinity -2.59498453
REMARK minimizedRMSD -1
REMARK  0 active torsions:
REMARK  status: ('A' for Active; 'I' for Inactive)
ROOT
ATOM      1  C   UNL d   1      -0.724  -2.413   1.434  0.00  0.00     0.077 C 
ATOM      2  C1  UNL d   1      -0.014  -1.141   1.078  0.00  0.00    -0.074 A 
ATOM      3  C2  UNL d   1      -0.522  -0.284   0.097  0.00  0.00    -0.005 A 
ATOM      4  C3  UNL d   1       0.144   0.901  -0.216  0.00  0.00     0.006 A 
ATOM      5  C4  UNL d   1       1.324   1.240   0.448  0.00  0.00    -0.005 A 
ATOM      6  C5  UNL d   1       1.847   0.396   1.433  0.00  0.00    -0.074 A 
ATOM      7  C6  UNL d   1       3.108   0.751   2.163  0.00  0.00     0.077 C 
ATOM      8  C7  UNL d   1       1.168  -0.789   1.747  0.00  0.00    -0.001 A 
ENDROOT
TORSDOF 0
ENDMDL
