MODEL 1
REMARK minimizedAffinity -5.2511487
REMARK minimizedRMSD -1
REMARK  0 active torsions:
REMARK  status: ('A' for Active; 'I' for Inactive)
ROOT
ATOM      1  C   UNL d   1       0.279   3.432   0.774  0.00  0.00     0.077 C 
ATOM      2  C1  UNL d   1       0.484   1.948   0.714  0.00  0.00    -0.074 A 
ATOM      3  C2  UNL d   1      -0.606   1.074   0.650  0.00  0.00    -0.005 A 
ATOM      4  C3  UNL d   1      -0.400  -0.304   0.585  0.00  0.00     0.006 A 
ATOM      5  C4  UNL d   1       0.896  -0.821   0.583  0.00  0.00    -0.005 A 
ATOM      6  C5  UNL d   1       1.998   0.037   0.646  0.00  0.00    -0.074 A 
ATOM      7  C6  UNL d   1       3.398  -0.501   0.635  0.00  0.00     0.077 C 
ATOM      8  C7  UNL d   1       1.783   1.421   0.704  0.00  0.00    -0.001 A 
ENDROOT
TORSDOF 0
ENDMDL
