MODEL 1
REMARK minimizedAffinity -1.69714212
REMARK minimizedRMSD -1
REMARK  0 active torsions:
REMARK  status: ('A' for Active; 'I' for Inactive)
ROOT
ATOM      1  C   UNL d   1       2.588   1.350   1.920  0.00  0.00     0.077 C 
ATOM      2  C1  UNL d   1       1.309   1.073   1.187  0.00  0.00    -0.074 A 
ATOM      3  C2  UNL d   1       1.141  -0.106   0.454  0.00  0.00    -0.005 A 
ATOM      4  C3  UNL d   1      -0.057  -0.354  -0.215  0.00  0.00     0.006 A 
ATOM      5  C4  UNL d   1      -1.099   0.573  -0.157  0.00  0.00    -0.005 A 
ATOM      6  C5  UNL d   1      -0.950   1.757   0.572  0.00  0.00    -0.074 A 
ATOM      7  C6  UNL d   1      -2.063   2.759   0.652  0.00  0.00     0.077 C 
ATOM      8  C7  UNL d   1       0.255   1.996   1.247  0.00  0.00    -0.001 A 
ENDROOT
TORSDOF 0
ENDMDL
