MODEL 1
REMARK minimizedAffinity -3.3256495
REMARK minimizedRMSD -1
REMARK  0 active torsions:
REMARK  status: ('A' for Active; 'I' for Inactive)
ROOT
ATOM      1  C   UNL d   1      -1.713   3.357   1.683  0.00  0.00     0.077 C 
ATOM      2  C1  UNL d   1      -0.942   2.183   1.157  0.00  0.00    -0.074 A 
ATOM      3  C2  UNL d   1      -1.601   1.074   0.617  0.00  0.00    -0.005 A 
ATOM      4  C3  UNL d   1      -0.870  -0.006   0.123  0.00  0.00     0.006 A 
ATOM      5  C4  UNL d   1       0.525   0.012   0.164  0.00  0.00    -0.005 A 
ATOM      6  C5  UNL d   1       1.201   1.113   0.699  0.00  0.00    -0.074 A 
ATOM      7  C6  UNL d   1       2.700   1.153   0.741  0.00  0.00     0.077 C 
ATOM      8  C7  UNL d   1       0.460   2.197   1.187  0.00  0.00    -0.001 A 
ENDROOT
TORSDOF 0
ENDMDL
