MODEL 1
REMARK minimizedAffinity -4.3437562
REMARK minimizedRMSD -1
REMARK  0 active torsions:
REMARK  status: ('A' for Active; 'I' for Inactive)
ROOT
ATOM      1  C   UNL d   1      -0.358   2.687   0.282  0.00  0.00     0.077 C 
ATOM      2  C1  UNL d   1       0.712   1.695   0.632  0.00  0.00    -0.074 A 
ATOM      3  C2  UNL d   1       1.912   2.110   1.218  0.00  0.00    -0.005 A 
ATOM      4  C3  UNL d   1       2.894   1.175   1.547  0.00  0.00     0.006 A 
ATOM      5  C4  UNL d   1       2.686  -0.181   1.292  0.00  0.00    -0.005 A 
ATOM      6  C5  UNL d   1       1.492  -0.614   0.707  0.00  0.00    -0.074 A 
ATOM      7  C6  UNL d   1       1.248  -2.069   0.436  0.00  0.00     0.077 C 
ATOM      8  C7  UNL d   1       0.507   0.330   0.386  0.00  0.00    -0.001 A 
ENDROOT
TORSDOF 0
ENDMDL
