MODEL 1
REMARK minimizedAffinity -2.12048912
REMARK minimizedRMSD -1
REMARK  0 active torsions:
REMARK  status: ('A' for Active; 'I' for Inactive)
ROOT
ATOM      1  C   UNL d   1       0.343  -2.957   1.155  0.00  0.00     0.077 C 
ATOM      2  C1  UNL d   1       0.127  -1.665   0.423  0.00  0.00    -0.074 A 
ATOM      3  C2  UNL d   1       1.051  -0.620   0.522  0.00  0.00    -0.005 A 
ATOM      4  C3  UNL d   1       0.842   0.572  -0.171  0.00  0.00     0.006 A 
ATOM      5  C4  UNL d   1      -0.292   0.731  -0.969  0.00  0.00    -0.005 A 
ATOM      6  C5  UNL d   1      -1.226  -0.304  -1.081  0.00  0.00    -0.074 A 
ATOM      7  C6  UNL d   1      -2.445  -0.154  -1.943  0.00  0.00     0.077 C 
ATOM      8  C7  UNL d   1      -1.005  -1.501  -0.387  0.00  0.00    -0.001 A 
ENDROOT
TORSDOF 0
ENDMDL
