MODEL 1
REMARK minimizedAffinity -0.671739101
REMARK minimizedRMSD -1
REMARK  1 active torsions:
REMARK  status: ('A' for Active; 'I' for Inactive)
REMARK    1  A    between atoms: C1_2  and  C2_3 
ROOT
ATOM      1  C2  UNL d   1       0.679   2.708  -0.236  0.00  0.00    -0.076 A 
ATOM      2  C3  UNL d   1      -0.019   3.792   0.324  0.00  0.00     0.004 A 
ATOM      3  C4  UNL d   1       0.659   4.821   0.977  0.00  0.00    -0.003 A 
ATOM      4  C5  UNL d   1       2.045   4.782   1.079  0.00  0.00     0.000 A 
ATOM      5  C6  UNL d   1       2.754   3.723   0.514  0.00  0.00     0.000 A 
ATOM      6  C7  UNL d   1       2.088   2.686  -0.161  0.00  0.00    -0.073 A 
ATOM      7  C8  UNL d   1       2.903   1.566  -0.747  0.00  0.00     0.078 C 
ENDROOT
BRANCH   1   8
ATOM      8  C1  UNL d   1      -0.111   1.608  -0.908  0.00  0.00     0.053 C 
ATOM      9  C   UNL d   1      -0.497   0.496   0.055  0.00  0.00     0.018 C 
ENDBRANCH   1   8
TORSDOF 1
ENDMDL
