MODEL 1
REMARK minimizedAffinity -5.61860704
REMARK minimizedRMSD -1
REMARK  1 active torsions:
REMARK  status: ('A' for Active; 'I' for Inactive)
REMARK    1  A    between atoms: C1_2  and  C2_3 
ROOT
ATOM      1  C2  UNL d   1       1.044   1.616   0.441  0.00  0.00    -0.076 A 
ATOM      2  C3  UNL d   1       2.238   0.970   0.075  0.00  0.00     0.004 A 
ATOM      3  C4  UNL d   1       2.292  -0.416  -0.055  0.00  0.00    -0.003 A 
ATOM      4  C5  UNL d   1       1.154  -1.180   0.180  0.00  0.00     0.000 A 
ATOM      5  C6  UNL d   1      -0.043  -0.554   0.527  0.00  0.00     0.000 A 
ATOM      6  C7  UNL d   1      -0.120   0.844   0.645  0.00  0.00    -0.073 A 
ATOM      7  C8  UNL d   1      -1.435   1.466   1.028  0.00  0.00     0.078 C 
ENDROOT
BRANCH   1   8
ATOM      8  C1  UNL d   1       1.052   3.121   0.593  0.00  0.00     0.053 C 
ATOM      9  C   UNL d   1       2.422   3.661   0.973  0.00  0.00     0.018 C 
ENDBRANCH   1   8
TORSDOF 1
ENDMDL
