MODEL 1
REMARK minimizedAffinity -4.77546072
REMARK minimizedRMSD -1
REMARK  1 active torsions:
REMARK  status: ('A' for Active; 'I' for Inactive)
REMARK    1  A    between atoms: C1_2  and  C2_3 
ROOT
ATOM      1  C2  UNL d   1      -0.932   2.717  -2.155  0.00  0.00    -0.076 A 
ATOM      2  C3  UNL d   1       0.123   3.064  -1.293  0.00  0.00     0.004 A 
ATOM      3  C4  UNL d   1       0.315   2.393  -0.087  0.00  0.00    -0.003 A 
ATOM      4  C5  UNL d   1      -0.545   1.363   0.277  0.00  0.00     0.000 A 
ATOM      5  C6  UNL d   1      -1.586   0.993  -0.574  0.00  0.00     0.000 A 
ATOM      6  C7  UNL d   1      -1.783   1.648  -1.801  0.00  0.00    -0.073 A 
ATOM      7  C8  UNL d   1      -2.926   1.212  -2.677  0.00  0.00     0.078 C 
ENDROOT
BRANCH   1   8
ATOM      8  C1  UNL d   1      -1.107   3.498  -3.438  0.00  0.00     0.053 C 
ATOM      9  C   UNL d   1       0.012   3.240  -4.435  0.00  0.00     0.018 C 
ENDBRANCH   1   8
TORSDOF 1
ENDMDL
