MODEL 1
REMARK minimizedAffinity -2.59809923
REMARK minimizedRMSD -1
REMARK  1 active torsions:
REMARK  status: ('A' for Active; 'I' for Inactive)
REMARK    1  A    between atoms: C1_2  and  C2_3 
ROOT
ATOM      1  C2  UNL d   1       1.762  -0.122   0.015  0.00  0.00    -0.076 A 
ATOM      2  C3  UNL d   1       2.580  -1.126   0.562  0.00  0.00     0.004 A 
ATOM      3  C4  UNL d   1       2.025  -2.250   1.171  0.00  0.00    -0.003 A 
ATOM      4  C5  UNL d   1       0.644  -2.390   1.242  0.00  0.00     0.000 A 
ATOM      5  C6  UNL d   1      -0.183  -1.412   0.689  0.00  0.00     0.000 A 
ATOM      6  C7  UNL d   1       0.360  -0.281   0.057  0.00  0.00    -0.073 A 
ATOM      7  C8  UNL d   1      -0.579   0.745  -0.518  0.00  0.00     0.078 C 
ENDROOT
BRANCH   1   8
ATOM      8  C1  UNL d   1       2.419   1.088  -0.609  0.00  0.00     0.053 C 
ATOM      9  C   UNL d   1       2.420   2.294   0.318  0.00  0.00     0.018 C 
ENDBRANCH   1   8
TORSDOF 1
ENDMDL
