MODEL 1
REMARK minimizedAffinity 3.06599545
REMARK minimizedRMSD -1
REMARK  1 active torsions:
REMARK  status: ('A' for Active; 'I' for Inactive)
REMARK    1  A    between atoms: C1_2  and  C2_3 
ROOT
ATOM      1  C2  UNL d   1      -1.398   1.269  -1.687  0.00  0.00    -0.076 A 
ATOM      2  C3  UNL d   1      -2.135   0.133  -2.064  0.00  0.00     0.004 A 
ATOM      3  C4  UNL d   1      -2.869   0.115  -3.249  0.00  0.00    -0.003 A 
ATOM      4  C5  UNL d   1      -2.876   1.232  -4.077  0.00  0.00     0.000 A 
ATOM      5  C6  UNL d   1      -2.136   2.361  -3.727  0.00  0.00     0.000 A 
ATOM      6  C7  UNL d   1      -1.379   2.390  -2.544  0.00  0.00    -0.073 A 
ATOM      7  C8  UNL d   1      -0.604   3.636  -2.213  0.00  0.00     0.078 C 
ENDROOT
BRANCH   1   8
ATOM      8  C1  UNL d   1      -0.644   1.240  -0.377  0.00  0.00     0.053 C 
ATOM      9  C   UNL d   1      -0.631  -0.141   0.258  0.00  0.00     0.018 C 
ENDBRANCH   1   8
TORSDOF 1
ENDMDL
