MODEL 1
REMARK minimizedAffinity -4.01558447
REMARK minimizedRMSD -1
REMARK  1 active torsions:
REMARK  status: ('A' for Active; 'I' for Inactive)
REMARK    1  A    between atoms: C1_2  and  C2_3 
ROOT
ATOM      1  C2  UNL d   1       0.059  -0.291   0.096  0.00  0.00    -0.076 A 
ATOM      2  C3  UNL d   1       1.231  -0.531  -0.641  0.00  0.00     0.004 A 
ATOM      3  C4  UNL d   1       2.119  -1.540  -0.269  0.00  0.00    -0.003 A 
ATOM      4  C5  UNL d   1       1.847  -2.325   0.846  0.00  0.00     0.000 A 
ATOM      5  C6  UNL d   1       0.680  -2.112   1.579  0.00  0.00     0.000 A 
ATOM      6  C7  UNL d   1      -0.233  -1.110   1.208  0.00  0.00    -0.073 A 
ATOM      7  C8  UNL d   1      -1.472  -0.920   2.038  0.00  0.00     0.078 C 
ENDROOT
BRANCH   1   8
ATOM      8  C1  UNL d   1      -0.852   0.835  -0.339  0.00  0.00     0.053 C 
ATOM      9  C   UNL d   1      -1.624   0.503  -1.606  0.00  0.00     0.018 C 
ENDBRANCH   1   8
TORSDOF 1
ENDMDL
