MODEL 1
REMARK minimizedAffinity -3.56600356
REMARK minimizedRMSD -1
REMARK  1 active torsions:
REMARK  status: ('A' for Active; 'I' for Inactive)
REMARK    1  A    between atoms: C1_2  and  C2_3 
ROOT
ATOM      1  C2  UNL d   1      -1.115   2.166  -1.405  0.00  0.00    -0.076 A 
ATOM      2  C3  UNL d   1      -0.789   3.498  -1.711  0.00  0.00     0.004 A 
ATOM      3  C4  UNL d   1       0.308   4.123  -1.120  0.00  0.00    -0.003 A 
ATOM      4  C5  UNL d   1       1.096   3.425  -0.212  0.00  0.00     0.000 A 
ATOM      5  C6  UNL d   1       0.798   2.097   0.091  0.00  0.00     0.000 A 
ATOM      6  C7  UNL d   1      -0.295   1.447  -0.509  0.00  0.00    -0.073 A 
ATOM      7  C8  UNL d   1      -0.574   0.016  -0.141  0.00  0.00     0.078 C 
ENDROOT
BRANCH   1   8
ATOM      8  C1  UNL d   1      -2.332   1.550  -2.057  0.00  0.00     0.053 C 
ATOM      9  C   UNL d   1      -2.373   1.790  -3.558  0.00  0.00     0.018 C 
ENDBRANCH   1   8
TORSDOF 1
ENDMDL
