MODEL 1
REMARK minimizedAffinity -5.29937315
REMARK minimizedRMSD -1
REMARK  1 active torsions:
REMARK  status: ('A' for Active; 'I' for Inactive)
REMARK    1  A    between atoms: C1_2  and  C2_3 
ROOT
ATOM      1  C2  UNL d   1      -1.073   3.104  -1.018  0.00  0.00    -0.076 A 
ATOM      2  C3  UNL d   1      -0.824   3.521  -2.337  0.00  0.00     0.004 A 
ATOM      3  C4  UNL d   1      -1.398   2.855  -3.419  0.00  0.00    -0.003 A 
ATOM      4  C5  UNL d   1      -2.229   1.763  -3.199  0.00  0.00     0.000 A 
ATOM      5  C6  UNL d   1      -2.501   1.347  -1.896  0.00  0.00     0.000 A 
ATOM      6  C7  UNL d   1      -1.944   2.017  -0.794  0.00  0.00    -0.073 A 
ATOM      7  C8  UNL d   1      -2.266   1.522   0.590  0.00  0.00     0.078 C 
ENDROOT
BRANCH   1   8
ATOM      8  C1  UNL d   1      -0.401   3.848   0.115  0.00  0.00     0.053 C 
ATOM      9  C   UNL d   1       1.102   3.621   0.150  0.00  0.00     0.018 C 
ENDBRANCH   1   8
TORSDOF 1
ENDMDL
