MODEL 1
REMARK minimizedAffinity 0.282746911
REMARK minimizedRMSD -1
REMARK  0 active torsions:
REMARK  status: ('A' for Active; 'I' for Inactive)
ROOT
ATOM      1  C   UNL d   1      -1.979   2.285   2.983  0.00  0.00     0.172 C 
ATOM      2  N   UNL d   1      -1.086   1.528   2.138  0.00  0.00    -0.070 N 
ATOM      3  C1  UNL d   1      -0.069   2.049   1.383  0.00  0.00    -0.004 A 
ATOM      4  C2  UNL d   1       0.545   1.005   0.725  0.00  0.00    -0.047 A 
ATOM      5  C3  UNL d   1      -0.128  -0.183   1.096  0.00  0.00    -0.047 A 
ATOM      6  C4  UNL d   1      -1.133   0.169   1.972  0.00  0.00    -0.004 A 
ENDROOT
TORSDOF 0
ENDMDL
