MODEL 1
REMARK minimizedAffinity -2.01277709
REMARK minimizedRMSD -1
REMARK  0 active torsions:
REMARK  status: ('A' for Active; 'I' for Inactive)
ROOT
ATOM      1  C   UNL d   1      -3.041   1.521   2.992  0.00  0.00     0.172 C 
ATOM      2  N   UNL d   1      -1.885   1.045   2.270  0.00  0.00    -0.070 N 
ATOM      3  C1  UNL d   1      -0.804   1.802   1.903  0.00  0.00    -0.004 A 
ATOM      4  C2  UNL d   1       0.079   0.982   1.235  0.00  0.00    -0.047 A 
ATOM      5  C3  UNL d   1      -0.490  -0.313   1.198  0.00  0.00    -0.047 A 
ATOM      6  C4  UNL d   1      -1.706  -0.246   1.846  0.00  0.00    -0.004 A 
ENDROOT
TORSDOF 0
ENDMDL
