MODEL 1
REMARK minimizedAffinity -2.13585472
REMARK minimizedRMSD -1
REMARK  0 active torsions:
REMARK  status: ('A' for Active; 'I' for Inactive)
ROOT
ATOM      1  C   UNL d   1       2.026   0.014   3.315  0.00  0.00     0.172 C 
ATOM      2  N   UNL d   1       0.826   0.333   2.578  0.00  0.00    -0.070 N 
ATOM      3  C1  UNL d   1       0.429   1.590   2.206  0.00  0.00    -0.004 A 
ATOM      4  C2  UNL d   1      -0.762   1.471   1.522  0.00  0.00    -0.047 A 
ATOM      5  C3  UNL d   1      -1.092   0.095   1.483  0.00  0.00    -0.047 A 
ATOM      6  C4  UNL d   1      -0.092  -0.586   2.144  0.00  0.00    -0.004 A 
ENDROOT
TORSDOF 0
ENDMDL
