MODEL 1
REMARK minimizedAffinity 0.388343245
REMARK minimizedRMSD -1
REMARK  0 active torsions:
REMARK  status: ('A' for Active; 'I' for Inactive)
ROOT
ATOM      1  C   UNL d   1      -3.492   1.885   3.878  0.00  0.00     0.172 C 
ATOM      2  N   UNL d   1      -2.287   1.633   3.124  0.00  0.00    -0.070 N 
ATOM      3  C1  UNL d   1      -1.353   2.571   2.775  0.00  0.00    -0.004 A 
ATOM      4  C2  UNL d   1      -0.359   1.934   2.064  0.00  0.00    -0.047 A 
ATOM      5  C3  UNL d   1      -0.709   0.565   1.982  0.00  0.00    -0.047 A 
ATOM      6  C4  UNL d   1      -1.906   0.406   2.646  0.00  0.00    -0.004 A 
ENDROOT
TORSDOF 0
ENDMDL
