MODEL 1
REMARK minimizedAffinity -3.76919723
REMARK minimizedRMSD -1
REMARK  0 active torsions:
REMARK  status: ('A' for Active; 'I' for Inactive)
ROOT
ATOM      1  C   UNL d   1      -3.010   2.028   2.827  0.00  0.00     0.172 C 
ATOM      2  N   UNL d   1      -1.900   1.489   2.077  0.00  0.00    -0.070 N 
ATOM      3  C1  UNL d   1      -1.900   0.301   1.396  0.00  0.00    -0.004 A 
ATOM      4  C2  UNL d   1      -0.659   0.148   0.816  0.00  0.00    -0.047 A 
ATOM      5  C3  UNL d   1       0.113   1.282   1.161  0.00  0.00    -0.047 A 
ATOM      6  C4  UNL d   1      -0.680   2.096   1.942  0.00  0.00    -0.004 A 
ENDROOT
TORSDOF 0
ENDMDL
