MODEL 1
REMARK minimizedAffinity -2.68680859
REMARK minimizedRMSD -1
REMARK  0 active torsions:
REMARK  status: ('A' for Active; 'I' for Inactive)
ROOT
ATOM      1  C   UNL d   1      -1.391   2.821   1.911  0.00  0.00     0.172 C 
ATOM      2  N   UNL d   1      -0.916   1.497   1.582  0.00  0.00    -0.070 N 
ATOM      3  C1  UNL d   1      -1.695   0.378   1.458  0.00  0.00    -0.004 A 
ATOM      4  C2  UNL d   1      -0.869  -0.678   1.136  0.00  0.00    -0.047 A 
ATOM      5  C3  UNL d   1       0.452  -0.175   1.066  0.00  0.00    -0.047 A 
ATOM      6  C4  UNL d   1       0.394   1.174   1.346  0.00  0.00    -0.004 A 
ENDROOT
TORSDOF 0
ENDMDL
