MODEL 1
REMARK minimizedAffinity 0.675050914
REMARK minimizedRMSD -1
REMARK  0 active torsions:
REMARK  status: ('A' for Active; 'I' for Inactive)
ROOT
ATOM      1  C   UNL d   1      -3.395   2.200   3.646  0.00  0.00     0.172 C 
ATOM      2  N   UNL d   1      -2.317   1.655   2.854  0.00  0.00    -0.070 N 
ATOM      3  C1  UNL d   1      -1.306   2.377   2.278  0.00  0.00    -0.004 A 
ATOM      4  C2  UNL d   1      -0.484   1.494   1.611  0.00  0.00    -0.047 A 
ATOM      5  C3  UNL d   1      -1.020   0.197   1.791  0.00  0.00    -0.047 A 
ATOM      6  C4  UNL d   1      -2.154   0.326   2.565  0.00  0.00    -0.004 A 
ENDROOT
TORSDOF 0
ENDMDL
