MODEL 1
REMARK minimizedAffinity 2.1537869
REMARK minimizedRMSD -1
REMARK  0 active torsions:
REMARK  status: ('A' for Active; 'I' for Inactive)
ROOT
ATOM      1  C   UNL d   1       1.642   0.678  -0.158  0.00  0.00     0.172 C 
ATOM      2  N   UNL d   1       0.514   0.344   0.679  0.00  0.00    -0.070 N 
ATOM      3  C1  UNL d   1      -0.639   1.075   0.794  0.00  0.00    -0.004 A 
ATOM      4  C2  UNL d   1      -1.464   0.424   1.685  0.00  0.00    -0.047 A 
ATOM      5  C3  UNL d   1      -0.783  -0.737   2.122  0.00  0.00    -0.047 A 
ATOM      6  C4  UNL d   1       0.439  -0.762   1.483  0.00  0.00    -0.004 A 
ENDROOT
TORSDOF 0
ENDMDL
