MODEL 1
REMARK minimizedAffinity -2.88504457
REMARK minimizedRMSD -1
REMARK  0 active torsions:
REMARK  status: ('A' for Active; 'I' for Inactive)
ROOT
ATOM      1  C   UNL d   1      -2.096   1.815   2.633  0.00  0.00     0.172 C 
ATOM      2  N   UNL d   1      -0.790   1.584   2.062  0.00  0.00    -0.070 N 
ATOM      3  C1  UNL d   1      -0.128   0.385   2.041  0.00  0.00    -0.004 A 
ATOM      4  C2  UNL d   1       1.080   0.581   1.409  0.00  0.00    -0.047 A 
ATOM      5  C3  UNL d   1       1.148   1.945   1.038  0.00  0.00    -0.047 A 
ATOM      6  C4  UNL d   1      -0.023   2.543   1.454  0.00  0.00    -0.004 A 
ENDROOT
TORSDOF 0
ENDMDL
