MODEL 1
REMARK minimizedAffinity -3.45668936
REMARK minimizedRMSD -1
REMARK  0 active torsions:
REMARK  status: ('A' for Active; 'I' for Inactive)
ROOT
ATOM      1  C   UNL d   1      -3.026   1.617   3.190  0.00  0.00     0.172 C 
ATOM      2  N   UNL d   1      -1.912   1.252   2.347  0.00  0.00    -0.070 N 
ATOM      3  C1  UNL d   1      -1.595  -0.019   1.948  0.00  0.00    -0.004 A 
ATOM      4  C2  UNL d   1      -0.471   0.056   1.155  0.00  0.00    -0.047 A 
ATOM      5  C3  UNL d   1      -0.098   1.418   1.076  0.00  0.00    -0.047 A 
ATOM      6  C4  UNL d   1      -1.007   2.137   1.823  0.00  0.00    -0.004 A 
ENDROOT
TORSDOF 0
ENDMDL
