MODEL 1
REMARK minimizedAffinity -0.927722573
REMARK minimizedRMSD -1
REMARK  0 active torsions:
REMARK  status: ('A' for Active; 'I' for Inactive)
ROOT
ATOM      1  C   UNL d   1      -1.513   2.496   2.296  0.00  0.00     0.172 C 
ATOM      2  N   UNL d   1      -0.921   1.293   1.759  0.00  0.00    -0.070 N 
ATOM      3  C1  UNL d   1       0.258   1.224   1.067  0.00  0.00    -0.004 A 
ATOM      4  C2  UNL d   1       0.473  -0.094   0.729  0.00  0.00    -0.047 A 
ATOM      5  C3  UNL d   1      -0.615  -0.844   1.235  0.00  0.00    -0.047 A 
ATOM      6  C4  UNL d   1      -1.464   0.040   1.868  0.00  0.00    -0.004 A 
ENDROOT
TORSDOF 0
ENDMDL
