MODEL 1
REMARK minimizedAffinity -1.2932241
REMARK minimizedRMSD -1
REMARK  0 active torsions:
REMARK  status: ('A' for Active; 'I' for Inactive)
ROOT
ATOM      1  C   UNL d   1       2.225   0.713   0.629  0.00  0.00     0.172 C 
ATOM      2  N   UNL d   1       0.904   0.675   1.212  0.00  0.00    -0.070 N 
ATOM      3  C1  UNL d   1       0.087  -0.423   1.266  0.00  0.00    -0.004 A 
ATOM      4  C2  UNL d   1      -1.080  -0.050   1.897  0.00  0.00    -0.047 A 
ATOM      5  C3  UNL d   1      -0.960   1.320   2.232  0.00  0.00    -0.047 A 
ATOM      6  C4  UNL d   1       0.277   1.743   1.797  0.00  0.00    -0.004 A 
ENDROOT
TORSDOF 0
ENDMDL
