MODEL 1
REMARK minimizedAffinity 1.30823994
REMARK minimizedRMSD -1
REMARK  0 active torsions:
REMARK  status: ('A' for Active; 'I' for Inactive)
ROOT
ATOM      1  C   UNL d   1       2.905  -0.058  -0.077  0.00  0.00     0.172 C 
ATOM      2  N   UNL d   1       1.687   0.519   0.443  0.00  0.00    -0.070 N 
ATOM      3  C1  UNL d   1       1.193   1.757   0.129  0.00  0.00    -0.004 A 
ATOM      4  C2  UNL d   1       0.019   1.932   0.830  0.00  0.00    -0.047 A 
ATOM      5  C3  UNL d   1      -0.199   0.760   1.591  0.00  0.00    -0.047 A 
ATOM      6  C4  UNL d   1       0.849  -0.099   1.333  0.00  0.00    -0.004 A 
ENDROOT
TORSDOF 0
ENDMDL
