MODEL 1
REMARK minimizedAffinity -0.658167541
REMARK minimizedRMSD -1
REMARK  0 active torsions:
REMARK  status: ('A' for Active; 'I' for Inactive)
ROOT
ATOM      1  C   UNL d   1       2.282   0.390   0.318  0.00  0.00     0.172 C 
ATOM      2  N   UNL d   1       0.939   0.239   0.826  0.00  0.00    -0.070 N 
ATOM      3  C1  UNL d   1       0.410  -0.907   1.357  0.00  0.00    -0.004 A 
ATOM      4  C2  UNL d   1      -0.892  -0.641   1.724  0.00  0.00    -0.047 A 
ATOM      5  C3  UNL d   1      -1.154   0.712   1.403  0.00  0.00    -0.047 A 
ATOM      6  C4  UNL d   1      -0.004   1.233   0.848  0.00  0.00    -0.004 A 
ENDROOT
TORSDOF 0
ENDMDL
