MODEL 1
REMARK minimizedAffinity -1.59901667
REMARK minimizedRMSD -1
REMARK  0 active torsions:
REMARK  status: ('A' for Active; 'I' for Inactive)
ROOT
ATOM      1  C   UNL d   1       2.956  -0.379  -0.007  0.00  0.00     0.172 C 
ATOM      2  N   UNL d   1       1.724   0.185   0.491  0.00  0.00    -0.070 N 
ATOM      3  C1  UNL d   1       1.215   1.412   0.157  0.00  0.00    -0.004 A 
ATOM      4  C2  UNL d   1       0.030   1.577   0.840  0.00  0.00    -0.047 A 
ATOM      5  C3  UNL d   1      -0.180   0.410   1.613  0.00  0.00    -0.047 A 
ATOM      6  C4  UNL d   1       0.884  -0.435   1.378  0.00  0.00    -0.004 A 
ENDROOT
TORSDOF 0
ENDMDL
