MODEL 1
REMARK minimizedAffinity -2.54978299
REMARK minimizedRMSD -1
REMARK  0 active torsions:
REMARK  status: ('A' for Active; 'I' for Inactive)
ROOT
ATOM      1  C   UNL d   1       1.459   0.759   0.735  0.00  0.00     0.172 C 
ATOM      2  N   UNL d   1       0.117   0.612   1.246  0.00  0.00    -0.070 N 
ATOM      3  C1  UNL d   1      -0.648   1.613   1.783  0.00  0.00    -0.004 A 
ATOM      4  C2  UNL d   1      -1.859   1.069   2.150  0.00  0.00    -0.047 A 
ATOM      5  C3  UNL d   1      -1.821  -0.308   1.825  0.00  0.00    -0.047 A 
ATOM      6  C4  UNL d   1      -0.586  -0.564   1.267  0.00  0.00    -0.004 A 
ENDROOT
TORSDOF 0
ENDMDL
