MODEL 1
REMARK minimizedAffinity -0.161882803
REMARK minimizedRMSD -1
REMARK  0 active torsions:
REMARK  status: ('A' for Active; 'I' for Inactive)
ROOT
ATOM      1  C   UNL d   1       0.109   1.505   1.937  0.00  0.00     0.172 C 
ATOM      2  N   UNL d   1      -1.184   1.011   2.348  0.00  0.00    -0.070 N 
ATOM      3  C1  UNL d   1      -1.703  -0.219   2.042  0.00  0.00    -0.004 A 
ATOM      4  C2  UNL d   1      -2.952  -0.305   2.618  0.00  0.00    -0.047 A 
ATOM      5  C3  UNL d   1      -3.193   0.916   3.292  0.00  0.00    -0.047 A 
ATOM      6  C4  UNL d   1      -2.083   1.712   3.108  0.00  0.00    -0.004 A 
ENDROOT
TORSDOF 0
ENDMDL
