MODEL 1
REMARK minimizedAffinity 16.9321308
REMARK minimizedRMSD -1
REMARK  0 active torsions:
REMARK  status: ('A' for Active; 'I' for Inactive)
ROOT
ATOM      1  C   UNL d   1       5.634   4.512  -0.090  0.00  0.00     0.020 A 
ATOM      2  C1  UNL d   1       4.399   4.301   0.519  0.00  0.00     0.020 A 
ATOM      3  C2  UNL d   1       3.527   3.333   0.014  0.00  0.00     0.034 A 
ATOM      4  C3  UNL d   1       3.891   2.574  -1.104  0.00  0.00     0.017 A 
ATOM      5  C4  UNL d   1       5.131   2.787  -1.716  0.00  0.00     0.017 A 
ATOM      6  C5  UNL d   1       6.000   3.757  -1.206  0.00  0.00     0.034 A 
ATOM      7 Cl   UNL d   1       5.649   1.890  -3.099  0.00  0.00    -0.070 Cl
ATOM      8 Cl1  UNL d   1       2.764   1.395  -1.676  0.00  0.00    -0.070 Cl
ENDROOT
TORSDOF 0
ENDMDL
