MODEL 1
REMARK minimizedAffinity 12.4794884
REMARK minimizedRMSD -1
REMARK  0 active torsions:
REMARK  status: ('A' for Active; 'I' for Inactive)
ROOT
ATOM      1  C   UNL d   1      -6.000   4.978  -5.999  0.00  0.00     0.020 A 
ATOM      2  C1  UNL d   1      -5.801   6.000  -5.072  0.00  0.00     0.020 A 
ATOM      3  C2  UNL d   1      -4.812   5.872  -4.094  0.00  0.00     0.034 A 
ATOM      4  C3  UNL d   1      -4.019   4.720  -4.041  0.00  0.00     0.017 A 
ATOM      5  C4  UNL d   1      -4.220   3.695  -4.973  0.00  0.00     0.017 A 
ATOM      6  C5  UNL d   1      -5.211   3.828  -5.950  0.00  0.00     0.034 A 
ATOM      7 Cl   UNL d   1      -3.280   2.244  -4.971  0.00  0.00    -0.070 Cl
ATOM      8 Cl1  UNL d   1      -2.815   4.629  -2.805  0.00  0.00    -0.070 Cl
ENDROOT
TORSDOF 0
ENDMDL
