MODEL 1
REMARK minimizedAffinity 16.9367085
REMARK minimizedRMSD -1
REMARK  0 active torsions:
REMARK  status: ('A' for Active; 'I' for Inactive)
ROOT
ATOM      1  C   UNL d   1       2.073   0.003  -1.876  0.00  0.00     0.020 A 
ATOM      2  C1  UNL d   1       3.029  -0.220  -2.866  0.00  0.00     0.020 A 
ATOM      3  C2  UNL d   1       4.234   0.484  -2.843  0.00  0.00     0.034 A 
ATOM      4  C3  UNL d   1       4.487   1.414  -1.829  0.00  0.00     0.017 A 
ATOM      5  C4  UNL d   1       3.527   1.637  -0.835  0.00  0.00     0.017 A 
ATOM      6  C5  UNL d   1       2.321   0.929  -0.863  0.00  0.00     0.034 A 
ATOM      7 Cl   UNL d   1       3.767   2.768   0.449  0.00  0.00    -0.070 Cl
ATOM      8 Cl1  UNL d   1       6.000   2.249  -1.862  0.00  0.00    -0.070 Cl
ENDROOT
TORSDOF 0
ENDMDL
