MODEL 1
REMARK minimizedAffinity 17.9074326
REMARK minimizedRMSD -1
REMARK  0 active torsions:
REMARK  status: ('A' for Active; 'I' for Inactive)
ROOT
ATOM      1  C   UNL d   1       2.098   0.797  -0.976  0.00  0.00     0.020 A 
ATOM      2  C1  UNL d   1       2.470  -0.405  -0.375  0.00  0.00     0.020 A 
ATOM      3  C2  UNL d   1       3.341  -0.399   0.717  0.00  0.00     0.034 A 
ATOM      4  C3  UNL d   1       3.842   0.811   1.211  0.00  0.00     0.017 A 
ATOM      5  C4  UNL d   1       3.468   2.017   0.607  0.00  0.00     0.017 A 
ATOM      6  C5  UNL d   1       2.596   2.005  -0.486  0.00  0.00     0.034 A 
ATOM      7 Cl   UNL d   1       4.045   3.549   1.160  0.00  0.00    -0.070 Cl
ATOM      8 Cl1  UNL d   1       4.915   0.744   2.564  0.00  0.00    -0.070 Cl
ENDROOT
TORSDOF 0
ENDMDL
