MODEL 1
REMARK minimizedAffinity 16.0122967
REMARK minimizedRMSD -1
REMARK  0 active torsions:
REMARK  status: ('A' for Active; 'I' for Inactive)
ROOT
ATOM      1  C   UNL d   1       2.660   1.308  -2.004  0.00  0.00     0.020 A 
ATOM      2  C1  UNL d   1       2.194   1.177  -0.697  0.00  0.00     0.020 A 
ATOM      3  C2  UNL d   1       1.183   0.259  -0.405  0.00  0.00     0.034 A 
ATOM      4  C3  UNL d   1       0.635  -0.532  -1.422  0.00  0.00     0.017 A 
ATOM      5  C4  UNL d   1       1.104  -0.399  -2.734  0.00  0.00     0.017 A 
ATOM      6  C5  UNL d   1       2.117   0.522  -3.020  0.00  0.00     0.034 A 
ATOM      7 Cl   UNL d   1       0.478  -1.340  -4.041  0.00  0.00    -0.070 Cl
ATOM      8 Cl1  UNL d   1      -0.612  -1.647  -0.989  0.00  0.00    -0.070 Cl
ENDROOT
TORSDOF 0
ENDMDL
