MODEL 1
REMARK minimizedAffinity 14.870429
REMARK minimizedRMSD -1
REMARK  0 active torsions:
REMARK  status: ('A' for Active; 'I' for Inactive)
ROOT
ATOM      1  C   UNL d   1      -4.204   5.666  -0.930  0.00  0.00     0.020 A 
ATOM      2  C1  UNL d   1      -5.464   6.000  -0.435  0.00  0.00     0.020 A 
ATOM      3  C2  UNL d   1      -5.999   5.296   0.646  0.00  0.00     0.034 A 
ATOM      4  C3  UNL d   1      -5.274   4.254   1.236  0.00  0.00     0.017 A 
ATOM      5  C4  UNL d   1      -4.009   3.920   0.739  0.00  0.00     0.017 A 
ATOM      6  C5  UNL d   1      -3.478   4.628  -0.344  0.00  0.00     0.034 A 
ATOM      7 Cl   UNL d   1      -3.054   2.647   1.414  0.00  0.00    -0.070 Cl
ATOM      8 Cl1  UNL d   1      -5.996   3.426   2.569  0.00  0.00    -0.070 Cl
ENDROOT
TORSDOF 0
ENDMDL
