MODEL 1
REMARK minimizedAffinity 17.9845657
REMARK minimizedRMSD -1
REMARK  0 active torsions:
REMARK  status: ('A' for Active; 'I' for Inactive)
ROOT
ATOM      1  C   UNL d   1      -1.758   3.290  -4.576  0.00  0.00     0.020 A 
ATOM      2  C1  UNL d   1      -0.413   3.033  -4.838  0.00  0.00     0.020 A 
ATOM      3  C2  UNL d   1       0.099   1.745  -4.665  0.00  0.00     0.034 A 
ATOM      4  C3  UNL d   1      -0.735   0.709  -4.228  0.00  0.00     0.017 A 
ATOM      5  C4  UNL d   1      -2.085   0.968  -3.965  0.00  0.00     0.017 A 
ATOM      6  C5  UNL d   1      -2.592   2.259  -4.140  0.00  0.00     0.034 A 
ATOM      7 Cl   UNL d   1      -3.175  -0.259  -3.424  0.00  0.00    -0.070 Cl
ATOM      8 Cl1  UNL d   1      -0.035  -0.859  -4.036  0.00  0.00    -0.070 Cl
ENDROOT
TORSDOF 0
ENDMDL
