MODEL 1
REMARK minimizedAffinity 16.5822048
REMARK minimizedRMSD -1
REMARK  0 active torsions:
REMARK  status: ('A' for Active; 'I' for Inactive)
ROOT
ATOM      1  C   UNL d   1      -5.979   4.878  -5.938  0.00  0.00     0.020 A 
ATOM      2  C1  UNL d   1      -5.528   6.000  -5.245  0.00  0.00     0.020 A 
ATOM      3  C2  UNL d   1      -4.303   5.962  -4.576  0.00  0.00     0.034 A 
ATOM      4  C3  UNL d   1      -3.524   4.799  -4.599  0.00  0.00     0.017 A 
ATOM      5  C4  UNL d   1      -3.978   3.673  -5.295  0.00  0.00     0.017 A 
ATOM      6  C5  UNL d   1      -5.206   3.716  -5.964  0.00  0.00     0.034 A 
ATOM      7 Cl   UNL d   1      -3.073   2.202  -5.369  0.00  0.00    -0.070 Cl
ATOM      8 Cl1  UNL d   1      -2.019   4.822  -3.750  0.00  0.00    -0.070 Cl
ENDROOT
TORSDOF 0
ENDMDL
