MODEL 1
REMARK minimizedAffinity 13.8997831
REMARK minimizedRMSD -1
REMARK  0 active torsions:
REMARK  status: ('A' for Active; 'I' for Inactive)
ROOT
ATOM      1  C   UNL d   1      -2.232  -0.985  -1.993  0.00  0.00     0.020 A 
ATOM      2  C1  UNL d   1      -1.105  -1.703  -2.394  0.00  0.00     0.020 A 
ATOM      3  C2  UNL d   1      -0.417  -2.494  -1.472  0.00  0.00     0.034 A 
ATOM      4  C3  UNL d   1      -0.854  -2.570  -0.145  0.00  0.00     0.017 A 
ATOM      5  C4  UNL d   1      -1.985  -1.849   0.257  0.00  0.00     0.017 A 
ATOM      6  C5  UNL d   1      -2.670  -1.058  -0.671  0.00  0.00     0.034 A 
ATOM      7 Cl   UNL d   1      -2.585  -1.893   1.877  0.00  0.00    -0.070 Cl
ATOM      8 Cl1  UNL d   1       0.045  -3.569   0.942  0.00  0.00    -0.070 Cl
ENDROOT
TORSDOF 0
ENDMDL
