MODEL 1
REMARK minimizedAffinity 5.63593721
REMARK minimizedRMSD -1
REMARK  0 active torsions:
REMARK  status: ('A' for Active; 'I' for Inactive)
ROOT
ATOM      1  C   UNL d   1      -5.357   4.307   1.493  0.00  0.00     0.020 A 
ATOM      2  C1  UNL d   1      -5.980   5.493   1.109  0.00  0.00     0.020 A 
ATOM      3  C2  UNL d   1      -5.788   5.999  -0.178  0.00  0.00     0.034 A 
ATOM      4  C3  UNL d   1      -4.970   5.317  -1.087  0.00  0.00     0.017 A 
ATOM      5  C4  UNL d   1      -4.345   4.126  -0.701  0.00  0.00     0.017 A 
ATOM      6  C5  UNL d   1      -4.541   3.625   0.589  0.00  0.00     0.034 A 
ATOM      7 Cl   UNL d   1      -3.322   3.230  -1.767  0.00  0.00    -0.070 Cl
ATOM      8 Cl1  UNL d   1      -4.778   6.000  -2.663  0.00  0.00    -0.070 Cl
ENDROOT
TORSDOF 0
ENDMDL
