MODEL 1
REMARK minimizedAffinity 10.2320633
REMARK minimizedRMSD -1
REMARK  0 active torsions:
REMARK  status: ('A' for Active; 'I' for Inactive)
ROOT
ATOM      1  C   UNL d   1       1.925  -0.151  -2.971  0.00  0.00     0.020 A 
ATOM      2  C1  UNL d   1       1.671   0.314  -1.682  0.00  0.00     0.020 A 
ATOM      3  C2  UNL d   1       0.510  -0.081  -1.014  0.00  0.00     0.034 A 
ATOM      4  C3  UNL d   1      -0.400  -0.944  -1.635  0.00  0.00     0.017 A 
ATOM      5  C4  UNL d   1      -0.144  -1.410  -2.929  0.00  0.00     0.017 A 
ATOM      6  C5  UNL d   1       1.020  -1.011  -3.593  0.00  0.00     0.034 A 
ATOM      7 Cl   UNL d   1      -1.219  -2.478  -3.760  0.00  0.00    -0.070 Cl
ATOM      8 Cl1  UNL d   1      -1.815  -1.392  -0.750  0.00  0.00    -0.070 Cl
ENDROOT
TORSDOF 0
ENDMDL
