MODEL 1
REMARK minimizedAffinity 14.7813911
REMARK minimizedRMSD -1
REMARK  0 active torsions:
REMARK  status: ('A' for Active; 'I' for Inactive)
ROOT
ATOM      1  C   UNL d   1      -0.492  -3.345  -0.259  0.00  0.00     0.020 A 
ATOM      2  C1  UNL d   1      -0.833  -2.513  -1.324  0.00  0.00     0.020 A 
ATOM      3  C2  UNL d   1      -1.707  -1.442  -1.123  0.00  0.00     0.034 A 
ATOM      4  C3  UNL d   1      -2.244  -1.202   0.147  0.00  0.00     0.017 A 
ATOM      5  C4  UNL d   1      -1.901  -2.038   1.216  0.00  0.00     0.017 A 
ATOM      6  C5  UNL d   1      -1.026  -3.108   1.009  0.00  0.00     0.034 A 
ATOM      7 Cl   UNL d   1      -2.523  -1.804   2.812  0.00  0.00    -0.070 Cl
ATOM      8 Cl1  UNL d   1      -3.318   0.140   0.325  0.00  0.00    -0.070 Cl
ENDROOT
TORSDOF 0
ENDMDL
