MODEL 1
REMARK minimizedAffinity 2.73502541
REMARK minimizedRMSD -1
REMARK  0 active torsions:
REMARK  status: ('A' for Active; 'I' for Inactive)
ROOT
ATOM      1  C   UNL d   1      -5.007   6.000  -4.520  0.00  0.00     0.020 A 
ATOM      2  C1  UNL d   1      -5.992   5.392  -5.298  0.00  0.00     0.020 A 
ATOM      3  C2  UNL d   1      -5.817   4.080  -5.745  0.00  0.00     0.034 A 
ATOM      4  C3  UNL d   1      -4.656   3.372  -5.414  0.00  0.00     0.017 A 
ATOM      5  C4  UNL d   1      -3.669   3.984  -4.633  0.00  0.00     0.017 A 
ATOM      6  C5  UNL d   1      -3.848   5.297  -4.188  0.00  0.00     0.034 A 
ATOM      7 Cl   UNL d   1      -2.209   3.174  -4.184  0.00  0.00    -0.070 Cl
ATOM      8 Cl1  UNL d   1      -4.507   1.754  -6.000  0.00  0.00    -0.070 Cl
ENDROOT
TORSDOF 0
ENDMDL
