MODEL 1
REMARK minimizedAffinity 13.5399303
REMARK minimizedRMSD -1
REMARK  0 active torsions:
REMARK  status: ('A' for Active; 'I' for Inactive)
ROOT
ATOM      1  C   UNL d   1      -1.001  -2.308  -0.010  0.00  0.00     0.020 A 
ATOM      2  C1  UNL d   1      -2.302  -1.829   0.137  0.00  0.00     0.020 A 
ATOM      3  C2  UNL d   1      -2.891  -1.081  -0.886  0.00  0.00     0.034 A 
ATOM      4  C3  UNL d   1      -2.178  -0.810  -2.059  0.00  0.00     0.017 A 
ATOM      5  C4  UNL d   1      -0.872  -1.292  -2.206  0.00  0.00     0.017 A 
ATOM      6  C5  UNL d   1      -0.288  -2.040  -1.179  0.00  0.00     0.034 A 
ATOM      7 Cl   UNL d   1       0.070  -0.998  -3.625  0.00  0.00    -0.070 Cl
ATOM      8 Cl1  UNL d   1      -2.968   0.120  -3.282  0.00  0.00    -0.070 Cl
ENDROOT
TORSDOF 0
ENDMDL
