MODEL 1
REMARK minimizedAffinity 15.2335815
REMARK minimizedRMSD -1
REMARK  0 active torsions:
REMARK  status: ('A' for Active; 'I' for Inactive)
ROOT
ATOM      1  C   UNL d   1      -2.437  -1.120   1.844  0.00  0.00     0.020 A 
ATOM      2  C1  UNL d   1      -2.261  -2.317   2.538  0.00  0.00     0.020 A 
ATOM      3  C2  UNL d   1      -1.579  -3.378   1.939  0.00  0.00     0.034 A 
ATOM      4  C3  UNL d   1      -1.071  -3.245   0.642  0.00  0.00     0.017 A 
ATOM      5  C4  UNL d   1      -1.248  -2.044  -0.055  0.00  0.00     0.017 A 
ATOM      6  C5  UNL d   1      -1.932  -0.984   0.550  0.00  0.00     0.034 A 
ATOM      7 Cl   UNL d   1      -0.650  -1.805  -1.658  0.00  0.00    -0.070 Cl
ATOM      8 Cl1  UNL d   1      -0.237  -4.598  -0.037  0.00  0.00    -0.070 Cl
ENDROOT
TORSDOF 0
ENDMDL
