MODEL 1
REMARK minimizedAffinity 8.45751762
REMARK minimizedRMSD -1
REMARK  0 active torsions:
REMARK  status: ('A' for Active; 'I' for Inactive)
ROOT
ATOM      1  C   UNL d   1      -4.901   6.000  -4.686  0.00  0.00     0.020 A 
ATOM      2  C1  UNL d   1      -5.774   5.399  -5.591  0.00  0.00     0.020 A 
ATOM      3  C2  UNL d   1      -5.570   4.074  -5.983  0.00  0.00     0.034 A 
ATOM      4  C3  UNL d   1      -4.491   3.346  -5.468  0.00  0.00     0.017 A 
ATOM      5  C4  UNL d   1      -3.615   3.950  -4.559  0.00  0.00     0.017 A 
ATOM      6  C5  UNL d   1      -3.824   5.277  -4.171  0.00  0.00     0.034 A 
ATOM      7 Cl   UNL d   1      -2.262   3.116  -3.881  0.00  0.00    -0.070 Cl
ATOM      8 Cl1  UNL d   1      -4.300   1.711  -5.996  0.00  0.00    -0.070 Cl
ENDROOT
TORSDOF 0
ENDMDL
