MODEL 1
REMARK minimizedAffinity -1.88997996
REMARK minimizedRMSD -1
REMARK  1 active torsions:
REMARK  status: ('A' for Active; 'I' for Inactive)
REMARK    1  A    between atoms: N_2  and  C1_3 
ROOT
ATOM      1  C1  UNL d   1       0.506   0.169   0.026  0.00  0.00     0.143 A 
ATOM      2  C2  UNL d   1      -0.676   0.314  -0.709  0.00  0.00    -0.057 A 
ATOM      3  C3  UNL d   1      -1.873  -0.274  -0.281  0.00  0.00     0.033 A 
ATOM      4  C4  UNL d   1      -1.902  -1.044   0.877  0.00  0.00    -0.042 A 
ATOM      5  C5  UNL d   1      -0.733  -1.221   1.610  0.00  0.00     0.033 A 
ATOM      6  C6  UNL d   1       0.457  -0.626   1.181  0.00  0.00    -0.057 A 
ENDROOT
BRANCH   1   7
ATOM      7  N   UNL d   1       1.748   0.647  -0.399  0.00  0.00    -0.732 N 
ATOM      8  C   UNL d   1       2.204   1.964  -0.009  0.00  0.00     0.284 C 
ATOM      9  H3  UNL d   1       2.471  -0.069  -0.368  0.00  0.00     0.395 HD
ENDBRANCH   1   7
TORSDOF 1
ENDMDL
