MODEL 1
REMARK minimizedAffinity -2.97461939
REMARK minimizedRMSD -1
REMARK  1 active torsions:
REMARK  status: ('A' for Active; 'I' for Inactive)
REMARK    1  A    between atoms: N_2  and  C1_3 
ROOT
ATOM      1  C1  UNL d   1       2.189   1.237   0.427  0.00  0.00     0.143 A 
ATOM      2  C2  UNL d   1       2.664   2.184  -0.488  0.00  0.00    -0.057 A 
ATOM      3  C3  UNL d   1       3.217   3.396  -0.057  0.00  0.00     0.033 A 
ATOM      4  C4  UNL d   1       3.278   3.696   1.300  0.00  0.00    -0.042 A 
ATOM      5  C5  UNL d   1       2.790   2.781   2.226  0.00  0.00     0.033 A 
ATOM      6  C6  UNL d   1       2.245   1.569   1.789  0.00  0.00    -0.057 A 
ENDROOT
BRANCH   1   7
ATOM      7  N   UNL d   1       1.539   0.057   0.058  0.00  0.00    -0.732 N 
ATOM      8  C   UNL d   1       0.862  -0.752   1.048  0.00  0.00     0.284 C 
ATOM      9  H3  UNL d   1       1.032   0.151  -0.820  0.00  0.00     0.395 HD
ENDBRANCH   1   7
TORSDOF 1
ENDMDL
