MODEL 1
REMARK minimizedAffinity -1.46080935
REMARK minimizedRMSD -1
REMARK  1 active torsions:
REMARK  status: ('A' for Active; 'I' for Inactive)
REMARK    1  A    between atoms: N_2  and  C1_3 
ROOT
ATOM      1  C1  UNL d   1       3.434   3.699   0.500  0.00  0.00     0.143 A 
ATOM      2  C2  UNL d   1       3.308   2.313   0.354  0.00  0.00    -0.057 A 
ATOM      3  C3  UNL d   1       2.862   1.510   1.410  0.00  0.00     0.033 A 
ATOM      4  C4  UNL d   1       2.561   2.077   2.645  0.00  0.00    -0.042 A 
ATOM      5  C5  UNL d   1       2.703   3.448   2.820  0.00  0.00     0.033 A 
ATOM      6  C6  UNL d   1       3.143   4.246   1.759  0.00  0.00    -0.057 A 
ENDROOT
BRANCH   1   7
ATOM      7  N   UNL d   1       3.966   4.539  -0.482  0.00  0.00    -0.732 N 
ATOM      8  C   UNL d   1       4.938   4.040  -1.431  0.00  0.00     0.284 C 
ATOM      9  H3  UNL d   1       3.265   5.153  -0.889  0.00  0.00     0.395 HD
ENDBRANCH   1   7
TORSDOF 1
ENDMDL
