MODEL 1
REMARK minimizedAffinity -4.06866884
REMARK minimizedRMSD -1
REMARK  1 active torsions:
REMARK  status: ('A' for Active; 'I' for Inactive)
REMARK    1  A    between atoms: N_2  and  C1_3 
ROOT
ATOM      1  C1  UNL d   1       2.753  -0.153  -1.328  0.00  0.00     0.143 A 
ATOM      2  C2  UNL d   1       1.901  -0.491  -0.271  0.00  0.00    -0.057 A 
ATOM      3  C3  UNL d   1       1.749   0.350   0.837  0.00  0.00     0.033 A 
ATOM      4  C4  UNL d   1       2.473   1.535   0.923  0.00  0.00    -0.042 A 
ATOM      5  C5  UNL d   1       3.345   1.879  -0.104  0.00  0.00     0.033 A 
ATOM      6  C6  UNL d   1       3.487   1.038  -1.211  0.00  0.00    -0.057 A 
ENDROOT
BRANCH   1   7
ATOM      7  N   UNL d   1       3.022  -0.994  -2.410  0.00  0.00    -0.732 N 
ATOM      8  C   UNL d   1       2.334  -0.815  -3.671  0.00  0.00     0.284 C 
ATOM      9  H3  UNL d   1       4.013  -1.203  -2.504  0.00  0.00     0.395 HD
ENDBRANCH   1   7
TORSDOF 1
ENDMDL
