MODEL 1
REMARK minimizedAffinity -3.62228894
REMARK minimizedRMSD -1
REMARK  1 active torsions:
REMARK  status: ('A' for Active; 'I' for Inactive)
REMARK    1  A    between atoms: N_2  and  C1_3 
ROOT
ATOM      1  C1  UNL d   1       2.560   1.247   0.062  0.00  0.00     0.143 A 
ATOM      2  C2  UNL d   1       2.081   1.420   1.366  0.00  0.00    -0.057 A 
ATOM      3  C3  UNL d   1       2.349   2.589   2.088  0.00  0.00     0.033 A 
ATOM      4  C4  UNL d   1       3.127   3.597   1.529  0.00  0.00    -0.042 A 
ATOM      5  C5  UNL d   1       3.634   3.436   0.244  0.00  0.00     0.033 A 
ATOM      6  C6  UNL d   1       3.357   2.270  -0.475  0.00  0.00    -0.057 A 
ENDROOT
BRANCH   1   7
ATOM      7  N   UNL d   1       2.411   0.068  -0.671  0.00  0.00    -0.732 N 
ATOM      8  C   UNL d   1       3.396  -0.316  -1.659  0.00  0.00     0.284 C 
ATOM      9  H3  UNL d   1       2.071  -0.704  -0.101  0.00  0.00     0.395 HD
ENDBRANCH   1   7
TORSDOF 1
ENDMDL
