MODEL 1
REMARK minimizedAffinity -1.18996072
REMARK minimizedRMSD -1
REMARK  1 active torsions:
REMARK  status: ('A' for Active; 'I' for Inactive)
REMARK    1  A    between atoms: N_2  and  C1_3 
ROOT
ATOM      1  C1  UNL d   1       1.122   0.159   0.986  0.00  0.00     0.143 A 
ATOM      2  C2  UNL d   1       1.268  -1.001   1.754  0.00  0.00    -0.057 A 
ATOM      3  C3  UNL d   1       0.160  -1.782   2.107  0.00  0.00     0.033 A 
ATOM      4  C4  UNL d   1      -1.120  -1.399   1.722  0.00  0.00    -0.042 A 
ATOM      5  C5  UNL d   1      -1.291  -0.236   0.979  0.00  0.00     0.033 A 
ATOM      6  C6  UNL d   1      -0.181   0.536   0.624  0.00  0.00    -0.057 A 
ENDROOT
BRANCH   1   7
ATOM      7  N   UNL d   1       2.172   1.030   0.687  0.00  0.00    -0.732 N 
ATOM      8  C   UNL d   1       2.536   2.089   1.604  0.00  0.00     0.284 C 
ATOM      9  H3  UNL d   1       2.966   0.552   0.268  0.00  0.00     0.395 HD
ENDBRANCH   1   7
TORSDOF 1
ENDMDL
