MODEL 1
REMARK minimizedAffinity -0.0274773091
REMARK minimizedRMSD -1
REMARK  1 active torsions:
REMARK  status: ('A' for Active; 'I' for Inactive)
REMARK    1  A    between atoms: N_2  and  C1_3 
ROOT
ATOM      1  C1  UNL d   1       0.959   0.276   0.727  0.00  0.00     0.143 A 
ATOM      2  C2  UNL d   1       1.035  -0.917   1.454  0.00  0.00    -0.057 A 
ATOM      3  C3  UNL d   1      -0.079  -1.754   1.593  0.00  0.00     0.033 A 
ATOM      4  C4  UNL d   1      -1.300  -1.398   1.031  0.00  0.00    -0.042 A 
ATOM      5  C5  UNL d   1      -1.405  -0.204   0.325  0.00  0.00     0.033 A 
ATOM      6  C6  UNL d   1      -0.288   0.624   0.183  0.00  0.00    -0.057 A 
ENDROOT
BRANCH   1   7
ATOM      7  N   UNL d   1       2.003   1.199   0.635  0.00  0.00    -0.732 N 
ATOM      8  C   UNL d   1       2.216   2.178   1.679  0.00  0.00     0.284 C 
ATOM      9  H3  UNL d   1       2.859   0.782   0.275  0.00  0.00     0.395 HD
ENDBRANCH   1   7
TORSDOF 1
ENDMDL
