MODEL 1
REMARK minimizedAffinity 1.75173557
REMARK minimizedRMSD -1
REMARK  1 active torsions:
REMARK  status: ('A' for Active; 'I' for Inactive)
REMARK    1  A    between atoms: N_2  and  C1_3 
ROOT
ATOM      1  C1  UNL d   1       1.153  -0.331  -1.173  0.00  0.00     0.143 A 
ATOM      2  C2  UNL d   1       0.368  -0.394  -2.329  0.00  0.00    -0.057 A 
ATOM      3  C3  UNL d   1       0.943  -0.629  -3.585  0.00  0.00     0.033 A 
ATOM      4  C4  UNL d   1       2.320  -0.777  -3.709  0.00  0.00    -0.042 A 
ATOM      5  C5  UNL d   1       3.122  -0.694  -2.577  0.00  0.00     0.033 A 
ATOM      6  C6  UNL d   1       2.542  -0.465  -1.325  0.00  0.00    -0.057 A 
ENDROOT
BRANCH   1   7
ATOM      7  N   UNL d   1       0.653  -0.003   0.090  0.00  0.00    -0.732 N 
ATOM      8  C   UNL d   1       0.006  -1.004   0.910  0.00  0.00     0.284 C 
ATOM      9  H3  UNL d   1       1.274   0.618   0.604  0.00  0.00     0.395 HD
ENDBRANCH   1   7
TORSDOF 1
ENDMDL
