MODEL 1
REMARK minimizedAffinity -1.79041636
REMARK minimizedRMSD -1
REMARK  1 active torsions:
REMARK  status: ('A' for Active; 'I' for Inactive)
REMARK    1  A    between atoms: N_2  and  C1_3 
ROOT
ATOM      1  C1  UNL d   1       3.403   3.343   0.713  0.00  0.00     0.143 A 
ATOM      2  C2  UNL d   1       3.727   2.210  -0.041  0.00  0.00    -0.057 A 
ATOM      3  C3  UNL d   1       4.339   2.323  -1.295  0.00  0.00     0.033 A 
ATOM      4  C4  UNL d   1       4.613   3.577  -1.832  0.00  0.00    -0.042 A 
ATOM      5  C5  UNL d   1       4.277   4.717  -1.111  0.00  0.00     0.033 A 
ATOM      6  C6  UNL d   1       3.671   4.598   0.143  0.00  0.00    -0.057 A 
ENDROOT
BRANCH   1   7
ATOM      7  N   UNL d   1       2.704   3.300   1.922  0.00  0.00    -0.732 N 
ATOM      8  C   UNL d   1       2.520   2.046   2.622  0.00  0.00     0.284 C 
ATOM      9  H3  UNL d   1       2.927   4.086   2.528  0.00  0.00     0.395 HD
ENDBRANCH   1   7
TORSDOF 1
ENDMDL
