MODEL 1
REMARK minimizedAffinity -4.22685337
REMARK minimizedRMSD -1
REMARK  1 active torsions:
REMARK  status: ('A' for Active; 'I' for Inactive)
REMARK    1  A    between atoms: N_2  and  C1_3 
ROOT
ATOM      1  C1  UNL d   1       1.745   0.922   0.345  0.00  0.00     0.143 A 
ATOM      2  C2  UNL d   1       1.902   1.824   1.402  0.00  0.00    -0.057 A 
ATOM      3  C3  UNL d   1       2.703   2.965   1.270  0.00  0.00     0.033 A 
ATOM      4  C4  UNL d   1       3.385   3.209   0.083  0.00  0.00    -0.042 A 
ATOM      5  C5  UNL d   1       3.264   2.313  -0.973  0.00  0.00     0.033 A 
ATOM      6  C6  UNL d   1       2.458   1.179  -0.837  0.00  0.00    -0.057 A 
ENDROOT
BRANCH   1   7
ATOM      7  N   UNL d   1       1.042  -0.281   0.447  0.00  0.00    -0.732 N 
ATOM      8  C   UNL d   1      -0.402  -0.302   0.350  0.00  0.00     0.284 C 
ATOM      9  H3  UNL d   1       1.503  -1.043  -0.046  0.00  0.00     0.395 HD
ENDBRANCH   1   7
TORSDOF 1
ENDMDL
