MODEL 1
REMARK minimizedAffinity 2.07305217
REMARK minimizedRMSD -1
REMARK  0 active torsions:
REMARK  status: ('A' for Active; 'I' for Inactive)
ROOT
ATOM      1  O1  BZF d   1      -1.813   2.805   3.120  0.00  0.00    -0.204 OA
ATOM      2  C2  BZF d   1      -1.116   2.065   4.054  0.00  0.00     0.174 A 
ATOM      3  C3  BZF d   1      -0.563   0.974   3.485  0.00  0.00    -0.012 A 
ATOM      4  C3A BZF d   1      -0.862   1.086   2.090  0.00  0.00    -0.107 A 
ATOM      5  C4  BZF d   1      -0.567   0.314   1.003  0.00  0.00     0.055 A 
ATOM      6  C5  BZF d   1      -1.070   0.664  -0.211  0.00  0.00    -0.016 A 
ATOM      7  C6  BZF d   1      -1.873   1.773  -0.371  0.00  0.00     0.022 A 
ATOM      8  C7  BZF d   1      -2.189   2.572   0.677  0.00  0.00     0.029 A 
ATOM      9  C7A BZF d   1      -1.655   2.240   1.899  0.00  0.00     0.058 A 
ENDROOT
TORSDOF 0
ENDMDL
