MODEL 1
REMARK minimizedAffinity 3.13365984
REMARK minimizedRMSD -1
REMARK  0 active torsions:
REMARK  status: ('A' for Active; 'I' for Inactive)
ROOT
ATOM      1  O1  BZF d   1      -2.253   3.038  -0.536  0.00  0.00    -0.204 OA
ATOM      2  C2  BZF d   1      -3.474   2.401  -0.642  0.00  0.00     0.174 A 
ATOM      3  C3  BZF d   1      -3.402   1.144  -0.157  0.00  0.00    -0.012 A 
ATOM      4  C3A BZF d   1      -2.076   1.018   0.364  0.00  0.00    -0.107 A 
ATOM      5  C4  BZF d   1      -1.405   0.006   0.991  0.00  0.00     0.055 A 
ATOM      6  C5  BZF d   1      -0.095   0.178   1.307  0.00  0.00    -0.016 A 
ATOM      7  C6  BZF d   1       0.577   1.346   1.008  0.00  0.00     0.022 A 
ATOM      8  C7  BZF d   1      -0.047   2.379   0.392  0.00  0.00     0.029 A 
ATOM      9  C7A BZF d   1      -1.380   2.220   0.100  0.00  0.00     0.058 A 
ENDROOT
TORSDOF 0
ENDMDL
