MODEL 1
REMARK minimizedAffinity 7.06340981
REMARK minimizedRMSD -1
REMARK  0 active torsions:
REMARK  status: ('A' for Active; 'I' for Inactive)
ROOT
ATOM      1  O1  BZF d   1      -1.778   1.507  -1.083  0.00  0.00    -0.204 OA
ATOM      2  C2  BZF d   1      -3.033   0.989  -0.829  0.00  0.00     0.174 A 
ATOM      3  C3  BZF d   1      -3.068   0.388   0.378  0.00  0.00    -0.012 A 
ATOM      4  C3A BZF d   1      -1.777   0.620   0.951  0.00  0.00    -0.107 A 
ATOM      5  C4  BZF d   1      -1.205   0.283   2.145  0.00  0.00     0.055 A 
ATOM      6  C5  BZF d   1       0.098   0.598   2.365  0.00  0.00    -0.016 A 
ATOM      7  C6  BZF d   1       0.860   1.244   1.413  0.00  0.00     0.022 A 
ATOM      8  C7  BZF d   1       0.335   1.603   0.216  0.00  0.00     0.029 A 
ATOM      9  C7A BZF d   1      -0.991   1.316   0.004  0.00  0.00     0.058 A 
ENDROOT
TORSDOF 0
ENDMDL
