MODEL 1
REMARK minimizedAffinity -2.51129365
REMARK minimizedRMSD -1
REMARK  0 active torsions:
REMARK  status: ('A' for Active; 'I' for Inactive)
ROOT
ATOM      1  O1  BZF d   1       0.060   2.662   0.169  0.00  0.00    -0.204 OA
ATOM      2  C2  BZF d   1       1.185   1.933   0.506  0.00  0.00     0.174 A 
ATOM      3  C3  BZF d   1       0.846   0.701   0.936  0.00  0.00    -0.012 A 
ATOM      4  C3A BZF d   1      -0.574   0.624   0.776  0.00  0.00    -0.107 A 
ATOM      5  C4  BZF d   1      -1.494  -0.356   1.016  0.00  0.00     0.055 A 
ATOM      6  C5  BZF d   1      -2.812  -0.087   0.822  0.00  0.00    -0.016 A 
ATOM      7  C6  BZF d   1      -3.245   1.151   0.395  0.00  0.00     0.022 A 
ATOM      8  C7  BZF d   1      -2.369   2.154   0.139  0.00  0.00     0.029 A 
ATOM      9  C7A BZF d   1      -1.034   1.874   0.303  0.00  0.00     0.058 A 
ENDROOT
TORSDOF 0
ENDMDL
