MODEL 1
REMARK minimizedAffinity 7.80227709
REMARK minimizedRMSD -1
REMARK  0 active torsions:
REMARK  status: ('A' for Active; 'I' for Inactive)
ROOT
ATOM      1  O1  BZF d   1      -2.612   3.107  -0.358  0.00  0.00    -0.204 OA
ATOM      2  C2  BZF d   1      -2.956   1.774  -0.243  0.00  0.00     0.174 A 
ATOM      3  C3  BZF d   1      -1.868   0.987  -0.366  0.00  0.00    -0.012 A 
ATOM      4  C3A BZF d   1      -0.762   1.888  -0.479  0.00  0.00    -0.107 A 
ATOM      5  C4  BZF d   1       0.585   1.709  -0.611  0.00  0.00     0.055 A 
ATOM      6  C5  BZF d   1       1.384   2.797  -0.770  0.00  0.00    -0.016 A 
ATOM      7  C6  BZF d   1       0.869   4.077  -0.806  0.00  0.00     0.022 A 
ATOM      8  C7  BZF d   1      -0.461   4.305  -0.674  0.00  0.00     0.029 A 
ATOM      9  C7A BZF d   1      -1.266   3.209  -0.481  0.00  0.00     0.058 A 
ENDROOT
TORSDOF 0
ENDMDL
