MODEL 1
REMARK minimizedAffinity 1.82068098
REMARK minimizedRMSD -1
REMARK  0 active torsions:
REMARK  status: ('A' for Active; 'I' for Inactive)
ROOT
ATOM      1  O1  BZF d   1      -3.468   1.371   0.126  0.00  0.00    -0.204 OA
ATOM      2  C2  BZF d   1      -3.484   0.209   0.873  0.00  0.00     0.174 A 
ATOM      3  C3  BZF d   1      -2.277  -0.391   0.849  0.00  0.00    -0.012 A 
ATOM      4  C3A BZF d   1      -1.430   0.496   0.112  0.00  0.00    -0.107 A 
ATOM      5  C4  BZF d   1      -0.110   0.459  -0.238  0.00  0.00     0.055 A 
ATOM      6  C5  BZF d   1       0.392   1.448  -1.023  0.00  0.00    -0.016 A 
ATOM      7  C6  BZF d   1      -0.396   2.483  -1.480  0.00  0.00     0.022 A 
ATOM      8  C7  BZF d   1      -1.709   2.565  -1.156  0.00  0.00     0.029 A 
ATOM      9  C7A BZF d   1      -2.212   1.585  -0.335  0.00  0.00     0.058 A 
ENDROOT
TORSDOF 0
ENDMDL
