MODEL 1
REMARK minimizedAffinity -1.70408845
REMARK minimizedRMSD -1
REMARK  0 active torsions:
REMARK  status: ('A' for Active; 'I' for Inactive)
ROOT
ATOM      1  O1  BZF d   1       0.053   1.625   1.666  0.00  0.00    -0.204 OA
ATOM      2  C2  BZF d   1      -0.751   2.090   0.643  0.00  0.00     0.174 A 
ATOM      3  C3  BZF d   1      -0.031   2.280  -0.482  0.00  0.00    -0.012 A 
ATOM      4  C3A BZF d   1       1.288   1.823  -0.167  0.00  0.00    -0.107 A 
ATOM      5  C4  BZF d   1       2.449   1.741  -0.881  0.00  0.00     0.055 A 
ATOM      6  C5  BZF d   1       3.579   1.315  -0.258  0.00  0.00    -0.016 A 
ATOM      7  C6  BZF d   1       3.586   0.970   1.077  0.00  0.00     0.022 A 
ATOM      8  C7  BZF d   1       2.457   1.031   1.826  0.00  0.00     0.029 A 
ATOM      9  C7A BZF d   1       1.306   1.428   1.191  0.00  0.00     0.058 A 
ENDROOT
TORSDOF 0
ENDMDL
