MODEL 1
REMARK minimizedAffinity 4.2518878
REMARK minimizedRMSD -1
REMARK  0 active torsions:
REMARK  status: ('A' for Active; 'I' for Inactive)
ROOT
ATOM      1  O1  BZF d   1      -3.891   1.581  -0.195  0.00  0.00    -0.204 OA
ATOM      2  C2  BZF d   1      -4.562   0.598   0.508  0.00  0.00     0.174 A 
ATOM      3  C3  BZF d   1      -3.727  -0.039   1.354  0.00  0.00    -0.012 A 
ATOM      4  C3A BZF d   1      -2.476   0.646   1.235  0.00  0.00    -0.107 A 
ATOM      5  C4  BZF d   1      -1.259   0.489   1.835  0.00  0.00     0.055 A 
ATOM      6  C5  BZF d   1      -0.223   1.276   1.443  0.00  0.00    -0.016 A 
ATOM      7  C6  BZF d   1      -0.367   2.225   0.452  0.00  0.00     0.022 A 
ATOM      8  C7  BZF d   1      -1.556   2.420  -0.169  0.00  0.00     0.029 A 
ATOM      9  C7A BZF d   1      -2.613   1.649   0.248  0.00  0.00     0.058 A 
ENDROOT
TORSDOF 0
ENDMDL
