MODEL 1
REMARK minimizedAffinity 2.74753356
REMARK minimizedRMSD -1
REMARK  0 active torsions:
REMARK  status: ('A' for Active; 'I' for Inactive)
ROOT
ATOM      1  O1  BZF d   1       0.621   0.075   1.637  0.00  0.00    -0.204 OA
ATOM      2  C2  BZF d   1      -0.228  -0.538   2.537  0.00  0.00     0.174 A 
ATOM      3  C3  BZF d   1      -1.508  -0.180   2.307  0.00  0.00    -0.012 A 
ATOM      4  C3A BZF d   1      -1.465   0.641   1.136  0.00  0.00    -0.107 A 
ATOM      5  C4  BZF d   1      -2.421   1.286   0.405  0.00  0.00     0.055 A 
ATOM      6  C5  BZF d   1      -2.040   2.065  -0.641  0.00  0.00    -0.016 A 
ATOM      7  C6  BZF d   1      -0.713   2.225  -0.981  0.00  0.00     0.022 A 
ATOM      8  C7  BZF d   1       0.272   1.602  -0.289  0.00  0.00     0.029 A 
ATOM      9  C7A BZF d   1      -0.112   0.788   0.749  0.00  0.00     0.058 A 
ENDROOT
TORSDOF 0
ENDMDL
