MODEL 1
REMARK minimizedAffinity 2.76944852
REMARK minimizedRMSD -1
REMARK  0 active torsions:
REMARK  status: ('A' for Active; 'I' for Inactive)
ROOT
ATOM      1  O1  BZF d   1       0.602   2.749   0.304  0.00  0.00    -0.204 OA
ATOM      2  C2  BZF d   1       1.524   1.835   0.777  0.00  0.00     0.174 A 
ATOM      3  C3  BZF d   1       0.908   0.720   1.220  0.00  0.00    -0.012 A 
ATOM      4  C3A BZF d   1      -0.479   0.914   0.925  0.00  0.00    -0.107 A 
ATOM      5  C4  BZF d   1      -1.594   0.148   1.111  0.00  0.00     0.055 A 
ATOM      6  C5  BZF d   1      -2.809   0.659   0.779  0.00  0.00    -0.016 A 
ATOM      7  C6  BZF d   1      -2.945   1.932   0.264  0.00  0.00     0.022 A 
ATOM      8  C7  BZF d   1      -1.867   2.726   0.056  0.00  0.00     0.029 A 
ATOM      9  C7A BZF d   1      -0.635   2.201   0.360  0.00  0.00     0.058 A 
ENDROOT
TORSDOF 0
ENDMDL
