MODEL 1
REMARK minimizedAffinity 2.79388857
REMARK minimizedRMSD -1
REMARK  0 active torsions:
REMARK  status: ('A' for Active; 'I' for Inactive)
ROOT
ATOM      1  O1  BZF d   1      -1.144   2.778   0.056  0.00  0.00    -0.204 OA
ATOM      2  C2  BZF d   1      -0.069   2.143   0.648  0.00  0.00     0.174 A 
ATOM      3  C3  BZF d   1      -0.479   1.079   1.367  0.00  0.00    -0.012 A 
ATOM      4  C3A BZF d   1      -1.889   0.991   1.140  0.00  0.00    -0.107 A 
ATOM      5  C4  BZF d   1      -2.858   0.130   1.570  0.00  0.00     0.055 A 
ATOM      6  C5  BZF d   1      -4.151   0.364   1.224  0.00  0.00    -0.016 A 
ATOM      7  C6  BZF d   1      -4.511   1.452   0.455  0.00  0.00     0.022 A 
ATOM      8  C7  BZF d   1      -3.585   2.331   0.001  0.00  0.00     0.029 A 
ATOM      9  C7A BZF d   1      -2.273   2.078   0.321  0.00  0.00     0.058 A 
ENDROOT
TORSDOF 0
ENDMDL
