MODEL 1
REMARK minimizedAffinity 1.02604449
REMARK minimizedRMSD -1
REMARK  0 active torsions:
REMARK  status: ('A' for Active; 'I' for Inactive)
ROOT
ATOM      1  O1  BZF d   1       0.307  -0.045   1.287  0.00  0.00    -0.204 OA
ATOM      2  C2  BZF d   1       1.191   0.845   0.709  0.00  0.00     0.174 A 
ATOM      3  C3  BZF d   1       0.532   1.778  -0.007  0.00  0.00    -0.012 A 
ATOM      4  C3A BZF d   1      -0.856   1.506   0.208  0.00  0.00    -0.107 A 
ATOM      5  C4  BZF d   1      -2.007   2.099  -0.226  0.00  0.00     0.055 A 
ATOM      6  C5  BZF d   1      -3.202   1.543   0.105  0.00  0.00    -0.016 A 
ATOM      7  C6  BZF d   1      -3.283   0.393   0.863  0.00  0.00     0.022 A 
ATOM      8  C7  BZF d   1      -2.169  -0.228   1.321  0.00  0.00     0.029 A 
ATOM      9  C7A BZF d   1      -0.960   0.350   1.015  0.00  0.00     0.058 A 
ENDROOT
TORSDOF 0
ENDMDL
