MODEL 1
REMARK minimizedAffinity 9.2658329
REMARK minimizedRMSD -1
REMARK  0 active torsions:
REMARK  status: ('A' for Active; 'I' for Inactive)
ROOT
ATOM      1  O1  BZF d   1      -2.026   3.059  -1.212  0.00  0.00    -0.204 OA
ATOM      2  C2  BZF d   1      -3.249   2.652  -0.715  0.00  0.00     0.174 A 
ATOM      3  C3  BZF d   1      -3.092   1.944   0.421  0.00  0.00    -0.012 A 
ATOM      4  C3A BZF d   1      -1.689   1.984   0.699  0.00  0.00    -0.107 A 
ATOM      5  C4  BZF d   1      -0.915   1.475   1.703  0.00  0.00     0.055 A 
ATOM      6  C5  BZF d   1       0.433   1.630   1.641  0.00  0.00    -0.016 A 
ATOM      7  C6  BZF d   1       1.041   2.283   0.589  0.00  0.00     0.022 A 
ATOM      8  C7  BZF d   1       0.315   2.810  -0.427  0.00  0.00     0.029 A 
ATOM      9  C7A BZF d   1      -1.050   2.683  -0.351  0.00  0.00     0.058 A 
ENDROOT
TORSDOF 0
ENDMDL
