MODEL 1
REMARK minimizedAffinity 5.00897694
REMARK minimizedRMSD -1
REMARK  0 active torsions:
REMARK  status: ('A' for Active; 'I' for Inactive)
ROOT
ATOM      1  O1  BZF d   1       2.456   2.433   2.416  0.00  0.00    -0.204 OA
ATOM      2  C2  BZF d   1       3.324   1.835   1.522  0.00  0.00     0.174 A 
ATOM      3  C3  BZF d   1       2.644   1.232   0.526  0.00  0.00    -0.012 A 
ATOM      4  C3A BZF d   1       1.269   1.547   0.764  0.00  0.00    -0.107 A 
ATOM      5  C4  BZF d   1       0.109   1.246   0.108  0.00  0.00     0.055 A 
ATOM      6  C5  BZF d   1      -1.075   1.644   0.643  0.00  0.00    -0.016 A 
ATOM      7  C6  BZF d   1      -1.137   2.339   1.834  0.00  0.00     0.022 A 
ATOM      8  C7  BZF d   1      -0.013   2.664   2.518  0.00  0.00     0.029 A 
ATOM      9  C7A BZF d   1       1.187   2.292   1.963  0.00  0.00     0.058 A 
ENDROOT
TORSDOF 0
ENDMDL
