MODEL 1
REMARK minimizedAffinity 2.02979732
REMARK minimizedRMSD -1
REMARK  0 active torsions:
REMARK  status: ('A' for Active; 'I' for Inactive)
ROOT
ATOM      1  O1  BZF d   1       1.644   2.835   3.027  0.00  0.00    -0.204 OA
ATOM      2  C2  BZF d   1       0.437   3.309   3.503  0.00  0.00     0.174 A 
ATOM      3  C3  BZF d   1      -0.571   2.969   2.673  0.00  0.00    -0.012 A 
ATOM      4  C3A BZF d   1       0.033   2.157   1.661  0.00  0.00    -0.107 A 
ATOM      5  C4  BZF d   1      -0.456   1.507   0.564  0.00  0.00     0.055 A 
ATOM      6  C5  BZF d   1       0.410   0.862  -0.261  0.00  0.00    -0.016 A 
ATOM      7  C6  BZF d   1       1.769   0.852  -0.024  0.00  0.00     0.022 A 
ATOM      8  C7  BZF d   1       2.300   1.478   1.055  0.00  0.00     0.029 A 
ATOM      9  C7A BZF d   1       1.424   2.103   1.909  0.00  0.00     0.058 A 
ENDROOT
TORSDOF 0
ENDMDL
