MODEL 1
REMARK minimizedAffinity 5.24177647
REMARK minimizedRMSD -1
REMARK  0 active torsions:
REMARK  status: ('A' for Active; 'I' for Inactive)
ROOT
ATOM      1  O1  BZF d   1      -1.363   2.131   1.300  0.00  0.00    -0.204 OA
ATOM      2  C2  BZF d   1      -1.316   2.808   2.503  0.00  0.00     0.174 A 
ATOM      3  C3  BZF d   1      -0.046   2.908   2.947  0.00  0.00    -0.012 A 
ATOM      4  C3A BZF d   1       0.760   2.334   1.913  0.00  0.00    -0.107 A 
ATOM      5  C4  BZF d   1       2.105   2.155   1.762  0.00  0.00     0.055 A 
ATOM      6  C5  BZF d   1       2.564   1.494   0.667  0.00  0.00    -0.016 A 
ATOM      7  C6  BZF d   1       1.708   0.994  -0.292  0.00  0.00     0.022 A 
ATOM      8  C7  BZF d   1       0.366   1.152  -0.188  0.00  0.00     0.029 A 
ATOM      9  C7A BZF d   1      -0.100   1.848   0.901  0.00  0.00     0.058 A 
ENDROOT
TORSDOF 0
ENDMDL
