MODEL 1
REMARK minimizedAffinity -1.60922003
REMARK minimizedRMSD -1
REMARK  0 active torsions:
REMARK  status: ('A' for Active; 'I' for Inactive)
ROOT
ATOM      1  O1  BZF d   1       1.650   2.707   3.133  0.00  0.00    -0.204 OA
ATOM      2  C2  BZF d   1       0.483   3.272   3.610  0.00  0.00     0.174 A 
ATOM      3  C3  BZF d   1      -0.549   3.010   2.782  0.00  0.00    -0.012 A 
ATOM      4  C3A BZF d   1      -0.010   2.155   1.769  0.00  0.00    -0.107 A 
ATOM      5  C4  BZF d   1      -0.548   1.544   0.673  0.00  0.00     0.055 A 
ATOM      6  C5  BZF d   1       0.264   0.835  -0.154  0.00  0.00    -0.016 A 
ATOM      7  C6  BZF d   1       1.619   0.721   0.082  0.00  0.00     0.022 A 
ATOM      8  C7  BZF d   1       2.198   1.306   1.159  0.00  0.00     0.029 A 
ATOM      9  C7A BZF d   1       1.373   1.995   2.015  0.00  0.00     0.058 A 
ENDROOT
TORSDOF 0
ENDMDL
