MODEL 1
REMARK minimizedAffinity -5.31915569
REMARK minimizedRMSD -1
REMARK  0 active torsions:
REMARK  status: ('A' for Active; 'I' for Inactive)
ROOT
ATOM      1  C   UNL d   1       1.287   0.678  -1.669  0.00  0.00     0.077 C 
ATOM      2  C1  UNL d   1       0.453   0.352  -0.466  0.00  0.00    -0.074 A 
ATOM      3  C2  UNL d   1       0.791  -0.711   0.377  0.00  0.00    -0.005 A 
ATOM      4  C3  UNL d   1       0.011  -0.996   1.498  0.00  0.00     0.006 A 
ATOM      5  C4  UNL d   1      -1.113  -0.222   1.787  0.00  0.00    -0.005 A 
ATOM      6  C5  UNL d   1      -1.467   0.846   0.956  0.00  0.00    -0.074 A 
ATOM      7  C6  UNL d   1      -2.667   1.694   1.257  0.00  0.00     0.077 C 
ATOM      8  C7  UNL d   1      -0.674   1.130  -0.165  0.00  0.00    -0.001 A 
ENDROOT
TORSDOF 0
ENDMDL
