MODEL 1
REMARK minimizedAffinity -5.19051123
REMARK minimizedRMSD -1
REMARK  0 active torsions:
REMARK  status: ('A' for Active; 'I' for Inactive)
ROOT
ATOM      1  C   UNL d   1      -2.627   3.220   1.580  0.00  0.00     0.077 C 
ATOM      2  C1  UNL d   1      -1.601   2.175   1.256  0.00  0.00    -0.074 A 
ATOM      3  C2  UNL d   1      -0.824   2.266   0.097  0.00  0.00    -0.005 A 
ATOM      4  C3  UNL d   1       0.133   1.292  -0.186  0.00  0.00     0.006 A 
ATOM      5  C4  UNL d   1       0.322   0.219   0.686  0.00  0.00    -0.005 A 
ATOM      6  C5  UNL d   1      -0.445   0.112   1.850  0.00  0.00    -0.074 A 
ATOM      7  C6  UNL d   1      -0.247  -1.030   2.802  0.00  0.00     0.077 C 
ATOM      8  C7  UNL d   1      -1.400   1.098   2.131  0.00  0.00    -0.001 A 
ENDROOT
TORSDOF 0
ENDMDL
