MODEL 1
REMARK minimizedAffinity -4.36886406
REMARK minimizedRMSD -1
REMARK  0 active torsions:
REMARK  status: ('A' for Active; 'I' for Inactive)
ROOT
ATOM      1  C   UNL d   1       2.086   0.240  -1.486  0.00  0.00     0.077 C 
ATOM      2  C1  UNL d   1       0.856  -0.101  -0.699  0.00  0.00    -0.074 A 
ATOM      3  C2  UNL d   1       0.453  -1.431  -0.536  0.00  0.00    -0.005 A 
ATOM      4  C3  UNL d   1      -0.688  -1.733   0.206  0.00  0.00     0.006 A 
ATOM      5  C4  UNL d   1      -1.437  -0.712   0.793  0.00  0.00    -0.005 A 
ATOM      6  C5  UNL d   1      -1.048   0.623   0.641  0.00  0.00    -0.074 A 
ATOM      7  C6  UNL d   1      -1.835   1.733   1.273  0.00  0.00     0.077 C 
ATOM      8  C7  UNL d   1       0.104   0.919  -0.101  0.00  0.00    -0.001 A 
ENDROOT
TORSDOF 0
ENDMDL
