MODEL 1
REMARK minimizedAffinity -2.71463108
REMARK minimizedRMSD -1
REMARK  0 active torsions:
REMARK  status: ('A' for Active; 'I' for Inactive)
ROOT
ATOM      1  C   UNL d   1       0.415  -0.971   2.111  0.00  0.00     0.077 C 
ATOM      2  C1  UNL d   1      -0.413  -0.099   1.215  0.00  0.00    -0.074 A 
ATOM      3  C2  UNL d   1      -0.627  -0.442  -0.124  0.00  0.00    -0.005 A 
ATOM      4  C3  UNL d   1      -1.408   0.374  -0.943  0.00  0.00     0.006 A 
ATOM      5  C4  UNL d   1      -1.981   1.539  -0.432  0.00  0.00    -0.005 A 
ATOM      6  C5  UNL d   1      -1.778   1.898   0.905  0.00  0.00    -0.074 A 
ATOM      7  C6  UNL d   1      -2.396   3.141   1.472  0.00  0.00     0.077 C 
ATOM      8  C7  UNL d   1      -0.999   1.069   1.723  0.00  0.00    -0.001 A 
ENDROOT
TORSDOF 0
ENDMDL
