MODEL 1
REMARK minimizedAffinity -4.26804256
REMARK minimizedRMSD -1
REMARK  0 active torsions:
REMARK  status: ('A' for Active; 'I' for Inactive)
ROOT
ATOM      1  C   UNL d   1       0.209   3.751  -1.115  0.00  0.00     0.077 C 
ATOM      2  C1  UNL d   1       0.075   2.584  -0.182  0.00  0.00    -0.074 A 
ATOM      3  C2  UNL d   1      -0.541   2.729   1.065  0.00  0.00    -0.005 A 
ATOM      4  C3  UNL d   1      -0.667   1.633   1.919  0.00  0.00     0.006 A 
ATOM      5  C4  UNL d   1      -0.179   0.383   1.534  0.00  0.00    -0.005 A 
ATOM      6  C5  UNL d   1       0.438   0.219   0.290  0.00  0.00    -0.074 A 
ATOM      7  C6  UNL d   1       0.959  -1.119  -0.143  0.00  0.00     0.077 C 
ATOM      8  C7  UNL d   1       0.555   1.324  -0.564  0.00  0.00    -0.001 A 
ENDROOT
TORSDOF 0
ENDMDL
