MODEL 1
REMARK minimizedAffinity -4.4327178
REMARK minimizedRMSD -1
REMARK  0 active torsions:
REMARK  status: ('A' for Active; 'I' for Inactive)
ROOT
ATOM      1  C   UNL d   1       0.085  -1.352  -1.514  0.00  0.00     0.077 C 
ATOM      2  C1  UNL d   1      -0.293  -0.634  -0.252  0.00  0.00    -0.074 A 
ATOM      3  C2  UNL d   1       0.145  -1.092   0.994  0.00  0.00    -0.005 A 
ATOM      4  C3  UNL d   1      -0.207  -0.409   2.158  0.00  0.00     0.006 A 
ATOM      5  C4  UNL d   1      -0.999   0.738   2.087  0.00  0.00    -0.005 A 
ATOM      6  C5  UNL d   1      -1.446   1.211   0.850  0.00  0.00    -0.074 A 
ATOM      7  C6  UNL d   1      -2.290   2.448   0.755  0.00  0.00     0.077 C 
ATOM      8  C7  UNL d   1      -1.082   0.523  -0.316  0.00  0.00    -0.001 A 
ENDROOT
TORSDOF 0
ENDMDL
