MODEL 1
REMARK minimizedAffinity -6.32915497
REMARK minimizedRMSD -1
REMARK  0 active torsions:
REMARK  status: ('A' for Active; 'I' for Inactive)
ROOT
ATOM      1  C   UNL d   1      -2.158   2.611   1.576  0.00  0.00     0.077 C 
ATOM      2  C1  UNL d   1      -1.130   2.203   0.563  0.00  0.00    -0.074 A 
ATOM      3  C2  UNL d   1      -0.522   3.151  -0.266  0.00  0.00    -0.005 A 
ATOM      4  C3  UNL d   1       0.439   2.758  -1.197  0.00  0.00     0.006 A 
ATOM      5  C4  UNL d   1       0.801   1.415  -1.308  0.00  0.00    -0.005 A 
ATOM      6  C5  UNL d   1       0.205   0.453  -0.487  0.00  0.00    -0.074 A 
ATOM      7  C6  UNL d   1       0.590  -0.993  -0.587  0.00  0.00     0.077 C 
ATOM      8  C7  UNL d   1      -0.755   0.857   0.451  0.00  0.00    -0.001 A 
ENDROOT
TORSDOF 0
ENDMDL
