MODEL 1
REMARK minimizedAffinity -5.47599792
REMARK minimizedRMSD -1
REMARK  0 active torsions:
REMARK  status: ('A' for Active; 'I' for Inactive)
ROOT
ATOM      1  C   UNL d   1       1.398   2.607  -1.502  0.00  0.00     0.077 C 
ATOM      2  C1  UNL d   1       0.639   1.689  -0.590  0.00  0.00    -0.074 A 
ATOM      3  C2  UNL d   1       1.162   0.444  -0.226  0.00  0.00    -0.005 A 
ATOM      4  C3  UNL d   1       0.449  -0.394   0.631  0.00  0.00     0.006 A 
ATOM      5  C4  UNL d   1      -0.792   0.003   1.131  0.00  0.00    -0.005 A 
ATOM      6  C5  UNL d   1      -1.330   1.245   0.778  0.00  0.00    -0.074 A 
ATOM      7  C6  UNL d   1      -2.657   1.692   1.314  0.00  0.00     0.077 C 
ATOM      8  C7  UNL d   1      -0.604   2.085  -0.078  0.00  0.00    -0.001 A 
ENDROOT
TORSDOF 0
ENDMDL
