MODEL 1
REMARK minimizedAffinity -4.95093679
REMARK minimizedRMSD -1
REMARK  0 active torsions:
REMARK  status: ('A' for Active; 'I' for Inactive)
ROOT
ATOM      1  C   UNL d   1       0.479  -1.087  -0.426  0.00  0.00     0.077 C 
ATOM      2  C1  UNL d   1      -0.392  -0.157   0.365  0.00  0.00    -0.074 A 
ATOM      3  C2  UNL d   1      -1.234  -0.642   1.371  0.00  0.00    -0.005 A 
ATOM      4  C3  UNL d   1      -2.031   0.237   2.105  0.00  0.00     0.006 A 
ATOM      5  C4  UNL d   1      -1.995   1.606   1.840  0.00  0.00    -0.005 A 
ATOM      6  C5  UNL d   1      -1.158   2.110   0.839  0.00  0.00    -0.074 A 
ATOM      7  C6  UNL d   1      -1.100   3.580   0.548  0.00  0.00     0.077 C 
ATOM      8  C7  UNL d   1      -0.355   1.221   0.111  0.00  0.00    -0.001 A 
ENDROOT
TORSDOF 0
ENDMDL
