MODEL 1
REMARK minimizedAffinity -5.66742897
REMARK minimizedRMSD -1
REMARK  0 active torsions:
REMARK  status: ('A' for Active; 'I' for Inactive)
ROOT
ATOM      1  C   UNL d   1       0.070  -0.799   0.824  0.00  0.00     0.077 C 
ATOM      2  C1  UNL d   1      -0.311   0.651   0.783  0.00  0.00    -0.074 A 
ATOM      3  C2  UNL d   1      -1.000   1.243   1.847  0.00  0.00    -0.005 A 
ATOM      4  C3  UNL d   1      -1.340   2.595   1.799  0.00  0.00     0.006 A 
ATOM      5  C4  UNL d   1      -0.994   3.368   0.690  0.00  0.00    -0.005 A 
ATOM      6  C5  UNL d   1      -0.304   2.794  -0.383  0.00  0.00    -0.074 A 
ATOM      7  C6  UNL d   1       0.084   3.612  -1.578  0.00  0.00     0.077 C 
ATOM      8  C7  UNL d   1       0.039   1.436  -0.324  0.00  0.00    -0.001 A 
ENDROOT
TORSDOF 0
ENDMDL
