MODEL 1
REMARK minimizedAffinity -6.33961964
REMARK minimizedRMSD -1
REMARK  0 active torsions:
REMARK  status: ('A' for Active; 'I' for Inactive)
ROOT
ATOM      1  C   UNL d   1       0.133   3.995  -0.460  0.00  0.00     0.077 C 
ATOM      2  C1  UNL d   1      -0.431   2.650  -0.111  0.00  0.00    -0.074 A 
ATOM      3  C2  UNL d   1      -1.486   2.527   0.799  0.00  0.00    -0.005 A 
ATOM      4  C3  UNL d   1      -2.007   1.270   1.106  0.00  0.00     0.006 A 
ATOM      5  C4  UNL d   1      -1.479   0.126   0.508  0.00  0.00    -0.005 A 
ATOM      6  C5  UNL d   1      -0.424   0.229  -0.405  0.00  0.00    -0.074 A 
ATOM      7  C6  UNL d   1       0.148  -0.990  -1.065  0.00  0.00     0.077 C 
ATOM      8  C7  UNL d   1       0.089   1.496  -0.714  0.00  0.00    -0.001 A 
ENDROOT
TORSDOF 0
ENDMDL
