MODEL 1
REMARK minimizedAffinity -4.97212934
REMARK minimizedRMSD -1
REMARK  0 active torsions:
REMARK  status: ('A' for Active; 'I' for Inactive)
ROOT
ATOM      1  C   UNL d   1       0.250   3.531  -1.092  0.00  0.00     0.077 C 
ATOM      2  C1  UNL d   1      -0.633   2.744  -0.170  0.00  0.00    -0.074 A 
ATOM      3  C2  UNL d   1      -1.757   3.330   0.422  0.00  0.00    -0.005 A 
ATOM      4  C3  UNL d   1      -2.575   2.583   1.270  0.00  0.00     0.006 A 
ATOM      5  C4  UNL d   1      -2.277   1.245   1.534  0.00  0.00    -0.005 A 
ATOM      6  C5  UNL d   1      -1.158   0.643   0.950  0.00  0.00    -0.074 A 
ATOM      7  C6  UNL d   1      -0.830  -0.796   1.216  0.00  0.00     0.077 C 
ATOM      8  C7  UNL d   1      -0.345   1.398   0.094  0.00  0.00    -0.001 A 
ENDROOT
TORSDOF 0
ENDMDL
