MODEL 1
REMARK minimizedAffinity -4.72604704
REMARK minimizedRMSD -1
REMARK  0 active torsions:
REMARK  status: ('A' for Active; 'I' for Inactive)
ROOT
ATOM      1  C   UNL d   1       0.271  -1.466  -0.112  0.00  0.00     0.077 C 
ATOM      2  C1  UNL d   1      -0.273  -0.197   0.475  0.00  0.00    -0.074 A 
ATOM      3  C2  UNL d   1      -0.905  -0.195   1.722  0.00  0.00    -0.005 A 
ATOM      4  C3  UNL d   1      -1.397   0.995   2.259  0.00  0.00     0.006 A 
ATOM      5  C4  UNL d   1      -1.263   2.192   1.555  0.00  0.00    -0.005 A 
ATOM      6  C5  UNL d   1      -0.633   2.209   0.307  0.00  0.00    -0.074 A 
ATOM      7  C6  UNL d   1      -0.471   3.489  -0.459  0.00  0.00     0.077 C 
ATOM      8  C7  UNL d   1      -0.135   1.011  -0.223  0.00  0.00    -0.001 A 
ENDROOT
TORSDOF 0
ENDMDL
