MODEL 1
REMARK minimizedAffinity -5.60207081
REMARK minimizedRMSD -1
REMARK  0 active torsions:
REMARK  status: ('A' for Active; 'I' for Inactive)
ROOT
ATOM      1  C   UNL d   1      -2.246   3.567   1.134  0.00  0.00     0.077 C 
ATOM      2  C1  UNL d   1      -1.195   2.592   0.693  0.00  0.00    -0.074 A 
ATOM      3  C2  UNL d   1      -0.525   2.759  -0.523  0.00  0.00    -0.005 A 
ATOM      4  C3  UNL d   1       0.457   1.849  -0.916  0.00  0.00     0.006 A 
ATOM      5  C4  UNL d   1       0.777   0.764  -0.098  0.00  0.00    -0.005 A 
ATOM      6  C5  UNL d   1       0.117   0.581   1.121  0.00  0.00    -0.074 A 
ATOM      7  C6  UNL d   1       0.456  -0.573   2.017  0.00  0.00     0.077 C 
ATOM      8  C7  UNL d   1      -0.862   1.504   1.512  0.00  0.00    -0.001 A 
ENDROOT
TORSDOF 0
ENDMDL
