MODEL 1
REMARK minimizedAffinity 2.55397964
REMARK minimizedRMSD -1
REMARK  0 active torsions:
REMARK  status: ('A' for Active; 'I' for Inactive)
ROOT
ATOM      1  C   UNL d   1      -5.250  -2.491   0.107  0.00  0.00     0.172 C 
ATOM      2  N   UNL d   1      -5.016  -3.864   0.490  0.00  0.00    -0.070 N 
ATOM      3  C1  UNL d   1      -3.789  -4.439   0.686  0.00  0.00    -0.004 A 
ATOM      4  C2  UNL d   1      -3.992  -5.755   1.041  0.00  0.00    -0.047 A 
ATOM      5  C3  UNL d   1      -5.390  -5.979   1.057  0.00  0.00    -0.047 A 
ATOM      6  C4  UNL d   1      -5.999  -4.791   0.712  0.00  0.00    -0.004 A 
ENDROOT
TORSDOF 0
ENDMDL
