MODEL 1
REMARK minimizedAffinity -0.784016967
REMARK minimizedRMSD -1
REMARK  0 active torsions:
REMARK  status: ('A' for Active; 'I' for Inactive)
ROOT
ATOM      1  C   UNL d   1      -5.290  -2.587  -0.032  0.00  0.00     0.172 C 
ATOM      2  N   UNL d   1      -5.042  -3.947   0.386  0.00  0.00    -0.070 N 
ATOM      3  C1  UNL d   1      -3.830  -4.584   0.353  0.00  0.00    -0.004 A 
ATOM      4  C2  UNL d   1      -4.013  -5.863   0.833  0.00  0.00    -0.047 A 
ATOM      5  C3  UNL d   1      -5.381  -6.000   1.166  0.00  0.00    -0.047 A 
ATOM      6  C4  UNL d   1      -5.995  -4.799   0.879  0.00  0.00    -0.004 A 
ENDROOT
TORSDOF 0
ENDMDL
