MODEL 1
REMARK minimizedAffinity 2.95274663
REMARK minimizedRMSD -1
REMARK  0 active torsions:
REMARK  status: ('A' for Active; 'I' for Inactive)
ROOT
ATOM      1  C   UNL d   1      -4.889  -2.484  -0.278  0.00  0.00     0.172 C 
ATOM      2  N   UNL d   1      -4.875  -3.913  -0.068  0.00  0.00    -0.070 N 
ATOM      3  C1  UNL d   1      -5.975  -4.698   0.155  0.00  0.00    -0.004 A 
ATOM      4  C2  UNL d   1      -5.542  -5.998   0.304  0.00  0.00    -0.047 A 
ATOM      5  C3  UNL d   1      -4.134  -5.994   0.167  0.00  0.00    -0.047 A 
ATOM      6  C4  UNL d   1      -3.747  -4.690  -0.063  0.00  0.00    -0.004 A 
ENDROOT
TORSDOF 0
ENDMDL
