MODEL 1
REMARK minimizedAffinity -0.0267050099
REMARK minimizedRMSD -1
REMARK  0 active torsions:
REMARK  status: ('A' for Active; 'I' for Inactive)
ROOT
ATOM      1  C   UNL d   1      -4.171   0.340   4.459  0.00  0.00     0.172 C 
ATOM      2  N   UNL d   1      -3.418   0.802   3.318  0.00  0.00    -0.070 N 
ATOM      3  C1  UNL d   1      -2.365   0.146   2.737  0.00  0.00    -0.004 A 
ATOM      4  C2  UNL d   1      -1.922   0.911   1.680  0.00  0.00    -0.047 A 
ATOM      5  C3  UNL d   1      -2.735   2.068   1.624  0.00  0.00    -0.047 A 
ATOM      6  C4  UNL d   1      -3.653   1.975   2.650  0.00  0.00    -0.004 A 
ENDROOT
TORSDOF 0
ENDMDL
