MODEL 1
REMARK minimizedAffinity 3.48494601
REMARK minimizedRMSD -1
REMARK  0 active torsions:
REMARK  status: ('A' for Active; 'I' for Inactive)
ROOT
ATOM      1  C   UNL d   1       5.951  -5.957   5.964  0.00  0.00     0.172 C 
ATOM      2  N   UNL d   1       5.937  -4.709   5.239  0.00  0.00    -0.070 N 
ATOM      3  C1  UNL d   1       5.862  -4.577   3.878  0.00  0.00    -0.004 A 
ATOM      4  C2  UNL d   1       5.875  -3.231   3.583  0.00  0.00    -0.047 A 
ATOM      5  C3  UNL d   1       5.962  -2.530   4.809  0.00  0.00    -0.047 A 
ATOM      6  C4  UNL d   1       5.999  -3.469   5.817  0.00  0.00    -0.004 A 
ENDROOT
TORSDOF 0
ENDMDL
