MODEL 1
REMARK minimizedAffinity 6.07098007
REMARK minimizedRMSD -1
REMARK  0 active torsions:
REMARK  status: ('A' for Active; 'I' for Inactive)
ROOT
ATOM      1  C   UNL d   1      -0.375  -1.427  -4.583  0.00  0.00     0.172 C 
ATOM      2  N   UNL d   1       0.639  -0.686  -3.871  0.00  0.00    -0.070 N 
ATOM      3  C1  UNL d   1       1.970  -0.646  -4.190  0.00  0.00    -0.004 A 
ATOM      4  C2  UNL d   1       2.600   0.168  -3.274  0.00  0.00    -0.047 A 
ATOM      5  C3  UNL d   1       1.614   0.633  -2.372  0.00  0.00    -0.047 A 
ATOM      6  C4  UNL d   1       0.409   0.089  -2.765  0.00  0.00    -0.004 A 
ENDROOT
TORSDOF 0
ENDMDL
