MODEL 1
REMARK minimizedAffinity 5.30394745
REMARK minimizedRMSD -1
REMARK  0 active torsions:
REMARK  status: ('A' for Active; 'I' for Inactive)
ROOT
ATOM      1  C   UNL d   1      -0.965  -2.656  -5.613  0.00  0.00     0.172 C 
ATOM      2  N   UNL d   1      -0.049  -1.676  -5.078  0.00  0.00    -0.070 N 
ATOM      3  C1  UNL d   1      -0.150  -0.320  -5.234  0.00  0.00    -0.004 A 
ATOM      4  C2  UNL d   1       0.913   0.261  -4.577  0.00  0.00    -0.047 A 
ATOM      5  C3  UNL d   1       1.680  -0.782  -4.007  0.00  0.00    -0.047 A 
ATOM      6  C4  UNL d   1       1.062  -1.971  -4.333  0.00  0.00    -0.004 A 
ENDROOT
TORSDOF 0
ENDMDL
