MODEL 1
REMARK minimizedAffinity 9.79849434
REMARK minimizedRMSD -1
REMARK  0 active torsions:
REMARK  status: ('A' for Active; 'I' for Inactive)
ROOT
ATOM      1  C   UNL d   1      -4.016  -0.632   1.295  0.00  0.00     0.172 C 
ATOM      2  N   UNL d   1      -2.776   0.044   1.594  0.00  0.00    -0.070 N 
ATOM      3  C1  UNL d   1      -2.141   0.945   0.781  0.00  0.00    -0.004 A 
ATOM      4  C2  UNL d   1      -0.996   1.361   1.424  0.00  0.00    -0.047 A 
ATOM      5  C3  UNL d   1      -0.939   0.685   2.667  0.00  0.00    -0.047 A 
ATOM      6  C4  UNL d   1      -2.053  -0.123   2.746  0.00  0.00    -0.004 A 
ENDROOT
TORSDOF 0
ENDMDL
