MODEL 1
REMARK minimizedAffinity 3.56665993
REMARK minimizedRMSD -1
REMARK  0 active torsions:
REMARK  status: ('A' for Active; 'I' for Inactive)
ROOT
ATOM      1  C   UNL d   1      -5.492  -0.937  -3.752  0.00  0.00     0.172 C 
ATOM      2  N   UNL d   1      -4.959  -1.920  -4.665  0.00  0.00    -0.070 N 
ATOM      3  C1  UNL d   1      -3.686  -1.934  -5.170  0.00  0.00    -0.004 A 
ATOM      4  C2  UNL d   1      -3.573  -3.028  -6.000  0.00  0.00    -0.047 A 
ATOM      5  C3  UNL d   1      -4.821  -3.694  -5.995  0.00  0.00    -0.047 A 
ATOM      6  C4  UNL d   1      -5.661  -2.987  -5.161  0.00  0.00    -0.004 A 
ENDROOT
TORSDOF 0
ENDMDL
