MODEL 1
REMARK minimizedAffinity 2.94860172
REMARK minimizedRMSD -1
REMARK  0 active torsions:
REMARK  status: ('A' for Active; 'I' for Inactive)
ROOT
ATOM      1  C   UNL d   1       5.910  -5.949   6.000  0.00  0.00     0.172 C 
ATOM      2  N   UNL d   1       5.250  -5.949   4.716  0.00  0.00    -0.070 N 
ATOM      3  C1  UNL d   1       5.873  -5.899   3.497  0.00  0.00    -0.004 A 
ATOM      4  C2  UNL d   1       4.898  -5.919   2.523  0.00  0.00    -0.047 A 
ATOM      5  C3  UNL d   1       3.645  -5.982   3.179  0.00  0.00    -0.047 A 
ATOM      6  C4  UNL d   1       3.893  -6.000   4.536  0.00  0.00    -0.004 A 
ENDROOT
TORSDOF 0
ENDMDL
