MODEL 1
REMARK minimizedAffinity 3.52328229
REMARK minimizedRMSD -1
REMARK  0 active torsions:
REMARK  status: ('A' for Active; 'I' for Inactive)
ROOT
ATOM      1  C   UNL d   1       3.657   1.663  -6.000  0.00  0.00     0.172 C 
ATOM      2  N   UNL d   1       4.155   3.015  -5.896  0.00  0.00    -0.070 N 
ATOM      3  C1  UNL d   1       5.459   3.370  -5.680  0.00  0.00    -0.004 A 
ATOM      4  C2  UNL d   1       5.522   4.747  -5.646  0.00  0.00    -0.047 A 
ATOM      5  C3  UNL d   1       4.209   5.235  -5.848  0.00  0.00    -0.047 A 
ATOM      6  C4  UNL d   1       3.383   4.142  -5.999  0.00  0.00    -0.004 A 
ENDROOT
TORSDOF 0
ENDMDL
