MODEL 1
REMARK minimizedAffinity 2.98546124
REMARK minimizedRMSD -1
REMARK  0 active torsions:
REMARK  status: ('A' for Active; 'I' for Inactive)
ROOT
ATOM      1  C   UNL d   1       2.326   3.991  -1.899  0.00  0.00     0.172 C 
ATOM      2  N   UNL d   1       2.801   4.374  -3.208  0.00  0.00    -0.070 N 
ATOM      3  C1  UNL d   1       2.018   4.781  -4.254  0.00  0.00    -0.004 A 
ATOM      4  C2  UNL d   1       2.847   5.056  -5.320  0.00  0.00    -0.047 A 
ATOM      5  C3  UNL d   1       4.174   4.803  -4.900  0.00  0.00    -0.047 A 
ATOM      6  C4  UNL d   1       4.117   4.382  -3.588  0.00  0.00    -0.004 A 
ENDROOT
TORSDOF 0
ENDMDL
