MODEL 1
REMARK minimizedAffinity -1.18333995
REMARK minimizedRMSD -1
REMARK  0 active torsions:
REMARK  status: ('A' for Active; 'I' for Inactive)
ROOT
ATOM      1  C   UNL d   1      -2.441  -2.625  -6.000  0.00  0.00     0.172 C 
ATOM      2  N   UNL d   1      -3.864  -2.663  -5.758  0.00  0.00    -0.070 N 
ATOM      3  C1  UNL d   1      -4.686  -3.732  -5.999  0.00  0.00    -0.004 A 
ATOM      4  C2  UNL d   1      -5.966  -3.370  -5.637  0.00  0.00    -0.047 A 
ATOM      5  C3  UNL d   1      -5.911  -2.038  -5.163  0.00  0.00    -0.047 A 
ATOM      6  C4  UNL d   1      -4.598  -1.625  -5.249  0.00  0.00    -0.004 A 
ENDROOT
TORSDOF 0
ENDMDL
