MODEL 1
REMARK minimizedAffinity -1.43988407
REMARK minimizedRMSD -1
REMARK  0 active torsions:
REMARK  status: ('A' for Active; 'I' for Inactive)
ROOT
ATOM      1  C   UNL d   1      -3.583   1.096   5.493  0.00  0.00     0.172 C 
ATOM      2  N   UNL d   1      -2.465   1.554   4.702  0.00  0.00    -0.070 N 
ATOM      3  C1  UNL d   1      -2.017   2.846   4.626  0.00  0.00    -0.004 A 
ATOM      4  C2  UNL d   1      -0.936   2.868   3.771  0.00  0.00    -0.047 A 
ATOM      5  C3  UNL d   1      -0.729   1.543   3.316  0.00  0.00    -0.047 A 
ATOM      6  C4  UNL d   1      -1.689   0.751   3.908  0.00  0.00    -0.004 A 
ENDROOT
TORSDOF 0
ENDMDL
