MODEL 1
REMARK minimizedAffinity 11.6843634
REMARK minimizedRMSD -1
REMARK  0 active torsions:
REMARK  status: ('A' for Active; 'I' for Inactive)
ROOT
ATOM      1  C   UNL d   1       4.873   2.552   1.888  0.00  0.00     0.023 A 
ATOM      2  C1  UNL d   1       5.943   3.403   1.613  0.00  0.00     0.003 A 
ATOM      3  C2  UNL d   1       5.999   4.085   0.396  0.00  0.00     0.048 A 
ATOM      4  C3  UNL d   1       4.981   3.913  -0.541  0.00  0.00     0.023 A 
ATOM      5  C4  UNL d   1       3.907   3.063  -0.269  0.00  0.00     0.048 A 
ATOM      6  C5  UNL d   1       3.856   2.382   0.948  0.00  0.00     0.003 A 
ATOM      7  I   UNL d   1       5.061   4.928  -2.353  0.00  0.00    -0.146 I 
ENDROOT
TORSDOF 0
ENDMDL
