MODEL 1
REMARK minimizedAffinity 10.2351418
REMARK minimizedRMSD -1
REMARK  0 active torsions:
REMARK  status: ('A' for Active; 'I' for Inactive)
ROOT
ATOM      1  C   UNL d   1       4.458   3.414  -4.731  0.00  0.00     0.023 A 
ATOM      2  C1  UNL d   1       5.621   4.179  -4.647  0.00  0.00     0.003 A 
ATOM      3  C2  UNL d   1       5.922   4.867  -3.471  0.00  0.00     0.048 A 
ATOM      4  C3  UNL d   1       5.057   4.785  -2.380  0.00  0.00     0.023 A 
ATOM      5  C4  UNL d   1       3.892   4.020  -2.459  0.00  0.00     0.048 A 
ATOM      6  C5  UNL d   1       3.594   3.334  -3.638  0.00  0.00     0.003 A 
ATOM      7  I   UNL d   1       5.504   5.809  -0.628  0.00  0.00    -0.146 I 
ENDROOT
TORSDOF 0
ENDMDL
