MODEL 1
REMARK minimizedAffinity 9.24713039
REMARK minimizedRMSD -1
REMARK  0 active torsions:
REMARK  status: ('A' for Active; 'I' for Inactive)
ROOT
ATOM      1  C   UNL d   1      -0.139   5.986  -1.553  0.00  0.00     0.023 A 
ATOM      2  C1  UNL d   1       0.723   5.743  -2.622  0.00  0.00     0.003 A 
ATOM      3  C2  UNL d   1       0.206   5.460  -3.888  0.00  0.00     0.048 A 
ATOM      4  C3  UNL d   1      -1.175   5.423  -4.078  0.00  0.00     0.023 A 
ATOM      5  C4  UNL d   1      -2.042   5.667  -3.011  0.00  0.00     0.048 A 
ATOM      6  C5  UNL d   1      -1.520   5.949  -1.747  0.00  0.00     0.003 A 
ATOM      7  I   UNL d   1      -1.948   5.003  -5.961  0.00  0.00    -0.146 I 
ENDROOT
TORSDOF 0
ENDMDL
