MODEL 1
REMARK minimizedAffinity 11.4076462
REMARK minimizedRMSD -1
REMARK  0 active torsions:
REMARK  status: ('A' for Active; 'I' for Inactive)
ROOT
ATOM      1  C   UNL d   1      -5.791  -0.086  -0.945  0.00  0.00     0.023 A 
ATOM      2  C1  UNL d   1      -5.607   0.587   0.263  0.00  0.00     0.003 A 
ATOM      3  C2  UNL d   1      -5.234   1.933   0.264  0.00  0.00     0.048 A 
ATOM      4  C3  UNL d   1      -5.047   2.599  -0.946  0.00  0.00     0.023 A 
ATOM      5  C4  UNL d   1      -5.231   1.930  -2.157  0.00  0.00     0.048 A 
ATOM      6  C5  UNL d   1      -5.603   0.584  -2.153  0.00  0.00     0.003 A 
ATOM      7  I   UNL d   1      -4.492   4.602  -0.947  0.00  0.00    -0.146 I 
ENDROOT
TORSDOF 0
ENDMDL
