MODEL 1
REMARK minimizedAffinity 19.6674595
REMARK minimizedRMSD -1
REMARK  0 active torsions:
REMARK  status: ('A' for Active; 'I' for Inactive)
ROOT
ATOM      1  C   UNL d   1      -3.318   5.411  -0.956  0.00  0.00     0.023 A 
ATOM      2  C1  UNL d   1      -1.935   5.471  -1.126  0.00  0.00     0.003 A 
ATOM      3  C2  UNL d   1      -1.390   5.513  -2.411  0.00  0.00     0.048 A 
ATOM      4  C3  UNL d   1      -2.233   5.496  -3.521  0.00  0.00     0.023 A 
ATOM      5  C4  UNL d   1      -3.618   5.436  -3.356  0.00  0.00     0.048 A 
ATOM      6  C5  UNL d   1      -4.159   5.393  -2.069  0.00  0.00     0.003 A 
ATOM      7  I   UNL d   1      -1.424   5.558  -5.435  0.00  0.00    -0.146 I 
ENDROOT
TORSDOF 0
ENDMDL
