MODEL 1
REMARK minimizedAffinity 13.7100506
REMARK minimizedRMSD -1
REMARK  0 active torsions:
REMARK  status: ('A' for Active; 'I' for Inactive)
ROOT
ATOM      1  C   UNL d   1       3.309   2.945  -4.322  0.00  0.00     0.023 A 
ATOM      2  C1  UNL d   1       4.617   3.352  -4.585  0.00  0.00     0.003 A 
ATOM      3  C2  UNL d   1       5.374   3.963  -3.583  0.00  0.00     0.048 A 
ATOM      4  C3  UNL d   1       4.817   4.162  -2.321  0.00  0.00     0.023 A 
ATOM      5  C4  UNL d   1       3.509   3.756  -2.053  0.00  0.00     0.048 A 
ATOM      6  C5  UNL d   1       2.756   3.147  -3.058  0.00  0.00     0.003 A 
ATOM      7  I   UNL d   1       5.942   5.071  -0.828  0.00  0.00    -0.146 I 
ENDROOT
TORSDOF 0
ENDMDL
