MODEL 1
REMARK minimizedAffinity 9.73431492
REMARK minimizedRMSD -1
REMARK  0 active torsions:
REMARK  status: ('A' for Active; 'I' for Inactive)
ROOT
ATOM      1  C   UNL d   1       2.341   2.109  -2.100  0.00  0.00     0.023 A 
ATOM      2  C1  UNL d   1       2.630   3.089  -3.050  0.00  0.00     0.003 A 
ATOM      3  C2  UNL d   1       1.595   3.706  -3.756  0.00  0.00     0.048 A 
ATOM      4  C3  UNL d   1       0.273   3.339  -3.505  0.00  0.00     0.023 A 
ATOM      5  C4  UNL d   1      -0.021   2.360  -2.555  0.00  0.00     0.048 A 
ATOM      6  C5  UNL d   1       1.018   1.745  -1.852  0.00  0.00     0.003 A 
ATOM      7  I   UNL d   1      -1.269   4.256  -4.554  0.00  0.00    -0.146 I 
ENDROOT
TORSDOF 0
ENDMDL
