MODEL 1
REMARK minimizedAffinity 5.57699442
REMARK minimizedRMSD -1
REMARK  0 active torsions:
REMARK  status: ('A' for Active; 'I' for Inactive)
ROOT
ATOM      1  C   UNL d   1      -2.937  -1.562   3.158  0.00  0.00     0.023 A 
ATOM      2  C1  UNL d   1      -4.301  -1.676   2.889  0.00  0.00     0.003 A 
ATOM      3  C2  UNL d   1      -4.845  -1.061   1.760  0.00  0.00     0.048 A 
ATOM      4  C3  UNL d   1      -4.019  -0.334   0.903  0.00  0.00     0.023 A 
ATOM      5  C4  UNL d   1      -2.654  -0.218   1.167  0.00  0.00     0.048 A 
ATOM      6  C5  UNL d   1      -2.114  -0.834   2.298  0.00  0.00     0.003 A 
ATOM      7  I   UNL d   1      -4.827   0.582  -0.778  0.00  0.00    -0.146 I 
ENDROOT
TORSDOF 0
ENDMDL
