MODEL 1
REMARK minimizedAffinity 8.31700134
REMARK minimizedRMSD -1
REMARK  0 active torsions:
REMARK  status: ('A' for Active; 'I' for Inactive)
ROOT
ATOM      1  C   UNL d   1      -1.932  -4.965  -4.209  0.00  0.00     0.023 A 
ATOM      2  C1  UNL d   1      -1.370  -5.702  -5.251  0.00  0.00     0.003 A 
ATOM      3  C2  UNL d   1      -0.005  -6.000  -5.241  0.00  0.00     0.048 A 
ATOM      4  C3  UNL d   1       0.791  -5.558  -4.185  0.00  0.00     0.023 A 
ATOM      5  C4  UNL d   1       0.232  -4.820  -3.140  0.00  0.00     0.048 A 
ATOM      6  C5  UNL d   1      -1.132  -4.524  -3.155  0.00  0.00     0.003 A 
ATOM      7  I   UNL d   1       2.822  -6.000  -4.167  0.00  0.00    -0.146 I 
ENDROOT
TORSDOF 0
ENDMDL
