MODEL 1
REMARK minimizedAffinity 11.6690559
REMARK minimizedRMSD -1
REMARK  0 active torsions:
REMARK  status: ('A' for Active; 'I' for Inactive)
ROOT
ATOM      1  C   UNL d   1      -2.084  -0.721   1.635  0.00  0.00     0.023 A 
ATOM      2  C1  UNL d   1      -1.806   0.182   2.661  0.00  0.00     0.003 A 
ATOM      3  C2  UNL d   1      -2.820   0.991   3.175  0.00  0.00     0.048 A 
ATOM      4  C3  UNL d   1      -4.112   0.892   2.659  0.00  0.00     0.023 A 
ATOM      5  C4  UNL d   1      -4.396  -0.010   1.632  0.00  0.00     0.048 A 
ATOM      6  C5  UNL d   1      -3.378  -0.817   1.121  0.00  0.00     0.003 A 
ATOM      7  I   UNL d   1      -5.624   2.096   3.422  0.00  0.00    -0.146 I 
ENDROOT
TORSDOF 0
ENDMDL
