MODEL 1
REMARK minimizedAffinity 14.505331
REMARK minimizedRMSD -1
REMARK  0 active torsions:
REMARK  status: ('A' for Active; 'I' for Inactive)
ROOT
ATOM      1  C   UNL d   1      -5.239   1.505   1.165  0.00  0.00     0.023 A 
ATOM      2  C1  UNL d   1      -5.212   0.111   1.123  0.00  0.00     0.003 A 
ATOM      3  C2  UNL d   1      -5.431  -0.556  -0.085  0.00  0.00     0.048 A 
ATOM      4  C3  UNL d   1      -5.673   0.177  -1.246  0.00  0.00     0.023 A 
ATOM      5  C4  UNL d   1      -5.699   1.572  -1.208  0.00  0.00     0.048 A 
ATOM      6  C5  UNL d   1      -5.482   2.235   0.002  0.00  0.00     0.003 A 
ATOM      7  I   UNL d   1      -5.998  -0.813  -3.044  0.00  0.00    -0.146 I 
ENDROOT
TORSDOF 0
ENDMDL
