MODEL 1
REMARK minimizedAffinity 12.1420126
REMARK minimizedRMSD -1
REMARK  0 active torsions:
REMARK  status: ('A' for Active; 'I' for Inactive)
ROOT
ATOM      1  C   UNL d   1      -4.622   1.690   4.663  0.00  0.00     0.023 A 
ATOM      2  C1  UNL d   1      -3.487   1.291   3.956  0.00  0.00     0.003 A 
ATOM      3  C2  UNL d   1      -3.605   0.845   2.638  0.00  0.00     0.048 A 
ATOM      4  C3  UNL d   1      -4.861   0.802   2.033  0.00  0.00     0.023 A 
ATOM      5  C4  UNL d   1      -5.998   1.201   2.736  0.00  0.00     0.048 A 
ATOM      6  C5  UNL d   1      -5.876   1.645   4.054  0.00  0.00     0.003 A 
ATOM      7  I   UNL d   1      -5.039   0.140   0.071  0.00  0.00    -0.146 I 
ENDROOT
TORSDOF 0
ENDMDL
