MODEL 1
REMARK minimizedAffinity -0.632294476
REMARK minimizedRMSD -1
REMARK  0 active torsions:
REMARK  status: ('A' for Active; 'I' for Inactive)
ROOT
ATOM      1  C   UNL d   1      -2.212  -0.660   1.769  0.00  0.00     0.023 A 
ATOM      2  C1  UNL d   1      -3.566  -0.751   1.445  0.00  0.00     0.003 A 
ATOM      3  C2  UNL d   1      -4.523  -0.137   2.255  0.00  0.00     0.048 A 
ATOM      4  C3  UNL d   1      -4.119   0.567   3.389  0.00  0.00     0.023 A 
ATOM      5  C4  UNL d   1      -2.765   0.661   3.718  0.00  0.00     0.048 A 
ATOM      6  C5  UNL d   1      -1.813   0.045   2.905  0.00  0.00     0.003 A 
ATOM      7  I   UNL d   1      -5.541   1.482   4.598  0.00  0.00    -0.146 I 
ENDROOT
TORSDOF 0
ENDMDL
