MODEL 1
REMARK minimizedAffinity 10.6118813
REMARK minimizedRMSD -1
REMARK  0 active torsions:
REMARK  status: ('A' for Active; 'I' for Inactive)
ROOT
ATOM      1  C   UNL d   1      -3.583  -0.847   2.670  0.00  0.00     0.023 A 
ATOM      2  C1  UNL d   1      -2.782  -0.031   3.469  0.00  0.00     0.003 A 
ATOM      3  C2  UNL d   1      -1.407  -0.261   3.547  0.00  0.00     0.048 A 
ATOM      4  C3  UNL d   1      -0.839  -1.308   2.821  0.00  0.00     0.023 A 
ATOM      5  C4  UNL d   1      -1.636  -2.125   2.019  0.00  0.00     0.048 A 
ATOM      6  C5  UNL d   1      -3.011  -1.893   1.945  0.00  0.00     0.003 A 
ATOM      7  I   UNL d   1       1.208  -1.651   2.934  0.00  0.00    -0.146 I 
ENDROOT
TORSDOF 0
ENDMDL
