MODEL 1
REMARK minimizedAffinity 8.18498039
REMARK minimizedRMSD -1
REMARK  0 active torsions:
REMARK  status: ('A' for Active; 'I' for Inactive)
ROOT
ATOM      1  C   UNL d   1       4.511   2.474   1.954  0.00  0.00     0.023 A 
ATOM      2  C1  UNL d   1       3.890   2.323   0.714  0.00  0.00     0.003 A 
ATOM      3  C2  UNL d   1       4.314   3.083  -0.378  0.00  0.00     0.048 A 
ATOM      4  C3  UNL d   1       5.361   3.992  -0.223  0.00  0.00     0.023 A 
ATOM      5  C4  UNL d   1       5.986   4.145   1.016  0.00  0.00     0.048 A 
ATOM      6  C5  UNL d   1       5.557   3.384   2.105  0.00  0.00     0.003 A 
ATOM      7  I   UNL d   1       5.995   5.124  -1.847  0.00  0.00    -0.146 I 
ENDROOT
TORSDOF 0
ENDMDL
