MODEL 1
REMARK minimizedAffinity 4.75160027
REMARK minimizedRMSD -1
REMARK  0 active torsions:
REMARK  status: ('A' for Active; 'I' for Inactive)
ROOT
ATOM      1  C   UNL d   1      -3.478   0.584   2.020  0.00  0.00     0.023 A 
ATOM      2  C1  UNL d   1      -3.169  -0.649   1.444  0.00  0.00     0.003 A 
ATOM      3  C2  UNL d   1      -2.011  -1.329   1.827  0.00  0.00     0.048 A 
ATOM      4  C3  UNL d   1      -1.167  -0.771   2.787  0.00  0.00     0.023 A 
ATOM      5  C4  UNL d   1      -1.473   0.461   3.367  0.00  0.00     0.048 A 
ATOM      6  C5  UNL d   1      -2.632   1.138   2.980  0.00  0.00     0.003 A 
ATOM      7  I   UNL d   1       0.557  -1.782   3.359  0.00  0.00    -0.146 I 
ENDROOT
TORSDOF 0
ENDMDL
