MODEL 1
REMARK minimizedAffinity 13.0395374
REMARK minimizedRMSD -1
REMARK  0 active torsions:
REMARK  status: ('A' for Active; 'I' for Inactive)
ROOT
ATOM      1  C   UNL d   1       0.369   3.230  -1.743  0.00  0.00     0.023 A 
ATOM      2  C1  UNL d   1       1.275   2.173  -1.649  0.00  0.00     0.003 A 
ATOM      3  C2  UNL d   1       2.352   2.094  -2.534  0.00  0.00     0.048 A 
ATOM      4  C3  UNL d   1       2.519   3.076  -3.510  0.00  0.00     0.023 A 
ATOM      5  C4  UNL d   1       1.616   4.135  -3.608  0.00  0.00     0.048 A 
ATOM      6  C5  UNL d   1       0.540   4.210  -2.722  0.00  0.00     0.003 A 
ATOM      7  I   UNL d   1       4.122   2.960  -4.828  0.00  0.00    -0.146 I 
ENDROOT
TORSDOF 0
ENDMDL
