MODEL 1
REMARK minimizedAffinity 13.4481812
REMARK minimizedRMSD -1
REMARK  0 active torsions:
REMARK  status: ('A' for Active; 'I' for Inactive)
ROOT
ATOM      1  C   UNL d   1       1.893   1.154   0.005  0.00  0.00     0.023 A 
ATOM      2  C1  UNL d   1       1.616   2.410   0.544  0.00  0.00     0.003 A 
ATOM      3  C2  UNL d   1       2.649   3.186   1.075  0.00  0.00     0.048 A 
ATOM      4  C3  UNL d   1       3.956   2.701   1.061  0.00  0.00     0.023 A 
ATOM      5  C4  UNL d   1       4.238   1.445   0.522  0.00  0.00     0.048 A 
ATOM      6  C5  UNL d   1       3.202   0.672  -0.006  0.00  0.00     0.003 A 
ATOM      7  I   UNL d   1       5.494   3.855   1.850  0.00  0.00    -0.146 I 
ENDROOT
TORSDOF 0
ENDMDL
