MODEL 1
REMARK minimizedAffinity -3.98636961
REMARK minimizedRMSD -1
REMARK  1 active torsions:
REMARK  status: ('A' for Active; 'I' for Inactive)
REMARK    1  A    between atoms: C1_2  and  C2_3 
ROOT
ATOM      1  C2  UNL d   1       0.774  -2.151  -0.805  0.00  0.00    -0.077 A 
ATOM      2  C3  UNL d   1       1.987  -2.784  -0.496  0.00  0.00     0.002 A 
ATOM      3  C4  UNL d   1       1.996  -3.979   0.226  0.00  0.00     0.002 A 
ATOM      4  C5  UNL d   1       0.797  -4.554   0.641  0.00  0.00    -0.004 A 
ATOM      5  C6  UNL d   1      -0.414  -3.931   0.340  0.00  0.00     0.002 A 
ATOM      6  C7  UNL d   1      -0.426  -2.736  -0.380  0.00  0.00     0.002 A 
ENDROOT
BRANCH   1   7
ATOM      7  C1  UNL d   1       0.759  -0.888  -1.626  0.00  0.00     0.055 C 
ATOM      8  C   UNL d   1       1.957  -0.006  -1.306  0.00  0.00     0.019 C 
ENDBRANCH   1   7
TORSDOF 1
ENDMDL
