MODEL 1
REMARK minimizedAffinity 6.19410896
REMARK minimizedRMSD -1
REMARK  1 active torsions:
REMARK  status: ('A' for Active; 'I' for Inactive)
REMARK    1  A    between atoms: C1_2  and  C2_3 
ROOT
ATOM      1  C2  UNL d   1       1.730  -4.498   0.753  0.00  0.00    -0.077 A 
ATOM      2  C3  UNL d   1       1.305  -3.757  -0.359  0.00  0.00     0.002 A 
ATOM      3  C4  UNL d   1       1.762  -2.452  -0.555  0.00  0.00     0.002 A 
ATOM      4  C5  UNL d   1       2.648  -1.878   0.355  0.00  0.00    -0.004 A 
ATOM      5  C6  UNL d   1       3.075  -2.607   1.464  0.00  0.00     0.002 A 
ATOM      6  C7  UNL d   1       2.619  -3.910   1.662  0.00  0.00     0.002 A 
ENDROOT
BRANCH   1   7
ATOM      7  C1  UNL d   1       1.277  -5.922   0.939  0.00  0.00     0.055 C 
ATOM      8  C   UNL d   1      -0.224  -6.000   1.173  0.00  0.00     0.019 C 
ENDBRANCH   1   7
TORSDOF 1
ENDMDL
