MODEL 1
REMARK minimizedAffinity 3.10800505
REMARK minimizedRMSD -1
REMARK  1 active torsions:
REMARK  status: ('A' for Active; 'I' for Inactive)
REMARK    1  A    between atoms: C1_2  and  C2_3 
ROOT
ATOM      1  C2  UNL d   1       1.429  -2.506  -0.229  0.00  0.00    -0.077 A 
ATOM      2  C3  UNL d   1       2.080  -1.535  -1.003  0.00  0.00     0.002 A 
ATOM      3  C4  UNL d   1       1.363  -0.462  -1.539  0.00  0.00     0.002 A 
ATOM      4  C5  UNL d   1      -0.005  -0.349  -1.302  0.00  0.00    -0.004 A 
ATOM      5  C6  UNL d   1      -0.661  -1.310  -0.535  0.00  0.00     0.002 A 
ATOM      6  C7  UNL d   1       0.053  -2.384  -0.000  0.00  0.00     0.002 A 
ENDROOT
BRANCH   1   7
ATOM      7  C1  UNL d   1       2.209  -3.636   0.390  0.00  0.00     0.055 C 
ATOM      8  C   UNL d   1       1.375  -4.907   0.467  0.00  0.00     0.019 C 
ENDBRANCH   1   7
TORSDOF 1
ENDMDL
