MODEL 1
REMARK minimizedAffinity 0.390095085
REMARK minimizedRMSD -1
REMARK  1 active torsions:
REMARK  status: ('A' for Active; 'I' for Inactive)
REMARK    1  A    between atoms: C1_2  and  C2_3 
ROOT
ATOM      1  C2  UNL d   1       1.509  -2.382  -0.102  0.00  0.00    -0.077 A 
ATOM      2  C3  UNL d   1       0.130  -2.562   0.074  0.00  0.00     0.002 A 
ATOM      3  C4  UNL d   1      -0.778  -1.668  -0.497  0.00  0.00     0.002 A 
ATOM      4  C5  UNL d   1      -0.317  -0.590  -1.250  0.00  0.00    -0.004 A 
ATOM      5  C6  UNL d   1       1.053  -0.401  -1.429  0.00  0.00     0.002 A 
ATOM      6  C7  UNL d   1       1.962  -1.293  -0.858  0.00  0.00     0.002 A 
ENDROOT
BRANCH   1   7
ATOM      7  C1  UNL d   1       2.488  -3.373   0.471  0.00  0.00     0.055 C 
ATOM      8  C   UNL d   1       1.795  -4.666   0.873  0.00  0.00     0.019 C 
ENDBRANCH   1   7
TORSDOF 1
ENDMDL
