MODEL 1
REMARK minimizedAffinity -2.52509737
REMARK minimizedRMSD -1
REMARK  1 active torsions:
REMARK  status: ('A' for Active; 'I' for Inactive)
REMARK    1  A    between atoms: C1_2  and  C2_3 
ROOT
ATOM      1  C2  UNL d   1       0.112  -3.057   0.278  0.00  0.00    -0.077 A 
ATOM      2  C3  UNL d   1      -0.863  -2.185  -0.226  0.00  0.00     0.002 A 
ATOM      3  C4  UNL d   1      -0.490  -0.987  -0.838  0.00  0.00     0.002 A 
ATOM      4  C5  UNL d   1       0.857  -0.652  -0.956  0.00  0.00    -0.004 A 
ATOM      5  C6  UNL d   1       1.834  -1.513  -0.456  0.00  0.00     0.002 A 
ATOM      6  C7  UNL d   1       1.463  -2.710   0.157  0.00  0.00     0.002 A 
ENDROOT
BRANCH   1   7
ATOM      7  C1  UNL d   1      -0.286  -4.373   0.894  0.00  0.00     0.055 C 
ATOM      8  C   UNL d   1       0.904  -5.315   1.006  0.00  0.00     0.019 C 
ENDBRANCH   1   7
TORSDOF 1
ENDMDL
