MODEL 1
REMARK minimizedAffinity -3.00470781
REMARK minimizedRMSD -1
REMARK  1 active torsions:
REMARK  status: ('A' for Active; 'I' for Inactive)
REMARK    1  A    between atoms: C1_2  and  C2_3 
ROOT
ATOM      1  C2  UNL d   1      -4.759  -0.330   3.506  0.00  0.00    -0.077 A 
ATOM      2  C3  UNL d   1      -3.505  -0.888   3.220  0.00  0.00     0.002 A 
ATOM      3  C4  UNL d   1      -2.363  -0.434   3.881  0.00  0.00     0.002 A 
ATOM      4  C5  UNL d   1      -2.463   0.576   4.836  0.00  0.00    -0.004 A 
ATOM      5  C6  UNL d   1      -3.706   1.139   5.126  0.00  0.00     0.002 A 
ATOM      6  C7  UNL d   1      -4.849   0.687   4.465  0.00  0.00     0.002 A 
ENDROOT
BRANCH   1   7
ATOM      7  C1  UNL d   1      -6.000  -0.852   2.829  0.00  0.00     0.055 C 
ATOM      8  C   UNL d   1      -5.996  -0.530   1.342  0.00  0.00     0.019 C 
ENDBRANCH   1   7
TORSDOF 1
ENDMDL
