MODEL 1
REMARK minimizedAffinity 2.45625114
REMARK minimizedRMSD -1
REMARK  1 active torsions:
REMARK  status: ('A' for Active; 'I' for Inactive)
REMARK    1  A    between atoms: C1_2  and  C2_3 
ROOT
ATOM      1  C2  UNL d   1       1.605  -2.027  -0.522  0.00  0.00    -0.077 A 
ATOM      2  C3  UNL d   1       1.934  -0.748  -0.994  0.00  0.00     0.002 A 
ATOM      3  C4  UNL d   1       0.929   0.149  -1.362  0.00  0.00     0.002 A 
ATOM      4  C5  UNL d   1      -0.410  -0.221  -1.258  0.00  0.00    -0.004 A 
ATOM      5  C6  UNL d   1      -0.747  -1.491  -0.791  0.00  0.00     0.002 A 
ATOM      6  C7  UNL d   1       0.256  -2.390  -0.424  0.00  0.00     0.002 A 
ENDROOT
BRANCH   1   7
ATOM      7  C1  UNL d   1       2.686  -2.978  -0.078  0.00  0.00     0.055 C 
ATOM      8  C   UNL d   1       2.118  -4.356   0.229  0.00  0.00     0.019 C 
ENDBRANCH   1   7
TORSDOF 1
ENDMDL
