MODEL 1
REMARK minimizedAffinity -5.38076878
REMARK minimizedRMSD -1
REMARK  1 active torsions:
REMARK  status: ('A' for Active; 'I' for Inactive)
REMARK    1  A    between atoms: C1_2  and  C2_3 
ROOT
ATOM      1  C2  UNL d   1       0.508  -1.596  -0.419  0.00  0.00    -0.077 A 
ATOM      2  C3  UNL d   1       1.719  -2.303  -0.427  0.00  0.00     0.002 A 
ATOM      3  C4  UNL d   1       1.844  -3.497   0.287  0.00  0.00     0.002 A 
ATOM      4  C5  UNL d   1       0.761  -3.995   1.008  0.00  0.00    -0.004 A 
ATOM      5  C6  UNL d   1      -0.446  -3.298   1.024  0.00  0.00     0.002 A 
ATOM      6  C7  UNL d   1      -0.572  -2.104   0.313  0.00  0.00     0.002 A 
ENDROOT
BRANCH   1   7
ATOM      7  C1  UNL d   1       0.357  -0.333  -1.227  0.00  0.00     0.055 C 
ATOM      8  C   UNL d   1       1.601   0.537  -1.133  0.00  0.00     0.019 C 
ENDBRANCH   1   7
TORSDOF 1
ENDMDL
