MODEL 1
REMARK minimizedAffinity 0.563059151
REMARK minimizedRMSD -1
REMARK  1 active torsions:
REMARK  status: ('A' for Active; 'I' for Inactive)
REMARK    1  A    between atoms: C1_2  and  C2_3 
ROOT
ATOM      1  C2  UNL d   1       3.006  -3.064   1.290  0.00  0.00    -0.077 A 
ATOM      2  C3  UNL d   1       2.431  -4.325   1.499  0.00  0.00     0.002 A 
ATOM      3  C4  UNL d   1       1.515  -4.845   0.582  0.00  0.00     0.002 A 
ATOM      4  C5  UNL d   1       1.171  -4.112  -0.553  0.00  0.00    -0.004 A 
ATOM      5  C6  UNL d   1       1.736  -2.856  -0.768  0.00  0.00     0.002 A 
ATOM      6  C7  UNL d   1       2.650  -2.335   0.148  0.00  0.00     0.002 A 
ENDROOT
BRANCH   1   7
ATOM      7  C1  UNL d   1       4.030  -2.523   2.253  0.00  0.00     0.055 C 
ATOM      8  C   UNL d   1       3.760  -2.998   3.673  0.00  0.00     0.019 C 
ENDBRANCH   1   7
TORSDOF 1
ENDMDL
