MODEL 1
REMARK minimizedAffinity 5.95446396
REMARK minimizedRMSD -1
REMARK  1 active torsions:
REMARK  status: ('A' for Active; 'I' for Inactive)
REMARK    1  A    between atoms: C1_2  and  C2_3 
ROOT
ATOM      1  C2  UNL d   1       2.044   0.161   2.947  0.00  0.00    -0.081 A 
ATOM      2  C3  UNL d   1       1.711  -0.582   4.086  0.00  0.00     0.006 A 
ATOM      3  C4  UNL d   1       1.882  -1.968   4.103  0.00  0.00     0.002 A 
ATOM      4  C5  UNL d   1       2.397  -2.633   2.985  0.00  0.00    -0.080 A 
ATOM      5  C6  UNL d   1       2.614  -4.117   3.001  0.00  0.00     0.076 C 
ATOM      6  C7  UNL d   1       2.713  -1.894   1.840  0.00  0.00     0.002 A 
ATOM      7  C8  UNL d   1       2.541  -0.508   1.823  0.00  0.00     0.006 A 
ENDROOT
BRANCH   1   8
ATOM      8  C1  UNL d   1       1.921   1.663   2.948  0.00  0.00     0.054 C 
ATOM      9  C   UNL d   1       2.690   2.280   4.107  0.00  0.00     0.018 C 
ENDBRANCH   1   8
TORSDOF 1
ENDMDL
