MODEL 1
REMARK minimizedAffinity 4.90135193
REMARK minimizedRMSD -1
REMARK  1 active torsions:
REMARK  status: ('A' for Active; 'I' for Inactive)
REMARK    1  A    between atoms: C1_2  and  C2_3 
ROOT
ATOM      1  C2  UNL d   1      -4.620   2.690  -1.103  0.00  0.00    -0.081 A 
ATOM      2  C3  UNL d   1      -3.664   2.089  -1.931  0.00  0.00     0.006 A 
ATOM      3  C4  UNL d   1      -3.873   2.007  -3.310  0.00  0.00     0.002 A 
ATOM      4  C5  UNL d   1      -5.036   2.531  -3.884  0.00  0.00    -0.080 A 
ATOM      5  C6  UNL d   1      -5.259   2.476  -5.366  0.00  0.00     0.076 C 
ATOM      6  C7  UNL d   1      -5.999   3.116  -3.054  0.00  0.00     0.002 A 
ATOM      7  C8  UNL d   1      -5.791   3.198  -1.676  0.00  0.00     0.006 A 
ENDROOT
BRANCH   1   8
ATOM      8  C1  UNL d   1      -4.368   2.839   0.376  0.00  0.00     0.054 C 
ATOM      9  C   UNL d   1      -3.287   1.878   0.852  0.00  0.00     0.018 C 
ENDBRANCH   1   8
TORSDOF 1
ENDMDL
