MODEL 1
REMARK minimizedAffinity 8.70327187
REMARK minimizedRMSD -1
REMARK  1 active torsions:
REMARK  status: ('A' for Active; 'I' for Inactive)
REMARK    1  A    between atoms: C1_2  and  C2_3 
ROOT
ATOM      1  C2  UNL d   1      -4.765   2.414  -2.706  0.00  0.00    -0.081 A 
ATOM      2  C3  UNL d   1      -5.670   2.209  -1.658  0.00  0.00     0.006 A 
ATOM      3  C4  UNL d   1      -5.230   2.210  -0.332  0.00  0.00     0.002 A 
ATOM      4  C5  UNL d   1      -3.881   2.423  -0.032  0.00  0.00    -0.080 A 
ATOM      5  C6  UNL d   1      -3.400   2.456   1.388  0.00  0.00     0.076 C 
ATOM      6  C7  UNL d   1      -2.973   2.610  -1.081  0.00  0.00     0.002 A 
ATOM      7  C8  UNL d   1      -3.413   2.609  -2.406  0.00  0.00     0.006 A 
ENDROOT
BRANCH   1   8
ATOM      8  C1  UNL d   1      -5.247   2.478  -4.133  0.00  0.00     0.054 C 
ATOM      9  C   UNL d   1      -6.000   3.773  -4.405  0.00  0.00     0.018 C 
ENDBRANCH   1   8
TORSDOF 1
ENDMDL
