MODEL 1
REMARK minimizedAffinity 5.61942577
REMARK minimizedRMSD -1
REMARK  1 active torsions:
REMARK  status: ('A' for Active; 'I' for Inactive)
REMARK    1  A    between atoms: C1_2  and  C2_3 
ROOT
ATOM      1  C2  UNL d   1      -4.359   2.663  -0.767  0.00  0.00    -0.081 A 
ATOM      2  C3  UNL d   1      -5.671   2.891  -1.200  0.00  0.00     0.006 A 
ATOM      3  C4  UNL d   1      -5.996   2.793  -2.555  0.00  0.00     0.002 A 
ATOM      4  C5  UNL d   1      -5.017   2.458  -3.497  0.00  0.00    -0.080 A 
ATOM      5  C6  UNL d   1      -5.359   2.319  -4.951  0.00  0.00     0.076 C 
ATOM      6  C7  UNL d   1      -3.703   2.247  -3.066  0.00  0.00     0.002 A 
ATOM      7  C8  UNL d   1      -3.378   2.346  -1.712  0.00  0.00     0.006 A 
ENDROOT
BRANCH   1   8
ATOM      8  C1  UNL d   1      -4.020   2.705   0.701  0.00  0.00     0.054 C 
ATOM      9  C   UNL d   1      -2.824   1.819   1.018  0.00  0.00     0.018 C 
ENDBRANCH   1   8
TORSDOF 1
ENDMDL
