MODEL 1
REMARK minimizedAffinity 0.821781456
REMARK minimizedRMSD -1
REMARK  1 active torsions:
REMARK  status: ('A' for Active; 'I' for Inactive)
REMARK    1  A    between atoms: C1_2  and  C2_3 
ROOT
ATOM      1  C2  UNL d   1       1.672   0.210   1.597  0.00  0.00    -0.081 A 
ATOM      2  C3  UNL d   1       0.551   1.042   1.716  0.00  0.00     0.006 A 
ATOM      3  C4  UNL d   1       0.545   2.309   1.128  0.00  0.00     0.002 A 
ATOM      4  C5  UNL d   1       1.654   2.763   0.406  0.00  0.00    -0.080 A 
ATOM      5  C6  UNL d   1       1.649   4.109  -0.255  0.00  0.00     0.076 C 
ATOM      6  C7  UNL d   1       2.780   1.939   0.303  0.00  0.00     0.002 A 
ATOM      7  C8  UNL d   1       2.788   0.672   0.891  0.00  0.00     0.006 A 
ENDROOT
BRANCH   1   8
ATOM      8  C1  UNL d   1       1.657  -1.182   2.175  0.00  0.00     0.054 C 
ATOM      9  C   UNL d   1       2.456  -1.253   3.468  0.00  0.00     0.018 C 
ENDBRANCH   1   8
TORSDOF 1
ENDMDL
