MODEL 1
REMARK minimizedAffinity 8.13344193
REMARK minimizedRMSD -1
REMARK  1 active torsions:
REMARK  status: ('A' for Active; 'I' for Inactive)
REMARK    1  A    between atoms: C1_2  and  C2_3 
ROOT
ATOM      1  C2  UNL d   1      -4.499   2.606  -0.640  0.00  0.00    -0.081 A 
ATOM      2  C3  UNL d   1      -5.753   2.987  -1.134  0.00  0.00     0.006 A 
ATOM      3  C4  UNL d   1      -6.000   2.994  -2.509  0.00  0.00     0.002 A 
ATOM      4  C5  UNL d   1      -5.001   2.613  -3.411  0.00  0.00    -0.080 A 
ATOM      5  C6  UNL d   1      -5.263   2.588  -4.888  0.00  0.00     0.076 C 
ATOM      6  C7  UNL d   1      -3.743   2.249  -2.919  0.00  0.00     0.002 A 
ATOM      7  C8  UNL d   1      -3.496   2.242  -1.544  0.00  0.00     0.006 A 
ENDROOT
BRANCH   1   8
ATOM      8  C1  UNL d   1      -4.250   2.534   0.845  0.00  0.00     0.054 C 
ATOM      9  C   UNL d   1      -2.784   2.261   1.147  0.00  0.00     0.018 C 
ENDBRANCH   1   8
TORSDOF 1
ENDMDL
