MODEL 1
REMARK minimizedAffinity 8.48745537
REMARK minimizedRMSD -1
REMARK  1 active torsions:
REMARK  status: ('A' for Active; 'I' for Inactive)
REMARK    1  A    between atoms: C1_2  and  C2_3 
ROOT
ATOM      1  C2  UNL d   1      -3.154  -3.163  -1.433  0.00  0.00    -0.081 A 
ATOM      2  C3  UNL d   1      -2.749  -2.389  -2.528  0.00  0.00     0.006 A 
ATOM      3  C4  UNL d   1      -1.395  -2.120  -2.741  0.00  0.00     0.002 A 
ATOM      4  C5  UNL d   1      -0.424  -2.626  -1.870  0.00  0.00    -0.080 A 
ATOM      5  C6  UNL d   1       1.035  -2.370  -2.105  0.00  0.00     0.076 C 
ATOM      6  C7  UNL d   1      -0.831  -3.385  -0.767  0.00  0.00     0.002 A 
ATOM      7  C8  UNL d   1      -2.184  -3.653  -0.552  0.00  0.00     0.006 A 
ENDROOT
BRANCH   1   8
ATOM      8  C1  UNL d   1      -4.608  -3.509  -1.236  0.00  0.00     0.054 C 
ATOM      9  C   UNL d   1      -5.446  -3.079  -2.432  0.00  0.00     0.018 C 
ENDBRANCH   1   8
TORSDOF 1
ENDMDL
