MODEL 1
REMARK minimizedAffinity 4.40126181
REMARK minimizedRMSD -1
REMARK  2 active torsions:
REMARK  status: ('A' for Active; 'I' for Inactive)
REMARK    1  A    between atoms: C2'_3  and  C1'_4 
REMARK    2  A    between atoms: C1'_4  and  C1_5 
ROOT
ATOM      1  C1  I4B d   1       2.715  -0.614  -0.094  0.00  0.00    -0.075 A 
ATOM      2  C2  I4B d   1       3.357   0.092   0.893  0.00  0.00     0.003 A 
ATOM      3  C3  I4B d   1       3.865   1.387   0.628  0.00  0.00     0.002 A 
ATOM      4  C4  I4B d   1       3.755   1.913  -0.643  0.00  0.00    -0.004 A 
ATOM      5  C5  I4B d   1       3.084   1.205  -1.636  0.00  0.00     0.002 A 
ATOM      6  C6  I4B d   1       2.550  -0.061  -1.357  0.00  0.00     0.003 A 
ENDROOT
BRANCH   1   7
ATOM      7  C1' I4B d   1       2.220  -1.992   0.212  0.00  0.00     0.060 C 
BRANCH   7   8
ATOM      8  C2' I4B d   1       1.441  -2.485  -0.991  0.00  0.00    -0.013 C 
ATOM      9  C4' I4B d   1       2.327  -2.606  -2.202  0.00  0.00     0.013 C 
ATOM     10  C3' I4B d   1       0.827  -3.806  -0.634  0.00  0.00     0.013 C 
ENDBRANCH   7   8
ENDBRANCH   1   7
TORSDOF 2
ENDMDL
