MODEL 1
REMARK minimizedAffinity 14.5184669
REMARK minimizedRMSD -1
REMARK  2 active torsions:
REMARK  status: ('A' for Active; 'I' for Inactive)
REMARK    1  A    between atoms: C2'_3  and  C1'_4 
REMARK    2  A    between atoms: C1'_4  and  C1_5 
ROOT
ATOM      1  C1  I4B d   1       2.615  -0.287  -0.666  0.00  0.00    -0.075 A 
ATOM      2  C2  I4B d   1       3.327   0.134   0.429  0.00  0.00     0.003 A 
ATOM      3  C3  I4B d   1       3.442  -0.699   1.568  0.00  0.00     0.002 A 
ATOM      4  C4  I4B d   1       2.790  -1.915   1.589  0.00  0.00    -0.004 A 
ATOM      5  C5  I4B d   1       2.087  -2.350   0.469  0.00  0.00     0.002 A 
ATOM      6  C6  I4B d   1       2.009  -1.536  -0.670  0.00  0.00     0.003 A 
ENDROOT
BRANCH   1   7
ATOM      7  C1' I4B d   1       2.487   0.632  -1.840  0.00  0.00     0.060 C 
BRANCH   7   8
ATOM      8  C2' I4B d   1       3.708   1.528  -1.867  0.00  0.00    -0.013 C 
ATOM      9  C4' I4B d   1       4.386   1.485  -3.211  0.00  0.00     0.013 C 
ATOM     10  C3' I4B d   1       3.269   2.920  -1.526  0.00  0.00     0.013 C 
ENDBRANCH   7   8
ENDBRANCH   1   7
TORSDOF 2
ENDMDL
