MODEL 1
REMARK minimizedAffinity 12.2299051
REMARK minimizedRMSD -1
REMARK  2 active torsions:
REMARK  status: ('A' for Active; 'I' for Inactive)
REMARK    1  A    between atoms: C2'_3  and  C1'_4 
REMARK    2  A    between atoms: C1'_4  and  C1_5 
ROOT
ATOM      1  C1  I4B d   1       2.997   1.571  -1.622  0.00  0.00    -0.075 A 
ATOM      2  C2  I4B d   1       3.057   2.902  -1.291  0.00  0.00     0.003 A 
ATOM      3  C3  I4B d   1       3.887   3.783  -2.027  0.00  0.00     0.002 A 
ATOM      4  C4  I4B d   1       4.672   3.284  -3.046  0.00  0.00    -0.004 A 
ATOM      5  C5  I4B d   1       4.593   1.939  -3.395  0.00  0.00     0.002 A 
ATOM      6  C6  I4B d   1       3.741   1.079  -2.686  0.00  0.00     0.003 A 
ENDROOT
BRANCH   1   7
ATOM      7  C1' I4B d   1       2.136   0.663  -0.802  0.00  0.00     0.060 C 
BRANCH   7   8
ATOM      8  C2' I4B d   1       2.562   0.797   0.646  0.00  0.00    -0.013 C 
ATOM      9  C4' I4B d   1       1.456   0.382   1.580  0.00  0.00     0.013 C 
ATOM     10  C3' I4B d   1       3.786  -0.045   0.848  0.00  0.00     0.013 C 
ENDBRANCH   7   8
ENDBRANCH   1   7
TORSDOF 2
ENDMDL
