MODEL 1
REMARK minimizedAffinity 20.9911728
REMARK minimizedRMSD -1
REMARK  2 active torsions:
REMARK  status: ('A' for Active; 'I' for Inactive)
REMARK    1  A    between atoms: C2'_3  and  C1'_4 
REMARK    2  A    between atoms: C1'_4  and  C1_5 
ROOT
ATOM      1  C1  I4B d   1       4.756   2.955  -3.113  0.00  0.00    -0.075 A 
ATOM      2  C2  I4B d   1       5.897   2.873  -3.872  0.00  0.00     0.003 A 
ATOM      3  C3  I4B d   1       5.989   1.924  -4.919  0.00  0.00     0.002 A 
ATOM      4  C4  I4B d   1       4.944   1.050  -5.139  0.00  0.00    -0.004 A 
ATOM      5  C5  I4B d   1       3.779   1.151  -4.384  0.00  0.00     0.002 A 
ATOM      6  C6  I4B d   1       3.679   2.117  -3.372  0.00  0.00     0.003 A 
ENDROOT
BRANCH   1   7
ATOM      7  C1' I4B d   1       4.705   3.946  -1.994  0.00  0.00     0.060 C 
BRANCH   7   8
ATOM      8  C2' I4B d   1       5.849   4.922  -2.182  0.00  0.00    -0.013 C 
ATOM      9  C4' I4B d   1       5.624   5.800  -3.385  0.00  0.00     0.013 C 
ATOM     10  C3' I4B d   1       5.971   5.739  -0.930  0.00  0.00     0.013 C 
ENDBRANCH   7   8
ENDBRANCH   1   7
TORSDOF 2
ENDMDL
