MODEL 1
REMARK minimizedAffinity 8.78560829
REMARK minimizedRMSD -1
REMARK  2 active torsions:
REMARK  status: ('A' for Active; 'I' for Inactive)
REMARK    1  A    between atoms: C2'_3  and  C1'_4 
REMARK    2  A    between atoms: C1'_4  and  C1_5 
ROOT
ATOM      1  C1  I4B d   1      -4.355   3.870   1.902  0.00  0.00    -0.075 A 
ATOM      2  C2  I4B d   1      -5.644   3.732   2.353  0.00  0.00     0.003 A 
ATOM      3  C3  I4B d   1      -6.000   4.191   3.644  0.00  0.00     0.002 A 
ATOM      4  C4  I4B d   1      -5.031   4.733   4.464  0.00  0.00    -0.004 A 
ATOM      5  C5  I4B d   1      -3.730   4.893   3.996  0.00  0.00     0.002 A 
ATOM      6  C6  I4B d   1      -3.392   4.471   2.702  0.00  0.00     0.003 A 
ENDROOT
BRANCH   1   7
ATOM      7  C1' I4B d   1      -4.006   3.344   0.545  0.00  0.00     0.060 C 
BRANCH   7   8
ATOM      8  C2' I4B d   1      -3.864   1.839   0.651  0.00  0.00    -0.013 C 
ATOM      9  C4' I4B d   1      -4.747   1.137  -0.347  0.00  0.00     0.013 C 
ATOM     10  C3' I4B d   1      -2.421   1.494   0.434  0.00  0.00     0.013 C 
ENDBRANCH   7   8
ENDBRANCH   1   7
TORSDOF 2
ENDMDL
