MODEL 1
REMARK minimizedAffinity -0.0382525399
REMARK minimizedRMSD -1
REMARK  0 active torsions:
REMARK  status: ('A' for Active; 'I' for Inactive)
ROOT
ATOM      1  C1  DEN d   1       0.535   1.824   0.145  0.00  0.00     0.130 A 
ATOM      2  C2  DEN d   1       0.713   2.745   1.264  0.00  0.00    -0.031 A 
ATOM      3  C3  DEN d   1       1.725   2.170   2.172  0.00  0.00     0.027 A 
ATOM      4  C4  DEN d   1       3.032  -0.043   1.953  0.00  0.00     0.027 A 
ATOM      5  C5  DEN d   1       3.213  -1.167   1.178  0.00  0.00    -0.003 A 
ATOM      6  C6  DEN d   1       2.496  -1.388   0.032  0.00  0.00     0.001 A 
ATOM      7  C7  DEN d   1       1.595  -0.449  -0.396  0.00  0.00     0.017 A 
ATOM      8  C8  DEN d   1       1.401   0.684   0.383  0.00  0.00    -0.094 A 
ATOM      9  C9  DEN d   1       2.145   0.894   1.532  0.00  0.00    -0.072 A 
ENDROOT
TORSDOF 0
ENDMDL
