MODEL 1
REMARK minimizedAffinity -3.0220077
REMARK minimizedRMSD -1
REMARK  0 active torsions:
REMARK  status: ('A' for Active; 'I' for Inactive)
ROOT
ATOM      1  C1  DEN d   1       3.308   1.230  -0.002  0.00  0.00     0.130 A 
ATOM      2  C2  DEN d   1       2.257   1.515   0.971  0.00  0.00    -0.031 A 
ATOM      3  C3  DEN d   1       1.319   0.375   0.977  0.00  0.00     0.027 A 
ATOM      4  C4  DEN d   1       1.394  -1.795  -0.416  0.00  0.00     0.027 A 
ATOM      5  C5  DEN d   1       2.090  -2.483  -1.385  0.00  0.00    -0.003 A 
ATOM      6  C6  DEN d   1       3.212  -1.972  -1.980  0.00  0.00     0.001 A 
ATOM      7  C7  DEN d   1       3.698  -0.755  -1.580  0.00  0.00     0.017 A 
ATOM      8  C8  DEN d   1       2.998  -0.052  -0.609  0.00  0.00    -0.094 A 
ATOM      9  C9  DEN d   1       1.872  -0.591  -0.010  0.00  0.00    -0.072 A 
ENDROOT
TORSDOF 0
ENDMDL
