MODEL 1
REMARK minimizedAffinity 4.00809288
REMARK minimizedRMSD -1
REMARK  0 active torsions:
REMARK  status: ('A' for Active; 'I' for Inactive)
ROOT
ATOM      1  C1  DEN d   1       1.081  -1.465  -0.014  0.00  0.00     0.130 A 
ATOM      2  C2  DEN d   1       1.722  -2.364  -0.970  0.00  0.00    -0.031 A 
ATOM      3  C3  DEN d   1       2.930  -1.692  -1.488  0.00  0.00     0.027 A 
ATOM      4  C4  DEN d   1       3.868   0.639  -0.902  0.00  0.00     0.027 A 
ATOM      5  C5  DEN d   1       3.663   1.775  -0.151  0.00  0.00    -0.003 A 
ATOM      6  C6  DEN d   1       2.574   1.923   0.666  0.00  0.00     0.001 A 
ATOM      7  C7  DEN d   1       1.671   0.900   0.786  0.00  0.00     0.017 A 
ATOM      8  C8  DEN d   1       1.867  -0.246   0.026  0.00  0.00    -0.094 A 
ATOM      9  C9  DEN d   1       2.981  -0.381  -0.785  0.00  0.00    -0.072 A 
ENDROOT
TORSDOF 0
ENDMDL
