MODEL 1
REMARK minimizedAffinity 9.0989933
REMARK minimizedRMSD -1
REMARK  0 active torsions:
REMARK  status: ('A' for Active; 'I' for Inactive)
ROOT
ATOM      1  C1  DEN d   1       0.766  -3.252   0.026  0.00  0.00     0.130 A 
ATOM      2  C2  DEN d   1       0.976  -2.682   1.354  0.00  0.00    -0.031 A 
ATOM      3  C3  DEN d   1       0.370  -1.335   1.374  0.00  0.00     0.027 A 
ATOM      4  C4  DEN d   1      -0.871  -0.087  -0.511  0.00  0.00     0.027 A 
ATOM      5  C5  DEN d   1      -1.289  -0.161  -1.821  0.00  0.00    -0.003 A 
ATOM      6  C6  DEN d   1      -1.023  -1.248  -2.612  0.00  0.00     0.001 A 
ATOM      7  C7  DEN d   1      -0.360  -2.325  -2.085  0.00  0.00     0.017 A 
ATOM      8  C8  DEN d   1       0.071  -2.254  -0.767  0.00  0.00    -0.094 A 
ATOM      9  C9  DEN d   1      -0.218  -1.151   0.020  0.00  0.00    -0.072 A 
ENDROOT
TORSDOF 0
ENDMDL
