MODEL 1
REMARK minimizedAffinity 7.83647108
REMARK minimizedRMSD -1
REMARK  0 active torsions:
REMARK  status: ('A' for Active; 'I' for Inactive)
ROOT
ATOM      1  C1  DEN d   1      -0.730  -2.213   0.612  0.00  0.00     0.130 A 
ATOM      2  C2  DEN d   1      -1.007  -1.964  -0.800  0.00  0.00    -0.031 A 
ATOM      3  C3  DEN d   1      -0.416  -0.660  -1.159  0.00  0.00     0.027 A 
ATOM      4  C4  DEN d   1       0.899   0.989   0.326  0.00  0.00     0.027 A 
ATOM      5  C5  DEN d   1       1.378   1.219   1.597  0.00  0.00    -0.003 A 
ATOM      6  C6  DEN d   1       1.160   0.345   2.628  0.00  0.00     0.001 A 
ATOM      7  C7  DEN d   1       0.483  -0.824   2.396  0.00  0.00     0.017 A 
ATOM      8  C8  DEN d   1      -0.009  -1.059   1.119  0.00  0.00    -0.094 A 
ATOM      9  C9  DEN d   1       0.232  -0.168   0.087  0.00  0.00    -0.072 A 
ENDROOT
TORSDOF 0
ENDMDL
