MODEL 1
REMARK minimizedAffinity 9.06070137
REMARK minimizedRMSD -1
REMARK  0 active torsions:
REMARK  status: ('A' for Active; 'I' for Inactive)
ROOT
ATOM      1  C1  DEN d   1       1.086  -3.045  -0.619  0.00  0.00     0.130 A 
ATOM      2  C2  DEN d   1       1.483  -2.241   0.534  0.00  0.00    -0.031 A 
ATOM      3  C3  DEN d   1       0.649  -1.023   0.550  0.00  0.00     0.027 A 
ATOM      4  C4  DEN d   1      -1.213  -0.309  -1.086  0.00  0.00     0.027 A 
ATOM      5  C5  DEN d   1      -1.900  -0.661  -2.227  0.00  0.00    -0.003 A 
ATOM      6  C6  DEN d   1      -1.619  -1.805  -2.925  0.00  0.00     0.001 A 
ATOM      7  C7  DEN d   1      -0.656  -2.663  -2.464  0.00  0.00     0.017 A 
ATOM      8  C8  DEN d   1       0.046  -2.312  -1.318  0.00  0.00    -0.094 A 
ATOM      9  C9  DEN d   1      -0.261  -1.156  -0.620  0.00  0.00    -0.072 A 
ENDROOT
TORSDOF 0
ENDMDL
