MODEL 1
REMARK minimizedAffinity 3.59259439
REMARK minimizedRMSD -1
REMARK  0 active torsions:
REMARK  status: ('A' for Active; 'I' for Inactive)
ROOT
ATOM      1  C1  DEN d   1      -0.911   1.341  -1.064  0.00  0.00     0.130 A 
ATOM      2  C2  DEN d   1       0.359   1.814  -0.520  0.00  0.00    -0.031 A 
ATOM      3  C3  DEN d   1       0.147   2.157   0.901  0.00  0.00     0.027 A 
ATOM      4  C4  DEN d   1      -2.011   1.995   2.305  0.00  0.00     0.027 A 
ATOM      5  C5  DEN d   1      -3.346   1.660   2.276  0.00  0.00    -0.003 A 
ATOM      6  C6  DEN d   1      -3.966   1.231   1.132  0.00  0.00     0.001 A 
ATOM      7  C7  DEN d   1      -3.240   1.082  -0.019  0.00  0.00     0.017 A 
ATOM      8  C8  DEN d   1      -1.894   1.425   0.000  0.00  0.00    -0.094 A 
ATOM      9  C9  DEN d   1      -1.283   1.846   1.169  0.00  0.00    -0.072 A 
ENDROOT
TORSDOF 0
ENDMDL
