MODEL 1
REMARK minimizedAffinity -0.597995102
REMARK minimizedRMSD -1
REMARK  0 active torsions:
REMARK  status: ('A' for Active; 'I' for Inactive)
ROOT
ATOM      1  C1  DEN d   1       0.251   0.541  -0.025  0.00  0.00     0.130 A 
ATOM      2  C2  DEN d   1      -0.308  -0.398  -0.994  0.00  0.00    -0.031 A 
ATOM      3  C3  DEN d   1      -1.763  -0.485  -0.759  0.00  0.00     0.027 A 
ATOM      4  C4  DEN d   1      -3.199   0.741   0.999  0.00  0.00     0.027 A 
ATOM      5  C5  DEN d   1      -3.169   1.631   2.050  0.00  0.00    -0.003 A 
ATOM      6  C6  DEN d   1      -2.002   2.189   2.501  0.00  0.00     0.001 A 
ATOM      7  C7  DEN d   1      -0.822   1.898   1.870  0.00  0.00     0.017 A 
ATOM      8  C8  DEN d   1      -0.843   0.996   0.814  0.00  0.00    -0.094 A 
ATOM      9  C9  DEN d   1      -2.034   0.451   0.365  0.00  0.00    -0.072 A 
ENDROOT
TORSDOF 0
ENDMDL
