MODEL 1
REMARK minimizedAffinity 2.68806314
REMARK minimizedRMSD -1
REMARK  0 active torsions:
REMARK  status: ('A' for Active; 'I' for Inactive)
ROOT
ATOM      1  C1  DEN d   1       1.285   0.016   1.498  0.00  0.00     0.130 A 
ATOM      2  C2  DEN d   1       0.967   1.421   1.741  0.00  0.00    -0.031 A 
ATOM      3  C3  DEN d   1       0.049   1.872   0.675  0.00  0.00     0.027 A 
ATOM      4  C4  DEN d   1      -0.910   0.537  -1.312  0.00  0.00     0.027 A 
ATOM      5  C5  DEN d   1      -0.919  -0.688  -1.942  0.00  0.00    -0.003 A 
ATOM      6  C6  DEN d   1      -0.173  -1.745  -1.493  0.00  0.00     0.001 A 
ATOM      7  C7  DEN d   1       0.578  -1.611  -0.355  0.00  0.00     0.017 A 
ATOM      8  C8  DEN d   1       0.598  -0.377   0.281  0.00  0.00    -0.094 A 
ATOM      9  C9  DEN d   1      -0.173   0.676  -0.181  0.00  0.00    -0.072 A 
ENDROOT
TORSDOF 0
ENDMDL
