MODEL 1
REMARK minimizedAffinity -3.89571404
REMARK minimizedRMSD -1
REMARK  1 active torsions:
REMARK  status: ('A' for Active; 'I' for Inactive)
REMARK    1  A    between atoms: N_2  and  C1_3 
ROOT
ATOM      1  C1  UNL d   1       0.054  -0.617  -0.837  0.00  0.00     0.143 A 
ATOM      2  C2  UNL d   1       0.670  -0.082   0.299  0.00  0.00    -0.057 A 
ATOM      3  C3  UNL d   1      -0.078   0.540   1.306  0.00  0.00     0.033 A 
ATOM      4  C4  UNL d   1      -1.458   0.662   1.180  0.00  0.00    -0.042 A 
ATOM      5  C5  UNL d   1      -2.089   0.160   0.048  0.00  0.00     0.033 A 
ATOM      6  C6  UNL d   1      -1.337  -0.466  -0.951  0.00  0.00    -0.057 A 
ENDROOT
BRANCH   1   7
ATOM      7  N   UNL d   1       0.753  -1.159  -1.919  0.00  0.00    -0.732 N 
ATOM      8  C   UNL d   1       1.172  -0.320  -3.021  0.00  0.00     0.284 C 
ATOM      9  H3  UNL d   1       1.448  -1.843  -1.629  0.00  0.00     0.395 HD
ENDBRANCH   1   7
TORSDOF 1
ENDMDL
