MODEL 1
REMARK minimizedAffinity -4.64544821
REMARK minimizedRMSD -1
REMARK  1 active torsions:
REMARK  status: ('A' for Active; 'I' for Inactive)
REMARK    1  A    between atoms: N_2  and  C1_3 
ROOT
ATOM      1  C1  UNL d   1      -0.405   0.286   0.729  0.00  0.00     0.143 A 
ATOM      2  C2  UNL d   1      -1.501   0.897   1.347  0.00  0.00    -0.057 A 
ATOM      3  C3  UNL d   1      -1.481   1.216   2.710  0.00  0.00     0.033 A 
ATOM      4  C4  UNL d   1      -0.373   0.900   3.489  0.00  0.00    -0.042 A 
ATOM      5  C5  UNL d   1       0.718   0.269   2.901  0.00  0.00     0.033 A 
ATOM      6  C6  UNL d   1       0.695  -0.040   1.538  0.00  0.00    -0.057 A 
ENDROOT
BRANCH   1   7
ATOM      7  N   UNL d   1      -0.401  -0.145  -0.600  0.00  0.00    -0.732 N 
ATOM      8  C   UNL d   1       0.697  -0.933  -1.117  0.00  0.00     0.284 C 
ATOM      9  H3  UNL d   1      -1.319  -0.458  -0.909  0.00  0.00     0.395 HD
ENDBRANCH   1   7
TORSDOF 1
ENDMDL
