MODEL 1
REMARK minimizedAffinity -5.15558147
REMARK minimizedRMSD -1
REMARK  1 active torsions:
REMARK  status: ('A' for Active; 'I' for Inactive)
REMARK    1  A    between atoms: N_2  and  C1_3 
ROOT
ATOM      1  C1  UNL d   1       0.044   0.335   1.010  0.00  0.00     0.143 A 
ATOM      2  C2  UNL d   1      -0.976   1.168   1.481  0.00  0.00    -0.057 A 
ATOM      3  C3  UNL d   1      -1.082   1.489   2.840  0.00  0.00     0.033 A 
ATOM      4  C4  UNL d   1      -0.183   0.957   3.759  0.00  0.00    -0.042 A 
ATOM      5  C5  UNL d   1       0.824   0.106   3.317  0.00  0.00     0.033 A 
ATOM      6  C6  UNL d   1       0.928  -0.205   1.957  0.00  0.00    -0.057 A 
ENDROOT
BRANCH   1   7
ATOM      7  N   UNL d   1       0.144  -0.100  -0.314  0.00  0.00    -0.732 N 
ATOM      8  C   UNL d   1       0.853  -1.320  -0.637  0.00  0.00     0.284 C 
ATOM      9  H3  UNL d   1      -0.723   0.026  -0.831  0.00  0.00     0.395 HD
ENDBRANCH   1   7
TORSDOF 1
ENDMDL
