MODEL 1
REMARK minimizedAffinity -4.31840324
REMARK minimizedRMSD -1
REMARK  1 active torsions:
REMARK  status: ('A' for Active; 'I' for Inactive)
REMARK    1  A    between atoms: N_2  and  C1_3 
ROOT
ATOM      1  C1  UNL d   1      -0.093  -0.418  -0.208  0.00  0.00     0.143 A 
ATOM      2  C2  UNL d   1       0.945  -0.335   0.725  0.00  0.00    -0.057 A 
ATOM      3  C3  UNL d   1       0.725   0.168   2.013  0.00  0.00     0.033 A 
ATOM      4  C4  UNL d   1      -0.536   0.626   2.382  0.00  0.00    -0.042 A 
ATOM      5  C5  UNL d   1      -1.577   0.577   1.462  0.00  0.00     0.033 A 
ATOM      6  C6  UNL d   1      -1.352   0.067   0.179  0.00  0.00    -0.057 A 
ENDROOT
BRANCH   1   7
ATOM      7  N   UNL d   1       0.084  -0.816  -1.536  0.00  0.00    -0.732 N 
ATOM      8  C   UNL d   1       0.916  -0.043  -2.433  0.00  0.00     0.284 C 
ATOM      9  H3  UNL d   1       0.198  -1.823  -1.627  0.00  0.00     0.395 HD
ENDBRANCH   1   7
TORSDOF 1
ENDMDL
