MODEL 1
REMARK minimizedAffinity -1.56661606
REMARK minimizedRMSD -1
REMARK  0 active torsions:
REMARK  status: ('A' for Active; 'I' for Inactive)
ROOT
ATOM      1  O1  BZF d   1      -1.125  -2.254  -4.423  0.00  0.00    -0.204 OA
ATOM      2  C2  BZF d   1      -1.670  -1.888  -5.639  0.00  0.00     0.174 A 
ATOM      3  C3  BZF d   1      -1.252  -0.658  -5.999  0.00  0.00    -0.012 A 
ATOM      4  C3A BZF d   1      -0.320  -0.265  -4.987  0.00  0.00    -0.107 A 
ATOM      5  C4  BZF d   1       0.444   0.850  -4.797  0.00  0.00     0.055 A 
ATOM      6  C5  BZF d   1       1.194   0.952  -3.668  0.00  0.00    -0.016 A 
ATOM      7  C6  BZF d   1       1.199  -0.038  -2.707  0.00  0.00     0.022 A 
ATOM      8  C7  BZF d   1       0.460  -1.165  -2.854  0.00  0.00     0.029 A 
ATOM      9  C7A BZF d   1      -0.273  -1.286  -4.009  0.00  0.00     0.058 A 
ENDROOT
TORSDOF 0
ENDMDL
