MODEL 1
REMARK minimizedAffinity -5.59318876
REMARK minimizedRMSD -1
REMARK  0 active torsions:
REMARK  status: ('A' for Active; 'I' for Inactive)
ROOT
ATOM      1  O1  BZF d   1       0.928  -0.038   0.205  0.00  0.00    -0.204 OA
ATOM      2  C2  BZF d   1      -0.234   0.217  -0.497  0.00  0.00     0.174 A 
ATOM      3  C3  BZF d   1      -1.214   0.627   0.334  0.00  0.00    -0.012 A 
ATOM      4  C3A BZF d   1      -0.601   0.718   1.623  0.00  0.00    -0.107 A 
ATOM      5  C4  BZF d   1      -1.058   1.087   2.856  0.00  0.00     0.055 A 
ATOM      6  C5  BZF d   1      -0.223   0.995   3.925  0.00  0.00    -0.016 A 
ATOM      7  C6  BZF d   1       1.070   0.533   3.798  0.00  0.00     0.022 A 
ATOM      8  C7  BZF d   1       1.570   0.160   2.594  0.00  0.00     0.029 A 
ATOM      9  C7A BZF d   1       0.739   0.284   1.507  0.00  0.00     0.058 A 
ENDROOT
TORSDOF 0
ENDMDL
