MODEL 1
REMARK minimizedAffinity -5.05617619
REMARK minimizedRMSD -1
REMARK  0 active torsions:
REMARK  status: ('A' for Active; 'I' for Inactive)
ROOT
ATOM      1  O1  BZF d   1      -1.680   1.041   2.258  0.00  0.00    -0.204 OA
ATOM      2  C2  BZF d   1      -0.527   1.504   2.863  0.00  0.00     0.174 A 
ATOM      3  C3  BZF d   1       0.550   1.262   2.089  0.00  0.00    -0.012 A 
ATOM      4  C3A BZF d   1       0.028   0.690   0.886  0.00  0.00    -0.107 A 
ATOM      5  C4  BZF d   1       0.603   0.252  -0.272  0.00  0.00     0.055 A 
ATOM      6  C5  BZF d   1      -0.180  -0.321  -1.224  0.00  0.00    -0.016 A 
ATOM      7  C6  BZF d   1      -1.540  -0.475  -1.049  0.00  0.00     0.022 A 
ATOM      8  C7  BZF d   1      -2.157  -0.052   0.081  0.00  0.00     0.029 A 
ATOM      9  C7A BZF d   1      -1.373   0.557   1.031  0.00  0.00     0.058 A 
ENDROOT
TORSDOF 0
ENDMDL
