MODEL 1
REMARK minimizedAffinity -4.8198905
REMARK minimizedRMSD -1
REMARK  0 active torsions:
REMARK  status: ('A' for Active; 'I' for Inactive)
ROOT
ATOM      1  O1  BZF d   1       1.823  -1.467   0.065  0.00  0.00    -0.204 OA
ATOM      2  C2  BZF d   1       1.174  -1.493  -1.154  0.00  0.00     0.174 A 
ATOM      3  C3  BZF d   1       0.063  -0.728  -1.121  0.00  0.00    -0.012 A 
ATOM      4  C3A BZF d   1       0.066  -0.118   0.174  0.00  0.00    -0.107 A 
ATOM      5  C4  BZF d   1      -0.772   0.761   0.798  0.00  0.00     0.055 A 
ATOM      6  C5  BZF d   1      -0.526   1.104   2.090  0.00  0.00    -0.016 A 
ATOM      7  C6  BZF d   1       0.544   0.582   2.788  0.00  0.00     0.022 A 
ATOM      8  C7  BZF d   1       1.405  -0.289   2.209  0.00  0.00     0.029 A 
ATOM      9  C7A BZF d   1       1.178  -0.612   0.893  0.00  0.00     0.058 A 
ENDROOT
TORSDOF 0
ENDMDL
