MODEL 1
REMARK minimizedAffinity -5.53607512
REMARK minimizedRMSD -1
REMARK  0 active torsions:
REMARK  status: ('A' for Active; 'I' for Inactive)
ROOT
ATOM      1  O1  BZF d   1      -1.368   1.305   2.108  0.00  0.00    -0.204 OA
ATOM      2  C2  BZF d   1      -0.221   1.613   2.814  0.00  0.00     0.174 A 
ATOM      3  C3  BZF d   1       0.855   1.018   2.260  0.00  0.00    -0.012 A 
ATOM      4  C3A BZF d   1       0.363   0.369   1.084  0.00  0.00    -0.107 A 
ATOM      5  C4  BZF d   1       0.956  -0.375   0.104  0.00  0.00     0.055 A 
ATOM      6  C5  BZF d   1       0.181  -0.926  -0.867  0.00  0.00    -0.016 A 
ATOM      7  C6  BZF d   1      -1.188  -0.758  -0.887  0.00  0.00     0.022 A 
ATOM      8  C7  BZF d   1      -1.821  -0.024   0.061  0.00  0.00     0.029 A 
ATOM      9  C7A BZF d   1      -1.037   0.562   1.025  0.00  0.00     0.058 A 
ENDROOT
TORSDOF 0
ENDMDL
