MODEL 1
REMARK minimizedAffinity -4.80782557
REMARK minimizedRMSD -1
REMARK  0 active torsions:
REMARK  status: ('A' for Active; 'I' for Inactive)
ROOT
ATOM      1  O1  BZF d   1      -1.754   0.856   2.507  0.00  0.00    -0.204 OA
ATOM      2  C2  BZF d   1      -0.895   1.057   3.570  0.00  0.00     0.174 A 
ATOM      3  C3  BZF d   1       0.342   0.606   3.277  0.00  0.00    -0.012 A 
ATOM      4  C3A BZF d   1       0.272   0.175   1.914  0.00  0.00    -0.107 A 
ATOM      5  C4  BZF d   1       1.186  -0.357   1.050  0.00  0.00     0.055 A 
ATOM      6  C5  BZF d   1       0.779  -0.737  -0.190  0.00  0.00    -0.016 A 
ATOM      7  C6  BZF d   1      -0.533  -0.605  -0.595  0.00  0.00     0.022 A 
ATOM      8  C7  BZF d   1      -1.474  -0.079   0.225  0.00  0.00     0.029 A 
ATOM      9  C7A BZF d   1      -1.059   0.337   1.467  0.00  0.00     0.058 A 
ENDROOT
TORSDOF 0
ENDMDL
