MODEL 1
REMARK minimizedAffinity -5.03738785
REMARK minimizedRMSD -1
REMARK  0 active torsions:
REMARK  status: ('A' for Active; 'I' for Inactive)
ROOT
ATOM      1  O1  BZF d   1      -0.859  -0.555  -1.194  0.00  0.00    -0.204 OA
ATOM      2  C2  BZF d   1       0.430  -0.838  -1.602  0.00  0.00     0.174 A 
ATOM      3  C3  BZF d   1       1.326  -0.413  -0.688  0.00  0.00    -0.012 A 
ATOM      4  C3A BZF d   1       0.544   0.092   0.399  0.00  0.00    -0.107 A 
ATOM      5  C4  BZF d   1       0.861   0.638   1.610  0.00  0.00     0.055 A 
ATOM      6  C5  BZF d   1      -0.138   1.096   2.410  0.00  0.00    -0.016 A 
ATOM      7  C6  BZF d   1      -1.462   1.028   2.029  0.00  0.00     0.022 A 
ATOM      8  C7  BZF d   1      -1.826   0.490   0.840  0.00  0.00     0.029 A 
ATOM      9  C7A BZF d   1      -0.822  -0.004   0.043  0.00  0.00     0.058 A 
ENDROOT
TORSDOF 0
ENDMDL
