MODEL 1
REMARK minimizedAffinity -3.74406457
REMARK minimizedRMSD -1
REMARK  0 active torsions:
REMARK  status: ('A' for Active; 'I' for Inactive)
ROOT
ATOM      1  C   UNL d   1       0.415  -1.032  -0.007  0.00  0.00    -0.002 A 
ATOM      2  C1  UNL d   1       0.254   0.322   0.250  0.00  0.00     0.010 A 
ATOM      3  C2  UNL d   1       0.368   1.258  -0.779  0.00  0.00     0.041 A 
ATOM      4  C3  UNL d   1       0.649   0.807  -2.084  0.00  0.00    -0.075 A 
ATOM      5  S   UNL d   1       0.833   1.772  -3.501  0.00  0.00     0.015 SA
ATOM      6  C4  UNL d   1       1.129   0.409  -4.481  0.00  0.00     0.022 A 
ATOM      7  C5  UNL d   1       1.093  -0.762  -3.761  0.00  0.00     0.026 A 
ATOM      8  C6  UNL d   1       0.815  -0.552  -2.368  0.00  0.00    -0.082 A 
ATOM      9  C7  UNL d   1       0.694  -1.477  -1.303  0.00  0.00     0.045 A 
ENDROOT
TORSDOF 0
ENDMDL
