MODEL 1
REMARK minimizedAffinity -1.0602082
REMARK minimizedRMSD -1
REMARK  0 active torsions:
REMARK  status: ('A' for Active; 'I' for Inactive)
ROOT
ATOM      1  C   UNL d   1      -0.310  -0.260   1.935  0.00  0.00    -0.002 A 
ATOM      2  C1  UNL d   1      -1.513   0.163   1.388  0.00  0.00     0.010 A 
ATOM      3  C2  UNL d   1      -1.586   0.555   0.050  0.00  0.00     0.041 A 
ATOM      4  C3  UNL d   1      -0.419   0.511  -0.738  0.00  0.00    -0.075 A 
ATOM      5  S   UNL d   1      -0.271   0.942  -2.401  0.00  0.00     0.015 SA
ATOM      6  C4  UNL d   1       1.393   0.573  -2.425  0.00  0.00     0.022 A 
ATOM      7  C5  UNL d   1       1.841   0.131  -1.203  0.00  0.00     0.026 A 
ATOM      8  C6  UNL d   1       0.804   0.088  -0.210  0.00  0.00    -0.082 A 
ATOM      9  C7  UNL d   1       0.846  -0.302   1.150  0.00  0.00     0.045 A 
ENDROOT
TORSDOF 0
ENDMDL
