MODEL 1
REMARK minimizedAffinity 0.600305021
REMARK minimizedRMSD -1
REMARK  0 active torsions:
REMARK  status: ('A' for Active; 'I' for Inactive)
ROOT
ATOM      1  C   UNL d   1       1.498  -0.729   3.496  0.00  0.00    -0.002 A 
ATOM      2  C1  UNL d   1       0.184  -0.415   3.812  0.00  0.00     0.010 A 
ATOM      3  C2  UNL d   1      -0.789  -0.345   2.813  0.00  0.00     0.041 A 
ATOM      4  C3  UNL d   1      -0.416  -0.599   1.479  0.00  0.00    -0.075 A 
ATOM      5  S   UNL d   1      -1.437  -0.571   0.090  0.00  0.00     0.015 SA
ATOM      6  C4  UNL d   1      -0.153  -0.975  -0.955  0.00  0.00     0.022 A 
ATOM      7  C5  UNL d   1       1.033  -1.132  -0.278  0.00  0.00     0.026 A 
ATOM      8  C6  UNL d   1       0.901  -0.918   1.136  0.00  0.00    -0.082 A 
ATOM      9  C7  UNL d   1       1.865  -0.981   2.172  0.00  0.00     0.045 A 
ENDROOT
TORSDOF 0
ENDMDL
