MODEL 1
REMARK minimizedAffinity -2.14049196
REMARK minimizedRMSD -1
REMARK  0 active torsions:
REMARK  status: ('A' for Active; 'I' for Inactive)
ROOT
ATOM      1  C   UNL d   1      -1.984   0.604   1.789  0.00  0.00    -0.002 A 
ATOM      2  C1  UNL d   1      -0.895   0.290   2.591  0.00  0.00     0.010 A 
ATOM      3  C2  UNL d   1       0.306  -0.137   2.022  0.00  0.00     0.041 A 
ATOM      4  C3  UNL d   1       0.397  -0.242   0.620  0.00  0.00    -0.075 A 
ATOM      5  S   UNL d   1       1.768  -0.743  -0.298  0.00  0.00     0.015 SA
ATOM      6  C4  UNL d   1       0.941  -0.551  -1.776  0.00  0.00     0.022 A 
ATOM      7  C5  UNL d   1      -0.350  -0.116  -1.592  0.00  0.00     0.026 A 
ATOM      8  C6  UNL d   1      -0.685   0.070  -0.208  0.00  0.00    -0.082 A 
ATOM      9  C7  UNL d   1      -1.890   0.499   0.399  0.00  0.00     0.045 A 
ENDROOT
TORSDOF 0
ENDMDL
