MODEL 1
REMARK minimizedAffinity 4.07492542
REMARK minimizedRMSD -1
REMARK  0 active torsions:
REMARK  status: ('A' for Active; 'I' for Inactive)
ROOT
ATOM      1  C   UNL d   1       4.895  -1.464  -3.827  0.00  0.00     0.078 C 
ATOM      2  C1  UNL d   1       5.286  -2.912  -3.821  0.00  0.00    -0.077 A 
ATOM      3  C2  UNL d   1       5.287  -3.663  -5.003  0.00  0.00    -0.001 A 
ATOM      4  C3  UNL d   1       5.643  -5.012  -4.982  0.00  0.00     0.003 A 
ATOM      5  C4  UNL d   1       5.999  -5.623  -3.781  0.00  0.00    -0.005 A 
ATOM      6  C5  UNL d   1       5.998  -4.884  -2.599  0.00  0.00     0.003 A 
ATOM      7  C6  UNL d   1       5.643  -3.534  -2.619  0.00  0.00    -0.001 A 
ENDROOT
TORSDOF 0
ENDMDL
