MODEL 1
REMARK minimizedAffinity 5.47467613
REMARK minimizedRMSD -1
REMARK  0 active torsions:
REMARK  status: ('A' for Active; 'I' for Inactive)
ROOT
ATOM      1  C   UNL d   1       2.387   2.021   1.302  0.00  0.00     0.078 C 
ATOM      2  C1  UNL d   1       1.491   2.565   0.230  0.00  0.00    -0.077 A 
ATOM      3  C2  UNL d   1       0.107   2.359   0.273  0.00  0.00    -0.001 A 
ATOM      4  C3  UNL d   1      -0.714   2.863  -0.737  0.00  0.00     0.003 A 
ATOM      5  C4  UNL d   1      -0.160   3.575  -1.799  0.00  0.00    -0.005 A 
ATOM      6  C5  UNL d   1       1.217   3.784  -1.852  0.00  0.00     0.003 A 
ATOM      7  C6  UNL d   1       2.039   3.280  -0.843  0.00  0.00    -0.001 A 
ENDROOT
TORSDOF 0
ENDMDL
