MODEL 1
REMARK minimizedAffinity -1.79442501
REMARK minimizedRMSD -1
REMARK  0 active torsions:
REMARK  status: ('A' for Active; 'I' for Inactive)
ROOT
ATOM      1  C   UNL d   1       2.962   5.648   0.367  0.00  0.00     0.078 C 
ATOM      2  C1  UNL d   1       2.019   4.522   0.670  0.00  0.00    -0.077 A 
ATOM      3  C2  UNL d   1       1.019   4.155  -0.238  0.00  0.00    -0.001 A 
ATOM      4  C3  UNL d   1       0.142   3.111   0.061  0.00  0.00     0.003 A 
ATOM      5  C4  UNL d   1       0.255   2.427   1.270  0.00  0.00    -0.005 A 
ATOM      6  C5  UNL d   1       1.245   2.787   2.182  0.00  0.00     0.003 A 
ATOM      7  C6  UNL d   1       2.123   3.831   1.884  0.00  0.00    -0.001 A 
ENDROOT
TORSDOF 0
ENDMDL
