MODEL 1
REMARK minimizedAffinity -0.480143905
REMARK minimizedRMSD -1
REMARK  0 active torsions:
REMARK  status: ('A' for Active; 'I' for Inactive)
ROOT
ATOM      1  C   UNL d   1       0.043   1.180   1.159  0.00  0.00     0.078 C 
ATOM      2  C1  UNL d   1       0.567   2.275   0.278  0.00  0.00    -0.077 A 
ATOM      3  C2  UNL d   1       1.648   3.069   0.680  0.00  0.00    -0.001 A 
ATOM      4  C3  UNL d   1       2.118   4.091  -0.146  0.00  0.00     0.003 A 
ATOM      5  C4  UNL d   1       1.513   4.329  -1.379  0.00  0.00    -0.005 A 
ATOM      6  C5  UNL d   1       0.436   3.545  -1.786  0.00  0.00     0.003 A 
ATOM      7  C6  UNL d   1      -0.036   2.523  -0.961  0.00  0.00    -0.001 A 
ENDROOT
TORSDOF 0
ENDMDL
