MODEL 1
REMARK minimizedAffinity 6.20132923
REMARK minimizedRMSD -1
REMARK  0 active torsions:
REMARK  status: ('A' for Active; 'I' for Inactive)
ROOT
ATOM      1  C   UNL d   1       4.569  -1.125  -2.343  0.00  0.00     0.078 C 
ATOM      2  C1  UNL d   1       4.749  -2.497  -2.920  0.00  0.00    -0.077 A 
ATOM      3  C2  UNL d   1       3.845  -3.009  -3.859  0.00  0.00    -0.001 A 
ATOM      4  C3  UNL d   1       4.019  -4.292  -4.381  0.00  0.00     0.003 A 
ATOM      5  C4  UNL d   1       5.096  -5.074  -3.969  0.00  0.00    -0.005 A 
ATOM      6  C5  UNL d   1       6.000  -4.574  -3.033  0.00  0.00     0.003 A 
ATOM      7  C6  UNL d   1       5.827  -3.292  -2.511  0.00  0.00    -0.001 A 
ENDROOT
TORSDOF 0
ENDMDL
