MODEL 1
REMARK minimizedAffinity -4.25840378
REMARK minimizedRMSD -1
REMARK  0 active torsions:
REMARK  status: ('A' for Active; 'I' for Inactive)
ROOT
ATOM      1  C   UNL d   1      -1.144   1.303  -0.848  0.00  0.00     0.078 C 
ATOM      2  C1  UNL d   1      -0.078   2.311  -0.537  0.00  0.00    -0.077 A 
ATOM      3  C2  UNL d   1       0.245   3.324  -1.448  0.00  0.00    -0.001 A 
ATOM      4  C3  UNL d   1       1.247   4.248  -1.150  0.00  0.00     0.003 A 
ATOM      5  C4  UNL d   1       1.935   4.169   0.059  0.00  0.00    -0.005 A 
ATOM      6  C5  UNL d   1       1.623   3.163   0.971  0.00  0.00     0.003 A 
ATOM      7  C6  UNL d   1       0.621   2.238   0.675  0.00  0.00    -0.001 A 
ENDROOT
TORSDOF 0
ENDMDL
