MODEL 1
REMARK minimizedAffinity -2.19335818
REMARK minimizedRMSD -1
REMARK  0 active torsions:
REMARK  status: ('A' for Active; 'I' for Inactive)
ROOT
ATOM      1  C   UNL d   1       0.488   5.772  -1.886  0.00  0.00     0.078 C 
ATOM      2  C1  UNL d   1       0.595   4.696  -0.847  0.00  0.00    -0.077 A 
ATOM      3  C2  UNL d   1      -0.313   3.631  -0.815  0.00  0.00    -0.001 A 
ATOM      4  C3  UNL d   1      -0.207   2.642   0.165  0.00  0.00     0.003 A 
ATOM      5  C4  UNL d   1       0.805   2.709   1.120  0.00  0.00    -0.005 A 
ATOM      6  C5  UNL d   1       1.712   3.767   1.098  0.00  0.00     0.003 A 
ATOM      7  C6  UNL d   1       1.607   4.757   0.119  0.00  0.00    -0.001 A 
ENDROOT
TORSDOF 0
ENDMDL
