MODEL 1
REMARK minimizedAffinity -1.35254133
REMARK minimizedRMSD -1
REMARK  0 active torsions:
REMARK  status: ('A' for Active; 'I' for Inactive)
ROOT
ATOM      1  C   UNL d   1      -0.945   1.821  -0.984  0.00  0.00     0.078 C 
ATOM      2  C1  UNL d   1      -2.249   1.853  -1.725  0.00  0.00    -0.077 A 
ATOM      3  C2  UNL d   1      -2.965   0.676  -1.976  0.00  0.00    -0.001 A 
ATOM      4  C3  UNL d   1      -4.172   0.720  -2.676  0.00  0.00     0.003 A 
ATOM      5  C4  UNL d   1      -4.672   1.938  -3.131  0.00  0.00    -0.005 A 
ATOM      6  C5  UNL d   1      -3.966   3.114  -2.888  0.00  0.00     0.003 A 
ATOM      7  C6  UNL d   1      -2.759   3.072  -2.189  0.00  0.00    -0.001 A 
ENDROOT
TORSDOF 0
ENDMDL
