MODEL 1
REMARK minimizedAffinity -3.08763218
REMARK minimizedRMSD -1
REMARK  0 active torsions:
REMARK  status: ('A' for Active; 'I' for Inactive)
ROOT
ATOM      1  C   UNL d   1       4.368  -1.574  -0.017  0.00  0.00     0.078 C 
ATOM      2  C1  UNL d   1       4.267  -2.640  -1.067  0.00  0.00    -0.077 A 
ATOM      3  C2  UNL d   1       4.490  -3.986  -0.752  0.00  0.00    -0.001 A 
ATOM      4  C3  UNL d   1       4.402  -4.967  -1.741  0.00  0.00     0.003 A 
ATOM      5  C4  UNL d   1       4.092  -4.612  -3.052  0.00  0.00    -0.005 A 
ATOM      6  C5  UNL d   1       3.870  -3.275  -3.376  0.00  0.00     0.003 A 
ATOM      7  C6  UNL d   1       3.958  -2.293  -2.388  0.00  0.00    -0.001 A 
ENDROOT
TORSDOF 0
ENDMDL
