MODEL 1
REMARK minimizedAffinity 1.28049695
REMARK minimizedRMSD -1
REMARK  0 active torsions:
REMARK  status: ('A' for Active; 'I' for Inactive)
ROOT
ATOM      1  C   UNL d   1       0.365   3.721  -0.679  0.00  0.00     0.078 C 
ATOM      2  C1  UNL d   1       0.460   2.995   0.630  0.00  0.00    -0.077 A 
ATOM      3  C2  UNL d   1      -0.641   2.308   1.155  0.00  0.00    -0.001 A 
ATOM      4  C3  UNL d   1      -0.541   1.645   2.379  0.00  0.00     0.003 A 
ATOM      5  C4  UNL d   1       0.658   1.663   3.089  0.00  0.00    -0.005 A 
ATOM      6  C5  UNL d   1       1.758   2.346   2.575  0.00  0.00     0.003 A 
ATOM      7  C6  UNL d   1       1.660   3.010   1.351  0.00  0.00    -0.001 A 
ENDROOT
TORSDOF 0
ENDMDL
