MODEL 1
REMARK minimizedAffinity 2.95201206
REMARK minimizedRMSD -1
REMARK  0 active torsions:
REMARK  status: ('A' for Active; 'I' for Inactive)
ROOT
ATOM      1  C   UNL d   1       3.669  -1.875  -0.842  0.00  0.00     0.078 C 
ATOM      2  C1  UNL d   1       4.008  -3.204  -1.448  0.00  0.00    -0.077 A 
ATOM      3  C2  UNL d   1       4.565  -4.229  -0.674  0.00  0.00    -0.001 A 
ATOM      4  C3  UNL d   1       4.885  -5.458  -1.254  0.00  0.00     0.003 A 
ATOM      5  C4  UNL d   1       4.651  -5.673  -2.611  0.00  0.00    -0.005 A 
ATOM      6  C5  UNL d   1       4.098  -4.658  -3.390  0.00  0.00     0.003 A 
ATOM      7  C6  UNL d   1       3.778  -3.429  -2.811  0.00  0.00    -0.001 A 
ENDROOT
TORSDOF 0
ENDMDL
