MODEL 1
REMARK minimizedAffinity 1.5721854
REMARK minimizedRMSD -1
REMARK  0 active torsions:
REMARK  status: ('A' for Active; 'I' for Inactive)
ROOT
ATOM      1  C   UNL d   1       2.204  -3.848   1.015  0.00  0.00     0.078 C 
ATOM      2  C1  UNL d   1       2.619  -4.306  -0.352  0.00  0.00    -0.077 A 
ATOM      3  C2  UNL d   1       1.809  -5.169  -1.100  0.00  0.00    -0.001 A 
ATOM      4  C3  UNL d   1       2.213  -5.595  -2.367  0.00  0.00     0.003 A 
ATOM      5  C4  UNL d   1       3.427  -5.163  -2.896  0.00  0.00    -0.005 A 
ATOM      6  C5  UNL d   1       4.240  -4.305  -2.158  0.00  0.00     0.003 A 
ATOM      7  C6  UNL d   1       3.838  -3.878  -0.891  0.00  0.00    -0.001 A 
ENDROOT
TORSDOF 0
ENDMDL
