MODEL 1
REMARK minimizedAffinity 1.54694271
REMARK minimizedRMSD -1
REMARK  0 active torsions:
REMARK  status: ('A' for Active; 'I' for Inactive)
ROOT
ATOM      1  C   UNL d   1       0.341   4.830  -0.545  0.00  0.00     0.078 C 
ATOM      2  C1  UNL d   1       0.761   4.078   0.683  0.00  0.00    -0.077 A 
ATOM      3  C2  UNL d   1      -0.051   3.074   1.227  0.00  0.00    -0.001 A 
ATOM      4  C3  UNL d   1       0.349   2.389   2.375  0.00  0.00     0.003 A 
ATOM      5  C4  UNL d   1       1.559   2.701   2.991  0.00  0.00    -0.005 A 
ATOM      6  C5  UNL d   1       2.372   3.699   2.458  0.00  0.00     0.003 A 
ATOM      7  C6  UNL d   1       1.975   4.385   1.310  0.00  0.00    -0.001 A 
ENDROOT
TORSDOF 0
ENDMDL
