MODEL 1
REMARK minimizedAffinity -0.892439485
REMARK minimizedRMSD -1
REMARK  0 active torsions:
REMARK  status: ('A' for Active; 'I' for Inactive)
ROOT
ATOM      1  C   UNL d   1      -2.076  -0.779   0.791  0.00  0.00     0.124 A 
ATOM      2  C1  UNL d   1      -1.707   0.501   1.180  0.00  0.00     0.062 A 
ATOM      3  C2  UNL d   1      -0.613   1.125   0.587  0.00  0.00     0.162 A 
ATOM      4  C3  UNL d   1       0.120   0.469  -0.402  0.00  0.00    -0.034 A 
ATOM      5  C4  UNL d   1      -0.256  -0.819  -0.787  0.00  0.00     0.162 A 
ATOM      6  C5  UNL d   1      -1.351  -1.438  -0.191  0.00  0.00     0.062 A 
ATOM      7  F   UNL d   1      -1.705  -2.675  -0.568  0.00  0.00    -0.097 F 
ATOM      8  F1  UNL d   1       0.427  -1.478  -1.734  0.00  0.00    -0.096 F 
ATOM      9  I   UNL d   1       1.757   1.398  -1.291  0.00  0.00    -0.060 I 
ATOM     10  F2  UNL d   1      -0.280   2.363   0.982  0.00  0.00    -0.096 F 
ATOM     11  F3  UNL d   1      -2.406   1.140   2.130  0.00  0.00    -0.097 F 
ATOM     12  F4  UNL d   1      -3.129  -1.377   1.364  0.00  0.00    -0.092 F 
ENDROOT
TORSDOF 0
ENDMDL
