MODEL 1
REMARK minimizedAffinity -4.27757835
REMARK minimizedRMSD -1
REMARK  0 active torsions:
REMARK  status: ('A' for Active; 'I' for Inactive)
ROOT
ATOM      1  C   UNL d   1      -2.351  -1.745   1.318  0.00  0.00     0.124 A 
ATOM      2  C1  UNL d   1      -1.120  -2.169   0.837  0.00  0.00     0.062 A 
ATOM      3  C2  UNL d   1      -0.202  -1.244   0.349  0.00  0.00     0.162 A 
ATOM      4  C3  UNL d   1      -0.511   0.116   0.340  0.00  0.00    -0.034 A 
ATOM      5  C4  UNL d   1      -1.752   0.536   0.824  0.00  0.00     0.162 A 
ATOM      6  C5  UNL d   1      -2.666  -0.393   1.311  0.00  0.00     0.062 A 
ATOM      7  F   UNL d   1      -3.855   0.019   1.775  0.00  0.00    -0.097 F 
ATOM      8  F1  UNL d   1      -2.081   1.836   0.830  0.00  0.00    -0.096 F 
ATOM      9  I   UNL d   1       0.859   1.503  -0.388  0.00  0.00    -0.060 I 
ATOM     10  F2  UNL d   1       0.980  -1.682  -0.109  0.00  0.00    -0.096 F 
ATOM     11  F3  UNL d   1      -0.814  -3.475   0.842  0.00  0.00    -0.097 F 
ATOM     12  F4  UNL d   1      -3.233  -2.637   1.786  0.00  0.00    -0.092 F 
ENDROOT
TORSDOF 0
ENDMDL
