MODEL 1
REMARK minimizedAffinity -3.63372922
REMARK minimizedRMSD -1
REMARK  0 active torsions:
REMARK  status: ('A' for Active; 'I' for Inactive)
ROOT
ATOM      1  C   UNL d   1      -1.883  -0.105   0.691  0.00  0.00     0.124 A 
ATOM      2  C1  UNL d   1      -0.878   0.754   0.270  0.00  0.00     0.062 A 
ATOM      3  C2  UNL d   1       0.399   0.264   0.010  0.00  0.00     0.162 A 
ATOM      4  C3  UNL d   1       0.677  -1.094   0.169  0.00  0.00    -0.034 A 
ATOM      5  C4  UNL d   1      -0.339  -1.952   0.593  0.00  0.00     0.162 A 
ATOM      6  C5  UNL d   1      -1.613  -1.456   0.852  0.00  0.00     0.062 A 
ATOM      7  F   UNL d   1      -2.583  -2.288   1.259  0.00  0.00    -0.097 F 
ATOM      8  F1  UNL d   1      -0.106  -3.262   0.756  0.00  0.00    -0.096 F 
ATOM      9  I   UNL d   1       2.584  -1.831  -0.220  0.00  0.00    -0.060 I 
ATOM     10  F2  UNL d   1       1.351   1.117  -0.396  0.00  0.00    -0.096 F 
ATOM     11  F3  UNL d   1      -1.136   2.061   0.115  0.00  0.00    -0.097 F 
ATOM     12  F4  UNL d   1      -3.110   0.370   0.942  0.00  0.00    -0.092 F 
ENDROOT
TORSDOF 0
ENDMDL
