MODEL 1
REMARK minimizedAffinity -2.12980962
REMARK minimizedRMSD -1
REMARK  0 active torsions:
REMARK  status: ('A' for Active; 'I' for Inactive)
ROOT
ATOM      1  C   UNL d   1      -0.092   1.712   0.012  0.00  0.00     0.124 A 
ATOM      2  C1  UNL d   1       0.896   0.751  -0.149  0.00  0.00     0.062 A 
ATOM      3  C2  UNL d   1       0.644  -0.576   0.187  0.00  0.00     0.162 A 
ATOM      4  C3  UNL d   1      -0.604  -0.951   0.686  0.00  0.00    -0.034 A 
ATOM      5  C4  UNL d   1      -1.592   0.022   0.846  0.00  0.00     0.162 A 
ATOM      6  C5  UNL d   1      -1.335   1.347   0.509  0.00  0.00     0.062 A 
ATOM      7  F   UNL d   1      -2.291   2.274   0.666  0.00  0.00    -0.097 F 
ATOM      8  F1  UNL d   1      -2.803  -0.304   1.324  0.00  0.00    -0.096 F 
ATOM      9  I   UNL d   1      -0.985  -2.934   1.190  0.00  0.00    -0.060 I 
ATOM     10  F2  UNL d   1       1.617  -1.484   0.021  0.00  0.00    -0.096 F 
ATOM     11  F3  UNL d   1       2.098   1.101  -0.629  0.00  0.00    -0.097 F 
ATOM     12  F4  UNL d   1       0.154   2.988  -0.311  0.00  0.00    -0.092 F 
ENDROOT
TORSDOF 0
ENDMDL
