MODEL 1
REMARK minimizedAffinity -4.06979036
REMARK minimizedRMSD -1
REMARK  0 active torsions:
REMARK  status: ('A' for Active; 'I' for Inactive)
ROOT
ATOM      1  C   UNL d   1      -3.049  -1.547   1.538  0.00  0.00     0.124 A 
ATOM      2  C1  UNL d   1      -2.048  -2.255   0.887  0.00  0.00     0.062 A 
ATOM      3  C2  UNL d   1      -0.927  -1.591   0.397  0.00  0.00     0.162 A 
ATOM      4  C3  UNL d   1      -0.800  -0.211   0.556  0.00  0.00    -0.034 A 
ATOM      5  C4  UNL d   1      -1.812   0.494   1.211  0.00  0.00     0.162 A 
ATOM      6  C5  UNL d   1      -2.930  -0.174   1.699  0.00  0.00     0.062 A 
ATOM      7  F   UNL d   1      -3.896   0.511   2.328  0.00  0.00    -0.097 F 
ATOM      8  F1  UNL d   1      -1.722   1.821   1.382  0.00  0.00    -0.096 F 
ATOM      9  I   UNL d   1       0.874   0.785  -0.175  0.00  0.00    -0.060 I 
ATOM     10  F2  UNL d   1       0.025  -2.300  -0.228  0.00  0.00    -0.096 F 
ATOM     11  F3  UNL d   1      -2.161  -3.581   0.728  0.00  0.00    -0.097 F 
ATOM     12  F4  UNL d   1      -4.127  -2.188   2.007  0.00  0.00    -0.092 F 
ENDROOT
TORSDOF 0
ENDMDL
