MODEL 1
REMARK minimizedAffinity 1.97499502
REMARK minimizedRMSD -1
REMARK  0 active torsions:
REMARK  status: ('A' for Active; 'I' for Inactive)
ROOT
ATOM      1  C   UNL d   1      -0.183   1.533  -0.831  0.00  0.00     0.124 A 
ATOM      2  C1  UNL d   1       0.325   0.335  -1.315  0.00  0.00     0.062 A 
ATOM      3  C2  UNL d   1       0.039  -0.861  -0.663  0.00  0.00     0.162 A 
ATOM      4  C3  UNL d   1      -0.759  -0.866   0.481  0.00  0.00    -0.034 A 
ATOM      5  C4  UNL d   1      -1.265   0.343   0.962  0.00  0.00     0.162 A 
ATOM      6  C5  UNL d   1      -0.977   1.536   0.307  0.00  0.00     0.062 A 
ATOM      7  F   UNL d   1      -1.468   2.692   0.776  0.00  0.00    -0.097 F 
ATOM      8  F1  UNL d   1      -2.036   0.374   2.060  0.00  0.00    -0.096 F 
ATOM      9  I   UNL d   1      -1.188  -2.652   1.459  0.00  0.00    -0.060 I 
ATOM     10  F2  UNL d   1       0.543  -2.003  -1.153  0.00  0.00    -0.096 F 
ATOM     11  F3  UNL d   1       1.093   0.330  -2.414  0.00  0.00    -0.097 F 
ATOM     12  F4  UNL d   1       0.094   2.682  -1.460  0.00  0.00    -0.092 F 
ENDROOT
TORSDOF 0
ENDMDL
