MODEL 1
REMARK minimizedAffinity -2.77920318
REMARK minimizedRMSD -1
REMARK  0 active torsions:
REMARK  status: ('A' for Active; 'I' for Inactive)
ROOT
ATOM      1  C   UNL d   1      -1.006  -1.334   0.822  0.00  0.00     0.124 A 
ATOM      2  C1  UNL d   1       0.356  -1.589   0.733  0.00  0.00     0.062 A 
ATOM      3  C2  UNL d   1       1.239  -0.566   0.400  0.00  0.00     0.162 A 
ATOM      4  C3  UNL d   1       0.763   0.722   0.153  0.00  0.00    -0.034 A 
ATOM      5  C4  UNL d   1      -0.608   0.970   0.243  0.00  0.00     0.162 A 
ATOM      6  C5  UNL d   1      -1.486  -0.056   0.576  0.00  0.00     0.062 A 
ATOM      7  F   UNL d   1      -2.801   0.192   0.661  0.00  0.00    -0.097 F 
ATOM      8  F1  UNL d   1      -1.099   2.197   0.012  0.00  0.00    -0.096 F 
ATOM      9  I   UNL d   1       2.080   2.255  -0.346  0.00  0.00    -0.060 I 
ATOM     10  F2  UNL d   1       2.550  -0.840   0.321  0.00  0.00    -0.096 F 
ATOM     11  F3  UNL d   1       0.823  -2.823   0.969  0.00  0.00    -0.097 F 
ATOM     12  F4  UNL d   1      -1.853  -2.321   1.142  0.00  0.00    -0.092 F 
ENDROOT
TORSDOF 0
ENDMDL
