MODEL 1
REMARK minimizedAffinity 4.87140417
REMARK minimizedRMSD -1
REMARK  0 active torsions:
REMARK  status: ('A' for Active; 'I' for Inactive)
ROOT
ATOM      1  C   UNL d   1      -1.433   0.475   1.018  0.00  0.00     0.124 A 
ATOM      2  C1  UNL d   1      -1.570   1.771   0.540  0.00  0.00     0.062 A 
ATOM      3  C2  UNL d   1      -0.768   2.220  -0.505  0.00  0.00     0.162 A 
ATOM      4  C3  UNL d   1       0.179   1.372  -1.080  0.00  0.00    -0.034 A 
ATOM      5  C4  UNL d   1       0.311   0.070  -0.594  0.00  0.00     0.162 A 
ATOM      6  C5  UNL d   1      -0.493  -0.374   0.451  0.00  0.00     0.062 A 
ATOM      7  F   UNL d   1      -0.360  -1.626   0.911  0.00  0.00    -0.097 F 
ATOM      8  F1  UNL d   1       1.211  -0.771  -1.124  0.00  0.00    -0.096 F 
ATOM      9  I   UNL d   1       1.380   2.040  -2.643  0.00  0.00    -0.060 I 
ATOM     10  F2  UNL d   1      -0.922   3.477  -0.947  0.00  0.00    -0.096 F 
ATOM     11  F3  UNL d   1      -2.477   2.593   1.087  0.00  0.00    -0.097 F 
ATOM     12  F4  UNL d   1      -2.206   0.046   2.024  0.00  0.00    -0.092 F 
ENDROOT
TORSDOF 0
ENDMDL
