MODEL 1
REMARK minimizedAffinity -3.12342834
REMARK minimizedRMSD -1
REMARK  0 active torsions:
REMARK  status: ('A' for Active; 'I' for Inactive)
ROOT
ATOM      1  C   UNL d   1      -1.648  -1.342   1.194  0.00  0.00     0.124 A 
ATOM      2  C1  UNL d   1      -1.668   0.041   1.315  0.00  0.00     0.062 A 
ATOM      3  C2  UNL d   1      -0.871   0.828   0.489  0.00  0.00     0.162 A 
ATOM      4  C3  UNL d   1      -0.047   0.234  -0.467  0.00  0.00    -0.034 A 
ATOM      5  C4  UNL d   1      -0.031  -1.157  -0.583  0.00  0.00     0.162 A 
ATOM      6  C5  UNL d   1      -0.830  -1.939   0.245  0.00  0.00     0.062 A 
ATOM      7  F   UNL d   1      -0.809  -3.274   0.126  0.00  0.00    -0.097 F 
ATOM      8  F1  UNL d   1       0.749  -1.760  -1.492  0.00  0.00    -0.096 F 
ATOM      9  I   UNL d   1       1.147   1.408  -1.704  0.00  0.00    -0.060 I 
ATOM     10  F2  UNL d   1      -0.910   2.161   0.629  0.00  0.00    -0.096 F 
ATOM     11  F3  UNL d   1      -2.456   0.620   2.232  0.00  0.00    -0.097 F 
ATOM     12  F4  UNL d   1      -2.415  -2.097   1.991  0.00  0.00    -0.092 F 
ENDROOT
TORSDOF 0
ENDMDL
