MODEL 1
REMARK minimizedAffinity -0.561573267
REMARK minimizedRMSD -1
REMARK  0 active torsions:
REMARK  status: ('A' for Active; 'I' for Inactive)
ROOT
ATOM      1  C   UNL d   1      -0.911  -1.475   0.968  0.00  0.00     0.124 A 
ATOM      2  C1  UNL d   1      -1.370  -0.169   0.863  0.00  0.00     0.062 A 
ATOM      3  C2  UNL d   1      -0.669   0.760   0.100  0.00  0.00     0.162 A 
ATOM      4  C3  UNL d   1       0.499   0.386  -0.566  0.00  0.00    -0.034 A 
ATOM      5  C4  UNL d   1       0.954  -0.929  -0.455  0.00  0.00     0.162 A 
ATOM      6  C5  UNL d   1       0.250  -1.854   0.309  0.00  0.00     0.062 A 
ATOM      7  F   UNL d   1       0.694  -3.115   0.409  0.00  0.00    -0.097 F 
ATOM      8  F1  UNL d   1       2.073  -1.322  -1.082  0.00  0.00    -0.096 F 
ATOM      9  I   UNL d   1       1.550   1.772  -1.708  0.00  0.00    -0.060 I 
ATOM     10  F2  UNL d   1      -1.135   2.014   0.016  0.00  0.00    -0.096 F 
ATOM     11  F3  UNL d   1      -2.491   0.199   1.499  0.00  0.00    -0.097 F 
ATOM     12  F4  UNL d   1      -1.588  -2.367   1.704  0.00  0.00    -0.092 F 
ENDROOT
TORSDOF 0
ENDMDL
