MODEL 1
REMARK minimizedAffinity 5.64503813
REMARK minimizedRMSD -1
REMARK  0 active torsions:
REMARK  status: ('A' for Active; 'I' for Inactive)
ROOT
ATOM      1  C   UNL d   1      -0.143  -2.554   1.213  0.00  0.00     0.124 A 
ATOM      2  C1  UNL d   1       0.718  -1.581   0.723  0.00  0.00     0.062 A 
ATOM      3  C2  UNL d   1       0.208  -0.425   0.140  0.00  0.00     0.162 A 
ATOM      4  C3  UNL d   1      -1.170  -0.234   0.044  0.00  0.00    -0.034 A 
ATOM      5  C4  UNL d   1      -2.030  -1.217   0.538  0.00  0.00     0.162 A 
ATOM      6  C5  UNL d   1      -1.515  -2.371   1.120  0.00  0.00     0.062 A 
ATOM      7  F   UNL d   1      -2.348  -3.309   1.593  0.00  0.00    -0.097 F 
ATOM      8  F1  UNL d   1      -3.360  -1.065   0.463  0.00  0.00    -0.096 F 
ATOM      9  I   UNL d   1      -1.937   1.494  -0.827  0.00  0.00    -0.060 I 
ATOM     10  F2  UNL d   1       1.063   0.498  -0.325  0.00  0.00    -0.096 F 
ATOM     11  F3  UNL d   1       2.044  -1.756   0.810  0.00  0.00    -0.097 F 
ATOM     12  F4  UNL d   1       0.350  -3.666   1.772  0.00  0.00    -0.092 F 
ENDROOT
TORSDOF 0
ENDMDL
