MODEL 1
REMARK minimizedAffinity -3.25616693
REMARK minimizedRMSD -1
REMARK  0 active torsions:
REMARK  status: ('A' for Active; 'I' for Inactive)
ROOT
ATOM      1  C   UNL d   1      -1.321  -1.576   0.662  0.00  0.00     0.124 A 
ATOM      2  C1  UNL d   1      -0.838  -2.066  -0.543  0.00  0.00     0.062 A 
ATOM      3  C2  UNL d   1      -0.127  -1.233  -1.403  0.00  0.00     0.162 A 
ATOM      4  C3  UNL d   1       0.107   0.099  -1.059  0.00  0.00    -0.034 A 
ATOM      5  C4  UNL d   1      -0.383   0.585   0.154  0.00  0.00     0.162 A 
ATOM      6  C5  UNL d   1      -1.094  -0.252   1.009  0.00  0.00     0.062 A 
ATOM      7  F   UNL d   1      -1.560   0.224   2.173  0.00  0.00    -0.097 F 
ATOM      8  F1  UNL d   1      -0.177   1.860   0.515  0.00  0.00    -0.096 F 
ATOM      9  I   UNL d   1       1.170   1.347  -2.341  0.00  0.00    -0.060 I 
ATOM     10  F2  UNL d   1       0.329  -1.733  -2.561  0.00  0.00    -0.096 F 
ATOM     11  F3  UNL d   1      -1.057  -3.344  -0.882  0.00  0.00    -0.097 F 
ATOM     12  F4  UNL d   1      -2.006  -2.379   1.486  0.00  0.00    -0.092 F 
ENDROOT
TORSDOF 0
ENDMDL
