MODEL 1
REMARK minimizedAffinity -3.30481076
REMARK minimizedRMSD -1
REMARK  0 active torsions:
REMARK  status: ('A' for Active; 'I' for Inactive)
ROOT
ATOM      1  C   UNL d   1      -1.301  -0.862   0.962  0.00  0.00     0.124 A 
ATOM      2  C1  UNL d   1      -0.226  -1.445   0.304  0.00  0.00     0.062 A 
ATOM      3  C2  UNL d   1       0.632  -0.664  -0.463  0.00  0.00     0.162 A 
ATOM      4  C3  UNL d   1       0.421   0.710  -0.578  0.00  0.00    -0.034 A 
ATOM      5  C4  UNL d   1      -0.663   1.289   0.086  0.00  0.00     0.162 A 
ATOM      6  C5  UNL d   1      -1.518   0.504   0.852  0.00  0.00     0.062 A 
ATOM      7  F   UNL d   1      -2.556   1.069   1.486  0.00  0.00    -0.097 F 
ATOM      8  F1  UNL d   1      -0.896   2.607  -0.003  0.00  0.00    -0.096 F 
ATOM      9  I   UNL d   1       1.702   1.882  -1.725  0.00  0.00    -0.060 I 
ATOM     10  F2  UNL d   1       1.663  -1.254  -1.088  0.00  0.00    -0.096 F 
ATOM     11  F3  UNL d   1      -0.014  -2.765   0.408  0.00  0.00    -0.097 F 
ATOM     12  F4  UNL d   1      -2.126  -1.617   1.699  0.00  0.00    -0.092 F 
ENDROOT
TORSDOF 0
ENDMDL
