MODEL 1
REMARK minimizedAffinity -2.8309865
REMARK minimizedRMSD -1
REMARK  0 active torsions:
REMARK  status: ('A' for Active; 'I' for Inactive)
ROOT
ATOM      1  C   UNL d   1      -1.551  -1.742   1.034  0.00  0.00     0.124 A 
ATOM      2  C1  UNL d   1      -0.363  -2.262   0.538  0.00  0.00     0.062 A 
ATOM      3  C2  UNL d   1       0.481  -1.466  -0.232  0.00  0.00     0.162 A 
ATOM      4  C3  UNL d   1       0.141  -0.142  -0.509  0.00  0.00    -0.034 A 
ATOM      5  C4  UNL d   1      -1.055   0.373  -0.008  0.00  0.00     0.162 A 
ATOM      6  C5  UNL d   1      -1.896  -0.426   0.761  0.00  0.00     0.062 A 
ATOM      7  F   UNL d   1      -3.043   0.077   1.239  0.00  0.00    -0.097 F 
ATOM      8  F1  UNL d   1      -1.413   1.642  -0.255  0.00  0.00    -0.096 F 
ATOM      9  I   UNL d   1       1.401   1.050  -1.659  0.00  0.00    -0.060 I 
ATOM     10  F2  UNL d   1       1.622  -1.995  -0.698  0.00  0.00    -0.096 F 
ATOM     11  F3  UNL d   1      -0.028  -3.533   0.799  0.00  0.00    -0.097 F 
ATOM     12  F4  UNL d   1      -2.362  -2.510   1.773  0.00  0.00    -0.092 F 
ENDROOT
TORSDOF 0
ENDMDL
