MODEL 1
REMARK minimizedAffinity -2.25544143
REMARK minimizedRMSD -1
REMARK  0 active torsions:
REMARK  status: ('A' for Active; 'I' for Inactive)
ROOT
ATOM      1  C   UNL d   1      -1.045  -1.077   1.104  0.00  0.00     0.124 A 
ATOM      2  C1  UNL d   1       0.144  -1.590   0.604  0.00  0.00     0.062 A 
ATOM      3  C2  UNL d   1       1.038  -0.759  -0.065  0.00  0.00     0.162 A 
ATOM      4  C3  UNL d   1       0.748   0.595  -0.237  0.00  0.00    -0.034 A 
ATOM      5  C4  UNL d   1      -0.451   1.103   0.268  0.00  0.00     0.162 A 
ATOM      6  C5  UNL d   1      -1.341   0.268   0.936  0.00  0.00     0.062 A 
ATOM      7  F   UNL d   1      -2.489   0.765   1.419  0.00  0.00    -0.097 F 
ATOM      8  F1  UNL d   1      -0.761   2.399   0.121  0.00  0.00    -0.096 F 
ATOM      9  I   UNL d   1       2.082   1.840  -1.236  0.00  0.00    -0.060 I 
ATOM     10  F2  UNL d   1       2.180  -1.281  -0.538  0.00  0.00    -0.096 F 
ATOM     11  F3  UNL d   1       0.432  -2.889   0.765  0.00  0.00    -0.097 F 
ATOM     12  F4  UNL d   1      -1.904  -1.879   1.747  0.00  0.00    -0.092 F 
ENDROOT
TORSDOF 0
ENDMDL
