MODEL 1
REMARK minimizedAffinity -5.43637848
REMARK minimizedRMSD -1
REMARK  0 active torsions:
REMARK  status: ('A' for Active; 'I' for Inactive)
ROOT
ATOM      1  C   UNL d   1      -1.175  -1.543   1.051  0.00  0.00     0.124 A 
ATOM      2  C1  UNL d   1       0.045  -1.984   0.558  0.00  0.00     0.062 A 
ATOM      3  C2  UNL d   1       0.901  -1.097  -0.089  0.00  0.00     0.162 A 
ATOM      4  C3  UNL d   1       0.540   0.241  -0.246  0.00  0.00    -0.034 A 
ATOM      5  C4  UNL d   1      -0.690   0.677   0.251  0.00  0.00     0.162 A 
ATOM      6  C5  UNL d   1      -1.541  -0.213   0.897  0.00  0.00     0.062 A 
ATOM      7  F   UNL d   1      -2.720   0.215   1.373  0.00  0.00    -0.097 F 
ATOM      8  F1  UNL d   1      -1.068   1.957   0.118  0.00  0.00    -0.096 F 
ATOM      9  I   UNL d   1       1.816   1.571  -1.213  0.00  0.00    -0.060 I 
ATOM     10  F2  UNL d   1       2.074  -1.551  -0.556  0.00  0.00    -0.096 F 
ATOM     11  F3  UNL d   1       0.401  -3.268   0.704  0.00  0.00    -0.097 F 
ATOM     12  F4  UNL d   1      -1.996  -2.399   1.672  0.00  0.00    -0.092 F 
ENDROOT
TORSDOF 0
ENDMDL
