MODEL 1
REMARK minimizedAffinity -0.772612095
REMARK minimizedRMSD -1
REMARK  0 active torsions:
REMARK  status: ('A' for Active; 'I' for Inactive)
ROOT
ATOM      1  C   UNL d   1      -1.598  -1.415   1.148  0.00  0.00     0.124 A 
ATOM      2  C1  UNL d   1      -0.311  -1.840   0.851  0.00  0.00     0.062 A 
ATOM      3  C2  UNL d   1       0.615  -0.950   0.315  0.00  0.00     0.162 A 
ATOM      4  C3  UNL d   1       0.257   0.376   0.073  0.00  0.00    -0.034 A 
ATOM      5  C4  UNL d   1      -1.040   0.797   0.373  0.00  0.00     0.162 A 
ATOM      6  C5  UNL d   1      -1.961  -0.097   0.909  0.00  0.00     0.062 A 
ATOM      7  F   UNL d   1      -3.205   0.316   1.195  0.00  0.00    -0.097 F 
ATOM      8  F1  UNL d   1      -1.417   2.065   0.153  0.00  0.00    -0.096 F 
ATOM      9  I   UNL d   1       1.638   1.711  -0.729  0.00  0.00    -0.060 I 
ATOM     10  F2  UNL d   1       1.852  -1.389   0.038  0.00  0.00    -0.096 F 
ATOM     11  F3  UNL d   1       0.043  -3.113   1.081  0.00  0.00    -0.097 F 
ATOM     12  F4  UNL d   1      -2.487  -2.274   1.663  0.00  0.00    -0.092 F 
ENDROOT
TORSDOF 0
ENDMDL
