MODEL 1
REMARK minimizedAffinity -3.06601119
REMARK minimizedRMSD -1
REMARK  2 active torsions:
REMARK  status: ('A' for Active; 'I' for Inactive)
REMARK    1  A    between atoms: C1_2  and  C2_3 
REMARK    2  A    between atoms: C2_3  and  C3_4 
ROOT
ATOM      1  C3  UNL d   1      -0.182   0.890  -0.340  0.00  0.00    -0.075 A 
ATOM      2  C4  UNL d   1      -1.015  -0.208  -0.597  0.00  0.00     0.002 A 
ATOM      3  C5  UNL d   1      -1.503  -0.988   0.452  0.00  0.00     0.002 A 
ATOM      4  C6  UNL d   1      -1.158  -0.686   1.767  0.00  0.00    -0.004 A 
ATOM      5  C7  UNL d   1      -0.318   0.393   2.033  0.00  0.00     0.002 A 
ATOM      6  C8  UNL d   1       0.169   1.178   0.985  0.00  0.00     0.002 A 
ENDROOT
BRANCH   1   7
ATOM      7  C2  UNL d   1       0.326   1.756  -1.469  0.00  0.00     0.056 C 
BRANCH   7   8
ATOM      8  C1  UNL d   1      -0.781   2.447  -2.272  0.00  0.00     0.007 C 
ATOM      9  C   UNL d   1      -0.757   3.964  -2.145  0.00  0.00     0.009 C 
ENDBRANCH   7   8
ENDBRANCH   1   7
TORSDOF 2
ENDMDL
