MODEL 1
REMARK minimizedAffinity -4.62291479
REMARK minimizedRMSD -1
REMARK  2 active torsions:
REMARK  status: ('A' for Active; 'I' for Inactive)
REMARK    1  A    between atoms: C1_2  and  C2_3 
REMARK    2  A    between atoms: C2_3  and  C3_4 
ROOT
ATOM      1  C3  UNL d   1      -0.265   0.909  -1.799  0.00  0.00    -0.075 A 
ATOM      2  C4  UNL d   1       0.850   1.755  -1.712  0.00  0.00     0.002 A 
ATOM      3  C5  UNL d   1       0.735   3.112  -2.018  0.00  0.00     0.002 A 
ATOM      4  C6  UNL d   1      -0.490   3.636  -2.424  0.00  0.00    -0.004 A 
ATOM      5  C7  UNL d   1      -1.601   2.801  -2.530  0.00  0.00     0.002 A 
ATOM      6  C8  UNL d   1      -1.490   1.445  -2.221  0.00  0.00     0.002 A 
ENDROOT
BRANCH   1   7
ATOM      7  C2  UNL d   1      -0.155  -0.554  -1.441  0.00  0.00     0.056 C 
BRANCH   7   8
ATOM      8  C1  UNL d   1       1.201  -1.180  -1.787  0.00  0.00     0.007 C 
ATOM      9  C   UNL d   1       1.980  -1.639  -0.561  0.00  0.00     0.009 C 
ENDBRANCH   7   8
ENDBRANCH   1   7
TORSDOF 2
ENDMDL
