MODEL 1
REMARK minimizedAffinity -4.39866066
REMARK minimizedRMSD -1
REMARK  2 active torsions:
REMARK  status: ('A' for Active; 'I' for Inactive)
REMARK    1  A    between atoms: C1_2  and  C2_3 
REMARK    2  A    between atoms: C2_3  and  C3_4 
ROOT
ATOM      1  C3  UNL d   1       0.821  -0.199   0.873  0.00  0.00    -0.075 A 
ATOM      2  C4  UNL d   1       0.742  -0.490   2.242  0.00  0.00     0.002 A 
ATOM      3  C5  UNL d   1       1.621  -1.405   2.823  0.00  0.00     0.002 A 
ATOM      4  C6  UNL d   1       2.580  -2.046   2.043  0.00  0.00    -0.004 A 
ATOM      5  C7  UNL d   1       2.657  -1.776   0.678  0.00  0.00     0.002 A 
ATOM      6  C8  UNL d   1       1.782  -0.858   0.095  0.00  0.00     0.002 A 
ENDROOT
BRANCH   1   7
ATOM      7  C2  UNL d   1      -0.108   0.812   0.243  0.00  0.00     0.056 C 
BRANCH   7   8
ATOM      8  C1  UNL d   1      -0.294   0.632  -1.267  0.00  0.00     0.007 C 
ATOM      9  C   UNL d   1      -0.527   1.945  -2.004  0.00  0.00     0.009 C 
ENDBRANCH   7   8
ENDBRANCH   1   7
TORSDOF 2
ENDMDL
