MODEL 1
REMARK minimizedAffinity -5.33752632
REMARK minimizedRMSD -1
REMARK  2 active torsions:
REMARK  status: ('A' for Active; 'I' for Inactive)
REMARK    1  A    between atoms: C1_2  and  C2_3 
REMARK    2  A    between atoms: C2_3  and  C3_4 
ROOT
ATOM      1  C3  UNL d   1       0.204   0.011   0.057  0.00  0.00    -0.075 A 
ATOM      2  C4  UNL d   1      -0.025   0.381   1.390  0.00  0.00     0.002 A 
ATOM      3  C5  UNL d   1       0.722  -0.189   2.421  0.00  0.00     0.002 A 
ATOM      4  C6  UNL d   1       1.698  -1.141   2.135  0.00  0.00    -0.004 A 
ATOM      5  C7  UNL d   1       1.922  -1.528   0.816  0.00  0.00     0.002 A 
ATOM      6  C8  UNL d   1       1.180  -0.956  -0.219  0.00  0.00     0.002 A 
ENDROOT
BRANCH   1   7
ATOM      7  C2  UNL d   1      -0.581   0.646  -1.067  0.00  0.00     0.056 C 
BRANCH   7   8
ATOM      8  C1  UNL d   1      -0.122   2.063  -1.424  0.00  0.00     0.007 C 
ATOM      9  C   UNL d   1      -1.118   2.813  -2.300  0.00  0.00     0.009 C 
ENDBRANCH   7   8
ENDBRANCH   1   7
TORSDOF 2
ENDMDL
