MODEL 1
REMARK minimizedAffinity -3.40403724
REMARK minimizedRMSD -1
REMARK  2 active torsions:
REMARK  status: ('A' for Active; 'I' for Inactive)
REMARK    1  A    between atoms: C1_2  and  C2_3 
REMARK    2  A    between atoms: C2_3  and  C3_4 
ROOT
ATOM      1  C3  UNL d   1      -0.610   0.252  -0.287  0.00  0.00    -0.075 A 
ATOM      2  C4  UNL d   1      -1.326   0.441   0.904  0.00  0.00     0.002 A 
ATOM      3  C5  UNL d   1      -0.889  -0.143   2.093  0.00  0.00     0.002 A 
ATOM      4  C6  UNL d   1       0.260  -0.929   2.106  0.00  0.00    -0.004 A 
ATOM      5  C7  UNL d   1       0.970  -1.138   0.925  0.00  0.00     0.002 A 
ATOM      6  C8  UNL d   1       0.538  -0.551  -0.266  0.00  0.00     0.002 A 
ENDROOT
BRANCH   1   7
ATOM      7  C2  UNL d   1      -1.061   0.905  -1.572  0.00  0.00     0.056 C 
BRANCH   7   8
ATOM      8  C1  UNL d   1      -0.396   2.257  -1.851  0.00  0.00     0.007 C 
ATOM      9  C   UNL d   1      -1.283   3.212  -2.639  0.00  0.00     0.009 C 
ENDBRANCH   7   8
ENDBRANCH   1   7
TORSDOF 2
ENDMDL
