MODEL 1
REMARK minimizedAffinity -3.84596515
REMARK minimizedRMSD -1
REMARK  2 active torsions:
REMARK  status: ('A' for Active; 'I' for Inactive)
REMARK    1  A    between atoms: C1_2  and  C2_3 
REMARK    2  A    between atoms: C2_3  and  C3_4 
ROOT
ATOM      1  C3  UNL d   1      -0.104  -0.315  -0.435  0.00  0.00    -0.075 A 
ATOM      2  C4  UNL d   1       0.925  -1.218  -0.735  0.00  0.00     0.002 A 
ATOM      3  C5  UNL d   1       1.498  -1.999   0.269  0.00  0.00     0.002 A 
ATOM      4  C6  UNL d   1       1.058  -1.878   1.586  0.00  0.00    -0.004 A 
ATOM      5  C7  UNL d   1       0.048  -0.972   1.898  0.00  0.00     0.002 A 
ATOM      6  C8  UNL d   1      -0.531  -0.193   0.895  0.00  0.00     0.002 A 
ENDROOT
BRANCH   1   7
ATOM      7  C2  UNL d   1      -0.749   0.511  -1.522  0.00  0.00     0.056 C 
BRANCH   7   8
ATOM      8  C1  UNL d   1      -0.008   1.815  -1.838  0.00  0.00     0.007 C 
ATOM      9  C   UNL d   1      -0.825   2.780  -2.685  0.00  0.00     0.009 C 
ENDBRANCH   7   8
ENDBRANCH   1   7
TORSDOF 2
ENDMDL
