MODEL 1
REMARK minimizedAffinity -2.78616023
REMARK minimizedRMSD -1
REMARK  2 active torsions:
REMARK  status: ('A' for Active; 'I' for Inactive)
REMARK    1  A    between atoms: C1_2  and  C2_3 
REMARK    2  A    between atoms: C2_3  and  C3_4 
ROOT
ATOM      1  C3  UNL d   1       1.017  -0.425   0.702  0.00  0.00    -0.075 A 
ATOM      2  C4  UNL d   1       0.252  -0.146   1.844  0.00  0.00     0.002 A 
ATOM      3  C5  UNL d   1       0.493  -0.822   3.041  0.00  0.00     0.002 A 
ATOM      4  C6  UNL d   1       1.492  -1.790   3.108  0.00  0.00    -0.004 A 
ATOM      5  C7  UNL d   1       2.248  -2.087   1.976  0.00  0.00     0.002 A 
ATOM      6  C8  UNL d   1       2.012  -1.409   0.778  0.00  0.00     0.002 A 
ENDROOT
BRANCH   1   7
ATOM      7  C2  UNL d   1       0.781   0.324  -0.588  0.00  0.00     0.056 C 
BRANCH   7   8
ATOM      8  C1  UNL d   1      -0.613   0.112  -1.186  0.00  0.00     0.007 C 
ATOM      9  C   UNL d   1      -1.123   1.318  -1.964  0.00  0.00     0.009 C 
ENDBRANCH   7   8
ENDBRANCH   1   7
TORSDOF 2
ENDMDL
