MODEL 1
REMARK minimizedAffinity -2.26588774
REMARK minimizedRMSD -1
REMARK  2 active torsions:
REMARK  status: ('A' for Active; 'I' for Inactive)
REMARK    1  A    between atoms: C1_2  and  C2_3 
REMARK    2  A    between atoms: C2_3  and  C3_4 
ROOT
ATOM      1  C3  UNL d   1      -0.920   0.432  -1.218  0.00  0.00    -0.075 A 
ATOM      2  C4  UNL d   1      -1.182   0.839   0.098  0.00  0.00     0.002 A 
ATOM      3  C5  UNL d   1      -0.535   0.225   1.171  0.00  0.00     0.002 A 
ATOM      4  C6  UNL d   1       0.372  -0.808   0.943  0.00  0.00    -0.004 A 
ATOM      5  C7  UNL d   1       0.627  -1.232  -0.360  0.00  0.00     0.002 A 
ATOM      6  C8  UNL d   1      -0.016  -0.616  -1.435  0.00  0.00     0.002 A 
ENDROOT
BRANCH   1   7
ATOM      7  C2  UNL d   1      -1.595   1.112  -2.386  0.00  0.00     0.056 C 
BRANCH   7   8
ATOM      8  C1  UNL d   1      -0.795   2.279  -2.975  0.00  0.00     0.007 C 
ATOM      9  C   UNL d   1      -0.983   3.582  -2.209  0.00  0.00     0.009 C 
ENDBRANCH   7   8
ENDBRANCH   1   7
TORSDOF 2
ENDMDL
