MODEL 1
REMARK minimizedAffinity -4.53555393
REMARK minimizedRMSD -1
REMARK  0 active torsions:
REMARK  status: ('A' for Active; 'I' for Inactive)
ROOT
ATOM      1  C   UNL d   1       0.616  -1.644   1.597  0.00  0.00     0.020 A 
ATOM      2  C1  UNL d   1       1.978  -1.936   1.523  0.00  0.00     0.020 A 
ATOM      3  C2  UNL d   1       2.828  -1.117   0.778  0.00  0.00     0.034 A 
ATOM      4  C3  UNL d   1       2.318  -0.001   0.104  0.00  0.00     0.017 A 
ATOM      5  C4  UNL d   1       0.952   0.292   0.179  0.00  0.00     0.017 A 
ATOM      6  C5  UNL d   1       0.105  -0.532   0.926  0.00  0.00     0.034 A 
ATOM      7 Cl   UNL d   1       0.249   1.651  -0.626  0.00  0.00    -0.070 Cl
ATOM      8 Cl1  UNL d   1       3.428   0.969  -0.799  0.00  0.00    -0.070 Cl
ENDROOT
TORSDOF 0
ENDMDL
