MODEL 1
REMARK minimizedAffinity -3.82413745
REMARK minimizedRMSD -1
REMARK  0 active torsions:
REMARK  status: ('A' for Active; 'I' for Inactive)
ROOT
ATOM      1  C   UNL d   1      -0.216   3.487  -2.271  0.00  0.00     0.020 A 
ATOM      2  C1  UNL d   1      -0.887   3.153  -3.447  0.00  0.00     0.020 A 
ATOM      3  C2  UNL d   1      -1.572   1.940  -3.539  0.00  0.00     0.034 A 
ATOM      4  C3  UNL d   1      -1.587   1.056  -2.454  0.00  0.00     0.017 A 
ATOM      5  C4  UNL d   1      -0.913   1.392  -1.275  0.00  0.00     0.017 A 
ATOM      6  C5  UNL d   1      -0.229   2.608  -1.187  0.00  0.00     0.034 A 
ATOM      7 Cl   UNL d   1      -0.887   0.353   0.106  0.00  0.00    -0.070 Cl
ATOM      8 Cl1  UNL d   1      -2.454  -0.428  -2.638  0.00  0.00    -0.070 Cl
ENDROOT
TORSDOF 0
ENDMDL
