MODEL 1
REMARK minimizedAffinity -5.4773469
REMARK minimizedRMSD -1
REMARK  0 active torsions:
REMARK  status: ('A' for Active; 'I' for Inactive)
ROOT
ATOM      1  C   UNL d   1      -0.858   1.196   0.747  0.00  0.00     0.020 A 
ATOM      2  C1  UNL d   1      -1.228   0.183   1.631  0.00  0.00     0.020 A 
ATOM      3  C2  UNL d   1      -0.457  -0.977   1.726  0.00  0.00     0.034 A 
ATOM      4  C3  UNL d   1       0.689  -1.127   0.935  0.00  0.00     0.017 A 
ATOM      5  C4  UNL d   1       1.059  -0.110   0.048  0.00  0.00     0.017 A 
ATOM      6  C5  UNL d   1       0.283   1.050  -0.042  0.00  0.00     0.034 A 
ATOM      7 Cl   UNL d   1       2.458  -0.223  -0.960  0.00  0.00    -0.070 Cl
ATOM      8 Cl1  UNL d   1       1.596  -2.588   1.104  0.00  0.00    -0.070 Cl
ENDROOT
TORSDOF 0
ENDMDL
