MODEL 1
REMARK minimizedAffinity -4.91267824
REMARK minimizedRMSD -1
REMARK  0 active torsions:
REMARK  status: ('A' for Active; 'I' for Inactive)
ROOT
ATOM      1  C   UNL d   1      -0.560   1.495   0.305  0.00  0.00     0.020 A 
ATOM      2  C1  UNL d   1      -1.076   0.498   1.133  0.00  0.00     0.020 A 
ATOM      3  C2  UNL d   1      -0.327  -0.651   1.393  0.00  0.00     0.034 A 
ATOM      4  C3  UNL d   1       0.943  -0.806   0.826  0.00  0.00     0.017 A 
ATOM      5  C4  UNL d   1       1.460   0.194  -0.005  0.00  0.00     0.017 A 
ATOM      6  C5  UNL d   1       0.706   1.343  -0.262  0.00  0.00     0.034 A 
ATOM      7 Cl   UNL d   1       3.019   0.073  -0.741  0.00  0.00    -0.070 Cl
ATOM      8 Cl1  UNL d   1       1.815  -2.253   1.191  0.00  0.00    -0.070 Cl
ENDROOT
TORSDOF 0
ENDMDL
