MODEL 1
REMARK minimizedAffinity -1.51143122
REMARK minimizedRMSD -1
REMARK  0 active torsions:
REMARK  status: ('A' for Active; 'I' for Inactive)
ROOT
ATOM      1  C   UNL d   1      -0.341   1.298  -0.977  0.00  0.00     0.020 A 
ATOM      2  C1  UNL d   1       0.962   0.950  -1.330  0.00  0.00     0.020 A 
ATOM      3  C2  UNL d   1       1.645  -0.026  -0.601  0.00  0.00     0.034 A 
ATOM      4  C3  UNL d   1       1.025  -0.657   0.484  0.00  0.00     0.017 A 
ATOM      5  C4  UNL d   1      -0.283  -0.306   0.837  0.00  0.00     0.017 A 
ATOM      6  C5  UNL d   1      -0.962   0.671   0.104  0.00  0.00     0.034 A 
ATOM      7 Cl   UNL d   1      -1.113  -1.040   2.163  0.00  0.00    -0.070 Cl
ATOM      8 Cl1  UNL d   1       1.929  -1.854   1.341  0.00  0.00    -0.070 Cl
ENDROOT
TORSDOF 0
ENDMDL
