MODEL 1
REMARK minimizedAffinity -2.39233732
REMARK minimizedRMSD -1
REMARK  0 active torsions:
REMARK  status: ('A' for Active; 'I' for Inactive)
ROOT
ATOM      1  C   UNL d   1      -0.372   1.183  -0.249  0.00  0.00     0.020 A 
ATOM      2  C1  UNL d   1       0.922   0.828  -0.627  0.00  0.00     0.020 A 
ATOM      3  C2  UNL d   1       1.475  -0.374  -0.179  0.00  0.00     0.034 A 
ATOM      4  C3  UNL d   1       0.733  -1.225   0.648  0.00  0.00     0.017 A 
ATOM      5  C4  UNL d   1      -0.566  -0.868   1.026  0.00  0.00     0.017 A 
ATOM      6  C5  UNL d   1      -1.114   0.337   0.575  0.00  0.00     0.034 A 
ATOM      7 Cl   UNL d   1      -1.543  -1.866   2.045  0.00  0.00    -0.070 Cl
ATOM      8 Cl1  UNL d   1       1.479  -2.696   1.164  0.00  0.00    -0.070 Cl
ENDROOT
TORSDOF 0
ENDMDL
