MODEL 1
REMARK minimizedAffinity -4.055161
REMARK minimizedRMSD -1
REMARK  0 active torsions:
REMARK  status: ('A' for Active; 'I' for Inactive)
ROOT
ATOM      1  C   UNL d   1      -0.059   1.044  -0.110  0.00  0.00     0.020 A 
ATOM      2  C1  UNL d   1      -0.981   0.031   0.149  0.00  0.00     0.020 A 
ATOM      3  C2  UNL d   1      -0.548  -1.290   0.279  0.00  0.00     0.034 A 
ATOM      4  C3  UNL d   1       0.810  -1.602   0.150  0.00  0.00     0.017 A 
ATOM      5  C4  UNL d   1       1.735  -0.584  -0.110  0.00  0.00     0.017 A 
ATOM      6  C5  UNL d   1       1.296   0.737  -0.239  0.00  0.00     0.034 A 
ATOM      7 Cl   UNL d   1       3.427  -0.892  -0.283  0.00  0.00    -0.070 Cl
ATOM      8 Cl1  UNL d   1       1.274  -3.257   0.323  0.00  0.00    -0.070 Cl
ENDROOT
TORSDOF 0
ENDMDL
