MODEL 1
REMARK minimizedAffinity -3.66214037
REMARK minimizedRMSD -1
REMARK  0 active torsions:
REMARK  status: ('A' for Active; 'I' for Inactive)
ROOT
ATOM      1  C   UNL d   1      -0.954   1.270  -0.273  0.00  0.00     0.020 A 
ATOM      2  C1  UNL d   1       0.159   0.756  -0.937  0.00  0.00     0.020 A 
ATOM      3  C2  UNL d   1       0.714  -0.460  -0.533  0.00  0.00     0.034 A 
ATOM      4  C3  UNL d   1       0.155  -1.166   0.539  0.00  0.00     0.017 A 
ATOM      5  C4  UNL d   1      -0.963  -0.650   1.204  0.00  0.00     0.017 A 
ATOM      6  C5  UNL d   1      -1.514   0.568   0.795  0.00  0.00     0.034 A 
ATOM      7 Cl   UNL d   1      -1.707  -1.465   2.535  0.00  0.00    -0.070 Cl
ATOM      8 Cl1  UNL d   1       0.893  -2.664   0.985  0.00  0.00    -0.070 Cl
ENDROOT
TORSDOF 0
ENDMDL
