MODEL 1
REMARK minimizedAffinity -4.20705843
REMARK minimizedRMSD -1
REMARK  0 active torsions:
REMARK  status: ('A' for Active; 'I' for Inactive)
ROOT
ATOM      1  C   UNL d   1      -1.335  -0.057   0.896  0.00  0.00     0.020 A 
ATOM      2  C1  UNL d   1      -0.811   1.073   0.268  0.00  0.00     0.020 A 
ATOM      3  C2  UNL d   1       0.487   1.047  -0.246  0.00  0.00     0.034 A 
ATOM      4  C3  UNL d   1       1.265  -0.110  -0.135  0.00  0.00     0.017 A 
ATOM      5  C4  UNL d   1       0.739  -1.244   0.495  0.00  0.00     0.017 A 
ATOM      6  C5  UNL d   1      -0.561  -1.212   1.009  0.00  0.00     0.034 A 
ATOM      7 Cl   UNL d   1       1.639  -2.709   0.671  0.00  0.00    -0.070 Cl
ATOM      8 Cl1  UNL d   1       2.862  -0.072  -0.794  0.00  0.00    -0.070 Cl
ENDROOT
TORSDOF 0
ENDMDL
