MODEL 1
REMARK minimizedAffinity -0.706230283
REMARK minimizedRMSD -1
REMARK  0 active torsions:
REMARK  status: ('A' for Active; 'I' for Inactive)
ROOT
ATOM      1  C   UNL d   1      -0.456   4.297  -4.852  0.00  0.00     0.020 A 
ATOM      2  C1  UNL d   1       0.540   4.316  -3.877  0.00  0.00     0.020 A 
ATOM      3  C2  UNL d   1       0.476   3.434  -2.796  0.00  0.00     0.034 A 
ATOM      4  C3  UNL d   1      -0.586   2.529  -2.688  0.00  0.00     0.017 A 
ATOM      5  C4  UNL d   1      -1.586   2.511  -3.668  0.00  0.00     0.017 A 
ATOM      6  C5  UNL d   1      -1.517   3.397  -4.748  0.00  0.00     0.034 A 
ATOM      7 Cl   UNL d   1      -2.927   1.423  -3.603  0.00  0.00    -0.070 Cl
ATOM      8 Cl1  UNL d   1      -0.601   1.467  -1.325  0.00  0.00    -0.070 Cl
ENDROOT
TORSDOF 0
ENDMDL
