MODEL 1
REMARK minimizedAffinity -3.5314467
REMARK minimizedRMSD -1
REMARK  0 active torsions:
REMARK  status: ('A' for Active; 'I' for Inactive)
ROOT
ATOM      1  C   UNL d   1       0.127   1.104  -0.117  0.00  0.00     0.020 A 
ATOM      2  C1  UNL d   1      -0.846   0.273   0.438  0.00  0.00     0.020 A 
ATOM      3  C2  UNL d   1      -0.506  -1.011   0.866  0.00  0.00     0.034 A 
ATOM      4  C3  UNL d   1       0.810  -1.470   0.740  0.00  0.00     0.017 A 
ATOM      5  C4  UNL d   1       1.787  -0.636   0.183  0.00  0.00     0.017 A 
ATOM      6  C5  UNL d   1       1.441   0.649  -0.244  0.00  0.00     0.034 A 
ATOM      7 Cl   UNL d   1       3.432  -1.132  -0.005  0.00  0.00    -0.070 Cl
ATOM      8 Cl1  UNL d   1       1.160  -3.070   1.291  0.00  0.00    -0.070 Cl
ENDROOT
TORSDOF 0
ENDMDL
