MODEL 1
REMARK minimizedAffinity -1.024822
REMARK minimizedRMSD -1
REMARK  0 active torsions:
REMARK  status: ('A' for Active; 'I' for Inactive)
ROOT
ATOM      1  C   UNL d   1       0.264  -3.101   0.759  0.00  0.00     0.020 A 
ATOM      2  C1  UNL d   1      -0.835  -2.246   0.830  0.00  0.00     0.020 A 
ATOM      3  C2  UNL d   1      -0.667  -0.874   0.630  0.00  0.00     0.034 A 
ATOM      4  C3  UNL d   1       0.604  -0.353   0.360  0.00  0.00     0.017 A 
ATOM      5  C4  UNL d   1       1.706  -1.212   0.290  0.00  0.00     0.017 A 
ATOM      6  C5  UNL d   1       1.532  -2.585   0.490  0.00  0.00     0.034 A 
ATOM      7 Cl   UNL d   1       3.305  -0.643  -0.040  0.00  0.00    -0.070 Cl
ATOM      8 Cl1  UNL d   1       0.739   1.353   0.124  0.00  0.00    -0.070 Cl
ENDROOT
TORSDOF 0
ENDMDL
