MODEL 1
REMARK minimizedAffinity -3.46730208
REMARK minimizedRMSD -1
REMARK  0 active torsions:
REMARK  status: ('A' for Active; 'I' for Inactive)
ROOT
ATOM      1  C   UNL d   1       0.737  -2.872   0.598  0.00  0.00     0.020 A 
ATOM      2  C1  UNL d   1      -0.558  -2.374   0.737  0.00  0.00     0.020 A 
ATOM      3  C2  UNL d   1      -0.792  -1.000   0.644  0.00  0.00     0.034 A 
ATOM      4  C3  UNL d   1       0.271  -0.120   0.411  0.00  0.00     0.017 A 
ATOM      5  C4  UNL d   1       1.570  -0.620   0.272  0.00  0.00     0.017 A 
ATOM      6  C5  UNL d   1       1.799  -1.996   0.366  0.00  0.00     0.034 A 
ATOM      7 Cl   UNL d   1       2.932   0.404  -0.017  0.00  0.00    -0.070 Cl
ATOM      8 Cl1  UNL d   1      -0.091   1.567   0.307  0.00  0.00    -0.070 Cl
ENDROOT
TORSDOF 0
ENDMDL
