MODEL 1
REMARK minimizedAffinity -3.95259953
REMARK minimizedRMSD -1
REMARK  0 active torsions:
REMARK  status: ('A' for Active; 'I' for Inactive)
ROOT
ATOM      1  C   UNL d   1       0.298   0.817  -0.160  0.00  0.00     0.020 A 
ATOM      2  C1  UNL d   1      -0.722  -0.118   0.009  0.00  0.00     0.020 A 
ATOM      3  C2  UNL d   1      -0.411  -1.439   0.340  0.00  0.00     0.034 A 
ATOM      4  C3  UNL d   1       0.924  -1.827   0.504  0.00  0.00     0.017 A 
ATOM      5  C4  UNL d   1       1.947  -0.888   0.334  0.00  0.00     0.017 A 
ATOM      6  C5  UNL d   1       1.630   0.433   0.002  0.00  0.00     0.034 A 
ATOM      7 Cl   UNL d   1       3.617  -1.293   0.519  0.00  0.00    -0.070 Cl
ATOM      8 Cl1  UNL d   1       1.236  -3.477   0.914  0.00  0.00    -0.070 Cl
ENDROOT
TORSDOF 0
ENDMDL
