MODEL 1
REMARK minimizedAffinity -3.74094582
REMARK minimizedRMSD -1
REMARK  0 active torsions:
REMARK  status: ('A' for Active; 'I' for Inactive)
ROOT
ATOM      1  C   UNL d   1       1.979  -1.063  -0.340  0.00  0.00     0.020 A 
ATOM      2  C1  UNL d   1       1.857  -2.054   0.634  0.00  0.00     0.020 A 
ATOM      3  C2  UNL d   1       0.719  -2.104   1.441  0.00  0.00     0.034 A 
ATOM      4  C3  UNL d   1      -0.303  -1.162   1.276  0.00  0.00     0.017 A 
ATOM      5  C4  UNL d   1      -0.180  -0.167   0.299  0.00  0.00     0.017 A 
ATOM      6  C5  UNL d   1       0.962  -0.122  -0.506  0.00  0.00     0.034 A 
ATOM      7 Cl   UNL d   1      -1.398   1.030   0.037  0.00  0.00    -0.070 Cl
ATOM      8 Cl1  UNL d   1      -1.682  -1.284   2.309  0.00  0.00    -0.070 Cl
ENDROOT
TORSDOF 0
ENDMDL
