MODEL 1
REMARK minimizedAffinity 0.0476294048
REMARK minimizedRMSD -1
REMARK  0 active torsions:
REMARK  status: ('A' for Active; 'I' for Inactive)
ROOT
ATOM      1  C   UNL d   1      -0.709   0.121  -0.391  0.00  0.00     0.020 A 
ATOM      2  C1  UNL d   1      -0.549  -1.114   0.236  0.00  0.00     0.020 A 
ATOM      3  C2  UNL d   1       0.691  -1.472   0.768  0.00  0.00     0.034 A 
ATOM      4  C3  UNL d   1       1.777  -0.594   0.675  0.00  0.00     0.017 A 
ATOM      5  C4  UNL d   1       1.616   0.646   0.046  0.00  0.00     0.017 A 
ATOM      6  C5  UNL d   1       0.371   0.999  -0.485  0.00  0.00     0.034 A 
ATOM      7 Cl   UNL d   1       2.909   1.783  -0.107  0.00  0.00    -0.070 Cl
ATOM      8 Cl1  UNL d   1       3.281  -1.101   1.356  0.00  0.00    -0.070 Cl
ENDROOT
TORSDOF 0
ENDMDL
