MODEL 1
REMARK minimizedAffinity 4.7651906
REMARK minimizedRMSD -1
REMARK  1 active torsions:
REMARK  status: ('A' for Active; 'I' for Inactive)
REMARK    1  A    between atoms: C1_2  and  C2_3 
ROOT
ATOM      1  C2  UNL d   1       0.731  -2.143   2.156  0.00  0.00    -0.081 A 
ATOM      2  C3  UNL d   1       0.271  -3.459   2.293  0.00  0.00     0.006 A 
ATOM      3  C4  UNL d   1       0.917  -4.507   1.633  0.00  0.00     0.002 A 
ATOM      4  C5  UNL d   1       2.036  -4.260   0.832  0.00  0.00    -0.080 A 
ATOM      5  C6  UNL d   1       2.756  -5.380   0.142  0.00  0.00     0.076 C 
ATOM      6  C7  UNL d   1       2.485  -2.943   0.680  0.00  0.00     0.002 A 
ATOM      7  C8  UNL d   1       1.840  -1.894   1.339  0.00  0.00     0.006 A 
ENDROOT
BRANCH   1   8
ATOM      8  C1  UNL d   1       0.077  -1.019   2.917  0.00  0.00     0.054 C 
ATOM      9  C   UNL d   1      -1.343  -1.382   3.329  0.00  0.00     0.018 C 
ENDBRANCH   1   8
TORSDOF 1
ENDMDL
