MODEL 1
REMARK minimizedAffinity 6.37120581
REMARK minimizedRMSD -1
REMARK  1 active torsions:
REMARK  status: ('A' for Active; 'I' for Inactive)
REMARK    1  A    between atoms: C1_2  and  C2_3 
ROOT
ATOM      1  C2  UNL d   1       4.193  -2.839   0.542  0.00  0.00    -0.081 A 
ATOM      2  C3  UNL d   1       3.332  -3.931   0.378  0.00  0.00     0.006 A 
ATOM      3  C4  UNL d   1       1.949  -3.767   0.496  0.00  0.00     0.002 A 
ATOM      4  C5  UNL d   1       1.405  -2.508   0.772  0.00  0.00    -0.080 A 
ATOM      5  C6  UNL d   1      -0.079  -2.313   0.871  0.00  0.00     0.076 C 
ATOM      6  C7  UNL d   1       2.266  -1.421   0.953  0.00  0.00     0.002 A 
ATOM      7  C8  UNL d   1       3.648  -1.584   0.836  0.00  0.00     0.006 A 
ENDROOT
BRANCH   1   8
ATOM      8  C1  UNL d   1       5.679  -3.000   0.351  0.00  0.00     0.054 C 
ATOM      9  C   UNL d   1       6.000  -4.229  -0.487  0.00  0.00     0.018 C 
ENDBRANCH   1   8
TORSDOF 1
ENDMDL
