MODEL 1
REMARK minimizedAffinity 16.5124588
REMARK minimizedRMSD -1
REMARK  1 active torsions:
REMARK  status: ('A' for Active; 'I' for Inactive)
REMARK    1  A    between atoms: C1_2  and  C2_3 
ROOT
ATOM      1  C2  UNL d   1       1.814  -3.043   0.890  0.00  0.00    -0.081 A 
ATOM      2  C3  UNL d   1       0.493  -2.678   1.180  0.00  0.00     0.006 A 
ATOM      3  C4  UNL d   1       0.225  -1.547   1.955  0.00  0.00     0.002 A 
ATOM      4  C5  UNL d   1       1.271  -0.759   2.447  0.00  0.00    -0.080 A 
ATOM      5  C6  UNL d   1       0.996   0.474   3.255  0.00  0.00     0.076 C 
ATOM      6  C7  UNL d   1       2.590  -1.134   2.172  0.00  0.00     0.002 A 
ATOM      7  C8  UNL d   1       2.859  -2.264   1.397  0.00  0.00     0.006 A 
ENDROOT
BRANCH   1   8
ATOM      8  C1  UNL d   1       2.105  -4.225   0.001  0.00  0.00     0.054 C 
ATOM      9  C   UNL d   1       2.194  -5.514   0.805  0.00  0.00     0.018 C 
ENDBRANCH   1   8
TORSDOF 1
ENDMDL
