MODEL 1
REMARK minimizedAffinity 6.22969294
REMARK minimizedRMSD -1
REMARK  1 active torsions:
REMARK  status: ('A' for Active; 'I' for Inactive)
REMARK    1  A    between atoms: C1_2  and  C2_3 
ROOT
ATOM      1  C2  UNL d   1       2.829  -2.531   1.199  0.00  0.00    -0.081 A 
ATOM      2  C3  UNL d   1       2.749  -1.990   2.488  0.00  0.00     0.006 A 
ATOM      3  C4  UNL d   1       1.537  -1.493   2.973  0.00  0.00     0.002 A 
ATOM      4  C5  UNL d   1       0.385  -1.534   2.180  0.00  0.00    -0.080 A 
ATOM      5  C6  UNL d   1      -0.929  -1.031   2.700  0.00  0.00     0.076 C 
ATOM      6  C7  UNL d   1       0.469  -2.058   0.886  0.00  0.00     0.002 A 
ATOM      7  C8  UNL d   1       1.680  -2.555   0.400  0.00  0.00     0.006 A 
ENDROOT
BRANCH   1   8
ATOM      8  C1  UNL d   1       4.120  -3.127   0.697  0.00  0.00     0.054 C 
ATOM      9  C   UNL d   1       5.162  -2.050   0.435  0.00  0.00     0.018 C 
ENDBRANCH   1   8
TORSDOF 1
ENDMDL
