MODEL 1
REMARK minimizedAffinity 13.6748114
REMARK minimizedRMSD -1
REMARK  1 active torsions:
REMARK  status: ('A' for Active; 'I' for Inactive)
REMARK    1  A    between atoms: C1_2  and  C2_3 
ROOT
ATOM      1  C2  UNL d   1       3.123  -2.298   0.242  0.00  0.00    -0.081 A 
ATOM      2  C3  UNL d   1       2.408  -3.072  -0.681  0.00  0.00     0.006 A 
ATOM      3  C4  UNL d   1       1.068  -2.789  -0.955  0.00  0.00     0.002 A 
ATOM      4  C5  UNL d   1       0.423  -1.724  -0.317  0.00  0.00    -0.080 A 
ATOM      5  C6  UNL d   1      -1.007  -1.390  -0.625  0.00  0.00     0.076 C 
ATOM      6  C7  UNL d   1       1.132  -0.962   0.618  0.00  0.00     0.002 A 
ATOM      7  C8  UNL d   1       2.472  -1.245   0.892  0.00  0.00     0.006 A 
ENDROOT
BRANCH   1   8
ATOM      8  C1  UNL d   1       4.586  -2.561   0.491  0.00  0.00     0.054 C 
ATOM      9  C   UNL d   1       5.444  -2.043  -0.654  0.00  0.00     0.018 C 
ENDBRANCH   1   8
TORSDOF 1
ENDMDL
