MODEL 1
REMARK minimizedAffinity 6.1958766
REMARK minimizedRMSD -1
REMARK  1 active torsions:
REMARK  status: ('A' for Active; 'I' for Inactive)
REMARK    1  A    between atoms: C1_2  and  C2_3 
ROOT
ATOM      1  C2  UNL d   1       1.509   2.679  -0.211  0.00  0.00    -0.077 A 
ATOM      2  C3  UNL d   1       1.869   3.647  -1.159  0.00  0.00     0.002 A 
ATOM      3  C4  UNL d   1       0.910   4.177  -2.025  0.00  0.00     0.002 A 
ATOM      4  C5  UNL d   1      -0.413   3.749  -1.949  0.00  0.00    -0.004 A 
ATOM      5  C6  UNL d   1      -0.780   2.785  -1.011  0.00  0.00     0.002 A 
ATOM      6  C7  UNL d   1       0.177   2.253  -0.145  0.00  0.00     0.002 A 
ENDROOT
BRANCH   1   7
ATOM      7  C1  UNL d   1       2.532   2.142   0.756  0.00  0.00     0.055 C 
ATOM      8  C   UNL d   1       1.952   2.011   2.157  0.00  0.00     0.019 C 
ENDBRANCH   1   7
TORSDOF 1
ENDMDL
