MODEL 1
REMARK minimizedAffinity -1.89357841
REMARK minimizedRMSD -1
REMARK  1 active torsions:
REMARK  status: ('A' for Active; 'I' for Inactive)
REMARK    1  A    between atoms: C1_2  and  C2_3 
ROOT
ATOM      1  C2  UNL d   1       0.654   4.619  -0.533  0.00  0.00    -0.077 A 
ATOM      2  C3  UNL d   1      -0.210   3.672  -1.102  0.00  0.00     0.002 A 
ATOM      3  C4  UNL d   1      -0.350   2.408  -0.525  0.00  0.00     0.002 A 
ATOM      4  C5  UNL d   1       0.366   2.081   0.624  0.00  0.00    -0.004 A 
ATOM      5  C6  UNL d   1       1.229   3.015   1.196  0.00  0.00     0.002 A 
ATOM      6  C7  UNL d   1       1.372   4.279   0.620  0.00  0.00     0.002 A 
ENDROOT
BRANCH   1   7
ATOM      7  C1  UNL d   1       0.769   5.999  -1.125  0.00  0.00     0.055 C 
ATOM      8  C   UNL d   1       0.408   5.999  -2.604  0.00  0.00     0.019 C 
ENDBRANCH   1   7
TORSDOF 1
ENDMDL
