MODEL 1
REMARK minimizedAffinity -0.0186037254
REMARK minimizedRMSD -1
REMARK  1 active torsions:
REMARK  status: ('A' for Active; 'I' for Inactive)
REMARK    1  A    between atoms: C1_2  and  C2_3 
ROOT
ATOM      1  C2  UNL d   1       4.517  -3.849  -0.836  0.00  0.00    -0.077 A 
ATOM      2  C3  UNL d   1       5.452  -4.635  -1.526  0.00  0.00     0.002 A 
ATOM      3  C4  UNL d   1       5.028  -5.703  -2.318  0.00  0.00     0.002 A 
ATOM      4  C5  UNL d   1       3.670  -5.993  -2.432  0.00  0.00    -0.004 A 
ATOM      5  C6  UNL d   1       2.733  -5.219  -1.749  0.00  0.00     0.002 A 
ATOM      6  C7  UNL d   1       3.155  -4.152  -0.955  0.00  0.00     0.002 A 
ENDROOT
BRANCH   1   7
ATOM      7  C1  UNL d   1       4.969  -2.666  -0.020  0.00  0.00     0.055 C 
ATOM      8  C   UNL d   1       3.881  -1.606   0.067  0.00  0.00     0.019 C 
ENDBRANCH   1   7
TORSDOF 1
ENDMDL
