MODEL 1
REMARK minimizedAffinity 3.2117722
REMARK minimizedRMSD -1
REMARK  1 active torsions:
REMARK  status: ('A' for Active; 'I' for Inactive)
REMARK    1  A    between atoms: C1_2  and  C2_3 
ROOT
ATOM      1  C2  UNL d   1       3.404  -4.506  -1.435  0.00  0.00    -0.077 A 
ATOM      2  C3  UNL d   1       4.506  -5.324  -1.146  0.00  0.00     0.002 A 
ATOM      3  C4  UNL d   1       5.701  -4.764  -0.692  0.00  0.00     0.002 A 
ATOM      4  C5  UNL d   1       5.805  -3.385  -0.518  0.00  0.00    -0.004 A 
ATOM      5  C6  UNL d   1       4.716  -2.563  -0.805  0.00  0.00     0.002 A 
ATOM      6  C7  UNL d   1       3.521  -3.121  -1.260  0.00  0.00     0.002 A 
ENDROOT
BRANCH   1   7
ATOM      7  C1  UNL d   1       2.099  -5.112  -1.879  0.00  0.00     0.055 C 
ATOM      8  C   UNL d   1       1.022  -4.946  -0.816  0.00  0.00     0.019 C 
ENDBRANCH   1   7
TORSDOF 1
ENDMDL
