MODEL 1
REMARK minimizedAffinity 3.66438198
REMARK minimizedRMSD -1
REMARK  0 active torsions:
REMARK  status: ('A' for Active; 'I' for Inactive)
ROOT
ATOM      1  C1  DEN d   1       1.041   3.494   1.031  0.00  0.00     0.130 A 
ATOM      2  C2  DEN d   1      -0.119   4.381   1.009  0.00  0.00    -0.031 A 
ATOM      3  C3  DEN d   1      -1.147   3.767   0.144  0.00  0.00     0.027 A 
ATOM      4  C4  DEN d   1      -1.056   1.538  -1.151  0.00  0.00     0.027 A 
ATOM      5  C5  DEN d   1      -0.274   0.445  -1.450  0.00  0.00    -0.003 A 
ATOM      6  C6  DEN d   1       1.003   0.308  -0.974  0.00  0.00     0.001 A 
ATOM      7  C7  DEN d   1       1.520   1.260  -0.136  0.00  0.00     0.017 A 
ATOM      8  C8  DEN d   1       0.741   2.370   0.164  0.00  0.00    -0.094 A 
ATOM      9  C9  DEN d   1      -0.553   2.483  -0.318  0.00  0.00    -0.072 A 
ENDROOT
TORSDOF 0
ENDMDL
