MODEL 1
REMARK minimizedAffinity 3.7007165
REMARK minimizedRMSD -1
REMARK  0 active torsions:
REMARK  status: ('A' for Active; 'I' for Inactive)
ROOT
ATOM      1  C1  DEN d   1      -3.268   1.607  -0.761  0.00  0.00     0.130 A 
ATOM      2  C2  DEN d   1      -4.184   0.622  -0.193  0.00  0.00    -0.031 A 
ATOM      3  C3  DEN d   1      -4.375   0.946   1.235  0.00  0.00     0.027 A 
ATOM      4  C4  DEN d   1      -3.350   2.871   2.612  0.00  0.00     0.027 A 
ATOM      5  C5  DEN d   1      -2.503   3.957   2.567  0.00  0.00    -0.003 A 
ATOM      6  C6  DEN d   1      -1.831   4.312   1.428  0.00  0.00     0.001 A 
ATOM      7  C7  DEN d   1      -2.030   3.601   0.273  0.00  0.00     0.017 A 
ATOM      8  C8  DEN d   1      -2.876   2.501   0.313  0.00  0.00    -0.094 A 
ATOM      9  C9  DEN d   1      -3.555   2.165   1.472  0.00  0.00    -0.072 A 
ENDROOT
TORSDOF 0
ENDMDL
