MODEL 1
REMARK minimizedAffinity 4.41875696
REMARK minimizedRMSD -1
REMARK  0 active torsions:
REMARK  status: ('A' for Active; 'I' for Inactive)
ROOT
ATOM      1  C1  DEN d   1       2.469   1.191   0.432  0.00  0.00     0.130 A 
ATOM      2  C2  DEN d   1       2.460   0.054  -0.484  0.00  0.00    -0.031 A 
ATOM      3  C3  DEN d   1       1.139   0.008  -1.142  0.00  0.00     0.027 A 
ATOM      4  C4  DEN d   1      -0.882   1.581  -0.835  0.00  0.00     0.027 A 
ATOM      5  C5  DEN d   1      -1.354   2.683  -0.157  0.00  0.00    -0.003 A 
ATOM      6  C6  DEN d   1      -0.603   3.339   0.782  0.00  0.00     0.001 A 
ATOM      7  C7  DEN d   1       0.678   2.926   1.036  0.00  0.00     0.017 A 
ATOM      8  C8  DEN d   1       1.158   1.811   0.362  0.00  0.00    -0.094 A 
ATOM      9  C9  DEN d   1       0.388   1.169  -0.593  0.00  0.00    -0.072 A 
ENDROOT
TORSDOF 0
ENDMDL
