MODEL 1
REMARK minimizedAffinity 8.90313435
REMARK minimizedRMSD -1
REMARK  0 active torsions:
REMARK  status: ('A' for Active; 'I' for Inactive)
ROOT
ATOM      1  C1  DEN d   1       2.633  -0.324   0.285  0.00  0.00     0.130 A 
ATOM      2  C2  DEN d   1       3.068   0.750   1.173  0.00  0.00    -0.031 A 
ATOM      3  C3  DEN d   1       2.135   1.882   1.012  0.00  0.00     0.027 A 
ATOM      4  C4  DEN d   1       0.065   2.075  -0.516  0.00  0.00     0.027 A 
ATOM      5  C5  DEN d   1      -0.696   1.424  -1.461  0.00  0.00    -0.003 A 
ATOM      6  C6  DEN d   1      -0.385   0.169  -1.912  0.00  0.00     0.001 A 
ATOM      7  C7  DEN d   1       0.691  -0.494  -1.384  0.00  0.00     0.017 A 
ATOM      8  C8  DEN d   1       1.468   0.158  -0.436  0.00  0.00    -0.094 A 
ATOM      9  C9  DEN d   1       1.130   1.422   0.016  0.00  0.00    -0.072 A 
ENDROOT
TORSDOF 0
ENDMDL
