MODEL 1
REMARK minimizedAffinity 6.61966991
REMARK minimizedRMSD -1
REMARK  0 active torsions:
REMARK  status: ('A' for Active; 'I' for Inactive)
ROOT
ATOM      1  C1  DEN d   1       1.712  -1.869   1.687  0.00  0.00     0.130 A 
ATOM      2  C2  DEN d   1       2.163  -1.359   2.979  0.00  0.00    -0.031 A 
ATOM      3  C3  DEN d   1       2.880  -0.089   2.743  0.00  0.00     0.027 A 
ATOM      4  C4  DEN d   1       3.326   1.132   0.515  0.00  0.00     0.027 A 
ATOM      5  C5  DEN d   1       3.147   1.080  -0.849  0.00  0.00    -0.003 A 
ATOM      6  C6  DEN d   1       2.511   0.033  -1.462  0.00  0.00     0.001 A 
ATOM      7  C7  DEN d   1       1.992  -0.984  -0.705  0.00  0.00     0.017 A 
ATOM      8  C8  DEN d   1       2.176  -0.941   0.671  0.00  0.00    -0.094 A 
ATOM      9  C9  DEN d   1       2.810   0.132   1.273  0.00  0.00    -0.072 A 
ENDROOT
TORSDOF 0
ENDMDL
