MODEL 1
REMARK minimizedAffinity 6.29918575
REMARK minimizedRMSD -1
REMARK  0 active torsions:
REMARK  status: ('A' for Active; 'I' for Inactive)
ROOT
ATOM      1  C1  DEN d   1       2.888   0.521  -1.480  0.00  0.00     0.130 A 
ATOM      2  C2  DEN d   1       3.898   0.851  -2.481  0.00  0.00    -0.031 A 
ATOM      3  C3  DEN d   1       4.944   1.661  -1.825  0.00  0.00     0.027 A 
ATOM      4  C4  DEN d   1       5.098   2.429   0.632  0.00  0.00     0.027 A 
ATOM      5  C5  DEN d   1       4.469   2.403   1.858  0.00  0.00    -0.003 A 
ATOM      6  C6  DEN d   1       3.263   1.783   2.047  0.00  0.00     0.001 A 
ATOM      7  C7  DEN d   1       2.668   1.123   1.004  0.00  0.00     0.017 A 
ATOM      8  C8  DEN d   1       3.292   1.150  -0.236  0.00  0.00    -0.094 A 
ATOM      9  C9  DEN d   1       4.518   1.773  -0.404  0.00  0.00    -0.072 A 
ENDROOT
TORSDOF 0
ENDMDL
