MODEL 1
REMARK minimizedAffinity 5.40818501
REMARK minimizedRMSD -1
REMARK  0 active torsions:
REMARK  status: ('A' for Active; 'I' for Inactive)
ROOT
ATOM      1  C1  DEN d   1      -0.669   2.327  -1.340  0.00  0.00     0.130 A 
ATOM      2  C2  DEN d   1      -0.584   3.273  -2.449  0.00  0.00    -0.031 A 
ATOM      3  C3  DEN d   1      -1.799   3.122  -3.273  0.00  0.00     0.027 A 
ATOM      4  C4  DEN d   1      -3.797   1.525  -2.940  0.00  0.00     0.027 A 
ATOM      5  C5  DEN d   1      -4.315   0.526  -2.146  0.00  0.00    -0.003 A 
ATOM      6  C6  DEN d   1      -3.644   0.037  -1.056  0.00  0.00     0.001 A 
ATOM      7  C7  DEN d   1      -2.436   0.578  -0.704  0.00  0.00     0.017 A 
ATOM      8  C8  DEN d   1      -1.904   1.581  -1.504  0.00  0.00    -0.094 A 
ATOM      9  C9  DEN d   1      -2.604   2.070  -2.594  0.00  0.00    -0.072 A 
ENDROOT
TORSDOF 0
ENDMDL
