MODEL 1
REMARK minimizedAffinity 18.5598259
REMARK minimizedRMSD -1
REMARK  0 active torsions:
REMARK  status: ('A' for Active; 'I' for Inactive)
ROOT
ATOM      1  C1  DEN d   1       2.407   2.977   1.622  0.00  0.00     0.130 A 
ATOM      2  C2  DEN d   1       1.823   2.389   2.824  0.00  0.00    -0.031 A 
ATOM      3  C3  DEN d   1       0.380   2.191   2.580  0.00  0.00     0.027 A 
ATOM      4  C4  DEN d   1      -0.998   2.731   0.467  0.00  0.00     0.027 A 
ATOM      5  C5  DEN d   1      -0.942   3.252  -0.807  0.00  0.00    -0.003 A 
ATOM      6  C6  DEN d   1       0.218   3.745  -1.344  0.00  0.00     0.001 A 
ATOM      7  C7  DEN d   1       1.379   3.686  -0.620  0.00  0.00     0.017 A 
ATOM      8  C8  DEN d   1       1.329   3.169   0.668  0.00  0.00    -0.094 A 
ATOM      9  C9  DEN d   1       0.150   2.664   1.188  0.00  0.00    -0.072 A 
ENDROOT
TORSDOF 0
ENDMDL
