MODEL 1
REMARK minimizedAffinity -2.21808076
REMARK minimizedRMSD -1
REMARK  0 active torsions:
REMARK  status: ('A' for Active; 'I' for Inactive)
ROOT
ATOM      1  C1  DEN d   1       0.991   4.256   0.040  0.00  0.00     0.130 A 
ATOM      2  C2  DEN d   1       0.366   3.911  -1.234  0.00  0.00    -0.031 A 
ATOM      3  C3  DEN d   1      -0.406   2.667  -1.042  0.00  0.00     0.027 A 
ATOM      4  C4  DEN d   1      -0.698   1.252   1.095  0.00  0.00     0.027 A 
ATOM      5  C5  DEN d   1      -0.349   1.139   2.422  0.00  0.00    -0.003 A 
ATOM      6  C6  DEN d   1       0.491   2.031   3.035  0.00  0.00     0.001 A 
ATOM      7  C7  DEN d   1       0.975   3.102   2.331  0.00  0.00     0.017 A 
ATOM      8  C8  DEN d   1       0.634   3.218   0.990  0.00  0.00    -0.094 A 
ATOM      9  C9  DEN d   1      -0.226   2.313   0.392  0.00  0.00    -0.072 A 
ENDROOT
TORSDOF 0
ENDMDL
