MODEL 1
REMARK minimizedAffinity 6.47738647
REMARK minimizedRMSD -1
REMARK  0 active torsions:
REMARK  status: ('A' for Active; 'I' for Inactive)
ROOT
ATOM      1  C1  DEN d   1       0.333  -0.778   3.404  0.00  0.00     0.130 A 
ATOM      2  C2  DEN d   1       1.710  -0.946   2.948  0.00  0.00    -0.031 A 
ATOM      3  C3  DEN d   1       2.040   0.188   2.062  0.00  0.00     0.027 A 
ATOM      4  C4  DEN d   1       0.561   2.181   1.360  0.00  0.00     0.027 A 
ATOM      5  C5  DEN d   1      -0.686   2.752   1.483  0.00  0.00    -0.003 A 
ATOM      6  C6  DEN d   1      -1.684   2.173   2.222  0.00  0.00     0.001 A 
ATOM      7  C7  DEN d   1      -1.437   1.010   2.903  0.00  0.00     0.017 A 
ATOM      8  C8  DEN d   1      -0.184   0.425   2.778  0.00  0.00    -0.094 A 
ATOM      9  C9  DEN d   1       0.815   1.032   2.036  0.00  0.00    -0.072 A 
ENDROOT
TORSDOF 0
ENDMDL
