MODEL 1
REMARK minimizedAffinity -1.74331605
REMARK minimizedRMSD -1
REMARK  0 active torsions:
REMARK  status: ('A' for Active; 'I' for Inactive)
ROOT
ATOM      1  C1  DEN d   1       1.480  -4.649  -1.862  0.00  0.00     0.130 A 
ATOM      2  C2  DEN d   1       0.934  -3.495  -1.153  0.00  0.00    -0.031 A 
ATOM      3  C3  DEN d   1       2.029  -2.526  -0.946  0.00  0.00     0.027 A 
ATOM      4  C4  DEN d   1       4.503  -2.697  -1.655  0.00  0.00     0.027 A 
ATOM      5  C5  DEN d   1       5.441  -3.495  -2.273  0.00  0.00    -0.003 A 
ATOM      6  C6  DEN d   1       5.135  -4.737  -2.763  0.00  0.00     0.001 A 
ATOM      7  C7  DEN d   1       3.848  -5.199  -2.683  0.00  0.00     0.017 A 
ATOM      8  C8  DEN d   1       2.898  -4.404  -2.055  0.00  0.00    -0.094 A 
ATOM      9  C9  DEN d   1       3.225  -3.146  -1.578  0.00  0.00    -0.072 A 
ENDROOT
TORSDOF 0
ENDMDL
