MODEL 1
REMARK minimizedAffinity 15.39431
REMARK minimizedRMSD -1
REMARK  0 active torsions:
REMARK  status: ('A' for Active; 'I' for Inactive)
ROOT
ATOM      1  C1  DEN d   1       2.070   4.438  -1.227  0.00  0.00     0.130 A 
ATOM      2  C2  DEN d   1       1.743   5.464  -2.213  0.00  0.00    -0.031 A 
ATOM      3  C3  DEN d   1       0.277   5.478  -2.389  0.00  0.00     0.027 A 
ATOM      4  C4  DEN d   1      -1.510   4.022  -1.233  0.00  0.00     0.027 A 
ATOM      5  C5  DEN d   1      -1.715   3.004  -0.328  0.00  0.00    -0.003 A 
ATOM      6  C6  DEN d   1      -0.679   2.375   0.310  0.00  0.00     0.001 A 
ATOM      7  C7  DEN d   1       0.607   2.788   0.086  0.00  0.00     0.017 A 
ATOM      8  C8  DEN d   1       0.823   3.809  -0.831  0.00  0.00    -0.094 A 
ATOM      9  C9  DEN d   1      -0.239   4.440  -1.456  0.00  0.00    -0.072 A 
ENDROOT
TORSDOF 0
ENDMDL
