MODEL 1
REMARK minimizedAffinity 19.8525333
REMARK minimizedRMSD -1
REMARK  0 active torsions:
REMARK  status: ('A' for Active; 'I' for Inactive)
ROOT
ATOM      1  C1  DEN d   1      -0.422   3.756  -0.983  0.00  0.00     0.130 A 
ATOM      2  C2  DEN d   1       0.534   2.656  -0.894  0.00  0.00    -0.031 A 
ATOM      3  C3  DEN d   1       0.260   1.913   0.353  0.00  0.00     0.027 A 
ATOM      4  C4  DEN d   1      -1.546   2.354   2.141  0.00  0.00     0.027 A 
ATOM      5  C5  DEN d   1      -2.584   3.182   2.508  0.00  0.00    -0.003 A 
ATOM      6  C6  DEN d   1      -2.949   4.270   1.761  0.00  0.00     0.001 A 
ATOM      7  C7  DEN d   1      -2.300   4.534   0.583  0.00  0.00     0.017 A 
ATOM      8  C8  DEN d   1      -1.247   3.708   0.211  0.00  0.00    -0.094 A 
ATOM      9  C9  DEN d   1      -0.901   2.606   0.974  0.00  0.00    -0.072 A 
ENDROOT
TORSDOF 0
ENDMDL
