MODEL 1
REMARK minimizedAffinity 7.87638712
REMARK minimizedRMSD -1
REMARK  0 active torsions:
REMARK  status: ('A' for Active; 'I' for Inactive)
ROOT
ATOM      1  C1  DEN d   1      -2.023   2.205  -0.914  0.00  0.00     0.130 A 
ATOM      2  C2  DEN d   1      -2.409   2.808  -2.187  0.00  0.00    -0.031 A 
ATOM      3  C3  DEN d   1      -1.338   3.739  -2.595  0.00  0.00     0.027 A 
ATOM      4  C4  DEN d   1       0.871   4.300  -1.387  0.00  0.00     0.027 A 
ATOM      5  C5  DEN d   1       1.634   4.047  -0.269  0.00  0.00    -0.003 A 
ATOM      6  C6  DEN d   1       1.220   3.196   0.721  0.00  0.00     0.001 A 
ATOM      7  C7  DEN d   1       0.029   2.531   0.590  0.00  0.00     0.017 A 
ATOM      8  C8  DEN d   1      -0.749   2.786  -0.531  0.00  0.00    -0.094 A 
ATOM      9  C9  DEN d   1      -0.307   3.641  -1.526  0.00  0.00    -0.072 A 
ENDROOT
TORSDOF 0
ENDMDL
