MODEL 1
REMARK minimizedAffinity 21.8503056
REMARK minimizedRMSD -1
REMARK  0 active torsions:
REMARK  status: ('A' for Active; 'I' for Inactive)
ROOT
ATOM      1  C1  DEN d   1       0.586   1.879   3.330  0.00  0.00     0.130 A 
ATOM      2  C2  DEN d   1       1.643   2.050   2.337  0.00  0.00    -0.031 A 
ATOM      3  C3  DEN d   1       2.514   0.859   2.387  0.00  0.00     0.027 A 
ATOM      4  C4  DEN d   1       2.326  -1.227   3.893  0.00  0.00     0.027 A 
ATOM      5  C5  DEN d   1       1.600  -1.822   4.901  0.00  0.00    -0.003 A 
ATOM      6  C6  DEN d   1       0.514  -1.215   5.475  0.00  0.00     0.001 A 
ATOM      7  C7  DEN d   1       0.096   0.005   5.013  0.00  0.00     0.017 A 
ATOM      8  C8  DEN d   1       0.827   0.615   4.002  0.00  0.00    -0.094 A 
ATOM      9  C9  DEN d   1       1.915  -0.020   3.427  0.00  0.00    -0.072 A 
ENDROOT
TORSDOF 0
ENDMDL
