MODEL 1
REMARK minimizedAffinity 10.9741001
REMARK minimizedRMSD -1
REMARK  0 active torsions:
REMARK  status: ('A' for Active; 'I' for Inactive)
ROOT
ATOM      1  C1  DEN d   1       3.147  -2.637   0.296  0.00  0.00     0.130 A 
ATOM      2  C2  DEN d   1       3.086  -1.178   0.273  0.00  0.00    -0.031 A 
ATOM      3  C3  DEN d   1       1.882  -0.783  -0.485  0.00  0.00     0.027 A 
ATOM      4  C4  DEN d   1       0.113  -2.281  -1.615  0.00  0.00     0.027 A 
ATOM      5  C5  DEN d   1      -0.255  -3.583  -1.875  0.00  0.00    -0.003 A 
ATOM      6  C6  DEN d   1       0.496  -4.651  -1.462  0.00  0.00     0.001 A 
ATOM      7  C7  DEN d   1       1.632  -4.437  -0.727  0.00  0.00     0.017 A 
ATOM      8  C8  DEN d   1       2.014  -3.127  -0.468  0.00  0.00    -0.094 A 
ATOM      9  C9  DEN d   1       1.234  -2.062  -0.883  0.00  0.00    -0.072 A 
ENDROOT
TORSDOF 0
ENDMDL
