MODEL 1
REMARK minimizedAffinity 20.9641266
REMARK minimizedRMSD -1
REMARK  0 active torsions:
REMARK  status: ('A' for Active; 'I' for Inactive)
ROOT
ATOM      1  C1  DEN d   1      -1.873   3.167   3.061  0.00  0.00     0.130 A 
ATOM      2  C2  DEN d   1      -2.594   4.135   2.239  0.00  0.00    -0.031 A 
ATOM      3  C3  DEN d   1      -1.732   4.492   1.094  0.00  0.00     0.027 A 
ATOM      4  C4  DEN d   1       0.633   3.641   0.515  0.00  0.00     0.027 A 
ATOM      5  C5  DEN d   1       1.661   2.820   0.922  0.00  0.00    -0.003 A 
ATOM      6  C6  DEN d   1       1.598   2.089   2.079  0.00  0.00     0.001 A 
ATOM      7  C7  DEN d   1       0.464   2.130   2.846  0.00  0.00     0.017 A 
ATOM      8  C8  DEN d   1      -0.574   2.961   2.446  0.00  0.00    -0.094 A 
ATOM      9  C9  DEN d   1      -0.496   3.683   1.267  0.00  0.00    -0.072 A 
ENDROOT
TORSDOF 0
ENDMDL
