MODEL 1
REMARK minimizedAffinity 1.40243661
REMARK minimizedRMSD -1
REMARK  0 active torsions:
REMARK  status: ('A' for Active; 'I' for Inactive)
ROOT
ATOM      1  C   UNL d   1      -1.191   0.072   0.936  0.00  0.00     0.023 A 
ATOM      2  C1  UNL d   1      -1.102  -0.624   2.141  0.00  0.00     0.003 A 
ATOM      3  C2  UNL d   1      -0.109  -1.588   2.321  0.00  0.00     0.048 A 
ATOM      4  C3  UNL d   1       0.794  -1.851   1.291  0.00  0.00     0.023 A 
ATOM      5  C4  UNL d   1       0.710  -1.156   0.083  0.00  0.00     0.048 A 
ATOM      6  C5  UNL d   1      -0.286  -0.194  -0.092  0.00  0.00     0.003 A 
ATOM      7  I   UNL d   1       2.274  -3.286   1.556  0.00  0.00    -0.146 I 
ENDROOT
TORSDOF 0
ENDMDL
