MODEL 1
REMARK minimizedAffinity 1.19948387
REMARK minimizedRMSD -1
REMARK  0 active torsions:
REMARK  status: ('A' for Active; 'I' for Inactive)
ROOT
ATOM      1  C   UNL d   1       1.236   5.543   5.999  0.00  0.00     0.023 A 
ATOM      2  C1  UNL d   1       2.549   5.998   5.874  0.00  0.00     0.003 A 
ATOM      3  C2  UNL d   1       3.252   5.788   4.687  0.00  0.00     0.048 A 
ATOM      4  C3  UNL d   1       2.636   5.122   3.627  0.00  0.00     0.023 A 
ATOM      5  C4  UNL d   1       1.323   4.666   3.747  0.00  0.00     0.048 A 
ATOM      6  C5  UNL d   1       0.624   4.878   4.937  0.00  0.00     0.003 A 
ATOM      7  I   UNL d   1       3.681   4.808   1.858  0.00  0.00    -0.146 I 
ENDROOT
TORSDOF 0
ENDMDL
