MODEL 1
REMARK minimizedAffinity 4.53684187
REMARK minimizedRMSD -1
REMARK  0 active torsions:
REMARK  status: ('A' for Active; 'I' for Inactive)
ROOT
ATOM      1  C   UNL d   1       2.193  -0.969   0.609  0.00  0.00     0.023 A 
ATOM      2  C1  UNL d   1       1.077  -1.239  -0.183  0.00  0.00     0.003 A 
ATOM      3  C2  UNL d   1      -0.206  -1.139   0.359  0.00  0.00     0.048 A 
ATOM      4  C3  UNL d   1      -0.366  -0.768   1.694  0.00  0.00     0.023 A 
ATOM      5  C4  UNL d   1       0.747  -0.497   2.490  0.00  0.00     0.048 A 
ATOM      6  C5  UNL d   1       2.028  -0.598   1.944  0.00  0.00     0.003 A 
ATOM      7  I   UNL d   1      -2.275  -0.619   2.503  0.00  0.00    -0.146 I 
ENDROOT
TORSDOF 0
ENDMDL
