MODEL 1
REMARK minimizedAffinity -1.8062464
REMARK minimizedRMSD -1
REMARK  0 active torsions:
REMARK  status: ('A' for Active; 'I' for Inactive)
ROOT
ATOM      1  C   UNL d   1       1.548   5.969   5.732  0.00  0.00     0.023 A 
ATOM      2  C1  UNL d   1       2.917   5.995   6.000  0.00  0.00     0.003 A 
ATOM      3  C2  UNL d   1       3.835   5.994   4.948  0.00  0.00     0.048 A 
ATOM      4  C3  UNL d   1       3.378   5.967   3.631  0.00  0.00     0.023 A 
ATOM      5  C4  UNL d   1       2.009   5.942   3.359  0.00  0.00     0.048 A 
ATOM      6  C5  UNL d   1       1.095   5.943   4.413  0.00  0.00     0.003 A 
ATOM      7  I   UNL d   1       4.743   5.966   2.064  0.00  0.00    -0.146 I 
ENDROOT
TORSDOF 0
ENDMDL
