MODEL 1
REMARK minimizedAffinity 4.05604362
REMARK minimizedRMSD -1
REMARK  0 active torsions:
REMARK  status: ('A' for Active; 'I' for Inactive)
ROOT
ATOM      1  C   UNL d   1       1.159   5.801   5.711  0.00  0.00     0.023 A 
ATOM      2  C1  UNL d   1       2.526   5.923   5.959  0.00  0.00     0.003 A 
ATOM      3  C2  UNL d   1       3.428   5.978   4.894  0.00  0.00     0.048 A 
ATOM      4  C3  UNL d   1       2.955   5.911   3.584  0.00  0.00     0.023 A 
ATOM      5  C4  UNL d   1       1.588   5.789   3.331  0.00  0.00     0.048 A 
ATOM      6  C5  UNL d   1       0.690   5.734   4.399  0.00  0.00     0.003 A 
ATOM      7  I   UNL d   1       4.296   5.992   1.998  0.00  0.00    -0.146 I 
ENDROOT
TORSDOF 0
ENDMDL
