MODEL 1
REMARK minimizedAffinity -2.43643808
REMARK minimizedRMSD -1
REMARK  0 active torsions:
REMARK  status: ('A' for Active; 'I' for Inactive)
ROOT
ATOM      1  C   UNL d   1       0.998   5.982   5.473  0.00  0.00     0.023 A 
ATOM      2  C1  UNL d   1       2.289   5.997   6.000  0.00  0.00     0.003 A 
ATOM      3  C2  UNL d   1       3.394   6.000   5.145  0.00  0.00     0.048 A 
ATOM      4  C3  UNL d   1       3.199   5.988   3.764  0.00  0.00     0.023 A 
ATOM      5  C4  UNL d   1       1.908   5.974   3.232  0.00  0.00     0.048 A 
ATOM      6  C5  UNL d   1       0.808   5.970   4.091  0.00  0.00     0.003 A 
ATOM      7  I   UNL d   1       4.841   5.993   2.490  0.00  0.00    -0.146 I 
ENDROOT
TORSDOF 0
ENDMDL
