MODEL 1
REMARK minimizedAffinity 1.50509918
REMARK minimizedRMSD -1
REMARK  0 active torsions:
REMARK  status: ('A' for Active; 'I' for Inactive)
ROOT
ATOM      1  C   UNL d   1       2.148  -2.048   0.604  0.00  0.00     0.023 A 
ATOM      2  C1  UNL d   1       1.798  -1.140  -0.395  0.00  0.00     0.003 A 
ATOM      3  C2  UNL d   1       0.623  -0.394  -0.282  0.00  0.00     0.048 A 
ATOM      4  C3  UNL d   1      -0.198  -0.561   0.833  0.00  0.00     0.023 A 
ATOM      5  C4  UNL d   1       0.149  -1.468   1.836  0.00  0.00     0.048 A 
ATOM      6  C5  UNL d   1       1.325  -2.212   1.718  0.00  0.00     0.003 A 
ATOM      7  I   UNL d   1      -1.947   0.547   1.003  0.00  0.00    -0.146 I 
ENDROOT
TORSDOF 0
ENDMDL
