MODEL 1
REMARK minimizedAffinity 4.4887228
REMARK minimizedRMSD -1
REMARK  2 active torsions:
REMARK  status: ('A' for Active; 'I' for Inactive)
REMARK    1  A    between atoms: C2'_3  and  C1'_4 
REMARK    2  A    between atoms: C1'_4  and  C1_5 
ROOT
ATOM      1  C1  I4B d   1      -0.196   1.605   1.103  0.00  0.00    -0.075 A 
ATOM      2  C2  I4B d   1       0.527   0.497   0.737  0.00  0.00     0.003 A 
ATOM      3  C3  I4B d   1       1.117  -0.328   1.725  0.00  0.00     0.002 A 
ATOM      4  C4  I4B d   1       1.004   0.019   3.056  0.00  0.00    -0.004 A 
ATOM      5  C5  I4B d   1       0.252   1.130   3.426  0.00  0.00     0.002 A 
ATOM      6  C6  I4B d   1      -0.363   1.922   2.444  0.00  0.00     0.003 A 
ENDROOT
BRANCH   1   7
ATOM      7  C1' I4B d   1      -0.778   2.471   0.031  0.00  0.00     0.060 C 
BRANCH   7   8
ATOM      8  C2' I4B d   1      -0.136   3.840   0.138  0.00  0.00    -0.013 C 
ATOM      9  C4' I4B d   1       0.592   4.200  -1.130  0.00  0.00     0.013 C 
ATOM     10  C3' I4B d   1      -1.216   4.835   0.444  0.00  0.00     0.013 C 
ENDBRANCH   7   8
ENDBRANCH   1   7
TORSDOF 2
ENDMDL
