MODEL 1
REMARK minimizedAffinity 6.4173913
REMARK minimizedRMSD -1
REMARK  2 active torsions:
REMARK  status: ('A' for Active; 'I' for Inactive)
REMARK    1  A    between atoms: C2'_3  and  C1'_4 
REMARK    2  A    between atoms: C1'_4  and  C1_5 
ROOT
ATOM      1  C1  I4B d   1      -0.514   3.489   0.177  0.00  0.00    -0.075 A 
ATOM      2  C2  I4B d   1      -0.583   3.991  -1.098  0.00  0.00     0.003 A 
ATOM      3  C3  I4B d   1       0.327   4.991  -1.521  0.00  0.00     0.002 A 
ATOM      4  C4  I4B d   1       1.250   5.492  -0.626  0.00  0.00    -0.004 A 
ATOM      5  C5  I4B d   1       1.334   4.965   0.660  0.00  0.00     0.002 A 
ATOM      6  C6  I4B d   1       0.455   3.949   1.061  0.00  0.00     0.003 A 
ENDROOT
BRANCH   1   7
ATOM      7  C1' I4B d   1      -1.511   2.458   0.601  0.00  0.00     0.060 C 
BRANCH   7   8
ATOM      8  C2' I4B d   1      -0.905   1.662   1.739  0.00  0.00    -0.013 C 
ATOM      9  C4' I4B d   1      -1.941   0.807   2.419  0.00  0.00     0.013 C 
ATOM     10  C3' I4B d   1       0.205   0.823   1.178  0.00  0.00     0.013 C 
ENDBRANCH   7   8
ENDBRANCH   1   7
TORSDOF 2
ENDMDL
