MODEL 1
REMARK minimizedAffinity 1.22630763
REMARK minimizedRMSD -1
REMARK  2 active torsions:
REMARK  status: ('A' for Active; 'I' for Inactive)
REMARK    1  A    between atoms: C2'_3  and  C1'_4 
REMARK    2  A    between atoms: C1'_4  and  C1_5 
ROOT
ATOM      1  C1  I4B d   1      -0.428   2.122   0.397  0.00  0.00    -0.075 A 
ATOM      2  C2  I4B d   1      -1.727   2.404   0.740  0.00  0.00     0.003 A 
ATOM      3  C3  I4B d   1      -2.400   1.608   1.698  0.00  0.00     0.002 A 
ATOM      4  C4  I4B d   1      -1.758   0.516   2.247  0.00  0.00    -0.004 A 
ATOM      5  C5  I4B d   1      -0.433   0.246   1.915  0.00  0.00     0.002 A 
ATOM      6  C6  I4B d   1       0.240   1.061   0.994  0.00  0.00     0.003 A 
ENDROOT
BRANCH   1   7
ATOM      7  C1' I4B d   1       0.242   2.964  -0.643  0.00  0.00     0.060 C 
BRANCH   7   8
ATOM      8  C2' I4B d   1      -0.214   4.395  -0.449  0.00  0.00    -0.013 C 
ATOM      9  C4' I4B d   1       0.859   5.226   0.204  0.00  0.00     0.013 C 
ATOM     10  C3' I4B d   1      -0.584   4.949  -1.793  0.00  0.00     0.013 C 
ENDBRANCH   7   8
ENDBRANCH   1   7
TORSDOF 2
ENDMDL
