MODEL 1
REMARK minimizedAffinity 2.70245171
REMARK minimizedRMSD -1
REMARK  2 active torsions:
REMARK  status: ('A' for Active; 'I' for Inactive)
REMARK    1  A    between atoms: C2'_3  and  C1'_4 
REMARK    2  A    between atoms: C1'_4  and  C1_5 
ROOT
ATOM      1  C1  I4B d   1       0.061   1.438   1.087  0.00  0.00    -0.075 A 
ATOM      2  C2  I4B d   1       1.209   0.691   1.174  0.00  0.00     0.003 A 
ATOM      3  C3  I4B d   1       2.081   0.592   0.063  0.00  0.00     0.002 A 
ATOM      4  C4  I4B d   1       1.743   1.210  -1.124  0.00  0.00    -0.004 A 
ATOM      5  C5  I4B d   1       0.590   1.986  -1.203  0.00  0.00     0.002 A 
ATOM      6  C6  I4B d   1      -0.250   2.112  -0.087  0.00  0.00     0.003 A 
ENDROOT
BRANCH   1   7
ATOM      7  C1' I4B d   1      -0.853   1.495   2.269  0.00  0.00     0.060 C 
BRANCH   7   8
ATOM      8  C2' I4B d   1      -1.920   0.435   2.085  0.00  0.00    -0.013 C 
ATOM      9  C4' I4B d   1      -1.732  -0.702   3.054  0.00  0.00     0.013 C 
ATOM     10  C3' I4B d   1      -3.258   1.087   2.270  0.00  0.00     0.013 C 
ENDBRANCH   7   8
ENDBRANCH   1   7
TORSDOF 2
ENDMDL
