MODEL 1
REMARK minimizedAffinity 4.33272791
REMARK minimizedRMSD -1
REMARK  2 active torsions:
REMARK  status: ('A' for Active; 'I' for Inactive)
REMARK    1  A    between atoms: C2'_3  and  C1'_4 
REMARK    2  A    between atoms: C1'_4  and  C1_5 
ROOT
ATOM      1  C1  I4B d   1      -2.278   1.839   1.847  0.00  0.00    -0.075 A 
ATOM      2  C2  I4B d   1      -3.253   2.790   1.670  0.00  0.00     0.003 A 
ATOM      3  C3  I4B d   1      -3.059   3.845   0.745  0.00  0.00     0.002 A 
ATOM      4  C4  I4B d   1      -1.864   3.939   0.062  0.00  0.00    -0.004 A 
ATOM      5  C5  I4B d   1      -0.886   2.961   0.227  0.00  0.00     0.002 A 
ATOM      6  C6  I4B d   1      -1.100   1.898   1.116  0.00  0.00     0.003 A 
ENDROOT
BRANCH   1   7
ATOM      7  C1' I4B d   1      -2.503   0.757   2.856  0.00  0.00     0.060 C 
BRANCH   7   8
ATOM      8  C2' I4B d   1      -1.534  -0.369   2.555  0.00  0.00    -0.013 C 
ATOM      9  C4' I4B d   1      -0.106   0.084   2.711  0.00  0.00     0.013 C 
ATOM     10  C3' I4B d   1      -1.846  -1.507   3.481  0.00  0.00     0.013 C 
ENDBRANCH   7   8
ENDBRANCH   1   7
TORSDOF 2
ENDMDL
