MODEL 1
REMARK minimizedAffinity -0.0283241384
REMARK minimizedRMSD -1
REMARK  2 active torsions:
REMARK  status: ('A' for Active; 'I' for Inactive)
REMARK    1  A    between atoms: C2'_3  and  C1'_4 
REMARK    2  A    between atoms: C1'_4  and  C1_5 
ROOT
ATOM      1  C1  I4B d   1      -1.470   2.701   0.510  0.00  0.00    -0.075 A 
ATOM      2  C2  I4B d   1      -2.759   2.234   0.444  0.00  0.00     0.003 A 
ATOM      3  C3  I4B d   1      -3.155   1.122   1.226  0.00  0.00     0.002 A 
ATOM      4  C4  I4B d   1      -2.223   0.481   2.017  0.00  0.00    -0.004 A 
ATOM      5  C5  I4B d   1      -0.923   0.970   2.100  0.00  0.00     0.002 A 
ATOM      6  C6  I4B d   1      -0.546   2.095   1.351  0.00  0.00     0.003 A 
ENDROOT
BRANCH   1   7
ATOM      7  C1' I4B d   1      -1.077   3.857  -0.355  0.00  0.00     0.060 C 
BRANCH   7   8
ATOM      8  C2' I4B d   1       0.327   3.602  -0.866  0.00  0.00    -0.013 C 
ATOM      9  C4' I4B d   1       0.499   2.168  -1.292  0.00  0.00     0.013 C 
ATOM     10  C3' I4B d   1       0.581   4.540  -2.008  0.00  0.00     0.013 C 
ENDBRANCH   7   8
ENDBRANCH   1   7
TORSDOF 2
ENDMDL
