MODEL 1
REMARK minimizedAffinity 2.13566923
REMARK minimizedRMSD -1
REMARK  2 active torsions:
REMARK  status: ('A' for Active; 'I' for Inactive)
REMARK    1  A    between atoms: C2'_3  and  C1'_4 
REMARK    2  A    between atoms: C1'_4  and  C1_5 
ROOT
ATOM      1  C1  I4B d   1      -1.891   1.767   1.356  0.00  0.00    -0.075 A 
ATOM      2  C2  I4B d   1      -2.540   2.970   1.236  0.00  0.00     0.003 A 
ATOM      3  C3  I4B d   1      -2.188   3.871   0.201  0.00  0.00     0.002 A 
ATOM      4  C4  I4B d   1      -1.153   3.552  -0.654  0.00  0.00    -0.004 A 
ATOM      5  C5  I4B d   1      -0.511   2.322  -0.545  0.00  0.00     0.002 A 
ATOM      6  C6  I4B d   1      -0.890   1.418   0.458  0.00  0.00     0.003 A 
ENDROOT
BRANCH   1   7
ATOM      7  C1' I4B d   1      -2.266   0.854   2.480  0.00  0.00     0.060 C 
BRANCH   7   8
ATOM      8  C2' I4B d   1      -1.441  -0.410   2.349  0.00  0.00    -0.013 C 
ATOM      9  C4' I4B d   1       0.025  -0.127   2.545  0.00  0.00     0.013 C 
ATOM     10  C3' I4B d   1      -1.942  -1.396   3.362  0.00  0.00     0.013 C 
ENDBRANCH   7   8
ENDBRANCH   1   7
TORSDOF 2
ENDMDL
