MODEL 1
REMARK minimizedAffinity 8.2800684
REMARK minimizedRMSD -1
REMARK  2 active torsions:
REMARK  status: ('A' for Active; 'I' for Inactive)
REMARK    1  A    between atoms: C2'_3  and  C1'_4 
REMARK    2  A    between atoms: C1'_4  and  C1_5 
ROOT
ATOM      1  C1  I4B d   1      -0.329   2.304  -0.995  0.00  0.00    -0.075 A 
ATOM      2  C2  I4B d   1      -0.016   3.640  -1.031  0.00  0.00     0.003 A 
ATOM      3  C3  I4B d   1      -0.296   4.467   0.083  0.00  0.00     0.002 A 
ATOM      4  C4  I4B d   1      -0.930   3.932   1.186  0.00  0.00    -0.004 A 
ATOM      5  C5  I4B d   1      -1.226   2.572   1.229  0.00  0.00     0.002 A 
ATOM      6  C6  I4B d   1      -0.912   1.750   0.137  0.00  0.00     0.003 A 
ENDROOT
BRANCH   1   7
ATOM      7  C1' I4B d   1      -0.049   1.466  -2.202  0.00  0.00     0.060 C 
BRANCH   7   8
ATOM      8  C2' I4B d   1      -0.864   0.193  -2.086  0.00  0.00    -0.013 C 
ATOM      9  C4' I4B d   1      -2.179   0.320  -2.808  0.00  0.00     0.013 C 
ATOM     10  C3' I4B d   1      -0.046  -0.933  -2.644  0.00  0.00     0.013 C 
ENDBRANCH   7   8
ENDBRANCH   1   7
TORSDOF 2
ENDMDL
