MODEL 1
REMARK minimizedAffinity 7.95556164
REMARK minimizedRMSD -1
REMARK  2 active torsions:
REMARK  status: ('A' for Active; 'I' for Inactive)
REMARK    1  A    between atoms: C2'_3  and  C1'_4 
REMARK    2  A    between atoms: C1'_4  and  C1_5 
ROOT
ATOM      1  C1  I4B d   1      -0.575   1.691  -0.554  0.00  0.00    -0.075 A 
ATOM      2  C2  I4B d   1       0.691   1.186  -0.718  0.00  0.00     0.003 A 
ATOM      3  C3  I4B d   1       0.937   0.179  -1.682  0.00  0.00     0.002 A 
ATOM      4  C4  I4B d   1      -0.113  -0.327  -2.420  0.00  0.00    -0.004 A 
ATOM      5  C5  I4B d   1      -1.392   0.202  -2.269  0.00  0.00     0.002 A 
ATOM      6  C6  I4B d   1      -1.622   1.226  -1.338  0.00  0.00     0.003 A 
ENDROOT
BRANCH   1   7
ATOM      7  C1' I4B d   1      -0.806   2.730   0.497  0.00  0.00     0.060 C 
BRANCH   7   8
ATOM      8  C2' I4B d   1      -0.674   2.063   1.851  0.00  0.00    -0.013 C 
ATOM      9  C4' I4B d   1      -0.119   3.015   2.877  0.00  0.00     0.013 C 
ATOM     10  C3' I4B d   1      -2.029   1.562   2.254  0.00  0.00     0.013 C 
ENDBRANCH   7   8
ENDBRANCH   1   7
TORSDOF 2
ENDMDL
