MODEL 1
REMARK minimizedAffinity 17.6042156
REMARK minimizedRMSD -1
REMARK  2 active torsions:
REMARK  status: ('A' for Active; 'I' for Inactive)
REMARK    1  A    between atoms: C2'_3  and  C1'_4 
REMARK    2  A    between atoms: C1'_4  and  C1_5 
ROOT
ATOM      1  C1  I4B d   1       0.627   1.309   2.266  0.00  0.00    -0.075 A 
ATOM      2  C2  I4B d   1      -0.405   0.414   2.134  0.00  0.00     0.003 A 
ATOM      3  C3  I4B d   1      -1.725   0.791   2.480  0.00  0.00     0.002 A 
ATOM      4  C4  I4B d   1      -1.958   2.048   2.999  0.00  0.00    -0.004 A 
ATOM      5  C5  I4B d   1      -0.915   2.962   3.111  0.00  0.00     0.002 A 
ATOM      6  C6  I4B d   1       0.384   2.595   2.731  0.00  0.00     0.003 A 
ENDROOT
BRANCH   1   7
ATOM      7  C1' I4B d   1       2.014   0.867   1.922  0.00  0.00     0.060 C 
BRANCH   7   8
ATOM      8  C2' I4B d   1       1.917  -0.134   0.788  0.00  0.00    -0.013 C 
ATOM      9  C4' I4B d   1       1.368   0.507  -0.459  0.00  0.00     0.013 C 
ATOM     10  C3' I4B d   1       3.286  -0.699   0.551  0.00  0.00     0.013 C 
ENDBRANCH   7   8
ENDBRANCH   1   7
TORSDOF 2
ENDMDL
