MODEL 1
REMARK minimizedAffinity -4.10113955
REMARK minimizedRMSD -1
REMARK  1 active torsions:
REMARK  status: ('A' for Active; 'I' for Inactive)
REMARK    1  A    between atoms: C1_2  and  C2_3 
ROOT
ATOM      1  C2  UNL d   1      -0.419  -0.666   0.715  0.00  0.00    -0.081 A 
ATOM      2  C3  UNL d   1       0.098  -0.186   1.925  0.00  0.00     0.006 A 
ATOM      3  C4  UNL d   1      -0.666   0.655   2.737  0.00  0.00     0.002 A 
ATOM      4  C5  UNL d   1      -1.962   1.024   2.358  0.00  0.00    -0.080 A 
ATOM      5  C6  UNL d   1      -2.804   1.901   3.236  0.00  0.00     0.076 C 
ATOM      6  C7  UNL d   1      -2.472   0.558   1.142  0.00  0.00     0.002 A 
ATOM      7  C8  UNL d   1      -1.708  -0.282   0.328  0.00  0.00     0.006 A 
ENDROOT
BRANCH   1   8
ATOM      8  C1  UNL d   1       0.377  -1.625  -0.132  0.00  0.00     0.054 C 
ATOM      9  C   UNL d   1       1.338  -0.884  -1.052  0.00  0.00     0.018 C 
ENDBRANCH   1   8
TORSDOF 1
ENDMDL
