MODEL 1
REMARK minimizedAffinity -5.16882753
REMARK minimizedRMSD -1
REMARK  1 active torsions:
REMARK  status: ('A' for Active; 'I' for Inactive)
REMARK    1  A    between atoms: C1_2  and  C2_3 
ROOT
ATOM      1  C2  UNL d   1      -1.491   0.375   2.259  0.00  0.00    -0.081 A 
ATOM      2  C3  UNL d   1      -0.590   1.446   2.315  0.00  0.00     0.006 A 
ATOM      3  C4  UNL d   1       0.064   1.883   1.161  0.00  0.00     0.002 A 
ATOM      4  C5  UNL d   1      -0.176   1.262  -0.069  0.00  0.00    -0.080 A 
ATOM      5  C6  UNL d   1       0.496   1.741  -1.321  0.00  0.00     0.076 C 
ATOM      6  C7  UNL d   1      -1.063   0.181  -0.123  0.00  0.00     0.002 A 
ATOM      7  C8  UNL d   1      -1.717  -0.257   1.031  0.00  0.00     0.006 A 
ENDROOT
BRANCH   1   8
ATOM      8  C1  UNL d   1      -2.246  -0.057   3.489  0.00  0.00     0.054 C 
ATOM      9  C   UNL d   1      -3.365  -1.027   3.139  0.00  0.00     0.018 C 
ENDBRANCH   1   8
TORSDOF 1
ENDMDL
