MODEL 1
REMARK minimizedAffinity -3.02616072
REMARK minimizedRMSD -1
REMARK  1 active torsions:
REMARK  status: ('A' for Active; 'I' for Inactive)
REMARK    1  A    between atoms: C1_2  and  C2_3 
ROOT
ATOM      1  C2  UNL d   1      -1.147   0.091   1.008  0.00  0.00    -0.081 A 
ATOM      2  C3  UNL d   1      -0.477  -1.133   1.131  0.00  0.00     0.006 A 
ATOM      3  C4  UNL d   1       0.463  -1.524   0.175  0.00  0.00     0.002 A 
ATOM      4  C5  UNL d   1       0.756  -0.696  -0.914  0.00  0.00    -0.080 A 
ATOM      5  C6  UNL d   1       1.785  -1.090  -1.931  0.00  0.00     0.076 C 
ATOM      6  C7  UNL d   1       0.074   0.519  -1.046  0.00  0.00     0.002 A 
ATOM      7  C8  UNL d   1      -0.867   0.910  -0.091  0.00  0.00     0.006 A 
ENDROOT
BRANCH   1   8
ATOM      8  C1  UNL d   1      -2.114   0.544   2.072  0.00  0.00     0.054 C 
ATOM      9  C   UNL d   1      -1.438   1.461   3.081  0.00  0.00     0.018 C 
ENDBRANCH   1   8
TORSDOF 1
ENDMDL
