MODEL 1
REMARK minimizedAffinity -1.88773489
REMARK minimizedRMSD -1
REMARK  1 active torsions:
REMARK  status: ('A' for Active; 'I' for Inactive)
REMARK    1  A    between atoms: C1_2  and  C2_3 
ROOT
ATOM      1  C2  UNL d   1      -0.711   0.506   1.557  0.00  0.00    -0.081 A 
ATOM      2  C3  UNL d   1       0.081  -0.545   2.036  0.00  0.00     0.006 A 
ATOM      3  C4  UNL d   1       0.760  -1.381   1.147  0.00  0.00     0.002 A 
ATOM      4  C5  UNL d   1       0.665  -1.177  -0.234  0.00  0.00    -0.080 A 
ATOM      5  C6  UNL d   1       1.413  -2.049  -1.198  0.00  0.00     0.076 C 
ATOM      6  C7  UNL d   1      -0.140  -0.138  -0.713  0.00  0.00     0.002 A 
ATOM      7  C8  UNL d   1      -0.820   0.698   0.175  0.00  0.00     0.006 A 
ENDROOT
BRANCH   1   8
ATOM      8  C1  UNL d   1      -1.393   1.450   2.514  0.00  0.00     0.054 C 
ATOM      9  C   UNL d   1      -1.304   0.944   3.947  0.00  0.00     0.018 C 
ENDBRANCH   1   8
TORSDOF 1
ENDMDL
