MODEL 1
REMARK minimizedAffinity -4.83407593
REMARK minimizedRMSD -1
REMARK  1 active torsions:
REMARK  status: ('A' for Active; 'I' for Inactive)
REMARK    1  A    between atoms: C1_2  and  C2_3 
ROOT
ATOM      1  C2  UNL d   1      -1.041  -0.135   0.905  0.00  0.00    -0.081 A 
ATOM      2  C3  UNL d   1      -0.409  -1.381   0.993  0.00  0.00     0.006 A 
ATOM      3  C4  UNL d   1       0.731  -1.652   0.232  0.00  0.00     0.002 A 
ATOM      4  C5  UNL d   1       1.261  -0.680  -0.623  0.00  0.00    -0.080 A 
ATOM      5  C6  UNL d   1       2.502  -0.948  -1.422  0.00  0.00     0.076 C 
ATOM      6  C7  UNL d   1       0.619   0.559  -0.724  0.00  0.00     0.002 A 
ATOM      7  C8  UNL d   1      -0.520   0.830   0.036  0.00  0.00     0.006 A 
ENDROOT
BRANCH   1   8
ATOM      8  C1  UNL d   1      -2.232   0.183   1.773  0.00  0.00     0.054 C 
ATOM      9  C   UNL d   1      -1.801   0.628   3.163  0.00  0.00     0.018 C 
ENDBRANCH   1   8
TORSDOF 1
ENDMDL
