MODEL 1
REMARK minimizedAffinity -4.41688442
REMARK minimizedRMSD -1
REMARK  1 active torsions:
REMARK  status: ('A' for Active; 'I' for Inactive)
REMARK    1  A    between atoms: C1_2  and  C2_3 
ROOT
ATOM      1  C2  UNL d   1       1.274   0.432  -1.857  0.00  0.00    -0.081 A 
ATOM      2  C3  UNL d   1       2.093  -0.699  -1.966  0.00  0.00     0.006 A 
ATOM      3  C4  UNL d   1       1.878  -1.811  -1.149  0.00  0.00     0.002 A 
ATOM      4  C5  UNL d   1       0.837  -1.814  -0.214  0.00  0.00    -0.080 A 
ATOM      5  C6  UNL d   1       0.577  -3.013   0.649  0.00  0.00     0.076 C 
ATOM      6  C7  UNL d   1       0.030  -0.678  -0.093  0.00  0.00     0.002 A 
ATOM      7  C8  UNL d   1       0.244   0.434  -0.910  0.00  0.00     0.006 A 
ENDROOT
BRANCH   1   8
ATOM      8  C1  UNL d   1       1.462   1.607  -2.782  0.00  0.00     0.054 C 
ATOM      9  C   UNL d   1       0.373   2.651  -2.579  0.00  0.00     0.018 C 
ENDBRANCH   1   8
TORSDOF 1
ENDMDL
