MODEL 1
REMARK minimizedAffinity -0.910613
REMARK minimizedRMSD -1
REMARK  1 active torsions:
REMARK  status: ('A' for Active; 'I' for Inactive)
REMARK    1  A    between atoms: C1_2  and  C2_3 
ROOT
ATOM      1  C2  UNL d   1       1.432   0.325  -2.553  0.00  0.00    -0.081 A 
ATOM      2  C3  UNL d   1       2.096  -0.904  -2.454  0.00  0.00     0.006 A 
ATOM      3  C4  UNL d   1       1.840  -1.763  -1.382  0.00  0.00     0.002 A 
ATOM      4  C5  UNL d   1       0.911  -1.411  -0.397  0.00  0.00    -0.080 A 
ATOM      5  C6  UNL d   1       0.605  -2.337   0.743  0.00  0.00     0.076 C 
ATOM      6  C7  UNL d   1       0.261  -0.176  -0.487  0.00  0.00     0.002 A 
ATOM      7  C8  UNL d   1       0.517   0.684  -1.558  0.00  0.00     0.006 A 
ENDROOT
BRANCH   1   8
ATOM      8  C1  UNL d   1       1.658   1.224  -3.742  0.00  0.00     0.054 C 
ATOM      9  C   UNL d   1       1.480   0.467  -5.050  0.00  0.00     0.018 C 
ENDBRANCH   1   8
TORSDOF 1
ENDMDL
