MODEL 1
REMARK minimizedAffinity -0.913478374
REMARK minimizedRMSD -1
REMARK  1 active torsions:
REMARK  status: ('A' for Active; 'I' for Inactive)
REMARK    1  A    between atoms: C1_2  and  C2_3 
ROOT
ATOM      1  C2  UNL d   1      -0.685  -0.263   0.307  0.00  0.00    -0.081 A 
ATOM      2  C3  UNL d   1       0.270   0.258   1.189  0.00  0.00     0.006 A 
ATOM      3  C4  UNL d   1      -0.127   0.976   2.319  0.00  0.00     0.002 A 
ATOM      4  C5  UNL d   1      -1.485   1.179   2.591  0.00  0.00    -0.080 A 
ATOM      5  C6  UNL d   1      -1.925   1.922   3.817  0.00  0.00     0.076 C 
ATOM      6  C7  UNL d   1      -2.438   0.673   1.701  0.00  0.00     0.002 A 
ATOM      7  C8  UNL d   1      -2.041  -0.045   0.570  0.00  0.00     0.006 A 
ENDROOT
BRANCH   1   8
ATOM      8  C1  UNL d   1      -0.261  -1.093  -0.878  0.00  0.00     0.054 C 
ATOM      9  C   UNL d   1       1.242  -1.334  -0.876  0.00  0.00     0.018 C 
ENDBRANCH   1   8
TORSDOF 1
ENDMDL
