MODEL 1
REMARK minimizedAffinity -4.46539974
REMARK minimizedRMSD -1
REMARK  1 active torsions:
REMARK  status: ('A' for Active; 'I' for Inactive)
REMARK    1  A    between atoms: C1_2  and  C2_3 
ROOT
ATOM      1  C2  UNL d   1       0.561   0.493  -1.138  0.00  0.00    -0.081 A 
ATOM      2  C3  UNL d   1       1.573  -0.453  -1.344  0.00  0.00     0.006 A 
ATOM      3  C4  UNL d   1       1.547  -1.676  -0.671  0.00  0.00     0.002 A 
ATOM      4  C5  UNL d   1       0.505  -1.978   0.212  0.00  0.00    -0.080 A 
ATOM      5  C6  UNL d   1       0.449  -3.300   0.918  0.00  0.00     0.076 C 
ATOM      6  C7  UNL d   1      -0.497  -1.027   0.432  0.00  0.00     0.002 A 
ATOM      7  C8  UNL d   1      -0.471   0.197  -0.241  0.00  0.00     0.006 A 
ENDROOT
BRANCH   1   8
ATOM      8  C1  UNL d   1       0.552   1.787  -1.911  0.00  0.00     0.054 C 
ATOM      9  C   UNL d   1       1.452   1.706  -3.136  0.00  0.00     0.018 C 
ENDBRANCH   1   8
TORSDOF 1
ENDMDL
