MODEL 1
REMARK minimizedAffinity -1.49052525
REMARK minimizedRMSD -1
REMARK  0 active torsions:
REMARK  status: ('A' for Active; 'I' for Inactive)
ROOT
ATOM      1  O1  BZF d   1       0.094  -0.012  -6.000  0.00  0.00    -0.204 OA
ATOM      2  C2  BZF d   1      -1.026  -0.814  -5.900  0.00  0.00     0.174 A 
ATOM      3  C3  BZF d   1      -1.219  -1.211  -4.625  0.00  0.00    -0.012 A 
ATOM      4  C3A BZF d   1      -0.205  -0.544  -3.867  0.00  0.00    -0.107 A 
ATOM      5  C4  BZF d   1       0.112  -0.523  -2.539  0.00  0.00     0.055 A 
ATOM      6  C5  BZF d   1       1.207   0.173  -2.132  0.00  0.00    -0.016 A 
ATOM      7  C6  BZF d   1       2.007   0.854  -3.026  0.00  0.00     0.022 A 
ATOM      8  C7  BZF d   1       1.730   0.866  -4.352  0.00  0.00     0.029 A 
ATOM      9  C7A BZF d   1       0.606   0.191  -4.762  0.00  0.00     0.058 A 
ENDROOT
TORSDOF 0
ENDMDL
