MODEL 1
REMARK minimizedAffinity -6.08240795
REMARK minimizedRMSD -1
REMARK  0 active torsions:
REMARK  status: ('A' for Active; 'I' for Inactive)
ROOT
ATOM      1  O1  BZF d   1       0.953  -0.728   0.144  0.00  0.00    -0.204 OA
ATOM      2  C2  BZF d   1      -0.222  -0.717  -0.582  0.00  0.00     0.174 A 
ATOM      3  C3  BZF d   1      -1.227  -0.181   0.141  0.00  0.00    -0.012 A 
ATOM      4  C3A BZF d   1      -0.622   0.248   1.364  0.00  0.00    -0.107 A 
ATOM      5  C4  BZF d   1      -1.103   0.870   2.481  0.00  0.00     0.055 A 
ATOM      6  C5  BZF d   1      -0.266   1.084   3.530  0.00  0.00    -0.016 A 
ATOM      7  C6  BZF d   1       1.054   0.684   3.499  0.00  0.00     0.022 A 
ATOM      8  C7  BZF d   1       1.578   0.068   2.411  0.00  0.00     0.029 A 
ATOM      9  C7A BZF d   1       0.743  -0.120   1.336  0.00  0.00     0.058 A 
ENDROOT
TORSDOF 0
ENDMDL
