MODEL 1
REMARK minimizedAffinity -4.97996283
REMARK minimizedRMSD -1
REMARK  0 active torsions:
REMARK  status: ('A' for Active; 'I' for Inactive)
ROOT
ATOM      1  O1  BZF d   1      -0.843  -0.426  -0.909  0.00  0.00    -0.204 OA
ATOM      2  C2  BZF d   1       0.460  -0.579  -1.341  0.00  0.00     0.174 A 
ATOM      3  C3  BZF d   1       1.327  -0.101  -0.426  0.00  0.00    -0.012 A 
ATOM      4  C3A BZF d   1       0.519   0.297   0.686  0.00  0.00    -0.107 A 
ATOM      5  C4  BZF d   1       0.803   0.834   1.909  0.00  0.00     0.055 A 
ATOM      6  C5  BZF d   1      -0.220   1.175   2.735  0.00  0.00    -0.016 A 
ATOM      7  C6  BZF d   1      -1.539   0.998   2.369  0.00  0.00     0.022 A 
ATOM      8  C7  BZF d   1      -1.870   0.464   1.168  0.00  0.00     0.029 A 
ATOM      9  C7A BZF d   1      -0.837   0.088   0.344  0.00  0.00     0.058 A 
ENDROOT
TORSDOF 0
ENDMDL
