MODEL 1
REMARK minimizedAffinity -3.05670047
REMARK minimizedRMSD -1
REMARK  0 active torsions:
REMARK  status: ('A' for Active; 'I' for Inactive)
ROOT
ATOM      1  O1  BZF d   1       0.593  -0.563  -0.372  0.00  0.00    -0.204 OA
ATOM      2  C2  BZF d   1      -0.516  -1.015  -1.062  0.00  0.00     0.174 A 
ATOM      3  C3  BZF d   1      -1.641  -0.811  -0.347  0.00  0.00    -0.012 A 
ATOM      4  C3A BZF d   1      -1.218  -0.110   0.827  0.00  0.00    -0.107 A 
ATOM      5  C4  BZF d   1      -1.880   0.386   1.914  0.00  0.00     0.055 A 
ATOM      6  C5  BZF d   1      -1.165   0.953   2.921  0.00  0.00    -0.016 A 
ATOM      7  C6  BZF d   1       0.211   1.036   2.876  0.00  0.00     0.022 A 
ATOM      8  C7  BZF d   1       0.911   0.563   1.817  0.00  0.00     0.029 A 
ATOM      9  C7A BZF d   1       0.189   0.019   0.783  0.00  0.00     0.058 A 
ENDROOT
TORSDOF 0
ENDMDL
