MODEL 1
REMARK minimizedAffinity -4.14390135
REMARK minimizedRMSD -1
REMARK  0 active torsions:
REMARK  status: ('A' for Active; 'I' for Inactive)
ROOT
ATOM      1  O1  BZF d   1       1.153  -1.358  -1.310  0.00  0.00    -0.204 OA
ATOM      2  C2  BZF d   1      -0.056  -1.003  -1.874  0.00  0.00     0.174 A 
ATOM      3  C3  BZF d   1      -0.778  -0.245  -1.023  0.00  0.00    -0.012 A 
ATOM      4  C3A BZF d   1       0.071  -0.042   0.111  0.00  0.00    -0.107 A 
ATOM      5  C4  BZF d   1      -0.077   0.643   1.283  0.00  0.00     0.055 A 
ATOM      6  C5  BZF d   1       0.912   0.582   2.213  0.00  0.00    -0.016 A 
ATOM      7  C6  BZF d   1       2.059  -0.156   2.006  0.00  0.00     0.022 A 
ATOM      8  C7  BZF d   1       2.253  -0.848   0.857  0.00  0.00     0.029 A 
ATOM      9  C7A BZF d   1       1.269  -0.762  -0.099  0.00  0.00     0.058 A 
ENDROOT
TORSDOF 0
ENDMDL
