MODEL 1
REMARK minimizedAffinity -1.12543011
REMARK minimizedRMSD -1
REMARK  0 active torsions:
REMARK  status: ('A' for Active; 'I' for Inactive)
ROOT
ATOM      1  O1  BZF d   1       1.040   0.820  -0.497  0.00  0.00    -0.204 OA
ATOM      2  C2  BZF d   1       0.683  -0.206  -1.351  0.00  0.00     0.174 A 
ATOM      3  C3  BZF d   1      -0.407  -0.854  -0.893  0.00  0.00    -0.012 A 
ATOM      4  C3A BZF d   1      -0.808  -0.134   0.277  0.00  0.00    -0.107 A 
ATOM      5  C4  BZF d   1      -1.835  -0.283   1.165  0.00  0.00     0.055 A 
ATOM      6  C5  BZF d   1      -1.903   0.545   2.241  0.00  0.00    -0.016 A 
ATOM      7  C6  BZF d   1      -0.960   1.526   2.462  0.00  0.00     0.022 A 
ATOM      8  C7  BZF d   1       0.074   1.716   1.607  0.00  0.00     0.029 A 
ATOM      9  C7A BZF d   1       0.127   0.903   0.501  0.00  0.00     0.058 A 
ENDROOT
TORSDOF 0
ENDMDL
