MODEL 1
REMARK minimizedAffinity -5.84767866
REMARK minimizedRMSD -1
REMARK  0 active torsions:
REMARK  status: ('A' for Active; 'I' for Inactive)
ROOT
ATOM      1  O1  BZF d   1      -1.462  -0.666  -0.474  0.00  0.00    -0.204 OA
ATOM      2  C2  BZF d   1      -0.268  -1.092  -1.022  0.00  0.00     0.174 A 
ATOM      3  C3  BZF d   1       0.779  -0.577  -0.347  0.00  0.00    -0.012 A 
ATOM      4  C3A BZF d   1       0.204   0.147   0.745  0.00  0.00    -0.107 A 
ATOM      5  C4  BZF d   1       0.733   0.866   1.778  0.00  0.00     0.055 A 
ATOM      6  C5  BZF d   1      -0.104   1.511   2.632  0.00  0.00    -0.016 A 
ATOM      7  C6  BZF d   1      -1.475   1.462   2.480  0.00  0.00     0.022 A 
ATOM      8  C7  BZF d   1      -2.047   0.758   1.473  0.00  0.00     0.029 A 
ATOM      9  C7A BZF d   1      -1.204   0.078   0.628  0.00  0.00     0.058 A 
ENDROOT
TORSDOF 0
ENDMDL
