MODEL 1
REMARK minimizedAffinity -4.83614159
REMARK minimizedRMSD -1
REMARK  0 active torsions:
REMARK  status: ('A' for Active; 'I' for Inactive)
ROOT
ATOM      1  O1  BZF d   1       0.913  -0.747  -0.208  0.00  0.00    -0.204 OA
ATOM      2  C2  BZF d   1      -0.129  -1.104  -1.041  0.00  0.00     0.174 A 
ATOM      3  C3  BZF d   1      -1.313  -0.733  -0.512  0.00  0.00    -0.012 A 
ATOM      4  C3A BZF d   1      -0.984  -0.023   0.686  0.00  0.00    -0.107 A 
ATOM      5  C4  BZF d   1      -1.732   0.604   1.641  0.00  0.00     0.055 A 
ATOM      6  C5  BZF d   1      -1.108   1.138   2.723  0.00  0.00    -0.016 A 
ATOM      7  C6  BZF d   1       0.259   1.059   2.885  0.00  0.00     0.022 A 
ATOM      8  C7  BZF d   1       1.044   0.452   1.962  0.00  0.00     0.029 A 
ATOM      9  C7A BZF d   1       0.420  -0.060   0.851  0.00  0.00     0.058 A 
ENDROOT
TORSDOF 0
ENDMDL
