MODEL 1
REMARK minimizedAffinity -1.92129898
REMARK minimizedRMSD -1
REMARK  0 active torsions:
REMARK  status: ('A' for Active; 'I' for Inactive)
ROOT
ATOM      1  O1  BZF d   1       1.819  -0.946  -0.084  0.00  0.00    -0.204 OA
ATOM      2  C2  BZF d   1       2.647  -0.677   0.990  0.00  0.00     0.174 A 
ATOM      3  C3  BZF d   1       1.968  -0.050   1.972  0.00  0.00    -0.012 A 
ATOM      4  C3A BZF d   1       0.611  -0.001   1.519  0.00  0.00    -0.107 A 
ATOM      5  C4  BZF d   1      -0.543   0.487   2.063  0.00  0.00     0.055 A 
ATOM      6  C5  BZF d   1      -1.687   0.444   1.331  0.00  0.00    -0.016 A 
ATOM      7  C6  BZF d   1      -1.713  -0.074   0.053  0.00  0.00     0.022 A 
ATOM      8  C7  BZF d   1      -0.594  -0.574  -0.527  0.00  0.00     0.029 A 
ATOM      9  C7A BZF d   1       0.557  -0.562   0.223  0.00  0.00     0.058 A 
ENDROOT
TORSDOF 0
ENDMDL
