MODEL 1
REMARK minimizedAffinity 8.75415039
REMARK minimizedRMSD -1
REMARK  0 active torsions:
REMARK  status: ('A' for Active; 'I' for Inactive)
ROOT
ATOM      1  C2' OXE d   1      -3.283  -5.672  -5.951  0.00  0.00     0.078 C 
ATOM      2  C1' OXE d   1      -0.493  -5.983  -5.962  0.00  0.00     0.078 C 
ATOM      3  C1  OXE d   1      -1.044  -4.579  -5.958  0.00  0.00    -0.078 A 
ATOM      4  C2  OXE d   1      -2.410  -4.436  -6.000  0.00  0.00    -0.078 A 
ATOM      5  C3  OXE d   1      -2.973  -3.164  -5.943  0.00  0.00     0.003 A 
ATOM      6  C4  OXE d   1      -2.159  -2.026  -5.999  0.00  0.00    -0.002 A 
ATOM      7  C5  OXE d   1      -0.766  -2.149  -5.997  0.00  0.00    -0.002 A 
ATOM      8  C6  OXE d   1      -0.193  -3.415  -5.934  0.00  0.00     0.003 A 
ENDROOT
TORSDOF 0
ENDMDL
