MODEL 1
REMARK minimizedAffinity 7.15562582
REMARK minimizedRMSD -1
REMARK  0 active torsions:
REMARK  status: ('A' for Active; 'I' for Inactive)
ROOT
ATOM      1  C2' OXE d   1      -5.976   0.367   3.554  0.00  0.00     0.078 C 
ATOM      2  C1' OXE d   1      -3.769  -0.738   2.216  0.00  0.00     0.078 C 
ATOM      3  C1  OXE d   1      -4.344  -1.508   3.378  0.00  0.00    -0.078 A 
ATOM      4  C2  OXE d   1      -5.394  -0.937   4.056  0.00  0.00    -0.078 A 
ATOM      5  C3  OXE d   1      -5.998  -1.630   5.102  0.00  0.00     0.003 A 
ATOM      6  C4  OXE d   1      -5.448  -2.831   5.567  0.00  0.00    -0.002 A 
ATOM      7  C5  OXE d   1      -4.354  -3.410   4.916  0.00  0.00    -0.002 A 
ATOM      8  C6  OXE d   1      -3.818  -2.784   3.796  0.00  0.00     0.003 A 
ENDROOT
TORSDOF 0
ENDMDL
