MODEL 1
REMARK minimizedAffinity 1.58398199
REMARK minimizedRMSD -1
REMARK  0 active torsions:
REMARK  status: ('A' for Active; 'I' for Inactive)
ROOT
ATOM      1  C2' OXE d   1      -5.442   1.186   3.838  0.00  0.00     0.078 C 
ATOM      2  C1' OXE d   1      -4.531  -0.740   2.009  0.00  0.00     0.078 C 
ATOM      3  C1  OXE d   1      -5.056  -1.224   3.338  0.00  0.00    -0.078 A 
ATOM      4  C2  OXE d   1      -5.456  -0.272   4.245  0.00  0.00    -0.078 A 
ATOM      5  C3  OXE d   1      -5.999  -0.666   5.464  0.00  0.00     0.003 A 
ATOM      6  C4  OXE d   1      -6.000  -2.016   5.836  0.00  0.00    -0.002 A 
ATOM      7  C5  OXE d   1      -5.560  -2.999   4.944  0.00  0.00    -0.002 A 
ATOM      8  C6  OXE d   1      -5.126  -2.624   3.677  0.00  0.00     0.003 A 
ENDROOT
TORSDOF 0
ENDMDL
