MODEL 1
REMARK minimizedAffinity 2.33409691
REMARK minimizedRMSD -1
REMARK  0 active torsions:
REMARK  status: ('A' for Active; 'I' for Inactive)
ROOT
ATOM      1  C2' OXE d   1       0.340  -3.935  -5.762  0.00  0.00     0.078 C 
ATOM      2  C1' OXE d   1      -1.579  -1.900  -5.998  0.00  0.00     0.078 C 
ATOM      3  C1  OXE d   1      -2.068  -3.326  -5.946  0.00  0.00    -0.078 A 
ATOM      4  C2  OXE d   1      -1.120  -4.318  -5.877  0.00  0.00    -0.078 A 
ATOM      5  C3  OXE d   1      -1.519  -5.647  -5.771  0.00  0.00     0.003 A 
ATOM      6  C4  OXE d   1      -2.870  -5.993  -5.888  0.00  0.00    -0.002 A 
ATOM      7  C5  OXE d   1      -3.850  -5.001  -5.999  0.00  0.00    -0.002 A 
ATOM      8  C6  OXE d   1      -3.470  -3.663  -5.986  0.00  0.00     0.003 A 
ENDROOT
TORSDOF 0
ENDMDL
