MODEL 1
REMARK minimizedAffinity 12.346715
REMARK minimizedRMSD -1
REMARK  0 active torsions:
REMARK  status: ('A' for Active; 'I' for Inactive)
ROOT
ATOM      1  C2' OXE d   1      -1.324   5.191  -2.728  0.00  0.00     0.078 C 
ATOM      2  C1' OXE d   1      -1.680   5.922  -0.041  0.00  0.00     0.078 C 
ATOM      3  C1  OXE d   1      -0.973   4.621  -0.328  0.00  0.00    -0.078 A 
ATOM      4  C2  OXE d   1      -0.844   4.248  -1.645  0.00  0.00    -0.078 A 
ATOM      5  C3  OXE d   1      -0.152   3.085  -1.968  0.00  0.00     0.003 A 
ATOM      6  C4  OXE d   1       0.280   2.214  -0.960  0.00  0.00    -0.002 A 
ATOM      7  C5  OXE d   1       0.123   2.555   0.388  0.00  0.00    -0.002 A 
ATOM      8  C6  OXE d   1      -0.462   3.772   0.720  0.00  0.00     0.003 A 
ENDROOT
TORSDOF 0
ENDMDL
