MODEL 1
REMARK minimizedAffinity 9.47739601
REMARK minimizedRMSD -1
REMARK  0 active torsions:
REMARK  status: ('A' for Active; 'I' for Inactive)
ROOT
ATOM      1  C2' OXE d   1      -3.295   4.634  -3.686  0.00  0.00     0.078 C 
ATOM      2  C1' OXE d   1      -3.387   2.078  -2.528  0.00  0.00     0.078 C 
ATOM      3  C1  OXE d   1      -2.151   2.912  -2.296  0.00  0.00    -0.078 A 
ATOM      4  C2  OXE d   1      -2.095   4.143  -2.905  0.00  0.00    -0.078 A 
ATOM      5  C3  OXE d   1      -1.002   4.974  -2.679  0.00  0.00     0.003 A 
ATOM      6  C4  OXE d   1       0.107   4.508  -1.964  0.00  0.00    -0.002 A 
ATOM      7  C5  OXE d   1       0.088   3.243  -1.369  0.00  0.00    -0.002 A 
ATOM      8  C6  OXE d   1      -1.049   2.451  -1.489  0.00  0.00     0.003 A 
ENDROOT
TORSDOF 0
ENDMDL
