MODEL 1
REMARK minimizedAffinity -0.619663119
REMARK minimizedRMSD -1
REMARK  0 active torsions:
REMARK  status: ('A' for Active; 'I' for Inactive)
ROOT
ATOM      1  C2' OXE d   1      -5.951  -1.188   2.247  0.00  0.00     0.078 C 
ATOM      2  C1' OXE d   1      -6.000   0.097   4.743  0.00  0.00     0.078 C 
ATOM      3  C1  OXE d   1      -5.977  -1.411   4.728  0.00  0.00    -0.078 A 
ATOM      4  C2  OXE d   1      -6.000  -2.032   3.503  0.00  0.00    -0.078 A 
ATOM      5  C3  OXE d   1      -5.925  -3.420   3.432  0.00  0.00     0.003 A 
ATOM      6  C4  OXE d   1      -5.980  -4.193   4.598  0.00  0.00    -0.002 A 
ATOM      7  C5  OXE d   1      -5.997  -3.581   5.856  0.00  0.00    -0.002 A 
ATOM      8  C6  OXE d   1      -5.952  -2.194   5.939  0.00  0.00     0.003 A 
ENDROOT
TORSDOF 0
ENDMDL
