MODEL 1
REMARK minimizedAffinity 0.183617875
REMARK minimizedRMSD -1
REMARK  0 active torsions:
REMARK  status: ('A' for Active; 'I' for Inactive)
ROOT
ATOM      1  C2' OXE d   1      -4.285  -2.488  -5.969  0.00  0.00     0.078 C 
ATOM      2  C1' OXE d   1      -5.172  -5.151  -5.895  0.00  0.00     0.078 C 
ATOM      3  C1  OXE d   1      -3.683  -4.905  -5.914  0.00  0.00    -0.078 A 
ATOM      4  C2  OXE d   1      -3.259  -3.601  -5.997  0.00  0.00    -0.078 A 
ATOM      5  C3  OXE d   1      -1.897  -3.316  -5.963  0.00  0.00     0.003 A 
ATOM      6  C4  OXE d   1      -0.955  -4.351  -5.999  0.00  0.00    -0.002 A 
ATOM      7  C5  OXE d   1      -1.366  -5.687  -5.955  0.00  0.00    -0.002 A 
ATOM      8  C6  OXE d   1      -2.723  -5.980  -5.869  0.00  0.00     0.003 A 
ENDROOT
TORSDOF 0
ENDMDL
