MODEL 1
REMARK minimizedAffinity 7.90415812
REMARK minimizedRMSD -1
REMARK  0 active torsions:
REMARK  status: ('A' for Active; 'I' for Inactive)
ROOT
ATOM      1  C2' OXE d   1      -1.866   5.806   0.592  0.00  0.00     0.078 C 
ATOM      2  C1' OXE d   1      -0.763   3.227   0.710  0.00  0.00     0.078 C 
ATOM      3  C1  OXE d   1      -0.634   3.990  -0.586  0.00  0.00    -0.078 A 
ATOM      4  C2  OXE d   1      -1.218   5.232  -0.649  0.00  0.00    -0.078 A 
ATOM      5  C3  OXE d   1      -1.081   6.000  -1.802  0.00  0.00     0.003 A 
ATOM      6  C4  OXE d   1      -0.488   5.457  -2.949  0.00  0.00    -0.002 A 
ATOM      7  C5  OXE d   1       0.078   4.178  -2.918  0.00  0.00    -0.002 A 
ATOM      8  C6  OXE d   1       0.051   3.450  -1.734  0.00  0.00     0.003 A 
ENDROOT
TORSDOF 0
ENDMDL
