MODEL 1
REMARK minimizedAffinity 6.90618992
REMARK minimizedRMSD -1
REMARK  0 active torsions:
REMARK  status: ('A' for Active; 'I' for Inactive)
ROOT
ATOM      1  C2' OXE d   1      -4.859  -3.195  -5.994  0.00  0.00     0.078 C 
ATOM      2  C1' OXE d   1      -4.894  -5.954  -5.480  0.00  0.00     0.078 C 
ATOM      3  C1  OXE d   1      -3.552  -5.281  -5.616  0.00  0.00    -0.078 A 
ATOM      4  C2  OXE d   1      -3.544  -3.940  -5.914  0.00  0.00    -0.078 A 
ATOM      5  C3  OXE d   1      -2.333  -3.258  -5.996  0.00  0.00     0.003 A 
ATOM      6  C4  OXE d   1      -1.121  -3.956  -5.930  0.00  0.00    -0.002 A 
ATOM      7  C5  OXE d   1      -1.107  -5.330  -5.666  0.00  0.00    -0.002 A 
ATOM      8  C6  OXE d   1      -2.310  -5.998  -5.465  0.00  0.00     0.003 A 
ENDROOT
TORSDOF 0
ENDMDL
