MODEL 1
REMARK minimizedAffinity -3.10746527
REMARK minimizedRMSD -1
REMARK  0 active torsions:
REMARK  status: ('A' for Active; 'I' for Inactive)
ROOT
ATOM      1  C2' OXE d   1      -5.801  -5.737  -5.905  0.00  0.00     0.078 C 
ATOM      2  C1' OXE d   1      -5.512  -2.946  -5.996  0.00  0.00     0.078 C 
ATOM      3  C1  OXE d   1      -4.257  -3.782  -5.961  0.00  0.00    -0.078 A 
ATOM      4  C2  OXE d   1      -4.408  -5.145  -5.870  0.00  0.00    -0.078 A 
ATOM      5  C3  OXE d   1      -3.285  -5.966  -5.890  0.00  0.00     0.003 A 
ATOM      6  C4  OXE d   1      -2.000  -5.411  -5.848  0.00  0.00    -0.002 A 
ATOM      7  C5  OXE d   1      -1.824  -4.024  -5.900  0.00  0.00    -0.002 A 
ATOM      8  C6  OXE d   1      -2.939  -3.199  -6.000  0.00  0.00     0.003 A 
ENDROOT
TORSDOF 0
ENDMDL
