MODEL 1
REMARK minimizedAffinity 3.93707204
REMARK minimizedRMSD -1
REMARK  0 active torsions:
REMARK  status: ('A' for Active; 'I' for Inactive)
ROOT
ATOM      1  C2' OXE d   1      -4.813  -3.007  -5.988  0.00  0.00     0.078 C 
ATOM      2  C1' OXE d   1      -4.964  -5.807  -5.862  0.00  0.00     0.078 C 
ATOM      3  C1  OXE d   1      -3.594  -5.177  -5.889  0.00  0.00    -0.078 A 
ATOM      4  C2  OXE d   1      -3.529  -3.809  -5.998  0.00  0.00    -0.078 A 
ATOM      5  C3  OXE d   1      -2.291  -3.173  -5.972  0.00  0.00     0.003 A 
ATOM      6  C4  OXE d   1      -1.109  -3.922  -5.991  0.00  0.00    -0.002 A 
ATOM      7  C5  OXE d   1      -1.152  -5.319  -5.921  0.00  0.00    -0.002 A 
ATOM      8  C6  OXE d   1      -2.383  -5.958  -5.827  0.00  0.00     0.003 A 
ENDROOT
TORSDOF 0
ENDMDL
