MODEL 1
REMARK minimizedAffinity 8.36366653
REMARK minimizedRMSD -1
REMARK  0 active torsions:
REMARK  status: ('A' for Active; 'I' for Inactive)
ROOT
ATOM      1  C2' OXE d   1       0.627  -4.728  -5.830  0.00  0.00     0.078 C 
ATOM      2  C1' OXE d   1      -1.878  -5.996  -5.822  0.00  0.00     0.078 C 
ATOM      3  C1  OXE d   1      -1.852  -4.490  -5.899  0.00  0.00    -0.078 A 
ATOM      4  C2  OXE d   1      -0.624  -3.875  -5.855  0.00  0.00    -0.078 A 
ATOM      5  C3  OXE d   1      -0.540  -2.491  -5.977  0.00  0.00     0.003 A 
ATOM      6  C4  OXE d   1      -1.702  -1.710  -5.990  0.00  0.00    -0.002 A 
ATOM      7  C5  OXE d   1      -2.964  -2.313  -5.996  0.00  0.00    -0.002 A 
ATOM      8  C6  OXE d   1      -3.056  -3.701  -5.993  0.00  0.00     0.003 A 
ENDROOT
TORSDOF 0
ENDMDL
