MODEL 1
REMARK minimizedAffinity -0.461806476
REMARK minimizedRMSD -1
REMARK  0 active torsions:
REMARK  status: ('A' for Active; 'I' for Inactive)
ROOT
ATOM      1  C   UNL d   1       1.765  -1.744   1.150  0.00  0.00     0.172 C 
ATOM      2  N   UNL d   1       2.726  -2.822   1.158  0.00  0.00    -0.070 N 
ATOM      3  C1  UNL d   1       3.586  -3.117   2.182  0.00  0.00    -0.004 A 
ATOM      4  C2  UNL d   1       4.334  -4.212   1.803  0.00  0.00    -0.047 A 
ATOM      5  C3  UNL d   1       3.908  -4.587   0.506  0.00  0.00    -0.047 A 
ATOM      6  C4  UNL d   1       2.912  -3.710   0.131  0.00  0.00    -0.004 A 
ENDROOT
TORSDOF 0
ENDMDL
