MODEL 1
REMARK minimizedAffinity -2.95906997
REMARK minimizedRMSD -1
REMARK  0 active torsions:
REMARK  status: ('A' for Active; 'I' for Inactive)
ROOT
ATOM      1  C   UNL d   1       4.483   5.379  -5.952  0.00  0.00     0.172 C 
ATOM      2  N   UNL d   1       3.174   4.770  -5.968  0.00  0.00    -0.070 N 
ATOM      3  C1  UNL d   1       1.981   5.442  -5.966  0.00  0.00    -0.004 A 
ATOM      4  C2  UNL d   1       0.969   4.507  -5.986  0.00  0.00    -0.047 A 
ATOM      5  C3  UNL d   1       1.575   3.228  -5.999  0.00  0.00    -0.047 A 
ATOM      6  C4  UNL d   1       2.941   3.421  -5.988  0.00  0.00    -0.004 A 
ENDROOT
TORSDOF 0
ENDMDL
