MODEL 1
REMARK minimizedAffinity -2.96694946
REMARK minimizedRMSD -1
REMARK  0 active torsions:
REMARK  status: ('A' for Active; 'I' for Inactive)
ROOT
ATOM      1  C   UNL d   1       5.695   3.309  -5.968  0.00  0.00     0.172 C 
ATOM      2  N   UNL d   1       4.447   4.036  -5.981  0.00  0.00    -0.070 N 
ATOM      3  C1  UNL d   1       4.318   5.399  -5.989  0.00  0.00    -0.004 A 
ATOM      4  C2  UNL d   1       2.972   5.696  -6.000  0.00  0.00    -0.047 A 
ATOM      5  C3  UNL d   1       2.268   4.468  -5.998  0.00  0.00    -0.047 A 
ATOM      6  C4  UNL d   1       3.206   3.457  -5.986  0.00  0.00    -0.004 A 
ENDROOT
TORSDOF 0
ENDMDL
