MODEL 1
REMARK minimizedAffinity -2.02266407
REMARK minimizedRMSD -1
REMARK  0 active torsions:
REMARK  status: ('A' for Active; 'I' for Inactive)
ROOT
ATOM      1  C   UNL d   1       2.583   5.625  -5.966  0.00  0.00     0.172 C 
ATOM      2  N   UNL d   1       3.827   4.891  -5.974  0.00  0.00    -0.070 N 
ATOM      3  C1  UNL d   1       5.080   5.444  -5.999  0.00  0.00    -0.004 A 
ATOM      4  C2  UNL d   1       5.995   4.414  -5.999  0.00  0.00    -0.047 A 
ATOM      5  C3  UNL d   1       5.267   3.200  -5.974  0.00  0.00    -0.047 A 
ATOM      6  C4  UNL d   1       3.927   3.525  -5.959  0.00  0.00    -0.004 A 
ENDROOT
TORSDOF 0
ENDMDL
