MODEL 1
REMARK minimizedAffinity -1.83587015
REMARK minimizedRMSD -1
REMARK  0 active torsions:
REMARK  status: ('A' for Active; 'I' for Inactive)
ROOT
ATOM      1  C   UNL d   1      -2.256   2.013  -2.937  0.00  0.00     0.172 C 
ATOM      2  N   UNL d   1      -3.045   0.806  -2.854  0.00  0.00    -0.070 N 
ATOM      3  C1  UNL d   1      -3.405   0.013  -3.911  0.00  0.00    -0.004 A 
ATOM      4  C2  UNL d   1      -4.149  -1.036  -3.417  0.00  0.00    -0.047 A 
ATOM      5  C3  UNL d   1      -4.241  -0.868  -2.015  0.00  0.00    -0.047 A 
ATOM      6  C4  UNL d   1      -3.548   0.280  -1.694  0.00  0.00    -0.004 A 
ENDROOT
TORSDOF 0
ENDMDL
