MODEL 1
REMARK minimizedAffinity 2.10489154
REMARK minimizedRMSD -1
REMARK  0 active torsions:
REMARK  status: ('A' for Active; 'I' for Inactive)
ROOT
ATOM      1  C   UNL d   1       3.345  -4.727   0.541  0.00  0.00     0.020 A 
ATOM      2  C1  UNL d   1       3.428  -3.340   0.664  0.00  0.00     0.020 A 
ATOM      3  C2  UNL d   1       2.405  -2.634   1.301  0.00  0.00     0.034 A 
ATOM      4  C3  UNL d   1       1.297  -3.314   1.819  0.00  0.00     0.017 A 
ATOM      5  C4  UNL d   1       1.215  -4.705   1.695  0.00  0.00     0.017 A 
ATOM      6  C5  UNL d   1       2.241  -5.408   1.056  0.00  0.00     0.034 A 
ATOM      7 Cl   UNL d   1      -0.122  -5.614   2.308  0.00  0.00    -0.070 Cl
ATOM      8 Cl1  UNL d   1       0.070  -2.377   2.595  0.00  0.00    -0.070 Cl
ENDROOT
TORSDOF 0
ENDMDL
