MODEL 1
REMARK minimizedAffinity 7.79540539
REMARK minimizedRMSD -1
REMARK  0 active torsions:
REMARK  status: ('A' for Active; 'I' for Inactive)
ROOT
ATOM      1  C   UNL d   1       5.899  -1.023  -4.756  0.00  0.00     0.020 A 
ATOM      2  C1  UNL d   1       5.699  -0.159  -5.832  0.00  0.00     0.020 A 
ATOM      3  C2  UNL d   1       5.590   1.216  -5.613  0.00  0.00     0.034 A 
ATOM      4  C3  UNL d   1       5.679   1.731  -4.315  0.00  0.00     0.017 A 
ATOM      5  C4  UNL d   1       5.879   0.863  -3.235  0.00  0.00     0.017 A 
ATOM      6  C5  UNL d   1       5.988  -0.513  -3.460  0.00  0.00     0.034 A 
ATOM      7 Cl   UNL d   1       6.000   1.424  -1.605  0.00  0.00    -0.070 Cl
ATOM      8 Cl1  UNL d   1       5.535   3.441  -4.117  0.00  0.00    -0.070 Cl
ENDROOT
TORSDOF 0
ENDMDL
