MODEL 1
REMARK minimizedAffinity 7.45055485
REMARK minimizedRMSD -1
REMARK  0 active torsions:
REMARK  status: ('A' for Active; 'I' for Inactive)
ROOT
ATOM      1  C   UNL d   1       1.514  -4.209   1.305  0.00  0.00     0.020 A 
ATOM      2  C1  UNL d   1       1.747  -2.937   1.826  0.00  0.00     0.020 A 
ATOM      3  C2  UNL d   1       3.057  -2.482   1.997  0.00  0.00     0.034 A 
ATOM      4  C3  UNL d   1       4.137  -3.300   1.646  0.00  0.00     0.017 A 
ATOM      5  C4  UNL d   1       3.901  -4.576   1.123  0.00  0.00     0.017 A 
ATOM      6  C5  UNL d   1       2.588  -5.027   0.955  0.00  0.00     0.034 A 
ATOM      7 Cl   UNL d   1       5.183  -5.643   0.668  0.00  0.00    -0.070 Cl
ATOM      8 Cl1  UNL d   1       5.730  -2.673   1.884  0.00  0.00    -0.070 Cl
ENDROOT
TORSDOF 0
ENDMDL
