MODEL 1
REMARK minimizedAffinity 6.31203032
REMARK minimizedRMSD -1
REMARK  0 active torsions:
REMARK  status: ('A' for Active; 'I' for Inactive)
ROOT
ATOM      1  C   UNL d   1      -1.493   1.948  -2.111  0.00  0.00     0.020 A 
ATOM      2  C1  UNL d   1      -0.266   2.608  -2.166  0.00  0.00     0.020 A 
ATOM      3  C2  UNL d   1      -0.105   3.714  -3.002  0.00  0.00     0.034 A 
ATOM      4  C3  UNL d   1      -1.172   4.164  -3.788  0.00  0.00     0.017 A 
ATOM      5  C4  UNL d   1      -2.403   3.501  -3.733  0.00  0.00     0.017 A 
ATOM      6  C5  UNL d   1      -2.559   2.394  -2.893  0.00  0.00     0.034 A 
ATOM      7 Cl   UNL d   1      -3.767   3.997  -4.672  0.00  0.00    -0.070 Cl
ATOM      8 Cl1  UNL d   1      -0.902   5.539  -4.799  0.00  0.00    -0.070 Cl
ENDROOT
TORSDOF 0
ENDMDL
