MODEL 1
REMARK minimizedAffinity 7.80037212
REMARK minimizedRMSD -1
REMARK  0 active torsions:
REMARK  status: ('A' for Active; 'I' for Inactive)
ROOT
ATOM      1  C   UNL d   1       5.975  -1.667  -4.321  0.00  0.00     0.020 A 
ATOM      2  C1  UNL d   1       5.977  -0.883  -5.474  0.00  0.00     0.020 A 
ATOM      3  C2  UNL d   1       5.984   0.510  -5.371  0.00  0.00     0.034 A 
ATOM      4  C3  UNL d   1       5.989   1.123  -4.113  0.00  0.00     0.017 A 
ATOM      5  C4  UNL d   1       5.988   0.335  -2.956  0.00  0.00     0.017 A 
ATOM      6  C5  UNL d   1       5.980  -1.059  -3.065  0.00  0.00     0.034 A 
ATOM      7 Cl   UNL d   1       5.994   1.019  -1.369  0.00  0.00    -0.070 Cl
ATOM      8 Cl1  UNL d   1       5.999   2.850  -4.061  0.00  0.00    -0.070 Cl
ENDROOT
TORSDOF 0
ENDMDL
