MODEL 1
REMARK minimizedAffinity 4.23052931
REMARK minimizedRMSD -1
REMARK  0 active torsions:
REMARK  status: ('A' for Active; 'I' for Inactive)
ROOT
ATOM      1  C   UNL d   1       5.967   2.239  -5.270  0.00  0.00     0.020 A 
ATOM      2  C1  UNL d   1       5.991   2.311  -3.878  0.00  0.00     0.020 A 
ATOM      3  C2  UNL d   1       6.000   1.139  -3.118  0.00  0.00     0.034 A 
ATOM      4  C3  UNL d   1       5.983  -0.109  -3.750  0.00  0.00     0.017 A 
ATOM      5  C4  UNL d   1       5.958  -0.180  -5.148  0.00  0.00     0.017 A 
ATOM      6  C5  UNL d   1       5.950   0.996  -5.903  0.00  0.00     0.034 A 
ATOM      7 Cl   UNL d   1       5.937  -1.684  -5.999  0.00  0.00    -0.070 Cl
ATOM      8 Cl1  UNL d   1       5.995  -1.517  -2.748  0.00  0.00    -0.070 Cl
ENDROOT
TORSDOF 0
ENDMDL
