MODEL 1
REMARK minimizedAffinity 4.1221633
REMARK minimizedRMSD -1
REMARK  0 active torsions:
REMARK  status: ('A' for Active; 'I' for Inactive)
ROOT
ATOM      1  C   UNL d   1       2.059  -4.081   0.861  0.00  0.00     0.020 A 
ATOM      2  C1  UNL d   1       2.516  -2.764   0.847  0.00  0.00     0.020 A 
ATOM      3  C2  UNL d   1       1.863  -1.790   1.604  0.00  0.00     0.034 A 
ATOM      4  C3  UNL d   1       0.748  -2.131   2.380  0.00  0.00     0.017 A 
ATOM      5  C4  UNL d   1       0.290  -3.453   2.393  0.00  0.00     0.017 A 
ATOM      6  C5  UNL d   1       0.948  -4.425   1.633  0.00  0.00     0.034 A 
ATOM      7 Cl   UNL d   1      -1.078  -3.951   3.325  0.00  0.00    -0.070 Cl
ATOM      8 Cl1  UNL d   1      -0.010  -0.875   3.292  0.00  0.00    -0.070 Cl
ENDROOT
TORSDOF 0
ENDMDL
