MODEL 1
REMARK minimizedAffinity 8.89582157
REMARK minimizedRMSD -1
REMARK  0 active torsions:
REMARK  status: ('A' for Active; 'I' for Inactive)
ROOT
ATOM      1  C   UNL d   1      -1.853   2.822  -2.216  0.00  0.00     0.020 A 
ATOM      2  C1  UNL d   1      -0.464   2.763  -2.116  0.00  0.00     0.020 A 
ATOM      3  C2  UNL d   1       0.155   1.592  -1.674  0.00  0.00     0.034 A 
ATOM      4  C3  UNL d   1      -0.615   0.475  -1.331  0.00  0.00     0.017 A 
ATOM      5  C4  UNL d   1      -2.010   0.534  -1.432  0.00  0.00     0.017 A 
ATOM      6  C5  UNL d   1      -2.624   1.710  -1.875  0.00  0.00     0.034 A 
ATOM      7 Cl   UNL d   1      -3.027  -0.803  -1.027  0.00  0.00    -0.070 Cl
ATOM      8 Cl1  UNL d   1       0.217  -0.941  -0.793  0.00  0.00    -0.070 Cl
ENDROOT
TORSDOF 0
ENDMDL
