MODEL 1
REMARK minimizedAffinity 9.09756279
REMARK minimizedRMSD -1
REMARK  0 active torsions:
REMARK  status: ('A' for Active; 'I' for Inactive)
ROOT
ATOM      1  C   UNL d   1       0.908   0.907  -2.061  0.00  0.00     0.020 A 
ATOM      2  C1  UNL d   1       0.680   2.031  -2.854  0.00  0.00     0.020 A 
ATOM      3  C2  UNL d   1       1.617   2.405  -3.820  0.00  0.00     0.034 A 
ATOM      4  C3  UNL d   1       2.786   1.655  -3.994  0.00  0.00     0.017 A 
ATOM      5  C4  UNL d   1       3.013   0.527  -3.197  0.00  0.00     0.017 A 
ATOM      6  C5  UNL d   1       2.072   0.157  -2.232  0.00  0.00     0.034 A 
ATOM      7 Cl   UNL d   1       4.432  -0.448  -3.354  0.00  0.00    -0.070 Cl
ATOM      8 Cl1  UNL d   1       3.901   2.176  -5.207  0.00  0.00    -0.070 Cl
ENDROOT
TORSDOF 0
ENDMDL
