MODEL 1
REMARK minimizedAffinity 5.048491
REMARK minimizedRMSD -1
REMARK  0 active torsions:
REMARK  status: ('A' for Active; 'I' for Inactive)
ROOT
ATOM      1  C   UNL d   1       5.664   0.689  -4.906  0.00  0.00     0.020 A 
ATOM      2  C1  UNL d   1       5.883   1.872  -5.610  0.00  0.00     0.020 A 
ATOM      3  C2  UNL d   1       4.807   2.700  -5.937  0.00  0.00     0.034 A 
ATOM      4  C3  UNL d   1       3.506   2.345  -5.560  0.00  0.00     0.017 A 
ATOM      5  C4  UNL d   1       3.287   1.157  -4.854  0.00  0.00     0.017 A 
ATOM      6  C5  UNL d   1       4.368   0.332  -4.529  0.00  0.00     0.034 A 
ATOM      7 Cl   UNL d   1       1.711   0.652  -4.355  0.00  0.00    -0.070 Cl
ATOM      8 Cl1  UNL d   1       2.223   3.416  -5.998  0.00  0.00    -0.070 Cl
ENDROOT
TORSDOF 0
ENDMDL
