MODEL 1
REMARK minimizedAffinity 7.64215422
REMARK minimizedRMSD -1
REMARK  0 active torsions:
REMARK  status: ('A' for Active; 'I' for Inactive)
ROOT
ATOM      1  C   UNL d   1      -0.739   3.170  -2.861  0.00  0.00     0.020 A 
ATOM      2  C1  UNL d   1      -1.867   2.388  -2.615  0.00  0.00     0.020 A 
ATOM      3  C2  UNL d   1      -1.736   1.162  -1.960  0.00  0.00     0.034 A 
ATOM      4  C3  UNL d   1      -0.475   0.713  -1.550  0.00  0.00     0.017 A 
ATOM      5  C4  UNL d   1       0.656   1.499  -1.798  0.00  0.00     0.017 A 
ATOM      6  C5  UNL d   1       0.520   2.727  -2.454  0.00  0.00     0.034 A 
ATOM      7 Cl   UNL d   1       2.245   1.013  -1.322  0.00  0.00    -0.070 Cl
ATOM      8 Cl1  UNL d   1      -0.387  -0.813  -0.746  0.00  0.00    -0.070 Cl
ENDROOT
TORSDOF 0
ENDMDL
