MODEL 1
REMARK minimizedAffinity 0.00925910193
REMARK minimizedRMSD -1
REMARK  0 active torsions:
REMARK  status: ('A' for Active; 'I' for Inactive)
ROOT
ATOM      1  C   UNL d   1       1.457   1.298  -3.157  0.00  0.00     0.020 A 
ATOM      2  C1  UNL d   1       0.955   0.000  -3.244  0.00  0.00     0.020 A 
ATOM      3  C2  UNL d   1       0.866  -0.793  -2.098  0.00  0.00     0.034 A 
ATOM      4  C3  UNL d   1       1.279  -0.288  -0.860  0.00  0.00     0.017 A 
ATOM      5  C4  UNL d   1       1.783   1.015  -0.773  0.00  0.00     0.017 A 
ATOM      6  C5  UNL d   1       1.870   1.804  -1.924  0.00  0.00     0.034 A 
ATOM      7 Cl   UNL d   1       2.313   1.706   0.719  0.00  0.00    -0.070 Cl
ATOM      8 Cl1  UNL d   1       1.141  -1.324   0.517  0.00  0.00    -0.070 Cl
ENDROOT
TORSDOF 0
ENDMDL
