MODEL 1
REMARK minimizedAffinity 1.8837347
REMARK minimizedRMSD -1
REMARK  0 active torsions:
REMARK  status: ('A' for Active; 'I' for Inactive)
ROOT
ATOM      1  C   UNL d   1      -0.667   1.947   0.864  0.00  0.00     0.124 A 
ATOM      2  C1  UNL d   1       0.235   1.894  -0.190  0.00  0.00     0.062 A 
ATOM      3  C2  UNL d   1       0.595   0.668  -0.741  0.00  0.00     0.162 A 
ATOM      4  C3  UNL d   1       0.054  -0.516  -0.241  0.00  0.00    -0.034 A 
ATOM      5  C4  UNL d   1      -0.852  -0.455   0.820  0.00  0.00     0.162 A 
ATOM      6  C5  UNL d   1      -1.209   0.773   1.368  0.00  0.00     0.062 A 
ATOM      7  F   UNL d   1      -2.081   0.822   2.386  0.00  0.00    -0.097 F 
ATOM      8  F1  UNL d   1      -1.392  -1.574   1.325  0.00  0.00    -0.096 F 
ATOM      9  I   UNL d   1       0.590  -2.350  -1.063  0.00  0.00    -0.060 I 
ATOM     10  F2  UNL d   1       1.469   0.647  -1.759  0.00  0.00    -0.096 F 
ATOM     11  F3  UNL d   1       0.761   3.027  -0.677  0.00  0.00    -0.097 F 
ATOM     12  F4  UNL d   1      -1.012   3.128   1.394  0.00  0.00    -0.092 F 
ENDROOT
TORSDOF 0
ENDMDL
