MODEL 1
REMARK minimizedAffinity 0.0807287619
REMARK minimizedRMSD -1
REMARK  0 active torsions:
REMARK  status: ('A' for Active; 'I' for Inactive)
ROOT
ATOM      1  C   UNL d   1       0.838  -2.052  -2.018  0.00  0.00     0.124 A 
ATOM      2  C1  UNL d   1      -0.138  -2.547  -1.164  0.00  0.00     0.062 A 
ATOM      3  C2  UNL d   1      -0.668  -1.737  -0.164  0.00  0.00     0.162 A 
ATOM      4  C3  UNL d   1      -0.225  -0.423  -0.013  0.00  0.00    -0.034 A 
ATOM      5  C4  UNL d   1       0.758   0.067  -0.875  0.00  0.00     0.162 A 
ATOM      6  C5  UNL d   1       1.285  -0.746  -1.873  0.00  0.00     0.062 A 
ATOM      7  F   UNL d   1       2.228  -0.267  -2.698  0.00  0.00    -0.097 F 
ATOM      8  F1  UNL d   1       1.207   1.325  -0.758  0.00  0.00    -0.096 F 
ATOM      9  I   UNL d   1      -1.015   0.791   1.481  0.00  0.00    -0.060 I 
ATOM     10  F2  UNL d   1      -1.610  -2.241   0.648  0.00  0.00    -0.096 F 
ATOM     11  F3  UNL d   1      -0.570  -3.808  -1.301  0.00  0.00    -0.097 F 
ATOM     12  F4  UNL d   1       1.348  -2.834  -2.979  0.00  0.00    -0.092 F 
ENDROOT
TORSDOF 0
ENDMDL
