MODEL 1
REMARK minimizedAffinity -1.50793147
REMARK minimizedRMSD -1
REMARK  0 active torsions:
REMARK  status: ('A' for Active; 'I' for Inactive)
ROOT
ATOM      1  C   UNL d   1      -0.896   2.140   1.060  0.00  0.00     0.124 A 
ATOM      2  C1  UNL d   1      -1.079   0.892   1.641  0.00  0.00     0.062 A 
ATOM      3  C2  UNL d   1      -0.509  -0.238   1.063  0.00  0.00     0.162 A 
ATOM      4  C3  UNL d   1       0.250  -0.127  -0.102  0.00  0.00    -0.034 A 
ATOM      5  C4  UNL d   1       0.428   1.131  -0.681  0.00  0.00     0.162 A 
ATOM      6  C5  UNL d   1      -0.143   2.258  -0.099  0.00  0.00     0.062 A 
ATOM      7  F   UNL d   1       0.034   3.463  -0.661  0.00  0.00    -0.097 F 
ATOM      8  F1  UNL d   1       1.152   1.274  -1.801  0.00  0.00    -0.096 F 
ATOM      9  I   UNL d   1       1.103  -1.815  -0.970  0.00  0.00    -0.060 I 
ATOM     10  F2  UNL d   1      -0.702  -1.431   1.645  0.00  0.00    -0.096 F 
ATOM     11  F3  UNL d   1      -1.807   0.775   2.760  0.00  0.00    -0.097 F 
ATOM     12  F4  UNL d   1      -1.446   3.226   1.618  0.00  0.00    -0.092 F 
ENDROOT
TORSDOF 0
ENDMDL
