MODEL 1
REMARK minimizedAffinity 4.506001
REMARK minimizedRMSD -1
REMARK  0 active torsions:
REMARK  status: ('A' for Active; 'I' for Inactive)
ROOT
ATOM      1  C   UNL d   1      -0.688   2.085   0.735  0.00  0.00     0.124 A 
ATOM      2  C1  UNL d   1      -1.062   0.869   1.289  0.00  0.00     0.062 A 
ATOM      3  C2  UNL d   1      -0.571  -0.321   0.760  0.00  0.00     0.162 A 
ATOM      4  C3  UNL d   1       0.300  -0.301  -0.329  0.00  0.00    -0.034 A 
ATOM      5  C4  UNL d   1       0.671   0.926  -0.881  0.00  0.00     0.162 A 
ATOM      6  C5  UNL d   1       0.178   2.113  -0.349  0.00  0.00     0.062 A 
ATOM      7  F   UNL d   1       0.540   3.287  -0.885  0.00  0.00    -0.097 F 
ATOM      8  F1  UNL d   1       1.507   0.982  -1.929  0.00  0.00    -0.096 F 
ATOM      9  I   UNL d   1       1.036  -2.079  -1.123  0.00  0.00    -0.060 I 
ATOM     10  F2  UNL d   1      -0.949  -1.482   1.316  0.00  0.00    -0.096 F 
ATOM     11  F3  UNL d   1      -1.898   0.840   2.337  0.00  0.00    -0.097 F 
ATOM     12  F4  UNL d   1      -1.162   3.229   1.246  0.00  0.00    -0.092 F 
ENDROOT
TORSDOF 0
ENDMDL
