MODEL 1
REMARK minimizedAffinity 4.240592
REMARK minimizedRMSD -1
REMARK  0 active torsions:
REMARK  status: ('A' for Active; 'I' for Inactive)
ROOT
ATOM      1  C   UNL d   1      -0.488   1.987   1.059  0.00  0.00     0.124 A 
ATOM      2  C1  UNL d   1      -0.967   0.768   1.518  0.00  0.00     0.062 A 
ATOM      3  C2  UNL d   1      -0.581  -0.415   0.896  0.00  0.00     0.162 A 
ATOM      4  C3  UNL d   1       0.292  -0.386  -0.192  0.00  0.00    -0.034 A 
ATOM      5  C4  UNL d   1       0.769   0.844  -0.649  0.00  0.00     0.162 A 
ATOM      6  C5  UNL d   1       0.379   2.024  -0.023  0.00  0.00     0.062 A 
ATOM      7  F   UNL d   1       0.843   3.201  -0.468  0.00  0.00    -0.097 F 
ATOM      8  F1  UNL d   1       1.609   0.909  -1.693  0.00  0.00    -0.096 F 
ATOM      9  I   UNL d   1       0.872  -2.153  -1.126  0.00  0.00    -0.060 I 
ATOM     10  F2  UNL d   1      -1.059  -1.579   1.361  0.00  0.00    -0.096 F 
ATOM     11  F3  UNL d   1      -1.806   0.730   2.563  0.00  0.00    -0.097 F 
ATOM     12  F4  UNL d   1      -0.863   3.124   1.659  0.00  0.00    -0.092 F 
ENDROOT
TORSDOF 0
ENDMDL
