MODEL 1
REMARK minimizedAffinity -1.5156225
REMARK minimizedRMSD -1
REMARK  0 active torsions:
REMARK  status: ('A' for Active; 'I' for Inactive)
ROOT
ATOM      1  C   UNL d   1      -0.560   2.333   0.733  0.00  0.00     0.124 A 
ATOM      2  C1  UNL d   1      -0.926   1.086   1.220  0.00  0.00     0.062 A 
ATOM      3  C2  UNL d   1      -0.353  -0.068   0.693  0.00  0.00     0.162 A 
ATOM      4  C3  UNL d   1       0.594   0.020  -0.327  0.00  0.00    -0.034 A 
ATOM      5  C4  UNL d   1       0.957   1.277  -0.813  0.00  0.00     0.162 A 
ATOM      6  C5  UNL d   1       0.381   2.427  -0.283  0.00  0.00     0.062 A 
ATOM      7  F   UNL d   1       0.736   3.631  -0.755  0.00  0.00    -0.097 F 
ATOM      8  F1  UNL d   1       1.864   1.398  -1.794  0.00  0.00    -0.096 F 
ATOM      9  I   UNL d   1       1.454  -1.703  -1.118  0.00  0.00    -0.060 I 
ATOM     10  F2  UNL d   1      -0.725  -1.259   1.184  0.00  0.00    -0.096 F 
ATOM     11  F3  UNL d   1      -1.835   0.992   2.201  0.00  0.00    -0.097 F 
ATOM     12  F4  UNL d   1      -1.113   3.441   1.241  0.00  0.00    -0.092 F 
ENDROOT
TORSDOF 0
ENDMDL
