MODEL 1
REMARK minimizedAffinity 6.1596756
REMARK minimizedRMSD -1
REMARK  0 active torsions:
REMARK  status: ('A' for Active; 'I' for Inactive)
ROOT
ATOM      1  C   UNL d   1      -0.129   1.368   0.875  0.00  0.00     0.124 A 
ATOM      2  C1  UNL d   1      -0.564   0.133   1.336  0.00  0.00     0.062 A 
ATOM      3  C2  UNL d   1      -0.102  -1.038   0.742  0.00  0.00     0.162 A 
ATOM      4  C3  UNL d   1       0.801  -0.980  -0.320  0.00  0.00    -0.034 A 
ATOM      5  C4  UNL d   1       1.233   0.266  -0.779  0.00  0.00     0.162 A 
ATOM      6  C5  UNL d   1       0.768   1.433  -0.181  0.00  0.00     0.062 A 
ATOM      7  F   UNL d   1       1.189   2.626  -0.628  0.00  0.00    -0.097 F 
ATOM      8  F1  UNL d   1       2.100   0.359  -1.797  0.00  0.00    -0.096 F 
ATOM      9  I   UNL d   1       1.494  -2.728  -1.212  0.00  0.00    -0.060 I 
ATOM     10  F2  UNL d   1      -0.538  -2.218   1.207  0.00  0.00    -0.096 F 
ATOM     11  F3  UNL d   1      -1.431   0.066   2.356  0.00  0.00    -0.097 F 
ATOM     12  F4  UNL d   1      -0.576   2.493   1.448  0.00  0.00    -0.092 F 
ENDROOT
TORSDOF 0
ENDMDL
