MODEL 1
REMARK minimizedAffinity 4.73275948
REMARK minimizedRMSD -1
REMARK  0 active torsions:
REMARK  status: ('A' for Active; 'I' for Inactive)
ROOT
ATOM      1  C   UNL d   1      -0.661   1.083   1.946  0.00  0.00     0.124 A 
ATOM      2  C1  UNL d   1       0.458   0.263   1.905  0.00  0.00     0.062 A 
ATOM      3  C2  UNL d   1       0.798  -0.399   0.729  0.00  0.00     0.162 A 
ATOM      4  C3  UNL d   1       0.018  -0.243  -0.417  0.00  0.00    -0.034 A 
ATOM      5  C4  UNL d   1      -1.107   0.583  -0.368  0.00  0.00     0.162 A 
ATOM      6  C5  UNL d   1      -1.442   1.242   0.810  0.00  0.00     0.062 A 
ATOM      7  F   UNL d   1      -2.524   2.034   0.848  0.00  0.00    -0.097 F 
ATOM      8  F1  UNL d   1      -1.879   0.755  -1.451  0.00  0.00    -0.096 F 
ATOM      9  I   UNL d   1       0.523  -1.231  -2.178  0.00  0.00    -0.060 I 
ATOM     10  F2  UNL d   1       1.885  -1.185   0.718  0.00  0.00    -0.096 F 
ATOM     11  F3  UNL d   1       1.214   0.107   3.001  0.00  0.00    -0.097 F 
ATOM     12  F4  UNL d   1      -0.986   1.718   3.080  0.00  0.00    -0.092 F 
ENDROOT
TORSDOF 0
ENDMDL
