MODEL 1
REMARK minimizedAffinity -1.05296528
REMARK minimizedRMSD -1
REMARK  0 active torsions:
REMARK  status: ('A' for Active; 'I' for Inactive)
ROOT
ATOM      1  C   UNL d   1      -0.587   2.848   1.367  0.00  0.00     0.124 A 
ATOM      2  C1  UNL d   1      -0.728   1.611   1.980  0.00  0.00     0.062 A 
ATOM      3  C2  UNL d   1      -0.342   0.451   1.314  0.00  0.00     0.162 A 
ATOM      4  C3  UNL d   1       0.189   0.523   0.027  0.00  0.00    -0.034 A 
ATOM      5  C4  UNL d   1       0.327   1.771  -0.584  0.00  0.00     0.162 A 
ATOM      6  C5  UNL d   1      -0.060   2.927   0.086  0.00  0.00     0.062 A 
ATOM      7  F   UNL d   1       0.077   4.122  -0.508  0.00  0.00    -0.097 F 
ATOM      8  F1  UNL d   1       0.834   1.877  -1.821  0.00  0.00    -0.096 F 
ATOM      9  I   UNL d   1       0.767  -1.208  -0.973  0.00  0.00    -0.060 I 
ATOM     10  F2  UNL d   1      -0.490  -0.731   1.931  0.00  0.00    -0.096 F 
ATOM     11  F3  UNL d   1      -1.238   1.532   3.218  0.00  0.00    -0.097 F 
ATOM     12  F4  UNL d   1      -0.960   3.962   2.010  0.00  0.00    -0.092 F 
ENDROOT
TORSDOF 0
ENDMDL
