MODEL 1
REMARK minimizedAffinity -1.47877634
REMARK minimizedRMSD -1
REMARK  0 active torsions:
REMARK  status: ('A' for Active; 'I' for Inactive)
ROOT
ATOM      1  C   UNL d   1      -0.917   2.581   0.182  0.00  0.00     0.124 A 
ATOM      2  C1  UNL d   1       0.210   2.564  -0.628  0.00  0.00     0.062 A 
ATOM      3  C2  UNL d   1       0.731   1.354  -1.078  0.00  0.00     0.162 A 
ATOM      4  C3  UNL d   1       0.124   0.150  -0.719  0.00  0.00    -0.034 A 
ATOM      5  C4  UNL d   1      -1.008   0.175   0.097  0.00  0.00     0.162 A 
ATOM      6  C5  UNL d   1      -1.525   1.387   0.544  0.00  0.00     0.062 A 
ATOM      7  F   UNL d   1      -2.614   1.401   1.326  0.00  0.00    -0.097 F 
ATOM      8  F1  UNL d   1      -1.616  -0.964   0.461  0.00  0.00    -0.096 F 
ATOM      9  I   UNL d   1       0.900  -1.661  -1.389  0.00  0.00    -0.060 I 
ATOM     10  F2  UNL d   1       1.821   1.368  -1.859  0.00  0.00    -0.096 F 
ATOM     11  F3  UNL d   1       0.800   3.716  -0.978  0.00  0.00    -0.097 F 
ATOM     12  F4  UNL d   1      -1.415   3.746   0.614  0.00  0.00    -0.092 F 
ENDROOT
TORSDOF 0
ENDMDL
