MODEL 1
REMARK minimizedAffinity -2.54755592
REMARK minimizedRMSD -1
REMARK  0 active torsions:
REMARK  status: ('A' for Active; 'I' for Inactive)
ROOT
ATOM      1  C   UNL d   1      -0.806   2.727   0.640  0.00  0.00     0.124 A 
ATOM      2  C1  UNL d   1       0.179   2.710  -0.337  0.00  0.00     0.062 A 
ATOM      3  C2  UNL d   1       0.619   1.501  -0.866  0.00  0.00     0.162 A 
ATOM      4  C3  UNL d   1       0.074   0.297  -0.420  0.00  0.00    -0.034 A 
ATOM      5  C4  UNL d   1      -0.916   0.322   0.564  0.00  0.00     0.162 A 
ATOM      6  C5  UNL d   1      -1.353   1.534   1.090  0.00  0.00     0.062 A 
ATOM      7  F   UNL d   1      -2.304   1.548   2.035  0.00  0.00    -0.097 F 
ATOM      8  F1  UNL d   1      -1.461  -0.817   1.017  0.00  0.00    -0.096 F 
ATOM      9  I   UNL d   1       0.730  -1.514  -1.208  0.00  0.00    -0.060 I 
ATOM     10  F2  UNL d   1       1.573   1.514  -1.810  0.00  0.00    -0.096 F 
ATOM     11  F3  UNL d   1       0.709   3.862  -0.773  0.00  0.00    -0.097 F 
ATOM     12  F4  UNL d   1      -1.228   3.893   1.148  0.00  0.00    -0.092 F 
ENDROOT
TORSDOF 0
ENDMDL
