MODEL 1
REMARK minimizedAffinity -1.31714404
REMARK minimizedRMSD -1
REMARK  0 active torsions:
REMARK  status: ('A' for Active; 'I' for Inactive)
ROOT
ATOM      1  C   UNL d   1       0.330   3.242   0.068  0.00  0.00     0.124 A 
ATOM      2  C1  UNL d   1      -0.568   3.003   1.100  0.00  0.00     0.062 A 
ATOM      3  C2  UNL d   1      -0.735   1.714   1.598  0.00  0.00     0.162 A 
ATOM      4  C3  UNL d   1      -0.002   0.654   1.065  0.00  0.00    -0.034 A 
ATOM      5  C4  UNL d   1       0.898   0.901   0.027  0.00  0.00     0.162 A 
ATOM      6  C5  UNL d   1       1.061   2.191  -0.467  0.00  0.00     0.062 A 
ATOM      7  F   UNL d   1       1.929   2.420  -1.464  0.00  0.00    -0.097 F 
ATOM      8  F1  UNL d   1       1.618  -0.095  -0.508  0.00  0.00    -0.096 F 
ATOM      9  I   UNL d   1      -0.250  -1.275   1.807  0.00  0.00    -0.060 I 
ATOM     10  F2  UNL d   1      -1.609   1.513   2.595  0.00  0.00    -0.096 F 
ATOM     11  F3  UNL d   1      -1.276   4.017   1.619  0.00  0.00    -0.097 F 
ATOM     12  F4  UNL d   1       0.488   4.483  -0.409  0.00  0.00    -0.092 F 
ENDROOT
TORSDOF 0
ENDMDL
