MODEL 1
REMARK minimizedAffinity -0.116461433
REMARK minimizedRMSD -1
REMARK  0 active torsions:
REMARK  status: ('A' for Active; 'I' for Inactive)
ROOT
ATOM      1  C   UNL d   1       0.612   3.481  -0.222  0.00  0.00     0.124 A 
ATOM      2  C1  UNL d   1      -0.136   3.282   0.930  0.00  0.00     0.062 A 
ATOM      3  C2  UNL d   1      -0.311   1.999   1.438  0.00  0.00     0.162 A 
ATOM      4  C3  UNL d   1       0.265   0.903   0.795  0.00  0.00    -0.034 A 
ATOM      5  C4  UNL d   1       1.015   1.110  -0.364  0.00  0.00     0.162 A 
ATOM      6  C5  UNL d   1       1.186   2.395  -0.868  0.00  0.00     0.062 A 
ATOM      7  F   UNL d   1       1.909   2.586  -1.981  0.00  0.00    -0.097 F 
ATOM      8  F1  UNL d   1       1.582   0.079  -1.007  0.00  0.00    -0.096 F 
ATOM      9  I   UNL d   1       0.006  -1.019   1.552  0.00  0.00    -0.060 I 
ATOM     10  F2  UNL d   1      -1.038   1.836   2.553  0.00  0.00    -0.096 F 
ATOM     11  F3  UNL d   1      -0.693   4.330   1.555  0.00  0.00    -0.097 F 
ATOM     12  F4  UNL d   1       0.777   4.717  -0.710  0.00  0.00    -0.092 F 
ENDROOT
TORSDOF 0
ENDMDL
