MODEL 1
REMARK minimizedAffinity -2.8611834
REMARK minimizedRMSD -1
REMARK  0 active torsions:
REMARK  status: ('A' for Active; 'I' for Inactive)
ROOT
ATOM      1  C   UNL d   1       1.240   2.058  -0.806  0.00  0.00     0.124 A 
ATOM      2  C1  UNL d   1       1.600   0.722  -0.692  0.00  0.00     0.062 A 
ATOM      3  C2  UNL d   1       0.965  -0.097   0.237  0.00  0.00     0.162 A 
ATOM      4  C3  UNL d   1      -0.038   0.417   1.059  0.00  0.00    -0.034 A 
ATOM      5  C4  UNL d   1      -0.394   1.762   0.940  0.00  0.00     0.162 A 
ATOM      6  C5  UNL d   1       0.244   2.576   0.010  0.00  0.00     0.062 A 
ATOM      7  F   UNL d   1      -0.105   3.867  -0.098  0.00  0.00    -0.097 F 
ATOM      8  F1  UNL d   1      -1.353   2.288   1.715  0.00  0.00    -0.096 F 
ATOM      9  I   UNL d   1      -0.990  -0.805   2.449  0.00  0.00    -0.060 I 
ATOM     10  F2  UNL d   1       1.333  -1.384   0.325  0.00  0.00    -0.096 F 
ATOM     11  F3  UNL d   1       2.563   0.219  -1.478  0.00  0.00    -0.097 F 
ATOM     12  F4  UNL d   1       1.854   2.844  -1.699  0.00  0.00    -0.092 F 
ENDROOT
TORSDOF 0
ENDMDL
