MODEL 1
REMARK minimizedAffinity -3.35926747
REMARK minimizedRMSD -1
REMARK  0 active torsions:
REMARK  status: ('A' for Active; 'I' for Inactive)
ROOT
ATOM      1  C   UNL d   1      -0.562   2.196   0.915  0.00  0.00     0.124 A 
ATOM      2  C1  UNL d   1      -1.083   0.988   1.356  0.00  0.00     0.062 A 
ATOM      3  C2  UNL d   1      -0.730  -0.200   0.723  0.00  0.00     0.162 A 
ATOM      4  C3  UNL d   1       0.150  -0.185  -0.360  0.00  0.00    -0.034 A 
ATOM      5  C4  UNL d   1       0.669   1.034  -0.799  0.00  0.00     0.162 A 
ATOM      6  C5  UNL d   1       0.313   2.218  -0.162  0.00  0.00     0.062 A 
ATOM      7  F   UNL d   1       0.817   3.385  -0.590  0.00  0.00    -0.097 F 
ATOM      8  F1  UNL d   1       1.517   1.084  -1.836  0.00  0.00    -0.096 F 
ATOM      9  I   UNL d   1       0.680  -1.959  -1.310  0.00  0.00    -0.060 I 
ATOM     10  F2  UNL d   1      -1.249  -1.353   1.171  0.00  0.00    -0.096 F 
ATOM     11  F3  UNL d   1      -1.930   0.964   2.396  0.00  0.00    -0.097 F 
ATOM     12  F4  UNL d   1      -0.904   3.338   1.526  0.00  0.00    -0.092 F 
ENDROOT
TORSDOF 0
ENDMDL
