MODEL 1
REMARK minimizedAffinity 2.90099931
REMARK minimizedRMSD -1
REMARK  0 active torsions:
REMARK  status: ('A' for Active; 'I' for Inactive)
ROOT
ATOM      1  C4' PXY d   1       6.000  -5.623   3.092  0.00  0.00     0.077 C 
ATOM      2  C1' PXY d   1       0.353  -5.234   1.918  0.00  0.00     0.077 C 
ATOM      3  C1  PXY d   1       1.831  -5.337   2.239  0.00  0.00    -0.082 A 
ATOM      4  C2  PXY d   1       2.721  -4.871   1.378  0.00  0.00     0.003 A 
ATOM      5  C3  PXY d   1       4.063  -4.985   1.637  0.00  0.00     0.003 A 
ATOM      6  C4  PXY d   1       4.497  -5.532   2.815  0.00  0.00    -0.082 A 
ATOM      7  C5  PXY d   1       3.595  -6.000   3.703  0.00  0.00     0.003 A 
ATOM      8  C6  PXY d   1       2.239  -5.913   3.402  0.00  0.00     0.003 A 
ENDROOT
TORSDOF 0
ENDMDL
