MODEL 1
REMARK minimizedAffinity 0.594057798
REMARK minimizedRMSD -1
REMARK  0 active torsions:
REMARK  status: ('A' for Active; 'I' for Inactive)
ROOT
ATOM      1  C4' PXY d   1       1.137   0.649   3.774  0.00  0.00     0.077 C 
ATOM      2  C1' PXY d   1      -4.202   1.563   1.756  0.00  0.00     0.077 C 
ATOM      3  C1  PXY d   1      -2.799   1.336   2.284  0.00  0.00    -0.082 A 
ATOM      4  C2  PXY d   1      -2.260   0.130   2.210  0.00  0.00     0.003 A 
ATOM      5  C3  PXY d   1      -1.005  -0.100   2.711  0.00  0.00     0.003 A 
ATOM      6  C4  PXY d   1      -0.273   0.927   3.245  0.00  0.00    -0.082 A 
ATOM      7  C5  PXY d   1      -0.812   2.162   3.314  0.00  0.00     0.003 A 
ATOM      8  C6  PXY d   1      -2.104   2.366   2.837  0.00  0.00     0.003 A 
ENDROOT
TORSDOF 0
ENDMDL
