MODEL 1
REMARK minimizedAffinity 3.06979179
REMARK minimizedRMSD -1
REMARK  0 active torsions:
REMARK  status: ('A' for Active; 'I' for Inactive)
ROOT
ATOM      1  C4' PXY d   1      -2.322  -0.415  -5.964  0.00  0.00     0.077 C 
ATOM      2  C1' PXY d   1      -4.139  -5.903  -5.996  0.00  0.00     0.077 C 
ATOM      3  C1  PXY d   1      -3.651  -4.468  -5.983  0.00  0.00    -0.082 A 
ATOM      4  C2  PXY d   1      -4.530  -3.478  -5.976  0.00  0.00     0.003 A 
ATOM      5  C3  PXY d   1      -4.106  -2.174  -5.995  0.00  0.00     0.003 A 
ATOM      6  C4  PXY d   1      -2.769  -1.880  -5.969  0.00  0.00    -0.082 A 
ATOM      7  C5  PXY d   1      -1.867  -2.884  -5.965  0.00  0.00     0.003 A 
ATOM      8  C6  PXY d   1      -2.317  -4.200  -5.987  0.00  0.00     0.003 A 
ENDROOT
TORSDOF 0
ENDMDL
