MODEL 1
REMARK minimizedAffinity 12.6491737
REMARK minimizedRMSD -1
REMARK  0 active torsions:
REMARK  status: ('A' for Active; 'I' for Inactive)
ROOT
ATOM      1  C4' PXY d   1      -4.758   0.034   5.701  0.00  0.00     0.077 C 
ATOM      2  C1' PXY d   1      -4.933   5.807   5.934  0.00  0.00     0.077 C 
ATOM      3  C1  PXY d   1      -4.875   4.294   5.868  0.00  0.00    -0.082 A 
ATOM      4  C2  PXY d   1      -6.000   3.597   5.843  0.00  0.00     0.003 A 
ATOM      5  C3  PXY d   1      -5.966   2.226   5.815  0.00  0.00     0.003 A 
ATOM      6  C4  PXY d   1      -4.769   1.564   5.759  0.00  0.00    -0.082 A 
ATOM      7  C5  PXY d   1      -3.617   2.268   5.773  0.00  0.00     0.003 A 
ATOM      8  C6  PXY d   1      -3.673   3.657   5.843  0.00  0.00     0.003 A 
ENDROOT
TORSDOF 0
ENDMDL
