MODEL 1
REMARK minimizedAffinity 6.5595293
REMARK minimizedRMSD -1
REMARK  0 active torsions:
REMARK  status: ('A' for Active; 'I' for Inactive)
ROOT
ATOM      1  C4' PXY d   1      -2.949  -3.014  -0.182  0.00  0.00     0.077 C 
ATOM      2  C1' PXY d   1      -3.177   2.052   2.593  0.00  0.00     0.077 C 
ATOM      3  C1  PXY d   1      -3.130   0.721   1.868  0.00  0.00    -0.082 A 
ATOM      4  C2  PXY d   1      -1.972   0.099   1.717  0.00  0.00     0.003 A 
ATOM      5  C3  PXY d   1      -1.906  -1.089   1.036  0.00  0.00     0.003 A 
ATOM      6  C4  PXY d   1      -3.045  -1.673   0.551  0.00  0.00    -0.082 A 
ATOM      7  C5  PXY d   1      -4.232  -1.051   0.710  0.00  0.00     0.003 A 
ATOM      8  C6  PXY d   1      -4.272   0.175   1.368  0.00  0.00     0.003 A 
ENDROOT
TORSDOF 0
ENDMDL
