MODEL 1
REMARK minimizedAffinity 1.39829898
REMARK minimizedRMSD -1
REMARK  0 active torsions:
REMARK  status: ('A' for Active; 'I' for Inactive)
ROOT
ATOM      1  C4' PXY d   1      -4.823   1.720   0.645  0.00  0.00     0.077 C 
ATOM      2  C1' PXY d   1       0.148   0.222   3.187  0.00  0.00     0.077 C 
ATOM      3  C1  PXY d   1      -1.161   0.618   2.532  0.00  0.00    -0.082 A 
ATOM      4  C2  PXY d   1      -1.494   0.091   1.365  0.00  0.00     0.003 A 
ATOM      5  C3  PXY d   1      -2.659   0.462   0.744  0.00  0.00     0.003 A 
ATOM      6  C4  PXY d   1      -3.516   1.342   1.348  0.00  0.00    -0.082 A 
ATOM      7  C5  PXY d   1      -3.188   1.877   2.543  0.00  0.00     0.003 A 
ATOM      8  C6  PXY d   1      -1.982   1.518   3.138  0.00  0.00     0.003 A 
ENDROOT
TORSDOF 0
ENDMDL
