MODEL 1
REMARK minimizedAffinity -3.63830018
REMARK minimizedRMSD -1
REMARK  0 active torsions:
REMARK  status: ('A' for Active; 'I' for Inactive)
ROOT
ATOM      1  C4' PXY d   1      -3.580   0.413   1.098  0.00  0.00     0.077 C 
ATOM      2  C1' PXY d   1       1.697   0.196   3.448  0.00  0.00     0.077 C 
ATOM      3  C1  PXY d   1       0.311   0.264   2.839  0.00  0.00    -0.082 A 
ATOM      4  C2  PXY d   1      -0.246  -0.835   2.356  0.00  0.00     0.003 A 
ATOM      5  C3  PXY d   1      -1.486  -0.786   1.773  0.00  0.00     0.003 A 
ATOM      6  C4  PXY d   1      -2.185   0.390   1.731  0.00  0.00    -0.082 A 
ATOM      7  C5  PXY d   1      -1.629   1.513   2.231  0.00  0.00     0.003 A 
ATOM      8  C6  PXY d   1      -0.352   1.451   2.782  0.00  0.00     0.003 A 
ENDROOT
TORSDOF 0
ENDMDL
