MODEL 1
REMARK minimizedAffinity 10.8839025
REMARK minimizedRMSD -1
REMARK  0 active torsions:
REMARK  status: ('A' for Active; 'I' for Inactive)
ROOT
ATOM      1  C4' PXY d   1      -4.476  -1.765   0.150  0.00  0.00     0.077 C 
ATOM      2  C1' PXY d   1      -0.829   2.014   2.566  0.00  0.00     0.077 C 
ATOM      3  C1  PXY d   1      -1.795   1.029   1.939  0.00  0.00    -0.082 A 
ATOM      4  C2  PXY d   1      -1.349  -0.140   1.507  0.00  0.00     0.003 A 
ATOM      5  C3  PXY d   1      -2.204  -1.030   0.909  0.00  0.00     0.003 A 
ATOM      6  C4  PXY d   1      -3.538  -0.743   0.799  0.00  0.00    -0.082 A 
ATOM      7  C5  PXY d   1      -4.002   0.443   1.246  0.00  0.00     0.003 A 
ATOM      8  C6  PXY d   1      -3.111   1.350   1.813  0.00  0.00     0.003 A 
ENDROOT
TORSDOF 0
ENDMDL
