MODEL 1
REMARK minimizedAffinity 10.3830242
REMARK minimizedRMSD -1
REMARK  0 active torsions:
REMARK  status: ('A' for Active; 'I' for Inactive)
ROOT
ATOM      1  C4' PXY d   1      -3.705  -2.849   0.011  0.00  0.00     0.077 C 
ATOM      2  C1' PXY d   1      -2.673   2.605   1.625  0.00  0.00     0.077 C 
ATOM      3  C1  PXY d   1      -2.956   1.178   1.199  0.00  0.00    -0.082 A 
ATOM      4  C2  PXY d   1      -2.201   0.195   1.663  0.00  0.00     0.003 A 
ATOM      5  C3  PXY d   1      -2.423  -1.098   1.263  0.00  0.00     0.003 A 
ATOM      6  C4  PXY d   1      -3.462  -1.394   0.421  0.00  0.00    -0.082 A 
ATOM      7  C5  PXY d   1      -4.243  -0.398  -0.048  0.00  0.00     0.003 A 
ATOM      8  C6  PXY d   1      -3.975   0.912   0.338  0.00  0.00     0.003 A 
ENDROOT
TORSDOF 0
ENDMDL
