MODEL 1
REMARK minimizedAffinity 6.37545681
REMARK minimizedRMSD -1
REMARK  0 active torsions:
REMARK  status: ('A' for Active; 'I' for Inactive)
ROOT
ATOM      1  C4' PXY d   1      -0.415   0.101   2.822  0.00  0.00     0.077 C 
ATOM      2  C1' PXY d   1      -5.745   1.031   0.786  0.00  0.00     0.077 C 
ATOM      3  C1  PXY d   1      -4.350   0.794   1.330  0.00  0.00    -0.082 A 
ATOM      4  C2  PXY d   1      -3.363   0.506   0.498  0.00  0.00     0.003 A 
ATOM      5  C3  PXY d   1      -2.102   0.258   0.976  0.00  0.00     0.003 A 
ATOM      6  C4  PXY d   1      -1.837   0.357   2.316  0.00  0.00    -0.082 A 
ATOM      7  C5  PXY d   1      -2.837   0.661   3.171  0.00  0.00     0.003 A 
ATOM      8  C6  PXY d   1      -4.118   0.869   2.669  0.00  0.00     0.003 A 
ENDROOT
TORSDOF 0
ENDMDL
