MODEL 1
REMARK minimizedAffinity 3.91388726
REMARK minimizedRMSD -1
REMARK  0 active torsions:
REMARK  status: ('A' for Active; 'I' for Inactive)
ROOT
ATOM      1  C4' PXY d   1      -3.593  -3.258   0.182  0.00  0.00     0.077 C 
ATOM      2  C1' PXY d   1       1.281  -5.998   1.648  0.00  0.00     0.077 C 
ATOM      3  C1  PXY d   1      -0.002  -5.291   1.259  0.00  0.00    -0.082 A 
ATOM      4  C2  PXY d   1       0.003  -3.981   1.073  0.00  0.00     0.003 A 
ATOM      5  C3  PXY d   1      -1.155  -3.321   0.752  0.00  0.00     0.003 A 
ATOM      6  C4  PXY d   1      -2.320  -4.015   0.567  0.00  0.00    -0.082 A 
ATOM      7  C5  PXY d   1      -2.331  -5.354   0.744  0.00  0.00     0.003 A 
ATOM      8  C6  PXY d   1      -1.154  -6.000   1.110  0.00  0.00     0.003 A 
ENDROOT
TORSDOF 0
ENDMDL
