MODEL 1
REMARK minimizedAffinity 7.18688631
REMARK minimizedRMSD -1
REMARK  0 active torsions:
REMARK  status: ('A' for Active; 'I' for Inactive)
ROOT
ATOM      1  C4' PXY d   1       2.710  -5.936   0.202  0.00  0.00     0.077 C 
ATOM      2  C1' PXY d   1       5.899  -5.752   5.020  0.00  0.00     0.077 C 
ATOM      3  C1  PXY d   1       5.072  -5.795   3.750  0.00  0.00    -0.082 A 
ATOM      4  C2  PXY d   1       3.752  -5.844   3.829  0.00  0.00     0.003 A 
ATOM      5  C3  PXY d   1       2.991  -5.915   2.691  0.00  0.00     0.003 A 
ATOM      6  C4  PXY d   1       3.584  -5.883   1.458  0.00  0.00    -0.082 A 
ATOM      7  C5  PXY d   1       4.929  -5.822   1.368  0.00  0.00     0.003 A 
ATOM      8  C6  PXY d   1       5.686  -5.791   2.535  0.00  0.00     0.003 A 
ENDROOT
TORSDOF 0
ENDMDL
