MODEL 1
REMARK minimizedAffinity 3.1301899
REMARK minimizedRMSD -1
REMARK  0 active torsions:
REMARK  status: ('A' for Active; 'I' for Inactive)
ROOT
ATOM      1  C4' PXY d   1      -4.892   0.522   0.998  0.00  0.00     0.077 C 
ATOM      2  C1' PXY d   1       0.389   0.271   3.335  0.00  0.00     0.077 C 
ATOM      3  C1  PXY d   1      -1.001   0.329   2.731  0.00  0.00    -0.082 A 
ATOM      4  C2  PXY d   1      -1.145   0.611   1.447  0.00  0.00     0.003 A 
ATOM      5  C3  PXY d   1      -2.395   0.699   0.892  0.00  0.00     0.003 A 
ATOM      6  C4  PXY d   1      -3.508   0.443   1.647  0.00  0.00    -0.082 A 
ATOM      7  C5  PXY d   1      -3.369   0.144   2.956  0.00  0.00     0.003 A 
ATOM      8  C6  PXY d   1      -2.093   0.100   3.510  0.00  0.00     0.003 A 
ENDROOT
TORSDOF 0
ENDMDL
