MODEL 1
REMARK minimizedAffinity 2.39316487
REMARK minimizedRMSD -1
REMARK  0 active torsions:
REMARK  status: ('A' for Active; 'I' for Inactive)
ROOT
ATOM      1  C4' PXY d   1       4.896  -5.910   2.025  0.00  0.00     0.077 C 
ATOM      2  C1' PXY d   1      -0.883  -5.985   1.876  0.00  0.00     0.077 C 
ATOM      3  C1  PXY d   1       0.633  -5.971   1.903  0.00  0.00    -0.082 A 
ATOM      4  C2  PXY d   1       1.266  -5.922   3.064  0.00  0.00     0.003 A 
ATOM      5  C3  PXY d   1       2.636  -5.876   3.106  0.00  0.00     0.003 A 
ATOM      6  C4  PXY d   1       3.367  -5.935   1.950  0.00  0.00    -0.082 A 
ATOM      7  C5  PXY d   1       2.729  -5.996   0.762  0.00  0.00     0.003 A 
ATOM      8  C6  PXY d   1       1.337  -6.000   0.739  0.00  0.00     0.003 A 
ENDROOT
TORSDOF 0
ENDMDL
