MODEL 1
REMARK minimizedAffinity 1.05702305
REMARK minimizedRMSD -1
REMARK  0 active torsions:
REMARK  status: ('A' for Active; 'I' for Inactive)
ROOT
ATOM      1  C4' PXY d   1       5.616  -0.047   1.875  0.00  0.00     0.077 C 
ATOM      2  C1' PXY d   1       0.014   0.553   0.581  0.00  0.00     0.077 C 
ATOM      3  C1  PXY d   1       1.486   0.391   0.909  0.00  0.00    -0.082 A 
ATOM      4  C2  PXY d   1       1.865   0.261   2.170  0.00  0.00     0.003 A 
ATOM      5  C3  PXY d   1       3.194   0.146   2.486  0.00  0.00     0.003 A 
ATOM      6  C4  PXY d   1       4.141   0.110   1.497  0.00  0.00    -0.082 A 
ATOM      7  C5  PXY d   1       3.761   0.231   0.208  0.00  0.00     0.003 A 
ATOM      8  C6  PXY d   1       2.410   0.388  -0.090  0.00  0.00     0.003 A 
ENDROOT
TORSDOF 0
ENDMDL
