MODEL 1
REMARK minimizedAffinity 3.02852416
REMARK minimizedRMSD -1
REMARK  0 active torsions:
REMARK  status: ('A' for Active; 'I' for Inactive)
ROOT
ATOM      1  C4' PXY d   1      -3.854  -0.601   0.570  0.00  0.00     0.077 C 
ATOM      2  C1' PXY d   1       0.039   2.352   3.658  0.00  0.00     0.077 C 
ATOM      3  C1  PXY d   1      -0.988   1.574   2.859  0.00  0.00    -0.082 A 
ATOM      4  C2  PXY d   1      -0.687   1.153   1.641  0.00  0.00     0.003 A 
ATOM      5  C3  PXY d   1      -1.615   0.476   0.893  0.00  0.00     0.003 A 
ATOM      6  C4  PXY d   1      -2.845   0.180   1.416  0.00  0.00    -0.082 A 
ATOM      7  C5  PXY d   1      -3.156   0.597   2.662  0.00  0.00     0.003 A 
ATOM      8  C6  PXY d   1      -2.214   1.319   3.390  0.00  0.00     0.003 A 
ENDROOT
TORSDOF 0
ENDMDL
