MODEL 1
REMARK minimizedAffinity 3.70088267
REMARK minimizedRMSD -1
REMARK  0 active torsions:
REMARK  status: ('A' for Active; 'I' for Inactive)
ROOT
ATOM      1  C4' PXY d   1       6.000  -5.992   2.263  0.00  0.00     0.077 C 
ATOM      2  C1' PXY d   1       0.281  -5.161   2.150  0.00  0.00     0.077 C 
ATOM      3  C1  PXY d   1       1.780  -5.380   2.166  0.00  0.00    -0.082 A 
ATOM      4  C2  PXY d   1       2.364  -5.827   3.267  0.00  0.00     0.003 A 
ATOM      5  C3  PXY d   1       3.724  -6.000   3.310  0.00  0.00     0.003 A 
ATOM      6  C4  PXY d   1       4.487  -5.765   2.198  0.00  0.00    -0.082 A 
ATOM      7  C5  PXY d   1       3.898  -5.319   1.068  0.00  0.00     0.003 A 
ATOM      8  C6  PXY d   1       2.522  -5.110   1.058  0.00  0.00     0.003 A 
ENDROOT
TORSDOF 0
ENDMDL
