MODEL 1
REMARK minimizedAffinity 2.09903502
REMARK minimizedRMSD -1
REMARK  0 active torsions:
REMARK  status: ('A' for Active; 'I' for Inactive)
ROOT
ATOM      1  C4' PXY d   1       5.839  -5.902   5.832  0.00  0.00     0.077 C 
ATOM      2  C1' PXY d   1       3.537  -5.999   0.530  0.00  0.00     0.077 C 
ATOM      3  C1  PXY d   1       4.130  -5.969   1.925  0.00  0.00    -0.082 A 
ATOM      4  C2  PXY d   1       5.444  -5.921   2.077  0.00  0.00     0.003 A 
ATOM      5  C3  PXY d   1       5.997  -5.925   3.331  0.00  0.00     0.003 A 
ATOM      6  C4  PXY d   1       5.197  -5.925   4.442  0.00  0.00    -0.082 A 
ATOM      7  C5  PXY d   1       3.855  -5.963   4.295  0.00  0.00     0.003 A 
ATOM      8  C6  PXY d   1       3.314  -5.999   3.013  0.00  0.00     0.003 A 
ENDROOT
TORSDOF 0
ENDMDL
