MODEL 1
REMARK minimizedAffinity 2.14435005
REMARK minimizedRMSD -1
REMARK  0 active torsions:
REMARK  status: ('A' for Active; 'I' for Inactive)
ROOT
ATOM      1  C4' PXY d   1      -4.469  -0.469   0.733  0.00  0.00     0.077 C 
ATOM      2  C1' PXY d   1      -0.116   1.731   3.836  0.00  0.00     0.077 C 
ATOM      3  C1  PXY d   1      -1.262   1.148   3.033  0.00  0.00    -0.082 A 
ATOM      4  C2  PXY d   1      -1.125   0.973   1.729  0.00  0.00     0.003 A 
ATOM      5  C3  PXY d   1      -2.162   0.477   0.982  0.00  0.00     0.003 A 
ATOM      6  C4  PXY d   1      -3.335   0.107   1.585  0.00  0.00    -0.082 A 
ATOM      7  C5  PXY d   1      -3.479   0.273   2.917  0.00  0.00     0.003 A 
ATOM      8  C6  PXY d   1      -2.429   0.816   3.650  0.00  0.00     0.003 A 
ENDROOT
TORSDOF 0
ENDMDL
