MODEL 1
REMARK minimizedAffinity 11.0301619
REMARK minimizedRMSD -1
REMARK  0 active torsions:
REMARK  status: ('A' for Active; 'I' for Inactive)
ROOT
ATOM      1  N1  IND d   1       0.494   2.268  -0.535  0.00  0.00    -0.196 N 
ATOM      2  C2  IND d   1       0.212   1.888   0.748  0.00  0.00     0.054 A 
ATOM      3  C3  IND d   1      -0.422   2.885   1.404  0.00  0.00    -0.031 A 
ATOM      4  C4  IND d   1      -1.190   5.185   0.539  0.00  0.00     0.051 A 
ATOM      5  C5  IND d   1      -1.126   6.000  -0.557  0.00  0.00    -0.031 A 
ATOM      6  C6  IND d   1      -0.509   5.603  -1.726  0.00  0.00     0.015 A 
ATOM      7  C7  IND d   1       0.060   4.367  -1.847  0.00  0.00    -0.016 A 
ATOM      8  C8  IND d   1       0.003   3.539  -0.734  0.00  0.00    -0.047 A 
ATOM      9  C9  IND d   1      -0.584   3.953   0.469  0.00  0.00    -0.096 A 
ATOM     10  HN1 IND d   1       0.908   1.792  -1.120  0.00  0.00     0.298 HD
ENDROOT
TORSDOF 0
ENDMDL
