MODEL 1
REMARK minimizedAffinity 12.9991474
REMARK minimizedRMSD -1
REMARK  0 active torsions:
REMARK  status: ('A' for Active; 'I' for Inactive)
ROOT
ATOM      1  N1  IND d   1       1.294   3.835  -0.940  0.00  0.00    -0.196 N 
ATOM      2  C2  IND d   1       0.652   3.008  -0.061  0.00  0.00     0.054 A 
ATOM      3  C3  IND d   1      -0.682   3.032  -0.281  0.00  0.00    -0.031 A 
ATOM      4  C4  IND d   1      -2.017   4.279  -2.094  0.00  0.00     0.051 A 
ATOM      5  C5  IND d   1      -1.873   5.187  -3.105  0.00  0.00    -0.031 A 
ATOM      6  C6  IND d   1      -0.641   5.700  -3.455  0.00  0.00     0.015 A 
ATOM      7  C7  IND d   1       0.500   5.312  -2.811  0.00  0.00    -0.016 A 
ATOM      8  C8  IND d   1       0.357   4.396  -1.779  0.00  0.00    -0.047 A 
ATOM      9  C9  IND d   1      -0.897   3.904  -1.392  0.00  0.00    -0.096 A 
ATOM     10  HN1 IND d   1       2.141   3.981  -0.964  0.00  0.00     0.298 HD
ENDROOT
TORSDOF 0
ENDMDL
