MODEL 1
REMARK minimizedAffinity 7.16341972
REMARK minimizedRMSD -1
REMARK  0 active torsions:
REMARK  status: ('A' for Active; 'I' for Inactive)
ROOT
ATOM      1  N1  IND d   1       1.207   4.050  -0.787  0.00  0.00    -0.196 N 
ATOM      2  C2  IND d   1       0.591   3.122   0.005  0.00  0.00     0.054 A 
ATOM      3  C3  IND d   1      -0.735   3.088  -0.254  0.00  0.00    -0.031 A 
ATOM      4  C4  IND d   1      -2.093   4.397  -2.006  0.00  0.00     0.051 A 
ATOM      5  C5  IND d   1      -1.976   5.389  -2.939  0.00  0.00    -0.031 A 
ATOM      6  C6  IND d   1      -0.766   5.995  -3.210  0.00  0.00     0.015 A 
ATOM      7  C7  IND d   1       0.378   5.623  -2.563  0.00  0.00    -0.016 A 
ATOM      8  C8  IND d   1       0.261   4.621  -1.610  0.00  0.00    -0.047 A 
ATOM      9  C9  IND d   1      -0.971   4.032  -1.300  0.00  0.00    -0.096 A 
ATOM     10  HN1 IND d   1       2.044   4.245  -0.773  0.00  0.00     0.298 HD
ENDROOT
TORSDOF 0
ENDMDL
