MODEL 1
REMARK minimizedAffinity 21.0432949
REMARK minimizedRMSD -1
REMARK  0 active torsions:
REMARK  status: ('A' for Active; 'I' for Inactive)
ROOT
ATOM      1  N1  IND d   1      -2.615   5.355  -2.397  0.00  0.00    -0.196 N 
ATOM      2  C2  IND d   1      -3.417   4.263  -2.576  0.00  0.00     0.054 A 
ATOM      3  C3  IND d   1      -2.786   3.143  -2.157  0.00  0.00    -0.031 A 
ATOM      4  C4  IND d   1      -0.476   2.883  -1.051  0.00  0.00     0.051 A 
ATOM      5  C5  IND d   1       0.641   3.592  -0.710  0.00  0.00    -0.031 A 
ATOM      6  C6  IND d   1       0.731   4.954  -0.916  0.00  0.00     0.015 A 
ATOM      7  C7  IND d   1      -0.302   5.661  -1.463  0.00  0.00    -0.016 A 
ATOM      8  C8  IND d   1      -1.436   4.943  -1.816  0.00  0.00    -0.047 A 
ATOM      9  C9  IND d   1      -1.517   3.555  -1.648  0.00  0.00    -0.096 A 
ATOM     10  HN1 IND d   1      -2.814   6.164  -2.610  0.00  0.00     0.298 HD
ENDROOT
TORSDOF 0
ENDMDL
