MODEL 1
REMARK minimizedAffinity 7.52363729
REMARK minimizedRMSD -1
REMARK  0 active torsions:
REMARK  status: ('A' for Active; 'I' for Inactive)
ROOT
ATOM      1  N1  IND d   1      -0.397   2.532  -1.544  0.00  0.00    -0.196 N 
ATOM      2  C2  IND d   1       0.255   3.734  -1.530  0.00  0.00     0.054 A 
ATOM      3  C3  IND d   1       0.570   4.083  -0.262  0.00  0.00    -0.031 A 
ATOM      4  C4  IND d   1       0.202   2.786   1.931  0.00  0.00     0.051 A 
ATOM      5  C5  IND d   1      -0.385   1.657   2.429  0.00  0.00    -0.031 A 
ATOM      6  C6  IND d   1      -1.017   0.742   1.612  0.00  0.00     0.015 A 
ATOM      7  C7  IND d   1      -1.075   0.918   0.258  0.00  0.00    -0.016 A 
ATOM      8  C8  IND d   1      -0.486   2.066  -0.250  0.00  0.00    -0.047 A 
ATOM      9  C9  IND d   1       0.119   3.020   0.579  0.00  0.00    -0.096 A 
ATOM     10  HN1 IND d   1      -0.701   2.135  -2.243  0.00  0.00     0.298 HD
ENDROOT
TORSDOF 0
ENDMDL
