MODEL 1
REMARK minimizedAffinity 3.31703091
REMARK minimizedRMSD -1
REMARK  0 active torsions:
REMARK  status: ('A' for Active; 'I' for Inactive)
ROOT
ATOM      1  N1  IND d   1      -4.174   5.953  -0.331  0.00  0.00    -0.196 N 
ATOM      2  C2  IND d   1      -4.261   5.999   1.033  0.00  0.00     0.054 A 
ATOM      3  C3  IND d   1      -3.027   5.960   1.584  0.00  0.00    -0.031 A 
ATOM      4  C4  IND d   1      -0.723   5.922   0.436  0.00  0.00     0.051 A 
ATOM      5  C5  IND d   1      -0.134   5.835  -0.794  0.00  0.00    -0.031 A 
ATOM      6  C6  IND d   1      -0.876   5.785  -1.956  0.00  0.00     0.015 A 
ATOM      7  C7  IND d   1      -2.241   5.832  -1.932  0.00  0.00    -0.016 A 
ATOM      8  C8  IND d   1      -2.843   5.913  -0.684  0.00  0.00    -0.047 A 
ATOM      9  C9  IND d   1      -2.096   5.921   0.501  0.00  0.00    -0.096 A 
ATOM     10  HN1 IND d   1      -4.839   5.950  -0.876  0.00  0.00     0.298 HD
ENDROOT
TORSDOF 0
ENDMDL
