MODEL 1
REMARK minimizedAffinity 9.7611742
REMARK minimizedRMSD -1
REMARK  0 active torsions:
REMARK  status: ('A' for Active; 'I' for Inactive)
ROOT
ATOM      1  N1  IND d   1      -1.017  -5.578  -4.446  0.00  0.00    -0.196 N 
ATOM      2  C2  IND d   1      -0.346  -4.441  -4.093  0.00  0.00     0.054 A 
ATOM      3  C3  IND d   1      -1.074  -3.347  -4.412  0.00  0.00    -0.031 A 
ATOM      4  C4  IND d   1      -3.435  -3.192  -5.425  0.00  0.00     0.051 A 
ATOM      5  C5  IND d   1      -4.435  -3.963  -5.950  0.00  0.00    -0.031 A 
ATOM      6  C6  IND d   1      -4.346  -5.339  -5.999  0.00  0.00     0.015 A 
ATOM      7  C7  IND d   1      -3.253  -5.999  -5.512  0.00  0.00    -0.016 A 
ATOM      8  C8  IND d   1      -2.233  -5.220  -4.985  0.00  0.00    -0.047 A 
ATOM      9  C9  IND d   1      -2.300  -3.821  -4.971  0.00  0.00    -0.096 A 
ATOM     10  HN1 IND d   1      -0.728  -6.382  -4.349  0.00  0.00     0.298 HD
ENDROOT
TORSDOF 0
ENDMDL
