MODEL 1
REMARK minimizedAffinity -5.97016907
REMARK minimizedRMSD -1
REMARK  2 active torsions:
REMARK  status: ('A' for Active; 'I' for Inactive)
REMARK    1  A    between atoms: C2'_3  and  C1'_4 
REMARK    2  A    between atoms: C1'_4  and  C1_5 
ROOT
ATOM      1  C1  I4B d   1      -0.812   1.923  -1.050  0.00  0.00    -0.075 A 
ATOM      2  C2  I4B d   1      -0.088   2.945  -1.612  0.00  0.00     0.003 A 
ATOM      3  C3  I4B d   1      -0.305   3.313  -2.962  0.00  0.00     0.002 A 
ATOM      4  C4  I4B d   1      -1.213   2.604  -3.722  0.00  0.00    -0.004 A 
ATOM      5  C5  I4B d   1      -1.962   1.583  -3.144  0.00  0.00     0.002 A 
ATOM      6  C6  I4B d   1      -1.769   1.248  -1.796  0.00  0.00     0.003 A 
ENDROOT
BRANCH   1   7
ATOM      7  C1' I4B d   1      -0.534   1.539   0.369  0.00  0.00     0.060 C 
BRANCH   7   8
ATOM      8  C2' I4B d   1      -0.030   0.110   0.376  0.00  0.00    -0.013 C 
ATOM      9  C4' I4B d   1       1.474   0.063   0.444  0.00  0.00     0.013 C 
ATOM     10  C3' I4B d   1      -0.647  -0.593   1.548  0.00  0.00     0.013 C 
ENDBRANCH   7   8
ENDBRANCH   1   7
TORSDOF 2
ENDMDL
