MODEL 1
REMARK minimizedAffinity -6.32575798
REMARK minimizedRMSD -1
REMARK  2 active torsions:
REMARK  status: ('A' for Active; 'I' for Inactive)
REMARK    1  A    between atoms: C2'_3  and  C1'_4 
REMARK    2  A    between atoms: C1'_4  and  C1_5 
ROOT
ATOM      1  C1  I4B d   1       0.825  -0.227  -0.100  0.00  0.00    -0.075 A 
ATOM      2  C2  I4B d   1       0.429  -1.181   0.805  0.00  0.00     0.003 A 
ATOM      3  C3  I4B d   1      -0.641  -0.918   1.695  0.00  0.00     0.002 A 
ATOM      4  C4  I4B d   1      -1.248   0.321   1.680  0.00  0.00    -0.004 A 
ATOM      5  C5  I4B d   1      -0.861   1.278   0.747  0.00  0.00     0.002 A 
ATOM      6  C6  I4B d   1       0.174   0.998  -0.157  0.00  0.00     0.003 A 
ENDROOT
BRANCH   1   7
ATOM      7  C1' I4B d   1       1.979  -0.526  -1.003  0.00  0.00     0.060 C 
BRANCH   7   8
ATOM      8  C2' I4B d   1       3.224   0.076  -0.384  0.00  0.00    -0.013 C 
ATOM      9  C4' I4B d   1       3.579  -0.612   0.908  0.00  0.00     0.013 C 
ATOM     10  C3' I4B d   1       4.338  -0.037  -1.381  0.00  0.00     0.013 C 
ENDBRANCH   7   8
ENDBRANCH   1   7
TORSDOF 2
ENDMDL
