MODEL 1
REMARK minimizedAffinity -6.51364088
REMARK minimizedRMSD -1
REMARK  2 active torsions:
REMARK  status: ('A' for Active; 'I' for Inactive)
REMARK    1  A    between atoms: C2'_3  and  C1'_4 
REMARK    2  A    between atoms: C1'_4  and  C1_5 
ROOT
ATOM      1  C1  I4B d   1      -0.651   2.382  -1.309  0.00  0.00    -0.075 A 
ATOM      2  C2  I4B d   1       0.088   3.494  -1.628  0.00  0.00     0.003 A 
ATOM      3  C3  I4B d   1       0.022   4.044  -2.931  0.00  0.00     0.002 A 
ATOM      4  C4  I4B d   1      -0.751   3.425  -3.892  0.00  0.00    -0.004 A 
ATOM      5  C5  I4B d   1      -1.517   2.311  -3.560  0.00  0.00     0.002 A 
ATOM      6  C6  I4B d   1      -1.477   1.793  -2.257  0.00  0.00     0.003 A 
ENDROOT
BRANCH   1   7
ATOM      7  C1' I4B d   1      -0.532   1.809   0.067  0.00  0.00     0.060 C 
BRANCH   7   8
ATOM      8  C2' I4B d   1       0.133   0.452  -0.048  0.00  0.00    -0.013 C 
ATOM      9  C4' I4B d   1       1.634   0.580  -0.054  0.00  0.00     0.013 C 
ATOM     10  C3' I4B d   1      -0.333  -0.392   1.100  0.00  0.00     0.013 C 
ENDBRANCH   7   8
ENDBRANCH   1   7
TORSDOF 2
ENDMDL
