MODEL 1
REMARK minimizedAffinity -2.4258182
REMARK minimizedRMSD -1
REMARK  2 active torsions:
REMARK  status: ('A' for Active; 'I' for Inactive)
REMARK    1  A    between atoms: C2'_3  and  C1'_4 
REMARK    2  A    between atoms: C1'_4  and  C1_5 
ROOT
ATOM      1  C1  I4B d   1      -1.126   1.654  -1.428  0.00  0.00    -0.075 A 
ATOM      2  C2  I4B d   1      -0.610   2.471  -2.403  0.00  0.00     0.003 A 
ATOM      3  C3  I4B d   1      -1.409   2.854  -3.508  0.00  0.00     0.002 A 
ATOM      4  C4  I4B d   1      -2.691   2.358  -3.624  0.00  0.00    -0.004 A 
ATOM      5  C5  I4B d   1      -3.220   1.548  -2.623  0.00  0.00     0.002 A 
ATOM      6  C6  I4B d   1      -2.437   1.203  -1.512  0.00  0.00     0.003 A 
ENDROOT
BRANCH   1   7
ATOM      7  C1' I4B d   1      -0.244   1.243  -0.292  0.00  0.00     0.060 C 
BRANCH   7   8
ATOM      8  C2' I4B d   1       0.847   0.351  -0.847  0.00  0.00    -0.013 C 
ATOM      9  C4' I4B d   1       2.206   0.971  -0.660  0.00  0.00     0.013 C 
ATOM     10  C3' I4B d   1       0.758  -0.976  -0.152  0.00  0.00     0.013 C 
ENDBRANCH   7   8
ENDBRANCH   1   7
TORSDOF 2
ENDMDL
