MODEL 1
REMARK minimizedAffinity -2.00460887
REMARK minimizedRMSD -1
REMARK  2 active torsions:
REMARK  status: ('A' for Active; 'I' for Inactive)
REMARK    1  A    between atoms: C2'_3  and  C1'_4 
REMARK    2  A    between atoms: C1'_4  and  C1_5 
ROOT
ATOM      1  C1  I4B d   1      -0.542   0.706  -0.182  0.00  0.00    -0.075 A 
ATOM      2  C2  I4B d   1      -1.266  -0.072   0.686  0.00  0.00     0.003 A 
ATOM      3  C3  I4B d   1      -0.671  -1.204   1.294  0.00  0.00     0.002 A 
ATOM      4  C4  I4B d   1       0.625  -1.548   0.969  0.00  0.00    -0.004 A 
ATOM      5  C5  I4B d   1       1.365  -0.744   0.106  0.00  0.00     0.002 A 
ATOM      6  C6  I4B d   1       0.782   0.397  -0.464  0.00  0.00     0.003 A 
ENDROOT
BRANCH   1   7
ATOM      7  C1' I4B d   1      -1.212   1.875  -0.832  0.00  0.00     0.060 C 
BRANCH   7   8
ATOM      8  C2' I4B d   1      -1.576   1.477  -2.248  0.00  0.00    -0.013 C 
ATOM      9  C4' I4B d   1      -2.997   0.984  -2.327  0.00  0.00     0.013 C 
ATOM     10  C3' I4B d   1      -1.367   2.670  -3.132  0.00  0.00     0.013 C 
ENDBRANCH   7   8
ENDBRANCH   1   7
TORSDOF 2
ENDMDL
