MODEL 1
REMARK minimizedAffinity -4.48442078
REMARK minimizedRMSD -1
REMARK  2 active torsions:
REMARK  status: ('A' for Active; 'I' for Inactive)
REMARK    1  A    between atoms: C2'_3  and  C1'_4 
REMARK    2  A    between atoms: C1'_4  and  C1_5 
ROOT
ATOM      1  C1  I4B d   1       0.224   0.699  -0.424  0.00  0.00    -0.075 A 
ATOM      2  C2  I4B d   1      -0.757  -0.163  -0.002  0.00  0.00     0.003 A 
ATOM      3  C3  I4B d   1      -0.439  -1.506   0.317  0.00  0.00     0.002 A 
ATOM      4  C4  I4B d   1       0.856  -1.954   0.153  0.00  0.00    -0.004 A 
ATOM      5  C5  I4B d   1       1.854  -1.073  -0.253  0.00  0.00     0.002 A 
ATOM      6  C6  I4B d   1       1.539   0.265  -0.531  0.00  0.00     0.003 A 
ENDROOT
BRANCH   1   7
ATOM      7  C1' I4B d   1      -0.154   2.100  -0.783  0.00  0.00     0.060 C 
BRANCH   7   8
ATOM      8  C2' I4B d   1      -0.415   2.145  -2.275  0.00  0.00    -0.013 C 
ATOM      9  C4' I4B d   1      -1.892   2.126  -2.571  0.00  0.00     0.013 C 
ATOM     10  C3' I4B d   1       0.231   3.383  -2.821  0.00  0.00     0.013 C 
ENDBRANCH   7   8
ENDBRANCH   1   7
TORSDOF 2
ENDMDL
