MODEL 1
REMARK minimizedAffinity -0.36227423
REMARK minimizedRMSD -1
REMARK  2 active torsions:
REMARK  status: ('A' for Active; 'I' for Inactive)
REMARK    1  A    between atoms: C2'_3  and  C1'_4 
REMARK    2  A    between atoms: C1'_4  and  C1_5 
ROOT
ATOM      1  C1  I4B d   1      -0.447   1.197  -0.584  0.00  0.00    -0.075 A 
ATOM      2  C2  I4B d   1       0.762   0.571  -0.758  0.00  0.00     0.003 A 
ATOM      3  C3  I4B d   1       1.117  -0.532   0.054  0.00  0.00     0.002 A 
ATOM      4  C4  I4B d   1       0.261  -0.943   1.056  0.00  0.00    -0.004 A 
ATOM      5  C5  I4B d   1      -0.975  -0.322   1.216  0.00  0.00     0.002 A 
ATOM      6  C6  I4B d   1      -1.337   0.747   0.383  0.00  0.00     0.003 A 
ENDROOT
BRANCH   1   7
ATOM      7  C1' I4B d   1      -0.776   2.380  -1.438  0.00  0.00     0.060 C 
BRANCH   7   8
ATOM      8  C2' I4B d   1      -0.739   1.936  -2.886  0.00  0.00    -0.013 C 
ATOM      9  C4' I4B d   1      -2.128   1.744  -3.434  0.00  0.00     0.013 C 
ATOM     10  C3' I4B d   1       0.013   2.971  -3.668  0.00  0.00     0.013 C 
ENDBRANCH   7   8
ENDBRANCH   1   7
TORSDOF 2
ENDMDL
