MODEL 1
REMARK minimizedAffinity 0.963637352
REMARK minimizedRMSD -1
REMARK  2 active torsions:
REMARK  status: ('A' for Active; 'I' for Inactive)
REMARK    1  A    between atoms: C2'_3  and  C1'_4 
REMARK    2  A    between atoms: C1'_4  and  C1_5 
ROOT
ATOM      1  C1  I4B d   1       2.076   0.491   0.257  0.00  0.00    -0.075 A 
ATOM      2  C2  I4B d   1       0.939   1.129  -0.172  0.00  0.00     0.003 A 
ATOM      3  C3  I4B d   1      -0.296   0.437  -0.204  0.00  0.00     0.002 A 
ATOM      4  C4  I4B d   1      -0.339  -0.895   0.152  0.00  0.00    -0.004 A 
ATOM      5  C5  I4B d   1       0.811  -1.533   0.608  0.00  0.00     0.002 A 
ATOM      6  C6  I4B d   1       2.024  -0.832   0.673  0.00  0.00     0.003 A 
ENDROOT
BRANCH   1   7
ATOM      7  C1' I4B d   1       3.370   1.242   0.247  0.00  0.00     0.060 C 
BRANCH   7   8
ATOM      8  C2' I4B d   1       3.765   1.472  -1.198  0.00  0.00    -0.013 C 
ATOM      9  C4' I4B d   1       4.551   2.747  -1.352  0.00  0.00     0.013 C 
ATOM     10  C3' I4B d   1       4.561   0.286  -1.655  0.00  0.00     0.013 C 
ENDBRANCH   7   8
ENDBRANCH   1   7
TORSDOF 2
ENDMDL
