MODEL 1
REMARK minimizedAffinity -5.60180855
REMARK minimizedRMSD -1
REMARK  2 active torsions:
REMARK  status: ('A' for Active; 'I' for Inactive)
REMARK    1  A    between atoms: C2'_3  and  C1'_4 
REMARK    2  A    between atoms: C1'_4  and  C1_5 
ROOT
ATOM      1  C1  I4B d   1      -0.152   0.510  -0.155  0.00  0.00    -0.075 A 
ATOM      2  C2  I4B d   1       1.211   0.594  -0.294  0.00  0.00     0.003 A 
ATOM      3  C3  I4B d   1       2.027  -0.527  -0.007  0.00  0.00     0.002 A 
ATOM      4  C4  I4B d   1       1.447  -1.688   0.460  0.00  0.00    -0.004 A 
ATOM      5  C5  I4B d   1       0.063  -1.780   0.578  0.00  0.00     0.002 A 
ATOM      6  C6  I4B d   1      -0.743  -0.678   0.257  0.00  0.00     0.003 A 
ENDROOT
BRANCH   1   7
ATOM      7  C1' I4B d   1      -0.982   1.723  -0.435  0.00  0.00     0.060 C 
BRANCH   7   8
ATOM      8  C2' I4B d   1      -1.169   1.824  -1.935  0.00  0.00    -0.013 C 
ATOM      9  C4' I4B d   1      -2.503   1.267  -2.357  0.00  0.00     0.013 C 
ATOM     10  C3' I4B d   1      -1.039   3.268  -2.321  0.00  0.00     0.013 C 
ENDBRANCH   7   8
ENDBRANCH   1   7
TORSDOF 2
ENDMDL
