MODEL 1
REMARK minimizedAffinity 0.197997466
REMARK minimizedRMSD -1
REMARK  0 active torsions:
REMARK  status: ('A' for Active; 'I' for Inactive)
ROOT
ATOM      1  C   UNL d   1      -1.169  -0.730  -5.235  0.00  0.00     0.020 A 
ATOM      2  C1  UNL d   1      -0.887   0.563  -5.673  0.00  0.00     0.020 A 
ATOM      3  C2  UNL d   1       0.039   1.348  -4.982  0.00  0.00     0.034 A 
ATOM      4  C3  UNL d   1       0.684   0.840  -3.848  0.00  0.00     0.017 A 
ATOM      5  C4  UNL d   1       0.400  -0.458  -3.409  0.00  0.00     0.017 A 
ATOM      6  C5  UNL d   1      -0.527  -1.239  -4.106  0.00  0.00     0.034 A 
ATOM      7 Cl   UNL d   1       1.157  -1.153  -2.020  0.00  0.00    -0.070 Cl
ATOM      8 Cl1  UNL d   1       1.817   1.866  -3.043  0.00  0.00    -0.070 Cl
ENDROOT
TORSDOF 0
ENDMDL
