MODEL 1
REMARK minimizedAffinity -1.96512067
REMARK minimizedRMSD -1
REMARK  0 active torsions:
REMARK  status: ('A' for Active; 'I' for Inactive)
ROOT
ATOM      1  C   UNL d   1       0.271  -0.059  -1.617  0.00  0.00     0.020 A 
ATOM      2  C1  UNL d   1       0.592   0.920  -0.678  0.00  0.00     0.020 A 
ATOM      3  C2  UNL d   1       0.019   0.881   0.595  0.00  0.00     0.034 A 
ATOM      4  C3  UNL d   1      -0.878  -0.139   0.932  0.00  0.00     0.017 A 
ATOM      5  C4  UNL d   1      -1.200  -1.121  -0.011  0.00  0.00     0.017 A 
ATOM      6  C5  UNL d   1      -0.623  -1.078  -1.284  0.00  0.00     0.034 A 
ATOM      7 Cl   UNL d   1      -2.298  -2.411   0.331  0.00  0.00    -0.070 Cl
ATOM      8 Cl1  UNL d   1      -1.548  -0.125   2.524  0.00  0.00    -0.070 Cl
ENDROOT
TORSDOF 0
ENDMDL
