MODEL 1
REMARK minimizedAffinity -3.02871442
REMARK minimizedRMSD -1
REMARK  0 active torsions:
REMARK  status: ('A' for Active; 'I' for Inactive)
ROOT
ATOM      1  C   UNL d   1       0.349  -0.522  -1.142  0.00  0.00     0.020 A 
ATOM      2  C1  UNL d   1      -0.951  -0.066  -0.926  0.00  0.00     0.020 A 
ATOM      3  C2  UNL d   1      -1.343   0.350   0.348  0.00  0.00     0.034 A 
ATOM      4  C3  UNL d   1      -0.433   0.312   1.411  0.00  0.00     0.017 A 
ATOM      5  C4  UNL d   1       0.871  -0.146   1.194  0.00  0.00     0.017 A 
ATOM      6  C5  UNL d   1       1.258  -0.561  -0.084  0.00  0.00     0.034 A 
ATOM      7 Cl   UNL d   1       2.049  -0.222   2.457  0.00  0.00    -0.070 Cl
ATOM      8 Cl1  UNL d   1      -0.986   0.843   2.960  0.00  0.00    -0.070 Cl
ENDROOT
TORSDOF 0
ENDMDL
