MODEL 1
REMARK minimizedAffinity -3.26099753
REMARK minimizedRMSD -1
REMARK  0 active torsions:
REMARK  status: ('A' for Active; 'I' for Inactive)
ROOT
ATOM      1  C   UNL d   1      -1.095   0.510   2.892  0.00  0.00     0.020 A 
ATOM      2  C1  UNL d   1      -1.953   0.666   1.804  0.00  0.00     0.020 A 
ATOM      3  C2  UNL d   1      -1.513   0.347   0.517  0.00  0.00     0.034 A 
ATOM      4  C3  UNL d   1      -0.213  -0.130   0.315  0.00  0.00     0.017 A 
ATOM      5  C4  UNL d   1       0.647  -0.286   1.408  0.00  0.00     0.017 A 
ATOM      6  C5  UNL d   1       0.202   0.035   2.695  0.00  0.00     0.034 A 
ATOM      7 Cl   UNL d   1       2.265  -0.869   1.238  0.00  0.00    -0.070 Cl
ATOM      8 Cl1  UNL d   1       0.263  -0.505  -1.303  0.00  0.00    -0.070 Cl
ENDROOT
TORSDOF 0
ENDMDL
