MODEL 1
REMARK minimizedAffinity -1.3478061
REMARK minimizedRMSD -1
REMARK  0 active torsions:
REMARK  status: ('A' for Active; 'I' for Inactive)
ROOT
ATOM      1  C   UNL d   1      -0.632  -0.184  -1.620  0.00  0.00     0.020 A 
ATOM      2  C1  UNL d   1       0.731  -0.446  -1.752  0.00  0.00     0.020 A 
ATOM      3  C2  UNL d   1       1.531  -0.568  -0.615  0.00  0.00     0.034 A 
ATOM      4  C3  UNL d   1       0.970  -0.427   0.660  0.00  0.00     0.017 A 
ATOM      5  C4  UNL d   1      -0.398  -0.164   0.791  0.00  0.00     0.017 A 
ATOM      6  C5  UNL d   1      -1.195  -0.043  -0.351  0.00  0.00     0.034 A 
ATOM      7 Cl   UNL d   1      -1.163   0.023   2.330  0.00  0.00    -0.070 Cl
ATOM      8 Cl1  UNL d   1       2.020  -0.590   2.023  0.00  0.00    -0.070 Cl
ENDROOT
TORSDOF 0
ENDMDL
