MODEL 1
REMARK minimizedAffinity -1.31076121
REMARK minimizedRMSD -1
REMARK  0 active torsions:
REMARK  status: ('A' for Active; 'I' for Inactive)
ROOT
ATOM      1  C   UNL d   1      -1.223   0.384  -0.825  0.00  0.00     0.020 A 
ATOM      2  C1  UNL d   1       0.052   0.038  -1.271  0.00  0.00     0.020 A 
ATOM      3  C2  UNL d   1       1.045  -0.305  -0.351  0.00  0.00     0.034 A 
ATOM      4  C3  UNL d   1       0.765  -0.304   1.020  0.00  0.00     0.017 A 
ATOM      5  C4  UNL d   1      -0.515   0.044   1.467  0.00  0.00     0.017 A 
ATOM      6  C5  UNL d   1      -1.506   0.387   0.542  0.00  0.00     0.034 A 
ATOM      7 Cl   UNL d   1      -0.936   0.068   3.143  0.00  0.00    -0.070 Cl
ATOM      8 Cl1  UNL d   1       2.040  -0.740   2.101  0.00  0.00    -0.070 Cl
ENDROOT
TORSDOF 0
ENDMDL
