MODEL 1
REMARK minimizedAffinity -2.07402253
REMARK minimizedRMSD -1
REMARK  0 active torsions:
REMARK  status: ('A' for Active; 'I' for Inactive)
ROOT
ATOM      1  C   UNL d   1      -0.150  -0.178  -1.129  0.00  0.00     0.020 A 
ATOM      2  C1  UNL d   1      -1.397   0.221  -0.650  0.00  0.00     0.020 A 
ATOM      3  C2  UNL d   1      -1.577   0.462   0.714  0.00  0.00     0.034 A 
ATOM      4  C3  UNL d   1      -0.508   0.306   1.603  0.00  0.00     0.017 A 
ATOM      5  C4  UNL d   1       0.744  -0.094   1.121  0.00  0.00     0.017 A 
ATOM      6  C5  UNL d   1       0.919  -0.335  -0.245  0.00  0.00     0.034 A 
ATOM      7 Cl   UNL d   1       2.111  -0.309   2.158  0.00  0.00    -0.070 Cl
ATOM      8 Cl1  UNL d   1      -0.801   0.622   3.276  0.00  0.00    -0.070 Cl
ENDROOT
TORSDOF 0
ENDMDL
