MODEL 1
REMARK minimizedAffinity -3.59880018
REMARK minimizedRMSD -1
REMARK  0 active torsions:
REMARK  status: ('A' for Active; 'I' for Inactive)
ROOT
ATOM      1  C   UNL d   1      -2.538   1.146   0.370  0.00  0.00     0.020 A 
ATOM      2  C1  UNL d   1      -2.158   0.852   1.679  0.00  0.00     0.020 A 
ATOM      3  C2  UNL d   1      -0.908   0.285   1.933  0.00  0.00     0.034 A 
ATOM      4  C3  UNL d   1      -0.032   0.011   0.876  0.00  0.00     0.017 A 
ATOM      5  C4  UNL d   1      -0.414   0.306  -0.437  0.00  0.00     0.017 A 
ATOM      6  C5  UNL d   1      -1.667   0.874  -0.686  0.00  0.00     0.034 A 
ATOM      7 Cl   UNL d   1       0.613  -0.004  -1.793  0.00  0.00    -0.070 Cl
ATOM      8 Cl1  UNL d   1       1.499  -0.691   1.263  0.00  0.00    -0.070 Cl
ENDROOT
TORSDOF 0
ENDMDL
