MODEL 1
REMARK minimizedAffinity -1.08226442
REMARK minimizedRMSD -1
REMARK  0 active torsions:
REMARK  status: ('A' for Active; 'I' for Inactive)
ROOT
ATOM      1  C   UNL d   1       0.189   1.474  -3.337  0.00  0.00     0.020 A 
ATOM      2  C1  UNL d   1       1.450   0.880  -3.387  0.00  0.00     0.020 A 
ATOM      3  C2  UNL d   1       1.854   0.014  -2.369  0.00  0.00     0.034 A 
ATOM      4  C3  UNL d   1       0.997  -0.262  -1.297  0.00  0.00     0.017 A 
ATOM      5  C4  UNL d   1      -0.268   0.334  -1.248  0.00  0.00     0.017 A 
ATOM      6  C5  UNL d   1      -0.668   1.201  -2.270  0.00  0.00     0.034 A 
ATOM      7 Cl   UNL d   1      -1.381   0.042   0.042  0.00  0.00    -0.070 Cl
ATOM      8 Cl1  UNL d   1       1.563  -1.344  -0.074  0.00  0.00    -0.070 Cl
ENDROOT
TORSDOF 0
ENDMDL
