MODEL 1
REMARK minimizedAffinity 2.99585509
REMARK minimizedRMSD -1
REMARK  0 active torsions:
REMARK  status: ('A' for Active; 'I' for Inactive)
ROOT
ATOM      1  C   UNL d   1       5.674   2.253   5.917  0.00  0.00     0.020 A 
ATOM      2  C1  UNL d   1       6.000   0.899   5.999  0.00  0.00     0.020 A 
ATOM      3  C2  UNL d   1       5.628   0.028   4.973  0.00  0.00     0.034 A 
ATOM      4  C3  UNL d   1       4.927   0.509   3.861  0.00  0.00     0.017 A 
ATOM      5  C4  UNL d   1       4.601   1.867   3.779  0.00  0.00     0.017 A 
ATOM      6  C5  UNL d   1       4.977   2.735   4.809  0.00  0.00     0.034 A 
ATOM      7 Cl   UNL d   1       3.739   2.534   2.438  0.00  0.00    -0.070 Cl
ATOM      8 Cl1  UNL d   1       4.499  -0.625   2.630  0.00  0.00    -0.070 Cl
ENDROOT
TORSDOF 0
ENDMDL
