MODEL 1
REMARK minimizedAffinity 3.05802178
REMARK minimizedRMSD -1
REMARK  0 active torsions:
REMARK  status: ('A' for Active; 'I' for Inactive)
ROOT
ATOM      1  O1  BZF d   1       0.555  -1.778   1.876  0.00  0.00    -0.204 OA
ATOM      2  C2  BZF d   1      -0.637  -1.967   1.203  0.00  0.00     0.174 A 
ATOM      3  C3  BZF d   1      -0.914  -0.910   0.414  0.00  0.00    -0.012 A 
ATOM      4  C3A BZF d   1       0.219  -0.043   0.535  0.00  0.00    -0.107 A 
ATOM      5  C4  BZF d   1       0.543   1.161  -0.021  0.00  0.00     0.055 A 
ATOM      6  C5  BZF d   1       1.692   1.778   0.362  0.00  0.00    -0.016 A 
ATOM      7  C6  BZF d   1       2.535   1.222   1.302  0.00  0.00     0.022 A 
ATOM      8  C7  BZF d   1       2.258   0.027   1.878  0.00  0.00     0.029 A 
ATOM      9  C7A BZF d   1       1.115  -0.614   1.468  0.00  0.00     0.058 A 
ENDROOT
TORSDOF 0
ENDMDL
