MODEL 1
REMARK minimizedAffinity 8.02650261
REMARK minimizedRMSD -1
REMARK  0 active torsions:
REMARK  status: ('A' for Active; 'I' for Inactive)
ROOT
ATOM      1  O1  BZF d   1       0.460  -2.560  -0.052  0.00  0.00    -0.204 OA
ATOM      2  C2  BZF d   1      -0.243  -2.232   1.091  0.00  0.00     0.174 A 
ATOM      3  C3  BZF d   1      -1.564  -2.147   0.831  0.00  0.00    -0.012 A 
ATOM      4  C3A BZF d   1      -1.704  -2.531  -0.540  0.00  0.00    -0.107 A 
ATOM      5  C4  BZF d   1      -2.777  -2.660  -1.374  0.00  0.00     0.055 A 
ATOM      6  C5  BZF d   1      -2.566  -2.983  -2.677  0.00  0.00    -0.016 A 
ATOM      7  C6  BZF d   1      -1.296  -3.179  -3.180  0.00  0.00     0.022 A 
ATOM      8  C7  BZF d   1      -0.201  -3.068  -2.390  0.00  0.00     0.029 A 
ATOM      9  C7A BZF d   1      -0.413  -2.773  -1.065  0.00  0.00     0.058 A 
ENDROOT
TORSDOF 0
ENDMDL
