MODEL 1
REMARK minimizedAffinity -2.18665695
REMARK minimizedRMSD -1
REMARK  0 active torsions:
REMARK  status: ('A' for Active; 'I' for Inactive)
ROOT
ATOM      1  O1  BZF d   1       3.478   1.495   0.487  0.00  0.00    -0.204 OA
ATOM      2  C2  BZF d   1       3.101   0.564   1.435  0.00  0.00     0.174 A 
ATOM      3  C3  BZF d   1       1.789   0.681   1.726  0.00  0.00    -0.012 A 
ATOM      4  C3A BZF d   1       1.296   1.691   0.840  0.00  0.00    -0.107 A 
ATOM      5  C4  BZF d   1       0.063   2.242   0.638  0.00  0.00     0.055 A 
ATOM      6  C5  BZF d   1      -0.067   3.260  -0.252  0.00  0.00    -0.016 A 
ATOM      7  C6  BZF d   1       1.013   3.755  -0.953  0.00  0.00     0.022 A 
ATOM      8  C7  BZF d   1       2.255   3.237  -0.790  0.00  0.00     0.029 A 
ATOM      9  C7A BZF d   1       2.384   2.186   0.085  0.00  0.00     0.058 A 
ENDROOT
TORSDOF 0
ENDMDL
