MODEL 1
REMARK minimizedAffinity 1.58186722
REMARK minimizedRMSD -1
REMARK  0 active torsions:
REMARK  status: ('A' for Active; 'I' for Inactive)
ROOT
ATOM      1  O1  BZF d   1       1.512   2.913   1.056  0.00  0.00    -0.204 OA
ATOM      2  C2  BZF d   1       1.750   3.549  -0.147  0.00  0.00     0.174 A 
ATOM      3  C3  BZF d   1       2.688   2.892  -0.859  0.00  0.00    -0.012 A 
ATOM      4  C3A BZF d   1       2.993   1.724  -0.091  0.00  0.00    -0.107 A 
ATOM      5  C4  BZF d   1       3.840   0.669  -0.282  0.00  0.00     0.055 A 
ATOM      6  C5  BZF d   1       3.956  -0.269   0.694  0.00  0.00    -0.016 A 
ATOM      7  C6  BZF d   1       3.245  -0.183   1.873  0.00  0.00     0.022 A 
ATOM      8  C7  BZF d   1       2.389   0.842   2.106  0.00  0.00     0.029 A 
ATOM      9  C7A BZF d   1       2.245   1.775   1.108  0.00  0.00     0.058 A 
ENDROOT
TORSDOF 0
ENDMDL
