MODEL 1
REMARK minimizedAffinity 2.02039719
REMARK minimizedRMSD -1
REMARK  0 active torsions:
REMARK  status: ('A' for Active; 'I' for Inactive)
ROOT
ATOM      1  O1  BZF d   1       3.366   1.106   0.597  0.00  0.00    -0.204 OA
ATOM      2  C2  BZF d   1       2.877   0.149   1.466  0.00  0.00     0.174 A 
ATOM      3  C3  BZF d   1       1.567   0.351   1.713  0.00  0.00    -0.012 A 
ATOM      4  C3A BZF d   1       1.192   1.451   0.877  0.00  0.00    -0.107 A 
ATOM      5  C4  BZF d   1       0.015   2.109   0.664  0.00  0.00     0.055 A 
ATOM      6  C5  BZF d   1       0.002   3.189  -0.162  0.00  0.00    -0.016 A 
ATOM      7  C6  BZF d   1       1.147   3.639  -0.785  0.00  0.00     0.022 A 
ATOM      8  C7  BZF d   1       2.337   3.016  -0.608  0.00  0.00     0.029 A 
ATOM      9  C7A BZF d   1       2.347   1.905   0.200  0.00  0.00     0.058 A 
ENDROOT
TORSDOF 0
ENDMDL
