MODEL 1
REMARK minimizedAffinity 2.1381886
REMARK minimizedRMSD -1
REMARK  0 active torsions:
REMARK  status: ('A' for Active; 'I' for Inactive)
ROOT
ATOM      1  O1  BZF d   1       1.014  -2.159  -1.458  0.00  0.00    -0.204 OA
ATOM      2  C2  BZF d   1       1.965  -3.142  -1.260  0.00  0.00     0.174 A 
ATOM      3  C3  BZF d   1       1.383  -4.351  -1.124  0.00  0.00    -0.012 A 
ATOM      4  C3A BZF d   1      -0.013  -4.122  -1.337  0.00  0.00    -0.107 A 
ATOM      5  C4  BZF d   1      -1.108  -4.939  -1.347  0.00  0.00     0.055 A 
ATOM      6  C5  BZF d   1      -2.340  -4.390  -1.513  0.00  0.00    -0.016 A 
ATOM      7  C6  BZF d   1      -2.515  -3.031  -1.666  0.00  0.00     0.022 A 
ATOM      8  C7  BZF d   1      -1.459  -2.181  -1.668  0.00  0.00     0.029 A 
ATOM      9  C7A BZF d   1      -0.210  -2.735  -1.534  0.00  0.00     0.058 A 
ENDROOT
TORSDOF 0
ENDMDL
