MODEL 1
REMARK minimizedAffinity -1.69591594
REMARK minimizedRMSD -1
REMARK  0 active torsions:
REMARK  status: ('A' for Active; 'I' for Inactive)
ROOT
ATOM      1  O1  BZF d   1       0.485  -2.776   3.219  0.00  0.00    -0.204 OA
ATOM      2  C2  BZF d   1       0.989  -2.691   4.503  0.00  0.00     0.174 A 
ATOM      3  C3  BZF d   1       1.660  -1.534   4.678  0.00  0.00    -0.012 A 
ATOM      4  C3A BZF d   1       1.493  -0.813   3.453  0.00  0.00    -0.107 A 
ATOM      5  C4  BZF d   1       1.914   0.411   3.019  0.00  0.00     0.055 A 
ATOM      6  C5  BZF d   1       1.642   0.789   1.742  0.00  0.00    -0.016 A 
ATOM      7  C6  BZF d   1       0.958  -0.034   0.872  0.00  0.00     0.022 A 
ATOM      8  C7  BZF d   1       0.515  -1.255   1.258  0.00  0.00     0.029 A 
ATOM      9  C7A BZF d   1       0.759  -1.626   2.558  0.00  0.00     0.058 A 
ENDROOT
TORSDOF 0
ENDMDL
