MODEL 1
REMARK minimizedAffinity 4.42981482
REMARK minimizedRMSD -1
REMARK  0 active torsions:
REMARK  status: ('A' for Active; 'I' for Inactive)
ROOT
ATOM      1  O1  BZF d   1       0.763  -0.902   3.394  0.00  0.00    -0.204 OA
ATOM      2  C2  BZF d   1       0.780  -2.262   3.151  0.00  0.00     0.174 A 
ATOM      3  C3  BZF d   1       1.040  -2.513   1.852  0.00  0.00    -0.012 A 
ATOM      4  C3A BZF d   1       1.286  -1.233   1.263  0.00  0.00    -0.107 A 
ATOM      5  C4  BZF d   1       1.613  -0.827   0.001  0.00  0.00     0.055 A 
ATOM      6  C5  BZF d   1       1.711   0.503  -0.261  0.00  0.00    -0.016 A 
ATOM      7  C6  BZF d   1       1.482   1.453   0.713  0.00  0.00     0.022 A 
ATOM      8  C7  BZF d   1       1.160   1.099   1.980  0.00  0.00     0.029 A 
ATOM      9  C7A BZF d   1       1.093  -0.245   2.256  0.00  0.00     0.058 A 
ENDROOT
TORSDOF 0
ENDMDL
