MODEL 1
REMARK minimizedAffinity 1.93579352
REMARK minimizedRMSD -1
REMARK  0 active torsions:
REMARK  status: ('A' for Active; 'I' for Inactive)
ROOT
ATOM      1  O1  BZF d   1       2.975  -1.115   1.561  0.00  0.00    -0.204 OA
ATOM      2  C2  BZF d   1       1.678  -0.670   1.395  0.00  0.00     0.174 A 
ATOM      3  C3  BZF d   1       0.866  -1.202   2.331  0.00  0.00    -0.012 A 
ATOM      4  C3A BZF d   1       1.725  -1.960   3.188  0.00  0.00    -0.107 A 
ATOM      5  C4  BZF d   1       1.510  -2.708   4.310  0.00  0.00     0.055 A 
ATOM      6  C5  BZF d   1       2.552  -3.379   4.866  0.00  0.00    -0.016 A 
ATOM      7  C6  BZF d   1       3.819  -3.330   4.324  0.00  0.00     0.022 A 
ATOM      8  C7  BZF d   1       4.083  -2.598   3.215  0.00  0.00     0.029 A 
ATOM      9  C7A BZF d   1       3.039  -1.891   2.670  0.00  0.00     0.058 A 
ENDROOT
TORSDOF 0
ENDMDL
