MODEL 1
REMARK minimizedAffinity -3.51310253
REMARK minimizedRMSD -1
REMARK  0 active torsions:
REMARK  status: ('A' for Active; 'I' for Inactive)
ROOT
ATOM      1  O1  BZF d   1       0.427  -1.622   1.762  0.00  0.00    -0.204 OA
ATOM      2  C2  BZF d   1       0.546  -0.679   0.759  0.00  0.00     0.174 A 
ATOM      3  C3  BZF d   1       1.083   0.462   1.237  0.00  0.00    -0.012 A 
ATOM      4  C3A BZF d   1       1.399   0.186   2.604  0.00  0.00    -0.107 A 
ATOM      5  C4  BZF d   1       1.969   0.921   3.604  0.00  0.00     0.055 A 
ATOM      6  C5  BZF d   1       2.069   0.382   4.847  0.00  0.00    -0.016 A 
ATOM      7  C6  BZF d   1       1.605  -0.887   5.127  0.00  0.00     0.022 A 
ATOM      8  C7  BZF d   1       1.037  -1.657   4.167  0.00  0.00     0.029 A 
ATOM      9  C7A BZF d   1       0.964  -1.127   2.902  0.00  0.00     0.058 A 
ENDROOT
TORSDOF 0
ENDMDL
