MODEL 1
REMARK minimizedAffinity -4.2320323
REMARK minimizedRMSD -1
REMARK  0 active torsions:
REMARK  status: ('A' for Active; 'I' for Inactive)
ROOT
ATOM      1  C   UNL d   1      -3.782   1.947  -2.496  0.00  0.00     0.078 C 
ATOM      2  C1  UNL d   1      -2.321   2.281  -2.542  0.00  0.00    -0.077 A 
ATOM      3  C2  UNL d   1      -1.867   3.574  -2.254  0.00  0.00    -0.001 A 
ATOM      4  C3  UNL d   1      -0.505   3.873  -2.311  0.00  0.00     0.003 A 
ATOM      5  C4  UNL d   1       0.414   2.884  -2.657  0.00  0.00    -0.005 A 
ATOM      6  C5  UNL d   1      -0.028   1.595  -2.947  0.00  0.00     0.003 A 
ATOM      7  C6  UNL d   1      -1.390   1.294  -2.891  0.00  0.00    -0.001 A 
ENDROOT
TORSDOF 0
ENDMDL
