MODEL 1
REMARK minimizedAffinity -4.0562911
REMARK minimizedRMSD -1
REMARK  0 active torsions:
REMARK  status: ('A' for Active; 'I' for Inactive)
ROOT
ATOM      1  C   UNL d   1      -0.750   0.645  -0.841  0.00  0.00     0.078 C 
ATOM      2  C1  UNL d   1       0.031   0.246   0.375  0.00  0.00    -0.077 A 
ATOM      3  C2  UNL d   1       1.093   1.031   0.841  0.00  0.00    -0.001 A 
ATOM      4  C3  UNL d   1       1.817   0.642   1.969  0.00  0.00     0.003 A 
ATOM      5  C4  UNL d   1       1.488  -0.533   2.640  0.00  0.00    -0.005 A 
ATOM      6  C5  UNL d   1       0.434  -1.322   2.184  0.00  0.00     0.003 A 
ATOM      7  C6  UNL d   1      -0.291  -0.935   1.056  0.00  0.00    -0.001 A 
ENDROOT
TORSDOF 0
ENDMDL
