MODEL 1
REMARK minimizedAffinity -3.93180656
REMARK minimizedRMSD -1
REMARK  0 active torsions:
REMARK  status: ('A' for Active; 'I' for Inactive)
ROOT
ATOM      1  C   UNL d   1       1.165  -0.852   3.690  0.00  0.00     0.078 C 
ATOM      2  C1  UNL d   1       0.863  -0.545   2.254  0.00  0.00    -0.077 A 
ATOM      3  C2  UNL d   1      -0.395  -0.065   1.869  0.00  0.00    -0.001 A 
ATOM      4  C3  UNL d   1      -0.666   0.208   0.527  0.00  0.00     0.003 A 
ATOM      5  C4  UNL d   1       0.316   0.002  -0.441  0.00  0.00    -0.005 A 
ATOM      6  C5  UNL d   1       1.569  -0.478  -0.067  0.00  0.00     0.003 A 
ATOM      7  C6  UNL d   1       1.842  -0.750   1.274  0.00  0.00    -0.001 A 
ENDROOT
TORSDOF 0
ENDMDL
