MODEL 1
REMARK minimizedAffinity -5.05541086
REMARK minimizedRMSD -1
REMARK  0 active torsions:
REMARK  status: ('A' for Active; 'I' for Inactive)
ROOT
ATOM      1  C   UNL d   1      -0.209   0.474  -1.339  0.00  0.00     0.078 C 
ATOM      2  C1  UNL d   1      -0.131   0.095   0.110  0.00  0.00    -0.077 A 
ATOM      3  C2  UNL d   1       1.089  -0.262   0.697  0.00  0.00    -0.001 A 
ATOM      4  C3  UNL d   1       1.146  -0.622   2.044  0.00  0.00     0.003 A 
ATOM      5  C4  UNL d   1      -0.015  -0.630   2.816  0.00  0.00    -0.005 A 
ATOM      6  C5  UNL d   1      -1.234  -0.278   2.240  0.00  0.00     0.003 A 
ATOM      7  C6  UNL d   1      -1.292   0.082   0.893  0.00  0.00    -0.001 A 
ENDROOT
TORSDOF 0
ENDMDL
