MODEL 1
REMARK minimizedAffinity -4.70380735
REMARK minimizedRMSD -1
REMARK  0 active torsions:
REMARK  status: ('A' for Active; 'I' for Inactive)
ROOT
ATOM      1  C   UNL d   1       3.051  -1.868   0.527  0.00  0.00     0.078 C 
ATOM      2  C1  UNL d   1       1.755  -1.200   0.877  0.00  0.00    -0.077 A 
ATOM      3  C2  UNL d   1       1.233  -1.273   2.175  0.00  0.00    -0.001 A 
ATOM      4  C3  UNL d   1       0.021  -0.654   2.484  0.00  0.00     0.003 A 
ATOM      5  C4  UNL d   1      -0.681   0.041   1.501  0.00  0.00    -0.005 A 
ATOM      6  C5  UNL d   1      -0.171   0.118   0.207  0.00  0.00     0.003 A 
ATOM      7  C6  UNL d   1       1.042  -0.500  -0.104  0.00  0.00    -0.001 A 
ENDROOT
TORSDOF 0
ENDMDL
