MODEL 1
REMARK minimizedAffinity -4.38547754
REMARK minimizedRMSD -1
REMARK  0 active torsions:
REMARK  status: ('A' for Active; 'I' for Inactive)
ROOT
ATOM      1  C   UNL d   1       2.136  -1.453  -0.217  0.00  0.00     0.078 C 
ATOM      2  C1  UNL d   1       0.947  -0.882   0.497  0.00  0.00    -0.077 A 
ATOM      3  C2  UNL d   1       0.949  -0.723   1.888  0.00  0.00    -0.001 A 
ATOM      4  C3  UNL d   1      -0.168  -0.199   2.541  0.00  0.00     0.003 A 
ATOM      5  C4  UNL d   1      -1.296   0.168   1.810  0.00  0.00    -0.005 A 
ATOM      6  C5  UNL d   1      -1.309   0.011   0.426  0.00  0.00     0.003 A 
ATOM      7  C6  UNL d   1      -0.192  -0.512  -0.229  0.00  0.00    -0.001 A 
ENDROOT
TORSDOF 0
ENDMDL
