MODEL 1
REMARK minimizedAffinity -2.11045861
REMARK minimizedRMSD -1
REMARK  0 active torsions:
REMARK  status: ('A' for Active; 'I' for Inactive)
ROOT
ATOM      1  C   UNL d   1       1.348  -0.958   2.793  0.00  0.00     0.078 C 
ATOM      2  C1  UNL d   1       0.633  -0.540   1.544  0.00  0.00    -0.077 A 
ATOM      3  C2  UNL d   1      -0.757  -0.373   1.530  0.00  0.00    -0.001 A 
ATOM      4  C3  UNL d   1      -1.411   0.008   0.357  0.00  0.00     0.003 A 
ATOM      5  C4  UNL d   1      -0.683   0.223  -0.812  0.00  0.00    -0.005 A 
ATOM      6  C5  UNL d   1       0.701   0.056  -0.808  0.00  0.00     0.003 A 
ATOM      7  C6  UNL d   1       1.356  -0.324   0.364  0.00  0.00    -0.001 A 
ENDROOT
TORSDOF 0
ENDMDL
