MODEL 1
REMARK minimizedAffinity 14.171627
REMARK minimizedRMSD -1
REMARK  0 active torsions:
REMARK  status: ('A' for Active; 'I' for Inactive)
ROOT
ATOM      1  C   UNL d   1      -2.142  -2.142   2.277  0.00  0.00    -0.002 A 
ATOM      2  C1  UNL d   1      -2.670  -1.967   1.006  0.00  0.00     0.010 A 
ATOM      3  C2  UNL d   1      -2.272  -2.792  -0.048  0.00  0.00     0.041 A 
ATOM      4  C3  UNL d   1      -1.326  -3.806   0.200  0.00  0.00    -0.075 A 
ATOM      5  S   UNL d   1      -0.692  -4.936  -0.937  0.00  0.00     0.015 SA
ATOM      6  C4  UNL d   1       0.295  -5.678   0.238  0.00  0.00     0.022 A 
ATOM      7  C5  UNL d   1       0.156  -5.091   1.473  0.00  0.00     0.026 A 
ATOM      8  C6  UNL d   1      -0.781  -4.003   1.472  0.00  0.00    -0.082 A 
ATOM      9  C7  UNL d   1      -1.204  -3.150   2.519  0.00  0.00     0.045 A 
ENDROOT
TORSDOF 0
ENDMDL
