MODEL 1
REMARK minimizedAffinity 8.83570766
REMARK minimizedRMSD -1
REMARK  0 active torsions:
REMARK  status: ('A' for Active; 'I' for Inactive)
ROOT
ATOM      1  C   UNL d   1      -0.843  -3.972   0.478  0.00  0.00    -0.002 A 
ATOM      2  C1  UNL d   1      -0.470  -2.982  -0.420  0.00  0.00     0.010 A 
ATOM      3  C2  UNL d   1      -1.422  -2.110  -0.951  0.00  0.00     0.041 A 
ATOM      4  C3  UNL d   1      -2.768  -2.250  -0.560  0.00  0.00    -0.075 A 
ATOM      5  S   UNL d   1      -4.106  -1.295  -1.080  0.00  0.00     0.015 SA
ATOM      6  C4  UNL d   1      -5.204  -2.179  -0.122  0.00  0.00     0.022 A 
ATOM      7  C5  UNL d   1      -4.582  -3.181   0.584  0.00  0.00     0.026 A 
ATOM      8  C6  UNL d   1      -3.168  -3.238   0.344  0.00  0.00    -0.082 A 
ATOM      9  C7  UNL d   1      -2.179  -4.108   0.864  0.00  0.00     0.045 A 
ENDROOT
TORSDOF 0
ENDMDL
