MODEL 1
REMARK minimizedAffinity 16.0267181
REMARK minimizedRMSD -1
REMARK  0 active torsions:
REMARK  status: ('A' for Active; 'I' for Inactive)
ROOT
ATOM      1  C   UNL d   1       1.341  -6.000   0.628  0.00  0.00    -0.002 A 
ATOM      2  C1  UNL d   1       2.039  -4.894   0.163  0.00  0.00     0.010 A 
ATOM      3  C2  UNL d   1       1.365  -3.716  -0.164  0.00  0.00     0.041 A 
ATOM      4  C3  UNL d   1      -0.035  -3.666  -0.012  0.00  0.00    -0.075 A 
ATOM      5  S   UNL d   1      -1.071  -2.330  -0.349  0.00  0.00     0.015 SA
ATOM      6  C4  UNL d   1      -2.463  -3.195   0.118  0.00  0.00     0.022 A 
ATOM      7  C5  UNL d   1      -2.163  -4.474   0.523  0.00  0.00     0.026 A 
ATOM      8  C6  UNL d   1      -0.759  -4.767   0.456  0.00  0.00    -0.082 A 
ATOM      9  C7  UNL d   1      -0.047  -5.947   0.778  0.00  0.00     0.045 A 
ENDROOT
TORSDOF 0
ENDMDL
