MODEL 1
REMARK minimizedAffinity 16.4497375
REMARK minimizedRMSD -1
REMARK  0 active torsions:
REMARK  status: ('A' for Active; 'I' for Inactive)
ROOT
ATOM      1  C   UNL d   1      -0.578  -1.816   5.156  0.00  0.00    -0.002 A 
ATOM      2  C1  UNL d   1       0.655  -1.187   5.244  0.00  0.00     0.010 A 
ATOM      3  C2  UNL d   1       1.486  -1.092   4.126  0.00  0.00     0.041 A 
ATOM      4  C3  UNL d   1       1.050  -1.643   2.905  0.00  0.00    -0.075 A 
ATOM      5  S   UNL d   1       1.899  -1.645   1.404  0.00  0.00     0.015 SA
ATOM      6  C4  UNL d   1       0.643  -2.480   0.610  0.00  0.00     0.022 A 
ATOM      7  C5  UNL d   1      -0.405  -2.759   1.454  0.00  0.00     0.026 A 
ATOM      8  C6  UNL d   1      -0.188  -2.281   2.791  0.00  0.00    -0.082 A 
ATOM      9  C7  UNL d   1      -1.007  -2.362   3.943  0.00  0.00     0.045 A 
ENDROOT
TORSDOF 0
ENDMDL
