MODEL 1
REMARK minimizedAffinity 11.005825
REMARK minimizedRMSD -1
REMARK  0 active torsions:
REMARK  status: ('A' for Active; 'I' for Inactive)
ROOT
ATOM      1  C   UNL d   1       2.050  -5.910   0.756  0.00  0.00    -0.002 A 
ATOM      2  C1  UNL d   1       2.644  -4.738   0.309  0.00  0.00     0.010 A 
ATOM      3  C2  UNL d   1       1.863  -3.635  -0.041  0.00  0.00     0.041 A 
ATOM      4  C3  UNL d   1       0.461  -3.730   0.069  0.00  0.00    -0.075 A 
ATOM      5  S   UNL d   1      -0.695  -2.506  -0.302  0.00  0.00     0.015 SA
ATOM      6  C4  UNL d   1      -2.005  -3.510   0.126  0.00  0.00     0.022 A 
ATOM      7  C5  UNL d   1      -1.588  -4.751   0.544  0.00  0.00     0.026 A 
ATOM      8  C6  UNL d   1      -0.160  -4.898   0.518  0.00  0.00    -0.082 A 
ATOM      9  C7  UNL d   1       0.659  -6.000   0.864  0.00  0.00     0.045 A 
ENDROOT
TORSDOF 0
ENDMDL
