MODEL 1
REMARK minimizedAffinity 0.182456315
REMARK minimizedRMSD -1
REMARK  0 active torsions:
REMARK  status: ('A' for Active; 'I' for Inactive)
ROOT
ATOM      1  C   UNL d   1      -0.772   1.982  -0.769  0.00  0.00    -0.002 A 
ATOM      2  C1  UNL d   1      -1.271   2.321   0.481  0.00  0.00     0.010 A 
ATOM      3  C2  UNL d   1      -0.764   1.719   1.635  0.00  0.00     0.041 A 
ATOM      4  C3  UNL d   1       0.264   0.763   1.510  0.00  0.00    -0.075 A 
ATOM      5  S   UNL d   1       1.038  -0.103   2.783  0.00  0.00     0.015 SA
ATOM      6  C4  UNL d   1       2.049  -0.942   1.698  0.00  0.00     0.022 A 
ATOM      7  C5  UNL d   1       1.815  -0.583   0.392  0.00  0.00     0.026 A 
ATOM      8  C6  UNL d   1       0.782   0.406   0.262  0.00  0.00    -0.082 A 
ATOM      9  C7  UNL d   1       0.247   1.033  -0.889  0.00  0.00     0.045 A 
ENDROOT
TORSDOF 0
ENDMDL
