MODEL 1
REMARK minimizedAffinity 11.0427523
REMARK minimizedRMSD -1
REMARK  0 active torsions:
REMARK  status: ('A' for Active; 'I' for Inactive)
ROOT
ATOM      1  C   UNL d   1       0.583   3.925  -0.799  0.00  0.00    -0.002 A 
ATOM      2  C1  UNL d   1       0.581   2.551  -0.602  0.00  0.00     0.010 A 
ATOM      3  C2  UNL d   1      -0.580   1.806  -0.816  0.00  0.00     0.041 A 
ATOM      4  C3  UNL d   1      -1.749   2.470  -1.237  0.00  0.00    -0.075 A 
ATOM      5  S   UNL d   1      -3.287   1.762  -1.561  0.00  0.00     0.015 SA
ATOM      6  C4  UNL d   1      -3.977   3.266  -1.970  0.00  0.00     0.022 A 
ATOM      7  C5  UNL d   1      -3.070   4.294  -1.867  0.00  0.00     0.026 A 
ATOM      8  C6  UNL d   1      -1.771   3.852  -1.443  0.00  0.00    -0.082 A 
ATOM      9  C7  UNL d   1      -0.578   4.580  -1.217  0.00  0.00     0.045 A 
ENDROOT
TORSDOF 0
ENDMDL
