MODEL 1
REMARK minimizedAffinity -3.72802258
REMARK minimizedRMSD -1
REMARK  0 active torsions:
REMARK  status: ('A' for Active; 'I' for Inactive)
ROOT
ATOM      1  C1  BNZ d   1      -0.351  -0.911   2.582  0.00  0.00     0.000 A 
ATOM      2  C2  BNZ d   1      -0.433  -1.139   1.234  0.00  0.00     0.000 A 
ATOM      3  C3  BNZ d   1       0.280  -0.378   0.350  0.00  0.00     0.000 A 
ATOM      4  C4  BNZ d   1       1.042   0.635   0.812  0.00  0.00     0.000 A 
ATOM      5  C5  BNZ d   1       1.128   0.883   2.167  0.00  0.00     0.000 A 
ATOM      6  C6  BNZ d   1       0.439   0.090   3.056  0.00  0.00     0.000 A 
ENDROOT
TORSDOF 0
ENDMDL
