MODEL 1
REMARK minimizedAffinity -4.58804846
REMARK minimizedRMSD -1
REMARK  0 active torsions:
REMARK  status: ('A' for Active; 'I' for Inactive)
ROOT
ATOM      1  C1  BNZ d   1      -1.490   3.104  -0.489  0.00  0.00     0.000 A 
ATOM      2  C2  BNZ d   1      -0.539   3.017  -1.471  0.00  0.00     0.000 A 
ATOM      3  C3  BNZ d   1      -0.730   3.616  -2.685  0.00  0.00     0.000 A 
ATOM      4  C4  BNZ d   1      -1.886   4.265  -2.930  0.00  0.00     0.000 A 
ATOM      5  C5  BNZ d   1      -2.859   4.354  -1.953  0.00  0.00     0.000 A 
ATOM      6  C6  BNZ d   1      -2.647   3.783  -0.719  0.00  0.00     0.000 A 
ENDROOT
TORSDOF 0
ENDMDL
