MODEL 1
REMARK minimizedAffinity -4.72058344
REMARK minimizedRMSD -1
REMARK  0 active torsions:
REMARK  status: ('A' for Active; 'I' for Inactive)
ROOT
ATOM      1  C1  BNZ d   1      -1.908   3.871  -1.621  0.00  0.00     0.000 A 
ATOM      2  C2  BNZ d   1      -0.854   3.108  -2.050  0.00  0.00     0.000 A 
ATOM      3  C3  BNZ d   1      -1.065   1.922  -2.694  0.00  0.00     0.000 A 
ATOM      4  C4  BNZ d   1      -2.327   1.480  -2.874  0.00  0.00     0.000 A 
ATOM      5  C5  BNZ d   1      -3.399   2.233  -2.440  0.00  0.00     0.000 A 
ATOM      6  C6  BNZ d   1      -3.184   3.446  -1.826  0.00  0.00     0.000 A 
ENDROOT
TORSDOF 0
ENDMDL
