MODEL 1
REMARK minimizedAffinity -3.14267612
REMARK minimizedRMSD -1
REMARK  0 active torsions:
REMARK  status: ('A' for Active; 'I' for Inactive)
ROOT
ATOM      1  C1  BNZ d   1      -0.763   2.971  -4.032  0.00  0.00     0.000 A 
ATOM      2  C2  BNZ d   1      -1.846   3.677  -3.581  0.00  0.00     0.000 A 
ATOM      3  C3  BNZ d   1      -2.379   3.430  -2.347  0.00  0.00     0.000 A 
ATOM      4  C4  BNZ d   1      -1.854   2.451  -1.583  0.00  0.00     0.000 A 
ATOM      5  C5  BNZ d   1      -0.768   1.723  -2.027  0.00  0.00     0.000 A 
ATOM      6  C6  BNZ d   1      -0.210   2.001  -3.254  0.00  0.00     0.000 A 
ENDROOT
TORSDOF 0
ENDMDL
