MODEL 1
REMARK minimizedAffinity -1.52399802
REMARK minimizedRMSD -1
REMARK  0 active torsions:
REMARK  status: ('A' for Active; 'I' for Inactive)
ROOT
ATOM      1  C1  BNZ d   1      -1.312   0.759  -2.089  0.00  0.00     0.000 A 
ATOM      2  C2  BNZ d   1      -1.914   1.834  -2.688  0.00  0.00     0.000 A 
ATOM      3  C3  BNZ d   1      -1.167   2.853  -3.210  0.00  0.00     0.000 A 
ATOM      4  C4  BNZ d   1       0.176   2.816  -3.096  0.00  0.00     0.000 A 
ATOM      5  C5  BNZ d   1       0.797   1.744  -2.487  0.00  0.00     0.000 A 
ATOM      6  C6  BNZ d   1       0.044   0.702  -1.997  0.00  0.00     0.000 A 
ENDROOT
TORSDOF 0
ENDMDL
