MODEL 1
REMARK minimizedAffinity -4.04188824
REMARK minimizedRMSD -1
REMARK  0 active torsions:
REMARK  status: ('A' for Active; 'I' for Inactive)
ROOT
ATOM      1  C1  BNZ d   1      -0.387  -0.791   2.243  0.00  0.00     0.000 A 
ATOM      2  C2  BNZ d   1      -1.213  -0.211   1.318  0.00  0.00     0.000 A 
ATOM      3  C3  BNZ d   1      -0.836  -0.109   0.008  0.00  0.00     0.000 A 
ATOM      4  C4  BNZ d   1       0.382  -0.551  -0.367  0.00  0.00     0.000 A 
ATOM      5  C5  BNZ d   1       1.230  -1.130   0.555  0.00  0.00     0.000 A 
ATOM      6  C6  BNZ d   1       0.831  -1.266   1.865  0.00  0.00     0.000 A 
ENDROOT
TORSDOF 0
ENDMDL
