MODEL 1
REMARK minimizedAffinity -1.39041507
REMARK minimizedRMSD -1
REMARK  0 active torsions:
REMARK  status: ('A' for Active; 'I' for Inactive)
ROOT
ATOM      1  C1  BNZ d   1      -1.040  -0.307  -1.233  0.00  0.00     0.000 A 
ATOM      2  C2  BNZ d   1       0.275  -0.008  -0.997  0.00  0.00     0.000 A 
ATOM      3  C3  BNZ d   1       0.758   0.067   0.279  0.00  0.00     0.000 A 
ATOM      4  C4  BNZ d   1      -0.082  -0.115   1.318  0.00  0.00     0.000 A 
ATOM      5  C5  BNZ d   1      -1.413  -0.408   1.097  0.00  0.00     0.000 A 
ATOM      6  C6  BNZ d   1      -1.887  -0.522  -0.189  0.00  0.00     0.000 A 
ENDROOT
TORSDOF 0
ENDMDL
