MODEL 1
REMARK minimizedAffinity -3.45435166
REMARK minimizedRMSD -1
REMARK  0 active torsions:
REMARK  status: ('A' for Active; 'I' for Inactive)
ROOT
ATOM      1  C1  BNZ d   1      -2.632   1.653  -2.664  0.00  0.00     0.000 A 
ATOM      2  C2  BNZ d   1      -3.995   1.676  -2.534  0.00  0.00     0.000 A 
ATOM      3  C3  BNZ d   1      -4.690   2.847  -2.658  0.00  0.00     0.000 A 
ATOM      4  C4  BNZ d   1      -4.019   3.997  -2.872  0.00  0.00     0.000 A 
ATOM      5  C5  BNZ d   1      -2.644   3.992  -2.997  0.00  0.00     0.000 A 
ATOM      6  C6  BNZ d   1      -1.951   2.806  -2.910  0.00  0.00     0.000 A 
ENDROOT
TORSDOF 0
ENDMDL
