MODEL 1
REMARK minimizedAffinity -3.42321873
REMARK minimizedRMSD -1
REMARK  0 active torsions:
REMARK  status: ('A' for Active; 'I' for Inactive)
ROOT
ATOM      1  C1  BNZ d   1      -0.320   3.922  -2.961  0.00  0.00     0.000 A 
ATOM      2  C2  BNZ d   1      -1.581   4.454  -2.913  0.00  0.00     0.000 A 
ATOM      3  C3  BNZ d   1      -2.639   3.708  -2.474  0.00  0.00     0.000 A 
ATOM      4  C4  BNZ d   1      -2.442   2.421  -2.122  0.00  0.00     0.000 A 
ATOM      5  C5  BNZ d   1      -1.178   1.867  -2.174  0.00  0.00     0.000 A 
ATOM      6  C6  BNZ d   1      -0.109   2.633  -2.580  0.00  0.00     0.000 A 
ENDROOT
TORSDOF 0
ENDMDL
