MODEL 1
REMARK minimizedAffinity -2.48652363
REMARK minimizedRMSD -1
REMARK  0 active torsions:
REMARK  status: ('A' for Active; 'I' for Inactive)
ROOT
ATOM      1  C1  BNZ d   1       1.875   0.027   0.886  0.00  0.00     0.000 A 
ATOM      2  C2  BNZ d   1       1.987  -0.347   2.199  0.00  0.00     0.000 A 
ATOM      3  C3  BNZ d   1       0.933  -0.918   2.856  0.00  0.00     0.000 A 
ATOM      4  C4  BNZ d   1      -0.241  -1.078   2.213  0.00  0.00     0.000 A 
ATOM      5  C5  BNZ d   1      -0.373  -0.697   0.892  0.00  0.00     0.000 A 
ATOM      6  C6  BNZ d   1       0.702  -0.158   0.222  0.00  0.00     0.000 A 
ENDROOT
TORSDOF 0
ENDMDL
