MODEL 1
REMARK minimizedAffinity -4.0871067
REMARK minimizedRMSD -1
REMARK  0 active torsions:
REMARK  status: ('A' for Active; 'I' for Inactive)
ROOT
ATOM      1  C1  BNZ d   1       0.418  -0.425   0.074  0.00  0.00     0.000 A 
ATOM      2  C2  BNZ d   1      -0.770  -0.341   0.750  0.00  0.00     0.000 A 
ATOM      3  C3  BNZ d   1      -0.800  -0.337   2.116  0.00  0.00     0.000 A 
ATOM      4  C4  BNZ d   1       0.353  -0.457   2.805  0.00  0.00     0.000 A 
ATOM      5  C5  BNZ d   1       1.558  -0.551   2.139  0.00  0.00     0.000 A 
ATOM      6  C6  BNZ d   1       1.588  -0.516   0.763  0.00  0.00     0.000 A 
ENDROOT
TORSDOF 0
ENDMDL
