MODEL 1
REMARK minimizedAffinity -4.38333273
REMARK minimizedRMSD -1
REMARK  0 active torsions:
REMARK  status: ('A' for Active; 'I' for Inactive)
ROOT
ATOM      1  C1  BNZ d   1       1.490  -0.619   0.115  0.00  0.00     0.000 A 
ATOM      2  C2  BNZ d   1       0.394  -0.412  -0.680  0.00  0.00     0.000 A 
ATOM      3  C3  BNZ d   1      -0.841  -0.209  -0.130  0.00  0.00     0.000 A 
ATOM      4  C4  BNZ d   1      -0.986  -0.253   1.210  0.00  0.00     0.000 A 
ATOM      5  C5  BNZ d   1       0.108  -0.470   2.025  0.00  0.00     0.000 A 
ATOM      6  C6  BNZ d   1       1.356  -0.635   1.469  0.00  0.00     0.000 A 
ENDROOT
TORSDOF 0
ENDMDL
