MODEL 1
REMARK minimizedAffinity 8.57764244
REMARK minimizedRMSD -1
REMARK  2 active torsions:
REMARK  status: ('A' for Active; 'I' for Inactive)
REMARK    1  A    between atoms: C2'_3  and  C1'_4 
REMARK    2  A    between atoms: C1'_4  and  C1_5 
ROOT
ATOM      1  C1  I4B d   1      -4.806  -1.688  -4.772  0.00  0.00    -0.075 A 
ATOM      2  C2  I4B d   1      -5.969  -1.152  -4.276  0.00  0.00     0.003 A 
ATOM      3  C3  I4B d   1      -5.922  -0.112  -3.316  0.00  0.00     0.002 A 
ATOM      4  C4  I4B d   1      -4.700   0.323  -2.845  0.00  0.00    -0.004 A 
ATOM      5  C5  I4B d   1      -3.522  -0.206  -3.365  0.00  0.00     0.002 A 
ATOM      6  C6  I4B d   1      -3.575  -1.209  -4.344  0.00  0.00     0.003 A 
ENDROOT
BRANCH   1   7
ATOM      7  C1' I4B d   1      -4.893  -2.807  -5.760  0.00  0.00     0.060 C 
BRANCH   7   8
ATOM      8  C2' I4B d   1      -5.999  -3.740  -5.313  0.00  0.00    -0.013 C 
ATOM      9  C4' I4B d   1      -5.875  -5.089  -5.973  0.00  0.00     0.013 C 
ATOM     10  C3' I4B d   1      -5.930  -3.859  -3.820  0.00  0.00     0.013 C 
ENDBRANCH   7   8
ENDBRANCH   1   7
TORSDOF 2
ENDMDL
