MODEL 1
REMARK minimizedAffinity 3.17948008
REMARK minimizedRMSD -1
REMARK  2 active torsions:
REMARK  status: ('A' for Active; 'I' for Inactive)
REMARK    1  A    between atoms: C2'_3  and  C1'_4 
REMARK    2  A    between atoms: C1'_4  and  C1_5 
ROOT
ATOM      1  C1  I4B d   1       3.657   1.575   0.090  0.00  0.00    -0.075 A 
ATOM      2  C2  I4B d   1       3.653   0.213   0.261  0.00  0.00     0.003 A 
ATOM      3  C3  I4B d   1       4.162  -0.357   1.453  0.00  0.00     0.002 A 
ATOM      4  C4  I4B d   1       4.709   0.463   2.419  0.00  0.00    -0.004 A 
ATOM      5  C5  I4B d   1       4.691   1.845   2.254  0.00  0.00     0.002 A 
ATOM      6  C6  I4B d   1       4.151   2.406   1.087  0.00  0.00     0.003 A 
ENDROOT
BRANCH   1   7
ATOM      7  C1' I4B d   1       3.142   2.141  -1.195  0.00  0.00     0.060 C 
BRANCH   7   8
ATOM      8  C2' I4B d   1       3.559   1.210  -2.316  0.00  0.00    -0.013 C 
ATOM      9  C4' I4B d   1       2.438   1.007  -3.301  0.00  0.00     0.013 C 
ATOM     10  C3' I4B d   1       4.766   1.800  -2.982  0.00  0.00     0.013 C 
ENDBRANCH   7   8
ENDBRANCH   1   7
TORSDOF 2
ENDMDL
