MODEL 1
REMARK minimizedAffinity 8.14391994
REMARK minimizedRMSD -1
REMARK  2 active torsions:
REMARK  status: ('A' for Active; 'I' for Inactive)
REMARK    1  A    between atoms: C2'_3  and  C1'_4 
REMARK    2  A    between atoms: C1'_4  and  C1_5 
ROOT
ATOM      1  C1  I4B d   1       0.348  -2.018   0.926  0.00  0.00    -0.075 A 
ATOM      2  C2  I4B d   1      -0.620  -2.809   0.360  0.00  0.00     0.003 A 
ATOM      3  C3  I4B d   1      -1.861  -2.248  -0.028  0.00  0.00     0.002 A 
ATOM      4  C4  I4B d   1      -2.109  -0.912   0.213  0.00  0.00    -0.004 A 
ATOM      5  C5  I4B d   1      -1.117  -0.107   0.767  0.00  0.00     0.002 A 
ATOM      6  C6  I4B d   1       0.124  -0.661   1.114  0.00  0.00     0.003 A 
ENDROOT
BRANCH   1   7
ATOM      7  C1' I4B d   1       1.635  -2.650   1.354  0.00  0.00     0.060 C 
BRANCH   7   8
ATOM      8  C2' I4B d   1       2.705  -2.250   0.359  0.00  0.00    -0.013 C 
ATOM      9  C4' I4B d   1       3.658  -1.249   0.956  0.00  0.00     0.013 C 
ATOM     10  C3' I4B d   1       3.425  -3.494  -0.071  0.00  0.00     0.013 C 
ENDBRANCH   7   8
ENDBRANCH   1   7
TORSDOF 2
ENDMDL
