MODEL 1
REMARK minimizedAffinity 14.4301796
REMARK minimizedRMSD -1
REMARK  2 active torsions:
REMARK  status: ('A' for Active; 'I' for Inactive)
REMARK    1  A    between atoms: C2'_3  and  C1'_4 
REMARK    2  A    between atoms: C1'_4  and  C1_5 
ROOT
ATOM      1  C1  I4B d   1      -0.595  -1.463   0.865  0.00  0.00    -0.075 A 
ATOM      2  C2  I4B d   1      -0.811  -0.240   1.448  0.00  0.00     0.003 A 
ATOM      3  C3  I4B d   1      -1.971   0.507   1.129  0.00  0.00     0.002 A 
ATOM      4  C4  I4B d   1      -2.856   0.019   0.189  0.00  0.00    -0.004 A 
ATOM      5  C5  I4B d   1      -2.646  -1.231  -0.385  0.00  0.00     0.002 A 
ATOM      6  C6  I4B d   1      -1.515  -1.983  -0.036  0.00  0.00     0.003 A 
ENDROOT
BRANCH   1   7
ATOM      7  C1' I4B d   1       0.657  -2.211   1.200  0.00  0.00     0.060 C 
BRANCH   7   8
ATOM      8  C2' I4B d   1       1.268  -1.570   2.429  0.00  0.00    -0.013 C 
ATOM      9  C4' I4B d   1       1.400  -2.563   3.554  0.00  0.00     0.013 C 
ATOM     10  C3' I4B d   1       2.604  -1.008   2.043  0.00  0.00     0.013 C 
ENDBRANCH   7   8
ENDBRANCH   1   7
TORSDOF 2
ENDMDL
