MODEL 1
REMARK minimizedAffinity 23.49543
REMARK minimizedRMSD -1
REMARK  2 active torsions:
REMARK  status: ('A' for Active; 'I' for Inactive)
REMARK    1  A    between atoms: C2'_3  and  C1'_4 
REMARK    2  A    between atoms: C1'_4  and  C1_5 
ROOT
ATOM      1  C1  I4B d   1       1.947  -1.585   1.910  0.00  0.00    -0.075 A 
ATOM      2  C2  I4B d   1       2.678  -2.357   2.779  0.00  0.00     0.003 A 
ATOM      3  C3  I4B d   1       2.111  -2.781   4.005  0.00  0.00     0.002 A 
ATOM      4  C4  I4B d   1       0.837  -2.373   4.342  0.00  0.00    -0.004 A 
ATOM      5  C5  I4B d   1       0.089  -1.610   3.449  0.00  0.00     0.002 A 
ATOM      6  C6  I4B d   1       0.643  -1.224   2.220  0.00  0.00     0.003 A 
ENDROOT
BRANCH   1   7
ATOM      7  C1' I4B d   1       2.589  -1.127   0.639  0.00  0.00     0.060 C 
BRANCH   7   8
ATOM      8  C2' I4B d   1       4.006  -0.698   0.959  0.00  0.00    -0.013 C 
ATOM      9  C4' I4B d   1       5.012  -1.559   0.241  0.00  0.00     0.013 C 
ATOM     10  C3' I4B d   1       4.153   0.743   0.573  0.00  0.00     0.013 C 
ENDBRANCH   7   8
ENDBRANCH   1   7
TORSDOF 2
ENDMDL
