MODEL 1
REMARK minimizedAffinity 13.13836
REMARK minimizedRMSD -1
REMARK  2 active torsions:
REMARK  status: ('A' for Active; 'I' for Inactive)
REMARK    1  A    between atoms: C2'_3  and  C1'_4 
REMARK    2  A    between atoms: C1'_4  and  C1_5 
ROOT
ATOM      1  C1  I4B d   1       3.001  -0.156   0.319  0.00  0.00    -0.075 A 
ATOM      2  C2  I4B d   1       1.849  -0.901   0.281  0.00  0.00     0.003 A 
ATOM      3  C3  I4B d   1       1.915  -2.314   0.214  0.00  0.00     0.002 A 
ATOM      4  C4  I4B d   1       3.146  -2.933   0.136  0.00  0.00    -0.004 A 
ATOM      5  C5  I4B d   1       4.313  -2.178   0.197  0.00  0.00     0.002 A 
ATOM      6  C6  I4B d   1       4.241  -0.781   0.302  0.00  0.00     0.003 A 
ENDROOT
BRANCH   1   7
ATOM      7  C1' I4B d   1       2.894   1.336   0.356  0.00  0.00     0.060 C 
BRANCH   7   8
ATOM      8  C2' I4B d   1       4.292   1.900   0.508  0.00  0.00    -0.013 C 
ATOM      9  C4' I4B d   1       4.726   2.625  -0.739  0.00  0.00     0.013 C 
ATOM     10  C3' I4B d   1       4.295   2.816   1.696  0.00  0.00     0.013 C 
ENDBRANCH   7   8
ENDBRANCH   1   7
TORSDOF 2
ENDMDL
