MODEL 1
REMARK minimizedAffinity 12.271884
REMARK minimizedRMSD -1
REMARK  2 active torsions:
REMARK  status: ('A' for Active; 'I' for Inactive)
REMARK    1  A    between atoms: C2'_3  and  C1'_4 
REMARK    2  A    between atoms: C1'_4  and  C1_5 
ROOT
ATOM      1  C1  I4B d   1       4.504   2.244  -2.640  0.00  0.00    -0.075 A 
ATOM      2  C2  I4B d   1       3.769   2.759  -3.679  0.00  0.00     0.003 A 
ATOM      3  C3  I4B d   1       2.903   1.922  -4.423  0.00  0.00     0.002 A 
ATOM      4  C4  I4B d   1       2.841   0.575  -4.130  0.00  0.00    -0.004 A 
ATOM      5  C5  I4B d   1       3.570   0.059  -3.062  0.00  0.00     0.002 A 
ATOM      6  C6  I4B d   1       4.397   0.901  -2.304  0.00  0.00     0.003 A 
ENDROOT
BRANCH   1   7
ATOM      7  C1' I4B d   1       5.434   3.150  -1.897  0.00  0.00     0.060 C 
BRANCH   7   8
ATOM      8  C2' I4B d   1       4.602   4.224  -1.227  0.00  0.00    -0.013 C 
ATOM      9  C4' I4B d   1       4.147   3.789   0.141  0.00  0.00     0.013 C 
ATOM     10  C3' I4B d   1       5.432   5.471  -1.150  0.00  0.00     0.013 C 
ENDBRANCH   7   8
ENDBRANCH   1   7
TORSDOF 2
ENDMDL
