MODEL 1
REMARK minimizedAffinity 2.09194589
REMARK minimizedRMSD -1
REMARK  2 active torsions:
REMARK  status: ('A' for Active; 'I' for Inactive)
REMARK    1  A    between atoms: C2'_3  and  C1'_4 
REMARK    2  A    between atoms: C1'_4  and  C1_5 
ROOT
ATOM      1  C1  I4B d   1       4.498   2.419   0.891  0.00  0.00    -0.075 A 
ATOM      2  C2  I4B d   1       5.131   3.486   0.305  0.00  0.00     0.003 A 
ATOM      3  C3  I4B d   1       5.306   4.694   1.023  0.00  0.00     0.002 A 
ATOM      4  C4  I4B d   1       4.791   4.807   2.298  0.00  0.00    -0.004 A 
ATOM      5  C5  I4B d   1       4.170   3.716   2.899  0.00  0.00     0.002 A 
ATOM      6  C6  I4B d   1       4.033   2.510   2.197  0.00  0.00     0.003 A 
ENDROOT
BRANCH   1   7
ATOM      7  C1' I4B d   1       4.302   1.169   0.093  0.00  0.00     0.060 C 
BRANCH   7   8
ATOM      8  C2' I4B d   1       3.562   0.172   0.961  0.00  0.00    -0.013 C 
ATOM      9  C4' I4B d   1       2.227  -0.186   0.364  0.00  0.00     0.013 C 
ATOM     10  C3' I4B d   1       4.429  -1.042   1.113  0.00  0.00     0.013 C 
ENDBRANCH   7   8
ENDBRANCH   1   7
TORSDOF 2
ENDMDL
