MODEL 1
REMARK minimizedAffinity 12.4637089
REMARK minimizedRMSD -1
REMARK  2 active torsions:
REMARK  status: ('A' for Active; 'I' for Inactive)
REMARK    1  A    between atoms: C2'_3  and  C1'_4 
REMARK    2  A    between atoms: C1'_4  and  C1_5 
ROOT
ATOM      1  C1  I4B d   1      -0.309  -0.968   1.043  0.00  0.00    -0.075 A 
ATOM      2  C2  I4B d   1      -0.545   0.295   1.525  0.00  0.00     0.003 A 
ATOM      3  C3  I4B d   1      -1.844   0.855   1.451  0.00  0.00     0.002 A 
ATOM      4  C4  I4B d   1      -2.858   0.141   0.846  0.00  0.00    -0.004 A 
ATOM      5  C5  I4B d   1      -2.622  -1.149   0.378  0.00  0.00     0.002 A 
ATOM      6  C6  I4B d   1      -1.343  -1.712   0.488  0.00  0.00     0.003 A 
ENDROOT
BRANCH   1   7
ATOM      7  C1' I4B d   1       1.081  -1.516   1.107  0.00  0.00     0.060 C 
BRANCH   7   8
ATOM      8  C2' I4B d   1       2.024  -0.462   0.562  0.00  0.00    -0.013 C 
ATOM      9  C4' I4B d   1       2.884   0.117   1.654  0.00  0.00     0.013 C 
ATOM     10  C3' I4B d   1       2.861  -1.098  -0.507  0.00  0.00     0.013 C 
ENDBRANCH   7   8
ENDBRANCH   1   7
TORSDOF 2
ENDMDL
