MODEL 1
REMARK minimizedAffinity 2.21786571
REMARK minimizedRMSD -1
REMARK  2 active torsions:
REMARK  status: ('A' for Active; 'I' for Inactive)
REMARK    1  A    between atoms: C2'_3  and  C1'_4 
REMARK    2  A    between atoms: C1'_4  and  C1_5 
ROOT
ATOM      1  C1  I4B d   1      -2.515   0.457   2.511  0.00  0.00    -0.075 A 
ATOM      2  C2  I4B d   1      -1.351  -0.014   3.066  0.00  0.00     0.003 A 
ATOM      3  C3  I4B d   1      -0.390  -0.669   2.258  0.00  0.00     0.002 A 
ATOM      4  C4  I4B d   1      -0.654  -0.875   0.920  0.00  0.00    -0.004 A 
ATOM      5  C5  I4B d   1      -1.824  -0.377   0.354  0.00  0.00     0.002 A 
ATOM      6  C6  I4B d   1      -2.756   0.304   1.152  0.00  0.00     0.003 A 
ENDROOT
BRANCH   1   7
ATOM      7  C1' I4B d   1      -3.523   1.114   3.399  0.00  0.00     0.060 C 
BRANCH   7   8
ATOM      8  C2' I4B d   1      -4.654   0.132   3.630  0.00  0.00    -0.013 C 
ATOM      9  C4' I4B d   1      -4.991   0.023   5.093  0.00  0.00     0.013 C 
ATOM     10  C3' I4B d   1      -5.838   0.595   2.834  0.00  0.00     0.013 C 
ENDBRANCH   7   8
ENDBRANCH   1   7
TORSDOF 2
ENDMDL
