MODEL 1
REMARK minimizedAffinity -0.667083621
REMARK minimizedRMSD -1
REMARK  2 active torsions:
REMARK  status: ('A' for Active; 'I' for Inactive)
REMARK    1  A    between atoms: C1_2  and  C2_3 
REMARK    2  A    between atoms: C2_3  and  C3_4 
ROOT
ATOM      1  C3  UNL d   1       5.213  -3.612  -4.966  0.00  0.00    -0.075 A 
ATOM      2  C4  UNL d   1       4.213  -3.784  -5.934  0.00  0.00     0.002 A 
ATOM      3  C5  UNL d   1       3.471  -4.964  -5.985  0.00  0.00     0.002 A 
ATOM      4  C6  UNL d   1       3.724  -5.989  -5.077  0.00  0.00    -0.004 A 
ATOM      5  C7  UNL d   1       4.726  -5.837  -4.121  0.00  0.00     0.002 A 
ATOM      6  C8  UNL d   1       5.468  -4.655  -4.065  0.00  0.00     0.002 A 
ENDROOT
BRANCH   1   7
ATOM      7  C2  UNL d   1       6.000  -2.326  -4.887  0.00  0.00     0.056 C 
BRANCH   7   8
ATOM      8  C1  UNL d   1       5.984  -1.669  -3.502  0.00  0.00     0.007 C 
ATOM      9  C   UNL d   1       4.697  -1.927  -2.730  0.00  0.00     0.009 C 
ENDBRANCH   7   8
ENDBRANCH   1   7
TORSDOF 2
ENDMDL
