MODEL 1
REMARK minimizedAffinity -3.47775435
REMARK minimizedRMSD -1
REMARK  2 active torsions:
REMARK  status: ('A' for Active; 'I' for Inactive)
REMARK    1  A    between atoms: C1_2  and  C2_3 
REMARK    2  A    between atoms: C2_3  and  C3_4 
ROOT
ATOM      1  C3  UNL d   1       4.840  -3.335  -5.935  0.00  0.00    -0.075 A 
ATOM      2  C4  UNL d   1       5.989  -2.532  -5.972  0.00  0.00     0.002 A 
ATOM      3  C5  UNL d   1       5.880  -1.141  -5.997  0.00  0.00     0.002 A 
ATOM      4  C6  UNL d   1       4.624  -0.537  -5.997  0.00  0.00    -0.004 A 
ATOM      5  C7  UNL d   1       3.476  -1.326  -5.977  0.00  0.00     0.002 A 
ATOM      6  C8  UNL d   1       3.582  -2.718  -5.947  0.00  0.00     0.002 A 
ENDROOT
BRANCH   1   7
ATOM      7  C2  UNL d   1       4.951  -4.840  -5.878  0.00  0.00     0.056 C 
BRANCH   7   8
ATOM      8  C1  UNL d   1       4.716  -5.430  -4.484  0.00  0.00     0.007 C 
ATOM      9  C   UNL d   1       5.999  -5.875  -3.795  0.00  0.00     0.009 C 
ENDBRANCH   7   8
ENDBRANCH   1   7
TORSDOF 2
ENDMDL
