MODEL 1
REMARK minimizedAffinity -3.52093339
REMARK minimizedRMSD -1
REMARK  2 active torsions:
REMARK  status: ('A' for Active; 'I' for Inactive)
REMARK    1  A    between atoms: C1_2  and  C2_3 
REMARK    2  A    between atoms: C2_3  and  C3_4 
ROOT
ATOM      1  C3  UNL d   1       4.705  -3.362  -4.779  0.00  0.00    -0.075 A 
ATOM      2  C4  UNL d   1       4.338  -4.326  -3.829  0.00  0.00     0.002 A 
ATOM      3  C5  UNL d   1       4.808  -5.635  -3.931  0.00  0.00     0.002 A 
ATOM      4  C6  UNL d   1       5.641  -5.999  -4.987  0.00  0.00    -0.004 A 
ATOM      5  C7  UNL d   1       5.999  -5.053  -5.945  0.00  0.00     0.002 A 
ATOM      6  C8  UNL d   1       5.533  -3.741  -5.843  0.00  0.00     0.002 A 
ENDROOT
BRANCH   1   7
ATOM      7  C2  UNL d   1       4.222  -1.936  -4.658  0.00  0.00     0.056 C 
BRANCH   7   8
ATOM      8  C1  UNL d   1       4.079  -1.210  -6.000  0.00  0.00     0.007 C 
ATOM      9  C   UNL d   1       4.638   0.207  -5.978  0.00  0.00     0.009 C 
ENDBRANCH   7   8
ENDBRANCH   1   7
TORSDOF 2
ENDMDL
