MODEL 1
REMARK minimizedAffinity 5.48691893
REMARK minimizedRMSD -1
REMARK  2 active torsions:
REMARK  status: ('A' for Active; 'I' for Inactive)
REMARK    1  A    between atoms: C1_2  and  C2_3 
REMARK    2  A    between atoms: C2_3  and  C3_4 
ROOT
ATOM      1  C3  UNL d   1      -3.768   2.891  -2.783  0.00  0.00    -0.075 A 
ATOM      2  C4  UNL d   1      -3.053   4.071  -2.533  0.00  0.00     0.002 A 
ATOM      3  C5  UNL d   1      -3.726   5.272  -2.306  0.00  0.00     0.002 A 
ATOM      4  C6  UNL d   1      -5.119   5.310  -2.337  0.00  0.00    -0.004 A 
ATOM      5  C7  UNL d   1      -5.838   4.147  -2.601  0.00  0.00     0.002 A 
ATOM      6  C8  UNL d   1      -5.167   2.943  -2.823  0.00  0.00     0.002 A 
ENDROOT
BRANCH   1   7
ATOM      7  C2  UNL d   1      -3.046   1.582  -3.000  0.00  0.00     0.056 C 
BRANCH   7   8
ATOM      8  C1  UNL d   1      -3.907   0.495  -3.651  0.00  0.00     0.007 C 
ATOM      9  C   UNL d   1      -3.459  -0.917  -3.299  0.00  0.00     0.009 C 
ENDBRANCH   7   8
ENDBRANCH   1   7
TORSDOF 2
ENDMDL
