MODEL 1
REMARK minimizedAffinity -3.21479034
REMARK minimizedRMSD -1
REMARK  2 active torsions:
REMARK  status: ('A' for Active; 'I' for Inactive)
REMARK    1  A    between atoms: C1_2  and  C2_3 
REMARK    2  A    between atoms: C2_3  and  C3_4 
ROOT
ATOM      1  C3  UNL d   1       5.217  -4.005  -5.071  0.00  0.00    -0.075 A 
ATOM      2  C4  UNL d   1       3.817  -4.026  -4.999  0.00  0.00     0.002 A 
ATOM      3  C5  UNL d   1       3.160  -5.015  -4.267  0.00  0.00     0.002 A 
ATOM      4  C6  UNL d   1       3.892  -6.000  -3.608  0.00  0.00    -0.004 A 
ATOM      5  C7  UNL d   1       5.283  -5.999  -3.686  0.00  0.00     0.002 A 
ATOM      6  C8  UNL d   1       5.943  -5.007  -4.414  0.00  0.00     0.002 A 
ENDROOT
BRANCH   1   7
ATOM      7  C2  UNL d   1       5.935  -2.920  -5.837  0.00  0.00     0.056 C 
BRANCH   7   8
ATOM      8  C1  UNL d   1       5.537  -1.498  -5.426  0.00  0.00     0.007 C 
ATOM      9  C   UNL d   1       5.958  -1.143  -4.007  0.00  0.00     0.009 C 
ENDBRANCH   7   8
ENDBRANCH   1   7
TORSDOF 2
ENDMDL
