MODEL 1
REMARK minimizedAffinity 0.184408322
REMARK minimizedRMSD -1
REMARK  2 active torsions:
REMARK  status: ('A' for Active; 'I' for Inactive)
REMARK    1  A    between atoms: C1_2  and  C2_3 
REMARK    2  A    between atoms: C2_3  and  C3_4 
ROOT
ATOM      1  C3  UNL d   1       5.263  -3.998  -4.518  0.00  0.00    -0.075 A 
ATOM      2  C4  UNL d   1       5.959  -4.931  -5.299  0.00  0.00     0.002 A 
ATOM      3  C5  UNL d   1       5.271  -5.923  -5.999  0.00  0.00     0.002 A 
ATOM      4  C6  UNL d   1       3.882  -6.000  -5.919  0.00  0.00    -0.004 A 
ATOM      5  C7  UNL d   1       3.182  -5.088  -5.132  0.00  0.00     0.002 A 
ATOM      6  C8  UNL d   1       3.868  -4.093  -4.434  0.00  0.00     0.002 A 
ENDROOT
BRANCH   1   7
ATOM      7  C2  UNL d   1       6.000  -2.904  -3.781  0.00  0.00     0.056 C 
BRANCH   7   8
ATOM      8  C1  UNL d   1       5.237  -1.578  -3.709  0.00  0.00     0.007 C 
ATOM      9  C   UNL d   1       4.136  -1.460  -4.755  0.00  0.00     0.009 C 
ENDBRANCH   7   8
ENDBRANCH   1   7
TORSDOF 2
ENDMDL
