MODEL 1
REMARK minimizedAffinity -2.38654852
REMARK minimizedRMSD -1
REMARK  2 active torsions:
REMARK  status: ('A' for Active; 'I' for Inactive)
REMARK    1  A    between atoms: C1_2  and  C2_3 
REMARK    2  A    between atoms: C2_3  and  C3_4 
ROOT
ATOM      1  C3  UNL d   1       4.699  -3.245  -5.339  0.00  0.00    -0.075 A 
ATOM      2  C4  UNL d   1       5.621  -3.274  -4.283  0.00  0.00     0.002 A 
ATOM      3  C5  UNL d   1       5.997  -4.487  -3.704  0.00  0.00     0.002 A 
ATOM      4  C6  UNL d   1       5.450  -5.682  -4.166  0.00  0.00    -0.004 A 
ATOM      5  C7  UNL d   1       4.520  -5.663  -5.203  0.00  0.00     0.002 A 
ATOM      6  C8  UNL d   1       4.145  -4.452  -5.787  0.00  0.00     0.002 A 
ENDROOT
BRANCH   1   7
ATOM      7  C2  UNL d   1       4.310  -1.939  -5.989  0.00  0.00     0.056 C 
BRANCH   7   8
ATOM      8  C1  UNL d   1       5.414  -0.877  -5.964  0.00  0.00     0.007 C 
ATOM      9  C   UNL d   1       4.877   0.548  -5.999  0.00  0.00     0.009 C 
ENDBRANCH   7   8
ENDBRANCH   1   7
TORSDOF 2
ENDMDL
