MODEL 1
REMARK minimizedAffinity -3.2244482
REMARK minimizedRMSD -1
REMARK  2 active torsions:
REMARK  status: ('A' for Active; 'I' for Inactive)
REMARK    1  A    between atoms: C1_2  and  C2_3 
REMARK    2  A    between atoms: C2_3  and  C3_4 
ROOT
ATOM      1  C3  UNL d   1       5.281  -4.167  -4.866  0.00  0.00    -0.075 A 
ATOM      2  C4  UNL d   1       5.654  -3.008  -4.169  0.00  0.00     0.002 A 
ATOM      3  C5  UNL d   1       4.971  -1.809  -4.375  0.00  0.00     0.002 A 
ATOM      4  C6  UNL d   1       3.918  -1.750  -5.284  0.00  0.00    -0.004 A 
ATOM      5  C7  UNL d   1       3.550  -2.891  -5.993  0.00  0.00     0.002 A 
ATOM      6  C8  UNL d   1       4.228  -4.094  -5.787  0.00  0.00     0.002 A 
ENDROOT
BRANCH   1   7
ATOM      7  C2  UNL d   1       5.996  -5.476  -4.626  0.00  0.00     0.056 C 
BRANCH   7   8
ATOM      8  C1  UNL d   1       5.910  -5.978  -3.181  0.00  0.00     0.007 C 
ATOM      9  C   UNL d   1       4.487  -6.000  -2.637  0.00  0.00     0.009 C 
ENDBRANCH   7   8
ENDBRANCH   1   7
TORSDOF 2
ENDMDL
