MODEL 1
REMARK minimizedAffinity -1.83189237
REMARK minimizedRMSD -1
REMARK  0 active torsions:
REMARK  status: ('A' for Active; 'I' for Inactive)
ROOT
ATOM      1  C1  BNZ d   1      -3.638   4.500  -5.136  0.00  0.00     0.000 A 
ATOM      2  C2  BNZ d   1      -3.654   4.444  -3.768  0.00  0.00     0.000 A 
ATOM      3  C3  BNZ d   1      -4.837   4.392  -3.084  0.00  0.00     0.000 A 
ATOM      4  C4  BNZ d   1      -6.000   4.437  -3.765  0.00  0.00     0.000 A 
ATOM      5  C5  BNZ d   1      -6.000   4.503  -5.144  0.00  0.00     0.000 A 
ATOM      6  C6  BNZ d   1      -4.807   4.515  -5.832  0.00  0.00     0.000 A 
ENDROOT
TORSDOF 0
ENDMDL
