MODEL 1
REMARK minimizedAffinity 2.40401459
REMARK minimizedRMSD -1
REMARK  0 active torsions:
REMARK  status: ('A' for Active; 'I' for Inactive)
ROOT
ATOM      1  C1  BNZ d   1      -5.758   4.815  -3.833  0.00  0.00     0.000 A 
ATOM      2  C2  BNZ d   1      -4.833   4.875  -2.825  0.00  0.00     0.000 A 
ATOM      3  C3  BNZ d   1      -3.723   4.078  -2.845  0.00  0.00     0.000 A 
ATOM      4  C4  BNZ d   1      -3.559   3.196  -3.852  0.00  0.00     0.000 A 
ATOM      5  C5  BNZ d   1      -4.487   3.116  -4.871  0.00  0.00     0.000 A 
ATOM      6  C6  BNZ d   1      -5.584   3.947  -4.867  0.00  0.00     0.000 A 
ENDROOT
TORSDOF 0
ENDMDL
