MODEL 1
REMARK minimizedAffinity 1.40263927
REMARK minimizedRMSD -1
REMARK  0 active torsions:
REMARK  status: ('A' for Active; 'I' for Inactive)
ROOT
ATOM      1  C1  BNZ d   1      -1.074   0.511  -2.984  0.00  0.00     0.000 A 
ATOM      2  C2  BNZ d   1      -2.250   1.075  -3.405  0.00  0.00     0.000 A 
ATOM      3  C3  BNZ d   1      -3.348   1.092  -2.591  0.00  0.00     0.000 A 
ATOM      4  C4  BNZ d   1      -3.282   0.512  -1.376  0.00  0.00     0.000 A 
ATOM      5  C5  BNZ d   1      -2.107  -0.068  -0.941  0.00  0.00     0.000 A 
ATOM      6  C6  BNZ d   1      -0.992  -0.050  -1.747  0.00  0.00     0.000 A 
ENDROOT
TORSDOF 0
ENDMDL
