MODEL 1
REMARK minimizedAffinity 3.46203899
REMARK minimizedRMSD -1
REMARK  0 active torsions:
REMARK  status: ('A' for Active; 'I' for Inactive)
ROOT
ATOM      1  C1  BNZ d   1       1.999  -5.621  -1.878  0.00  0.00     0.000 A 
ATOM      2  C2  BNZ d   1       2.195  -5.270  -3.187  0.00  0.00     0.000 A 
ATOM      3  C3  BNZ d   1       3.443  -5.305  -3.742  0.00  0.00     0.000 A 
ATOM      4  C4  BNZ d   1       4.499  -5.651  -2.978  0.00  0.00     0.000 A 
ATOM      5  C5  BNZ d   1       4.320  -5.998  -1.654  0.00  0.00     0.000 A 
ATOM      6  C6  BNZ d   1       3.056  -6.000  -1.109  0.00  0.00     0.000 A 
ENDROOT
TORSDOF 0
ENDMDL
