MODEL 1
REMARK minimizedAffinity 6.14454365
REMARK minimizedRMSD -1
REMARK  0 active torsions:
REMARK  status: ('A' for Active; 'I' for Inactive)
ROOT
ATOM      1  C1  BNZ d   1      -0.833  -0.220  -2.793  0.00  0.00     0.000 A 
ATOM      2  C2  BNZ d   1      -2.101  -0.738  -2.783  0.00  0.00     0.000 A 
ATOM      3  C3  BNZ d   1      -3.140  -0.034  -2.242  0.00  0.00     0.000 A 
ATOM      4  C4  BNZ d   1      -2.904   1.167  -1.676  0.00  0.00     0.000 A 
ATOM      5  C5  BNZ d   1      -1.630   1.698  -1.670  0.00  0.00     0.000 A 
ATOM      6  C6  BNZ d   1      -0.593   1.004  -2.250  0.00  0.00     0.000 A 
ENDROOT
TORSDOF 0
ENDMDL
