MODEL 1
REMARK minimizedAffinity -2.02951336
REMARK minimizedRMSD -1
REMARK  0 active torsions:
REMARK  status: ('A' for Active; 'I' for Inactive)
ROOT
ATOM      1  C1  BNZ d   1      -2.435  -0.141  -3.005  0.00  0.00     0.000 A 
ATOM      2  C2  BNZ d   1      -1.128  -0.050  -2.606  0.00  0.00     0.000 A 
ATOM      3  C3  BNZ d   1      -0.697   1.009  -1.856  0.00  0.00     0.000 A 
ATOM      4  C4  BNZ d   1      -1.562   1.994  -1.541  0.00  0.00     0.000 A 
ATOM      5  C5  BNZ d   1      -2.881   1.921  -1.944  0.00  0.00     0.000 A 
ATOM      6  C6  BNZ d   1      -3.320   0.835  -2.665  0.00  0.00     0.000 A 
ENDROOT
TORSDOF 0
ENDMDL
