MODEL 1
REMARK minimizedAffinity -0.322493583
REMARK minimizedRMSD -1
REMARK  0 active torsions:
REMARK  status: ('A' for Active; 'I' for Inactive)
ROOT
ATOM      1  C1  BNZ d   1      -5.626  -2.529   3.975  0.00  0.00     0.000 A 
ATOM      2  C2  BNZ d   1      -6.000  -2.989   2.740  0.00  0.00     0.000 A 
ATOM      3  C3  BNZ d   1      -6.000  -2.158   1.655  0.00  0.00     0.000 A 
ATOM      4  C4  BNZ d   1      -5.666  -0.861   1.812  0.00  0.00     0.000 A 
ATOM      5  C5  BNZ d   1      -5.296  -0.380   3.053  0.00  0.00     0.000 A 
ATOM      6  C6  BNZ d   1      -5.259  -1.229   4.136  0.00  0.00     0.000 A 
ENDROOT
TORSDOF 0
ENDMDL
