MODEL 1
REMARK minimizedAffinity -1.20880401
REMARK minimizedRMSD -1
REMARK  0 active torsions:
REMARK  status: ('A' for Active; 'I' for Inactive)
ROOT
ATOM      1  C1  BNZ d   1      -5.999  -2.993   4.285  0.00  0.00     0.000 A 
ATOM      2  C2  BNZ d   1      -5.999  -2.619   5.602  0.00  0.00     0.000 A 
ATOM      3  C3  BNZ d   1      -5.951  -1.299   5.956  0.00  0.00     0.000 A 
ATOM      4  C4  BNZ d   1      -5.863  -0.358   4.994  0.00  0.00     0.000 A 
ATOM      5  C5  BNZ d   1      -5.853  -0.720   3.661  0.00  0.00     0.000 A 
ATOM      6  C6  BNZ d   1      -5.941  -2.047   3.308  0.00  0.00     0.000 A 
ENDROOT
TORSDOF 0
ENDMDL
