MODEL 1
REMARK minimizedAffinity -3.21121216
REMARK minimizedRMSD -1
REMARK  0 active torsions:
REMARK  status: ('A' for Active; 'I' for Inactive)
ROOT
ATOM      1  C1  BNZ d   1      -0.397   0.801  -0.242  0.00  0.00     0.000 A 
ATOM      2  C2  BNZ d   1      -0.440   1.828  -1.146  0.00  0.00     0.000 A 
ATOM      3  C3  BNZ d   1      -0.283   3.124  -0.741  0.00  0.00     0.000 A 
ATOM      4  C4  BNZ d   1      -0.124   3.394   0.571  0.00  0.00     0.000 A 
ATOM      5  C5  BNZ d   1      -0.088   2.370   1.496  0.00  0.00     0.000 A 
ATOM      6  C6  BNZ d   1      -0.208   1.064   1.079  0.00  0.00     0.000 A 
ENDROOT
TORSDOF 0
ENDMDL
