MODEL 1
REMARK minimizedAffinity -3.78266931
REMARK minimizedRMSD -1
REMARK  0 active torsions:
REMARK  status: ('A' for Active; 'I' for Inactive)
ROOT
ATOM      1  C1  BNZ d   1      -0.085   1.431   0.329  0.00  0.00     0.000 A 
ATOM      2  C2  BNZ d   1       0.152   1.911   1.589  0.00  0.00     0.000 A 
ATOM      3  C3  BNZ d   1       0.457   3.228   1.790  0.00  0.00     0.000 A 
ATOM      4  C4  BNZ d   1       0.565   4.053   0.728  0.00  0.00     0.000 A 
ATOM      5  C5  BNZ d   1       0.338   3.582  -0.549  0.00  0.00     0.000 A 
ATOM      6  C6  BNZ d   1      -0.007   2.264  -0.744  0.00  0.00     0.000 A 
ENDROOT
TORSDOF 0
ENDMDL
