MODEL 1
REMARK minimizedAffinity -5.2097373
REMARK minimizedRMSD -1
REMARK  1 active torsions:
REMARK  status: ('A' for Active; 'I' for Inactive)
REMARK    1  A    between atoms: C1_2  and  C2_3 
ROOT
ATOM      1  C2  UNL d   1       0.217   0.051  -0.541  0.00  0.00    -0.073 A 
ATOM      2  C3  UNL d   1       1.416   0.659  -0.153  0.00  0.00    -0.002 A 
ATOM      3  C4  UNL d   1       1.755   0.751   1.197  0.00  0.00     0.004 A 
ATOM      4  C5  UNL d   1       0.904   0.230   2.172  0.00  0.00    -0.004 A 
ATOM      5  C6  UNL d   1      -0.293  -0.392   1.803  0.00  0.00    -0.075 A 
ATOM      6  C7  UNL d   1      -1.220  -0.956   2.840  0.00  0.00     0.076 C 
ATOM      7  C8  UNL d   1      -0.628  -0.478   0.445  0.00  0.00     0.001 A 
ENDROOT
BRANCH   1   8
ATOM      8  C1  UNL d   1      -0.150  -0.057  -1.999  0.00  0.00     0.053 C 
ATOM      9  C   UNL d   1       0.887  -0.836  -2.792  0.00  0.00     0.018 C 
ENDBRANCH   1   8
TORSDOF 1
ENDMDL
