MODEL 1
REMARK minimizedAffinity -4.47555447
REMARK minimizedRMSD -1
REMARK  1 active torsions:
REMARK  status: ('A' for Active; 'I' for Inactive)
REMARK    1  A    between atoms: C1_2  and  C2_3 
ROOT
ATOM      1  C2  UNL d   1       0.310   0.186   1.423  0.00  0.00    -0.073 A 
ATOM      2  C3  UNL d   1      -0.208  -0.656   2.414  0.00  0.00    -0.002 A 
ATOM      3  C4  UNL d   1      -1.528  -1.102   2.341  0.00  0.00     0.004 A 
ATOM      4  C5  UNL d   1      -2.341  -0.718   1.275  0.00  0.00    -0.004 A 
ATOM      5  C6  UNL d   1      -1.839   0.113   0.269  0.00  0.00    -0.075 A 
ATOM      6  C7  UNL d   1      -2.701   0.537  -0.884  0.00  0.00     0.076 C 
ATOM      7  C8  UNL d   1      -0.513   0.559   0.350  0.00  0.00     0.001 A 
ENDROOT
BRANCH   1   8
ATOM      8  C1  UNL d   1       1.736   0.666   1.494  0.00  0.00     0.053 C 
ATOM      9  C   UNL d   1       1.998   1.821   0.541  0.00  0.00     0.018 C 
ENDBRANCH   1   8
TORSDOF 1
ENDMDL
