MODEL 1
REMARK minimizedAffinity -3.49511957
REMARK minimizedRMSD -1
REMARK  1 active torsions:
REMARK  status: ('A' for Active; 'I' for Inactive)
REMARK    1  A    between atoms: C1_2  and  C2_3 
ROOT
ATOM      1  C2  UNL d   1      -0.366   0.160  -0.571  0.00  0.00    -0.073 A 
ATOM      2  C3  UNL d   1      -1.724   0.413  -0.791  0.00  0.00    -0.002 A 
ATOM      3  C4  UNL d   1      -2.658   0.182   0.221  0.00  0.00     0.004 A 
ATOM      4  C5  UNL d   1      -2.242  -0.297   1.463  0.00  0.00    -0.004 A 
ATOM      5  C6  UNL d   1      -0.887  -0.545   1.706  0.00  0.00    -0.075 A 
ATOM      6  C7  UNL d   1      -0.425  -1.063   3.036  0.00  0.00     0.076 C 
ATOM      7  C8  UNL d   1       0.043  -0.313   0.684  0.00  0.00     0.001 A 
ENDROOT
BRANCH   1   8
ATOM      8  C1  UNL d   1       0.646   0.414  -1.658  0.00  0.00     0.053 C 
ATOM      9  C   UNL d   1       0.881  -0.818  -2.517  0.00  0.00     0.018 C 
ENDBRANCH   1   8
TORSDOF 1
ENDMDL
