MODEL 1
REMARK minimizedAffinity -3.41754389
REMARK minimizedRMSD -1
REMARK  1 active torsions:
REMARK  status: ('A' for Active; 'I' for Inactive)
REMARK    1  A    between atoms: C1_2  and  C2_3 
ROOT
ATOM      1  C2  UNL d   1      -0.106  -0.000  -0.512  0.00  0.00    -0.073 A 
ATOM      2  C3  UNL d   1      -1.411   0.367  -0.858  0.00  0.00    -0.002 A 
ATOM      3  C4  UNL d   1      -2.445   0.253   0.073  0.00  0.00     0.004 A 
ATOM      4  C5  UNL d   1      -2.184  -0.223   1.358  0.00  0.00    -0.004 A 
ATOM      5  C6  UNL d   1      -0.883  -0.584   1.725  0.00  0.00    -0.075 A 
ATOM      6  C7  UNL d   1      -0.586  -1.100   3.103  0.00  0.00     0.076 C 
ATOM      7  C8  UNL d   1       0.149  -0.469   0.785  0.00  0.00     0.001 A 
ENDROOT
BRANCH   1   8
ATOM      8  C1  UNL d   1       1.015   0.128  -1.512  0.00  0.00     0.053 C 
ATOM      9  C   UNL d   1       0.856  -0.840  -2.674  0.00  0.00     0.018 C 
ENDBRANCH   1   8
TORSDOF 1
ENDMDL
