MODEL 1
REMARK minimizedAffinity -4.06977367
REMARK minimizedRMSD -1
REMARK  1 active torsions:
REMARK  status: ('A' for Active; 'I' for Inactive)
REMARK    1  A    between atoms: C1_2  and  C2_3 
ROOT
ATOM      1  C2  UNL d   1       0.094   0.017  -0.836  0.00  0.00    -0.073 A 
ATOM      2  C3  UNL d   1      -1.111  -0.543  -0.398  0.00  0.00    -0.002 A 
ATOM      3  C4  UNL d   1      -1.289  -0.869   0.947  0.00  0.00     0.004 A 
ATOM      4  C5  UNL d   1      -0.268  -0.632   1.868  0.00  0.00    -0.004 A 
ATOM      5  C6  UNL d   1       0.939  -0.062   1.451  0.00  0.00    -0.075 A 
ATOM      6  C7  UNL d   1       2.048   0.198   2.428  0.00  0.00     0.076 C 
ATOM      7  C8  UNL d   1       1.111   0.260   0.098  0.00  0.00     0.001 A 
ENDROOT
BRANCH   1   8
ATOM      8  C1  UNL d   1       0.288   0.377  -2.287  0.00  0.00     0.053 C 
ATOM      9  C   UNL d   1       0.721  -0.820  -3.118  0.00  0.00     0.018 C 
ENDBRANCH   1   8
TORSDOF 1
ENDMDL
