MODEL 1
REMARK minimizedAffinity -5.82158089
REMARK minimizedRMSD -1
REMARK  1 active torsions:
REMARK  status: ('A' for Active; 'I' for Inactive)
REMARK    1  A    between atoms: C1_2  and  C2_3 
ROOT
ATOM      1  C2  UNL d   1      -0.285  -0.089   0.054  0.00  0.00    -0.073 A 
ATOM      2  C3  UNL d   1       0.922   0.282   0.657  0.00  0.00    -0.002 A 
ATOM      3  C4  UNL d   1       1.000   0.434   2.042  0.00  0.00     0.004 A 
ATOM      4  C5  UNL d   1      -0.123   0.210   2.837  0.00  0.00    -0.004 A 
ATOM      5  C6  UNL d   1      -1.336  -0.173   2.254  0.00  0.00    -0.075 A 
ATOM      6  C7  UNL d   1      -2.554  -0.415   3.096  0.00  0.00     0.076 C 
ATOM      7  C8  UNL d   1      -1.407  -0.321   0.862  0.00  0.00     0.001 A 
ENDROOT
BRANCH   1   8
ATOM      8  C1  UNL d   1      -0.373  -0.261  -1.441  0.00  0.00     0.053 C 
ATOM      9  C   UNL d   1      -1.156   0.864  -2.099  0.00  0.00     0.018 C 
ENDBRANCH   1   8
TORSDOF 1
ENDMDL
