MODEL 1
REMARK minimizedAffinity -5.51057577
REMARK minimizedRMSD -1
REMARK  1 active torsions:
REMARK  status: ('A' for Active; 'I' for Inactive)
REMARK    1  A    between atoms: C1_2  and  C2_3 
ROOT
ATOM      1  C2  UNL d   1      -0.231   0.401  -0.559  0.00  0.00    -0.073 A 
ATOM      2  C3  UNL d   1      -1.565   0.615  -0.924  0.00  0.00    -0.002 A 
ATOM      3  C4  UNL d   1      -2.589   0.424   0.005  0.00  0.00     0.004 A 
ATOM      4  C5  UNL d   1      -2.290   0.026   1.308  0.00  0.00    -0.004 A 
ATOM      5  C6  UNL d   1      -0.962  -0.181   1.695  0.00  0.00    -0.075 A 
ATOM      6  C7  UNL d   1      -0.624  -0.611   3.092  0.00  0.00     0.076 C 
ATOM      7  C8  UNL d   1       0.060   0.010   0.756  0.00  0.00     0.001 A 
ENDROOT
BRANCH   1   8
ATOM      8  C1  UNL d   1       0.878   0.612  -1.557  0.00  0.00     0.053 C 
ATOM      9  C   UNL d   1       1.035  -0.575  -2.494  0.00  0.00     0.018 C 
ENDBRANCH   1   8
TORSDOF 1
ENDMDL
