MODEL 1
REMARK minimizedAffinity -3.45418596
REMARK minimizedRMSD -1
REMARK  1 active torsions:
REMARK  status: ('A' for Active; 'I' for Inactive)
REMARK    1  A    between atoms: C1_2  and  C2_3 
ROOT
ATOM      1  C2  UNL d   1      -0.046   0.507  -0.885  0.00  0.00    -0.073 A 
ATOM      2  C3  UNL d   1      -1.248   1.032  -1.373  0.00  0.00    -0.002 A 
ATOM      3  C4  UNL d   1      -2.418   0.934  -0.619  0.00  0.00     0.004 A 
ATOM      4  C5  UNL d   1      -2.396   0.317   0.632  0.00  0.00    -0.004 A 
ATOM      5  C6  UNL d   1      -1.202  -0.202   1.143  0.00  0.00    -0.075 A 
ATOM      6  C7  UNL d   1      -1.163  -0.870   2.486  0.00  0.00     0.076 C 
ATOM      7  C8  UNL d   1      -0.032  -0.102   0.378  0.00  0.00     0.001 A 
ENDROOT
BRANCH   1   8
ATOM      8  C1  UNL d   1       1.222   0.617  -1.693  0.00  0.00     0.053 C 
ATOM      9  C   UNL d   1       1.117  -0.118  -3.020  0.00  0.00     0.018 C 
ENDBRANCH   1   8
TORSDOF 1
ENDMDL
