MODEL 1
REMARK minimizedAffinity -3.11509085
REMARK minimizedRMSD -1
REMARK  1 active torsions:
REMARK  status: ('A' for Active; 'I' for Inactive)
REMARK    1  A    between atoms: C1_2  and  C2_3 
ROOT
ATOM      1  C2  UNL d   1       0.753   0.179  -1.111  0.00  0.00    -0.073 A 
ATOM      2  C3  UNL d   1       1.533   0.121   0.049  0.00  0.00    -0.002 A 
ATOM      3  C4  UNL d   1       0.927   0.082   1.305  0.00  0.00     0.004 A 
ATOM      4  C5  UNL d   1      -0.464   0.095   1.414  0.00  0.00    -0.004 A 
ATOM      5  C6  UNL d   1      -1.261   0.141   0.265  0.00  0.00    -0.075 A 
ATOM      6  C7  UNL d   1      -2.758   0.157   0.365  0.00  0.00     0.076 C 
ATOM      7  C8  UNL d   1      -0.644   0.182  -0.992  0.00  0.00     0.001 A 
ENDROOT
BRANCH   1   8
ATOM      8  C1  UNL d   1       1.404   0.215  -2.470  0.00  0.00     0.053 C 
ATOM      9  C   UNL d   1       1.207  -1.087  -3.230  0.00  0.00     0.018 C 
ENDBRANCH   1   8
TORSDOF 1
ENDMDL
