MODEL 1
REMARK minimizedAffinity -3.71881843
REMARK minimizedRMSD -1
REMARK  1 active torsions:
REMARK  status: ('A' for Active; 'I' for Inactive)
REMARK    1  A    between atoms: C1_2  and  C2_3 
ROOT
ATOM      1  C2  UNL d   1       0.374  -0.150  -2.336  0.00  0.00    -0.073 A 
ATOM      2  C3  UNL d   1      -0.290  -1.227  -2.934  0.00  0.00    -0.002 A 
ATOM      3  C4  UNL d   1       0.346  -1.991  -3.913  0.00  0.00     0.004 A 
ATOM      4  C5  UNL d   1       1.653  -1.691  -4.299  0.00  0.00    -0.004 A 
ATOM      5  C6  UNL d   1       2.337  -0.626  -3.705  0.00  0.00    -0.075 A 
ATOM      6  C7  UNL d   1       3.742  -0.290  -4.110  0.00  0.00     0.076 C 
ATOM      7  C8  UNL d   1       1.691   0.138  -2.724  0.00  0.00     0.001 A 
ENDROOT
BRANCH   1   8
ATOM      8  C1  UNL d   1      -0.306   0.674  -1.273  0.00  0.00     0.053 C 
ATOM      9  C   UNL d   1      -0.034   0.139   0.124  0.00  0.00     0.018 C 
ENDBRANCH   1   8
TORSDOF 1
ENDMDL
