MODEL 1
REMARK minimizedAffinity -0.748272181
REMARK minimizedRMSD -1
REMARK  1 active torsions:
REMARK  status: ('A' for Active; 'I' for Inactive)
REMARK    1  A    between atoms: C1_2  and  C2_3 
ROOT
ATOM      1  C2  UNL d   1      -0.529   0.413   1.231  0.00  0.00    -0.077 A 
ATOM      2  C3  UNL d   1       0.315   1.529   1.326  0.00  0.00     0.002 A 
ATOM      3  C4  UNL d   1       1.325   1.732   0.385  0.00  0.00     0.002 A 
ATOM      4  C5  UNL d   1       1.499   0.827  -0.660  0.00  0.00    -0.004 A 
ATOM      5  C6  UNL d   1       0.666  -0.286  -0.763  0.00  0.00     0.002 A 
ATOM      6  C7  UNL d   1      -0.344  -0.492   0.178  0.00  0.00     0.002 A 
ENDROOT
BRANCH   1   7
ATOM      7  C1  UNL d   1      -1.651   0.218   2.217  0.00  0.00     0.055 C 
ATOM      8  C   UNL d   1      -3.009   0.390   1.552  0.00  0.00     0.019 C 
ENDBRANCH   1   7
TORSDOF 1
ENDMDL
