MODEL 1
REMARK minimizedAffinity -2.78978848
REMARK minimizedRMSD -1
REMARK  1 active torsions:
REMARK  status: ('A' for Active; 'I' for Inactive)
REMARK    1  A    between atoms: C1_2  and  C2_3 
ROOT
ATOM      1  C2  UNL d   1      -0.898   0.573  -0.792  0.00  0.00    -0.077 A 
ATOM      2  C3  UNL d   1      -0.237   1.730  -0.356  0.00  0.00     0.002 A 
ATOM      3  C4  UNL d   1       1.157   1.808  -0.404  0.00  0.00     0.002 A 
ATOM      4  C5  UNL d   1       1.900   0.735  -0.892  0.00  0.00    -0.004 A 
ATOM      5  C6  UNL d   1       1.251  -0.420  -1.327  0.00  0.00     0.002 A 
ATOM      6  C7  UNL d   1      -0.141  -0.501  -1.278  0.00  0.00     0.002 A 
ENDROOT
BRANCH   1   7
ATOM      7  C1  UNL d   1      -2.403   0.506  -0.787  0.00  0.00     0.055 C 
ATOM      8  C   UNL d   1      -2.963   0.761   0.605  0.00  0.00     0.019 C 
ENDBRANCH   1   7
TORSDOF 1
ENDMDL
