MODEL 1
REMARK minimizedAffinity -3.24083257
REMARK minimizedRMSD -1
REMARK  1 active torsions:
REMARK  status: ('A' for Active; 'I' for Inactive)
REMARK    1  A    between atoms: C1_2  and  C2_3 
ROOT
ATOM      1  C2  UNL d   1      -3.799  -1.346  -5.983  0.00  0.00    -0.077 A 
ATOM      2  C3  UNL d   1      -5.191  -1.505  -5.989  0.00  0.00     0.002 A 
ATOM      3  C4  UNL d   1      -5.756  -2.782  -5.997  0.00  0.00     0.002 A 
ATOM      4  C5  UNL d   1      -4.936  -3.909  -5.995  0.00  0.00    -0.004 A 
ATOM      5  C6  UNL d   1      -3.550  -3.761  -5.990  0.00  0.00     0.002 A 
ATOM      6  C7  UNL d   1      -2.983  -2.485  -5.984  0.00  0.00     0.002 A 
ENDROOT
BRANCH   1   7
ATOM      7  C1  UNL d   1      -3.188   0.030  -5.925  0.00  0.00     0.055 C 
ATOM      8  C   UNL d   1      -4.255   1.113  -5.995  0.00  0.00     0.019 C 
ENDBRANCH   1   7
TORSDOF 1
ENDMDL
