MODEL 1
REMARK minimizedAffinity 0.121364862
REMARK minimizedRMSD -1
REMARK  1 active torsions:
REMARK  status: ('A' for Active; 'I' for Inactive)
REMARK    1  A    between atoms: C1_2  and  C2_3 
ROOT
ATOM      1  C2  UNL d   1       0.543   0.257  -1.035  0.00  0.00    -0.077 A 
ATOM      2  C3  UNL d   1       0.815  -1.013  -0.509  0.00  0.00     0.002 A 
ATOM      3  C4  UNL d   1       1.116  -2.080  -1.358  0.00  0.00     0.002 A 
ATOM      4  C5  UNL d   1       1.153  -1.886  -2.737  0.00  0.00    -0.004 A 
ATOM      5  C6  UNL d   1       0.883  -0.626  -3.271  0.00  0.00     0.002 A 
ATOM      6  C7  UNL d   1       0.580   0.441  -2.424  0.00  0.00     0.002 A 
ENDROOT
BRANCH   1   7
ATOM      7  C1  UNL d   1       0.266   1.420  -0.119  0.00  0.00     0.055 C 
ATOM      8  C   UNL d   1       0.467   1.036   1.340  0.00  0.00     0.019 C 
ENDBRANCH   1   7
TORSDOF 1
ENDMDL
