MODEL 1
REMARK minimizedAffinity -1.23421931
REMARK minimizedRMSD -1
REMARK  1 active torsions:
REMARK  status: ('A' for Active; 'I' for Inactive)
REMARK    1  A    between atoms: C1_2  and  C2_3 
ROOT
ATOM      1  C2  UNL d   1       0.829   0.717  -0.463  0.00  0.00    -0.077 A 
ATOM      2  C3  UNL d   1       1.238   0.623  -1.800  0.00  0.00     0.002 A 
ATOM      3  C4  UNL d   1       0.986  -0.537  -2.536  0.00  0.00     0.002 A 
ATOM      4  C5  UNL d   1       0.320  -1.608  -1.945  0.00  0.00    -0.004 A 
ATOM      5  C6  UNL d   1      -0.090  -1.525  -0.615  0.00  0.00     0.002 A 
ATOM      6  C7  UNL d   1       0.163  -0.367   0.123  0.00  0.00     0.002 A 
ENDROOT
BRANCH   1   7
ATOM      7  C1  UNL d   1       1.056   1.985   0.318  0.00  0.00     0.055 C 
ATOM      8  C   UNL d   1       1.697   3.060  -0.548  0.00  0.00     0.019 C 
ENDBRANCH   1   7
TORSDOF 1
ENDMDL
