MODEL 1
REMARK minimizedAffinity -2.75884485
REMARK minimizedRMSD -1
REMARK  1 active torsions:
REMARK  status: ('A' for Active; 'I' for Inactive)
REMARK    1  A    between atoms: C1_2  and  C2_3 
ROOT
ATOM      1  C2  UNL d   1      -3.751   2.672  -5.966  0.00  0.00    -0.077 A 
ATOM      2  C3  UNL d   1      -5.151   2.737  -5.985  0.00  0.00     0.002 A 
ATOM      3  C4  UNL d   1      -5.800   3.973  -6.000  0.00  0.00     0.002 A 
ATOM      4  C5  UNL d   1      -5.058   5.152  -5.999  0.00  0.00    -0.004 A 
ATOM      5  C6  UNL d   1      -3.665   5.097  -5.978  0.00  0.00     0.002 A 
ATOM      6  C7  UNL d   1      -3.014   3.863  -5.962  0.00  0.00     0.002 A 
ENDROOT
BRANCH   1   7
ATOM      7  C1  UNL d   1      -3.048   1.340  -6.000  0.00  0.00     0.055 C 
ATOM      8  C   UNL d   1      -4.042   0.188  -5.974  0.00  0.00     0.019 C 
ENDBRANCH   1   7
TORSDOF 1
ENDMDL
