MODEL 1
REMARK minimizedAffinity 3.91160774
REMARK minimizedRMSD -1
REMARK  1 active torsions:
REMARK  status: ('A' for Active; 'I' for Inactive)
REMARK    1  A    between atoms: C1_2  and  C2_3 
ROOT
ATOM      1  C2  UNL d   1      -4.784  -1.875  -5.745  0.00  0.00    -0.077 A 
ATOM      2  C3  UNL d   1      -3.382  -1.895  -5.743  0.00  0.00     0.002 A 
ATOM      3  C4  UNL d   1      -2.693  -3.103  -5.863  0.00  0.00     0.002 A 
ATOM      4  C5  UNL d   1      -3.396  -4.299  -5.991  0.00  0.00    -0.004 A 
ATOM      5  C6  UNL d   1      -4.790  -4.290  -5.993  0.00  0.00     0.002 A 
ATOM      6  C7  UNL d   1      -5.481  -3.084  -5.871  0.00  0.00     0.002 A 
ENDROOT
BRANCH   1   7
ATOM      7  C1  UNL d   1      -5.529  -0.569  -5.665  0.00  0.00     0.055 C 
ATOM      8  C   UNL d   1      -4.622   0.607  -6.000  0.00  0.00     0.019 C 
ENDBRANCH   1   7
TORSDOF 1
ENDMDL
