MODEL 1
REMARK minimizedAffinity 1.35328412
REMARK minimizedRMSD -1
REMARK  1 active torsions:
REMARK  status: ('A' for Active; 'I' for Inactive)
REMARK    1  A    between atoms: C1_2  and  C2_3 
ROOT
ATOM      1  C2  UNL d   1      -3.096   2.936  -5.938  0.00  0.00    -0.077 A 
ATOM      2  C3  UNL d   1      -3.830   1.742  -5.974  0.00  0.00     0.002 A 
ATOM      3  C4  UNL d   1      -5.226   1.772  -5.995  0.00  0.00     0.002 A 
ATOM      4  C5  UNL d   1      -5.899   2.991  -5.984  0.00  0.00    -0.004 A 
ATOM      5  C6  UNL d   1      -5.178   4.184  -5.946  0.00  0.00     0.002 A 
ATOM      6  C7  UNL d   1      -3.783   4.157  -5.924  0.00  0.00     0.002 A 
ENDROOT
BRANCH   1   7
ATOM      7  C1  UNL d   1      -1.590   2.908  -5.966  0.00  0.00     0.055 C 
ATOM      8  C   UNL d   1      -1.046   1.686  -5.239  0.00  0.00     0.019 C 
ENDBRANCH   1   7
TORSDOF 1
ENDMDL
