MODEL 1
REMARK minimizedAffinity 3.7083838
REMARK minimizedRMSD -1
REMARK  1 active torsions:
REMARK  status: ('A' for Active; 'I' for Inactive)
REMARK    1  A    between atoms: C1_2  and  C2_3 
ROOT
ATOM      1  C2  UNL d   1      -2.455   4.122  -5.253  0.00  0.00    -0.077 A 
ATOM      2  C3  UNL d   1      -2.624   4.319  -3.876  0.00  0.00     0.002 A 
ATOM      3  C4  UNL d   1      -1.842   5.253  -3.194  0.00  0.00     0.002 A 
ATOM      4  C5  UNL d   1      -0.888   6.000  -3.882  0.00  0.00    -0.004 A 
ATOM      5  C6  UNL d   1      -0.710   5.810  -5.251  0.00  0.00     0.002 A 
ATOM      6  C7  UNL d   1      -1.491   4.876  -5.934  0.00  0.00     0.002 A 
ENDROOT
BRANCH   1   7
ATOM      7  C1  UNL d   1      -3.331   3.150  -6.000  0.00  0.00     0.055 C 
ATOM      8  C   UNL d   1      -3.000   1.711  -5.633  0.00  0.00     0.019 C 
ENDBRANCH   1   7
TORSDOF 1
ENDMDL
