MODEL 1
REMARK minimizedAffinity 7.09200287
REMARK minimizedRMSD -1
REMARK  1 active torsions:
REMARK  status: ('A' for Active; 'I' for Inactive)
REMARK    1  A    between atoms: C1_2  and  C2_3 
ROOT
ATOM      1  C2  UNL d   1      -2.767   4.127  -5.073  0.00  0.00    -0.077 A 
ATOM      2  C3  UNL d   1      -3.003   4.130  -3.691  0.00  0.00     0.002 A 
ATOM      3  C4  UNL d   1      -2.249   4.948  -2.847  0.00  0.00     0.002 A 
ATOM      4  C5  UNL d   1      -1.258   5.772  -3.376  0.00  0.00    -0.004 A 
ATOM      5  C6  UNL d   1      -1.014   5.775  -4.748  0.00  0.00     0.002 A 
ATOM      6  C7  UNL d   1      -1.765   4.957  -5.593  0.00  0.00     0.002 A 
ENDROOT
BRANCH   1   7
ATOM      7  C1  UNL d   1      -3.611   3.282  -5.990  0.00  0.00     0.055 C 
ATOM      8  C   UNL d   1      -5.058   3.753  -6.000  0.00  0.00     0.019 C 
ENDBRANCH   1   7
TORSDOF 1
ENDMDL
