MODEL 1
REMARK minimizedAffinity 2.83845568
REMARK minimizedRMSD -1
REMARK  1 active torsions:
REMARK  status: ('A' for Active; 'I' for Inactive)
REMARK    1  A    between atoms: C1_2  and  C2_3 
ROOT
ATOM      1  C2  UNL d   1      -4.248   0.143   3.160  0.00  0.00    -0.077 A 
ATOM      2  C3  UNL d   1      -4.227   1.198   2.237  0.00  0.00     0.002 A 
ATOM      3  C4  UNL d   1      -3.467   2.342   2.489  0.00  0.00     0.002 A 
ATOM      4  C5  UNL d   1      -2.719   2.440   3.660  0.00  0.00    -0.004 A 
ATOM      5  C6  UNL d   1      -2.735   1.397   4.585  0.00  0.00     0.002 A 
ATOM      6  C7  UNL d   1      -3.495   0.253   4.336  0.00  0.00     0.002 A 
ENDROOT
BRANCH   1   7
ATOM      7  C1  UNL d   1      -5.028  -1.112   2.867  0.00  0.00     0.055 C 
ATOM      8  C   UNL d   1      -4.173  -2.355   3.068  0.00  0.00     0.019 C 
ENDBRANCH   1   7
TORSDOF 1
ENDMDL
