MODEL 1
REMARK minimizedAffinity 14.5988712
REMARK minimizedRMSD -1
REMARK  1 active torsions:
REMARK  status: ('A' for Active; 'I' for Inactive)
REMARK    1  A    between atoms: C1_2  and  C2_3 
ROOT
ATOM      1  C2  UNL d   1      -3.262   2.051   4.182  0.00  0.00    -0.077 A 
ATOM      2  C3  UNL d   1      -2.495   3.175   3.842  0.00  0.00     0.002 A 
ATOM      3  C4  UNL d   1      -2.483   3.650   2.529  0.00  0.00     0.002 A 
ATOM      4  C5  UNL d   1      -3.238   3.012   1.548  0.00  0.00    -0.004 A 
ATOM      5  C6  UNL d   1      -4.002   1.892   1.875  0.00  0.00     0.002 A 
ATOM      6  C7  UNL d   1      -4.014   1.414   3.186  0.00  0.00     0.002 A 
ENDROOT
BRANCH   1   7
ATOM      7  C1  UNL d   1      -3.315   1.566   5.607  0.00  0.00     0.055 C 
ATOM      8  C   UNL d   1      -2.037   0.834   5.990  0.00  0.00     0.019 C 
ENDBRANCH   1   7
TORSDOF 1
ENDMDL
