MODEL 1
REMARK minimizedAffinity 14.8914165
REMARK minimizedRMSD -1
REMARK  1 active torsions:
REMARK  status: ('A' for Active; 'I' for Inactive)
REMARK    1  A    between atoms: C1_2  and  C2_3 
ROOT
ATOM      1  C2  UNL d   1       0.977  -3.530  -1.600  0.00  0.00    -0.077 A 
ATOM      2  C3  UNL d   1       0.054  -2.908  -2.452  0.00  0.00     0.002 A 
ATOM      3  C4  UNL d   1      -0.454  -1.645  -2.140  0.00  0.00     0.002 A 
ATOM      4  C5  UNL d   1      -0.043  -0.994  -0.979  0.00  0.00    -0.004 A 
ATOM      5  C6  UNL d   1       0.874  -1.606  -0.125  0.00  0.00     0.002 A 
ATOM      6  C7  UNL d   1       1.382  -2.868  -0.434  0.00  0.00     0.002 A 
ENDROOT
BRANCH   1   7
ATOM      7  C1  UNL d   1       1.564  -4.870  -1.960  0.00  0.00     0.055 C 
ATOM      8  C   UNL d   1       2.676  -5.264  -0.998  0.00  0.00     0.019 C 
ENDBRANCH   1   7
TORSDOF 1
ENDMDL
