MODEL 1
REMARK minimizedAffinity 1.10408688
REMARK minimizedRMSD -1
REMARK  0 active torsions:
REMARK  status: ('A' for Active; 'I' for Inactive)
ROOT
ATOM      1  C   UNL d   1      -4.235   0.694  -0.832  0.00  0.00     0.172 C 
ATOM      2  N   UNL d   1      -4.308  -0.184  -1.976  0.00  0.00    -0.070 N 
ATOM      3  C1  UNL d   1      -4.975   0.078  -3.143  0.00  0.00    -0.004 A 
ATOM      4  C2  UNL d   1      -4.802  -1.003  -3.980  0.00  0.00    -0.047 A 
ATOM      5  C3  UNL d   1      -4.004  -1.948  -3.292  0.00  0.00    -0.047 A 
ATOM      6  C4  UNL d   1      -3.712  -1.415  -2.054  0.00  0.00    -0.004 A 
ENDROOT
TORSDOF 0
ENDMDL
