MODEL 1
REMARK minimizedAffinity 5.37768745
REMARK minimizedRMSD -1
REMARK  0 active torsions:
REMARK  status: ('A' for Active; 'I' for Inactive)
ROOT
ATOM      1  C   UNL d   1      -4.558   0.268  -1.154  0.00  0.00     0.172 C 
ATOM      2  N   UNL d   1      -4.577  -0.620  -2.292  0.00  0.00    -0.070 N 
ATOM      3  C1  UNL d   1      -5.294  -0.428  -3.443  0.00  0.00    -0.004 A 
ATOM      4  C2  UNL d   1      -5.044  -1.495  -4.279  0.00  0.00    -0.047 A 
ATOM      5  C3  UNL d   1      -4.147  -2.358  -3.607  0.00  0.00    -0.047 A 
ATOM      6  C4  UNL d   1      -3.875  -1.793  -2.379  0.00  0.00    -0.004 A 
ENDROOT
TORSDOF 0
ENDMDL
