MODEL 1
REMARK minimizedAffinity 3.84602284
REMARK minimizedRMSD -1
REMARK  0 active torsions:
REMARK  status: ('A' for Active; 'I' for Inactive)
ROOT
ATOM      1  C   UNL d   1      -1.938  -0.483   3.641  0.00  0.00     0.172 C 
ATOM      2  N   UNL d   1      -0.723  -1.082   3.139  0.00  0.00    -0.070 N 
ATOM      3  C1  UNL d   1       0.529  -0.908   3.666  0.00  0.00    -0.004 A 
ATOM      4  C2  UNL d   1       1.412  -1.644   2.906  0.00  0.00    -0.047 A 
ATOM      5  C3  UNL d   1       0.665  -2.282   1.887  0.00  0.00    -0.047 A 
ATOM      6  C4  UNL d   1      -0.654  -1.916   2.055  0.00  0.00    -0.004 A 
ENDROOT
TORSDOF 0
ENDMDL
