MODEL 1
REMARK minimizedAffinity 4.87001562
REMARK minimizedRMSD -1
REMARK  0 active torsions:
REMARK  status: ('A' for Active; 'I' for Inactive)
ROOT
ATOM      1  C   UNL d   1       1.399   1.174  -1.417  0.00  0.00     0.172 C 
ATOM      2  N   UNL d   1       1.224   0.140  -0.425  0.00  0.00    -0.070 N 
ATOM      3  C1  UNL d   1       0.298  -0.867  -0.475  0.00  0.00    -0.004 A 
ATOM      4  C2  UNL d   1       0.454  -1.642   0.654  0.00  0.00    -0.047 A 
ATOM      5  C3  UNL d   1       1.511  -1.080   1.410  0.00  0.00    -0.047 A 
ATOM      6  C4  UNL d   1       1.970   0.021   0.719  0.00  0.00    -0.004 A 
ENDROOT
TORSDOF 0
ENDMDL
