MODEL 1
REMARK minimizedAffinity 4.4431777
REMARK minimizedRMSD -1
REMARK  0 active torsions:
REMARK  status: ('A' for Active; 'I' for Inactive)
ROOT
ATOM      1  C   UNL d   1       5.630  -5.621  -1.125  0.00  0.00     0.172 C 
ATOM      2  N   UNL d   1       5.179  -4.881   0.030  0.00  0.00    -0.070 N 
ATOM      3  C1  UNL d   1       3.879  -4.559   0.315  0.00  0.00    -0.004 A 
ATOM      4  C2  UNL d   1       3.869  -3.855   1.500  0.00  0.00    -0.047 A 
ATOM      5  C3  UNL d   1       5.209  -3.748   1.941  0.00  0.00    -0.047 A 
ATOM      6  C4  UNL d   1       5.999  -4.392   1.013  0.00  0.00    -0.004 A 
ENDROOT
TORSDOF 0
ENDMDL
