MODEL 1
REMARK minimizedAffinity 4.01738214
REMARK minimizedRMSD -1
REMARK  0 active torsions:
REMARK  status: ('A' for Active; 'I' for Inactive)
ROOT
ATOM      1  C   UNL d   1      -4.917  -2.737  -4.439  0.00  0.00     0.172 C 
ATOM      2  N   UNL d   1      -4.567  -1.771  -3.425  0.00  0.00    -0.070 N 
ATOM      3  C1  UNL d   1      -3.657  -1.962  -2.420  0.00  0.00    -0.004 A 
ATOM      4  C2  UNL d   1      -3.610  -0.809  -1.667  0.00  0.00    -0.047 A 
ATOM      5  C3  UNL d   1      -4.524   0.108  -2.240  0.00  0.00    -0.047 A 
ATOM      6  C4  UNL d   1      -5.102  -0.513  -3.326  0.00  0.00    -0.004 A 
ENDROOT
TORSDOF 0
ENDMDL
