MODEL 1
REMARK minimizedAffinity 6.01998425
REMARK minimizedRMSD -1
REMARK  0 active torsions:
REMARK  status: ('A' for Active; 'I' for Inactive)
ROOT
ATOM      1  C   UNL d   1      -2.945  -1.131  -1.475  0.00  0.00     0.172 C 
ATOM      2  N   UNL d   1      -3.969  -1.169  -2.492  0.00  0.00    -0.070 N 
ATOM      3  C1  UNL d   1      -4.719  -0.102  -2.909  0.00  0.00    -0.004 A 
ATOM      4  C2  UNL d   1      -5.580  -0.549  -3.889  0.00  0.00    -0.047 A 
ATOM      5  C3  UNL d   1      -5.339  -1.932  -4.065  0.00  0.00    -0.047 A 
ATOM      6  C4  UNL d   1      -4.337  -2.290  -3.188  0.00  0.00    -0.004 A 
ENDROOT
TORSDOF 0
ENDMDL
