MODEL 1
REMARK minimizedAffinity -3.18319726
REMARK minimizedRMSD -1
REMARK  0 active torsions:
REMARK  status: ('A' for Active; 'I' for Inactive)
ROOT
ATOM      1  C   UNL d   1       3.898  -2.583   5.688  0.00  0.00     0.172 C 
ATOM      2  N   UNL d   1       4.029  -2.734   4.258  0.00  0.00    -0.070 N 
ATOM      3  C1  UNL d   1       5.040  -2.219   3.490  0.00  0.00    -0.004 A 
ATOM      4  C2  UNL d   1       4.803  -2.584   2.182  0.00  0.00    -0.047 A 
ATOM      5  C3  UNL d   1       3.609  -3.343   2.163  0.00  0.00    -0.047 A 
ATOM      6  C4  UNL d   1       3.151  -3.420   3.462  0.00  0.00    -0.004 A 
ENDROOT
TORSDOF 0
ENDMDL
