MODEL 1
REMARK minimizedAffinity 8.11355877
REMARK minimizedRMSD -1
REMARK  0 active torsions:
REMARK  status: ('A' for Active; 'I' for Inactive)
ROOT
ATOM      1  C   UNL d   1      -4.187   0.139  -1.196  0.00  0.00     0.172 C 
ATOM      2  N   UNL d   1      -4.415  -0.922  -2.149  0.00  0.00    -0.070 N 
ATOM      3  C1  UNL d   1      -5.018  -0.782  -3.370  0.00  0.00    -0.004 A 
ATOM      4  C2  UNL d   1      -5.043  -2.021  -3.973  0.00  0.00    -0.047 A 
ATOM      5  C3  UNL d   1      -4.436  -2.937  -3.083  0.00  0.00    -0.047 A 
ATOM      6  C4  UNL d   1      -4.056  -2.231  -1.961  0.00  0.00    -0.004 A 
ENDROOT
TORSDOF 0
ENDMDL
