MODEL 1
REMARK minimizedAffinity 8.48692608
REMARK minimizedRMSD -1
REMARK  1 active torsions:
REMARK  status: ('A' for Active; 'I' for Inactive)
REMARK    1  A    between atoms: C1_2  and  C2_3 
ROOT
ATOM      1  C2  UNL d   1       3.586  -0.310   2.535  0.00  0.00    -0.077 A 
ATOM      2  C3  UNL d   1       2.393  -1.046   2.526  0.00  0.00     0.002 A 
ATOM      3  C4  UNL d   1       1.352  -0.694   1.665  0.00  0.00     0.002 A 
ATOM      4  C5  UNL d   1       1.494   0.393   0.805  0.00  0.00    -0.004 A 
ATOM      5  C6  UNL d   1       2.676   1.133   0.808  0.00  0.00     0.002 A 
ATOM      6  C7  UNL d   1       3.717   0.783   1.668  0.00  0.00     0.002 A 
ENDROOT
BRANCH   1   7
ATOM      7  C1  UNL d   1       4.729  -0.719   3.427  0.00  0.00     0.055 C 
ATOM      8  C   UNL d   1       6.000   0.044   3.083  0.00  0.00     0.019 C 
ENDBRANCH   1   7
TORSDOF 1
ENDMDL
