MODEL 1
REMARK minimizedAffinity 4.38167334
REMARK minimizedRMSD -1
REMARK  1 active torsions:
REMARK  status: ('A' for Active; 'I' for Inactive)
REMARK    1  A    between atoms: C1_2  and  C2_3 
ROOT
ATOM      1  C2  UNL d   1      -3.812   4.091   4.814  0.00  0.00    -0.077 A 
ATOM      2  C3  UNL d   1      -3.060   3.991   5.993  0.00  0.00     0.002 A 
ATOM      3  C4  UNL d   1      -1.674   4.149   5.963  0.00  0.00     0.002 A 
ATOM      4  C5  UNL d   1      -1.027   4.412   4.757  0.00  0.00    -0.004 A 
ATOM      5  C6  UNL d   1      -1.765   4.511   3.578  0.00  0.00     0.002 A 
ATOM      6  C7  UNL d   1      -3.151   4.352   3.606  0.00  0.00     0.002 A 
ENDROOT
BRANCH   1   7
ATOM      7  C1  UNL d   1      -5.313   3.969   4.852  0.00  0.00     0.055 C 
ATOM      8  C   UNL d   1      -5.904   4.778   5.997  0.00  0.00     0.019 C 
ENDBRANCH   1   7
TORSDOF 1
ENDMDL
