MODEL 1
REMARK minimizedAffinity 2.0084157
REMARK minimizedRMSD -1
REMARK  1 active torsions:
REMARK  status: ('A' for Active; 'I' for Inactive)
REMARK    1  A    between atoms: C1_2  and  C2_3 
ROOT
ATOM      1  C2  UNL d   1      -3.520   4.481   6.000  0.00  0.00    -0.077 A 
ATOM      2  C3  UNL d   1      -3.581   3.080   5.998  0.00  0.00     0.002 A 
ATOM      3  C4  UNL d   1      -4.814   2.426   5.996  0.00  0.00     0.002 A 
ATOM      4  C5  UNL d   1      -5.996   3.165   5.992  0.00  0.00    -0.004 A 
ATOM      5  C6  UNL d   1      -5.947   4.558   5.996  0.00  0.00     0.002 A 
ATOM      6  C7  UNL d   1      -4.714   5.213   5.999  0.00  0.00     0.002 A 
ENDROOT
BRANCH   1   7
ATOM      7  C1  UNL d   1      -2.191   5.188   5.952  0.00  0.00     0.055 C 
ATOM      8  C   UNL d   1      -1.413   4.819   4.697  0.00  0.00     0.019 C 
ENDBRANCH   1   7
TORSDOF 1
ENDMDL
