MODEL 1
REMARK minimizedAffinity 1.20211089
REMARK minimizedRMSD -1
REMARK  1 active torsions:
REMARK  status: ('A' for Active; 'I' for Inactive)
REMARK    1  A    between atoms: C1_2  and  C2_3 
ROOT
ATOM      1  C2  UNL d   1       3.674  -0.055   2.184  0.00  0.00    -0.077 A 
ATOM      2  C3  UNL d   1       3.974   0.822   1.132  0.00  0.00     0.002 A 
ATOM      3  C4  UNL d   1       2.960   1.297   0.298  0.00  0.00     0.002 A 
ATOM      4  C5  UNL d   1       1.640   0.904   0.509  0.00  0.00    -0.004 A 
ATOM      5  C6  UNL d   1       1.332   0.030   1.551  0.00  0.00     0.002 A 
ATOM      6  C7  UNL d   1       2.344  -0.447   2.385  0.00  0.00     0.002 A 
ENDROOT
BRANCH   1   7
ATOM      7  C1  UNL d   1       4.759  -0.530   3.115  0.00  0.00     0.055 C 
ATOM      8  C   UNL d   1       5.996   0.352   3.019  0.00  0.00     0.019 C 
ENDBRANCH   1   7
TORSDOF 1
ENDMDL
