MODEL 1
REMARK minimizedAffinity 2.37291646
REMARK minimizedRMSD -1
REMARK  1 active torsions:
REMARK  status: ('A' for Active; 'I' for Inactive)
REMARK    1  A    between atoms: C1_2  and  C2_3 
ROOT
ATOM      1  C2  UNL d   1       3.828   0.773   1.074  0.00  0.00    -0.077 A 
ATOM      2  C3  UNL d   1       4.878   0.135   1.749  0.00  0.00     0.002 A 
ATOM      3  C4  UNL d   1       4.610  -0.860   2.691  0.00  0.00     0.002 A 
ATOM      4  C5  UNL d   1       3.294  -1.227   2.964  0.00  0.00    -0.004 A 
ATOM      5  C6  UNL d   1       2.243  -0.597   2.299  0.00  0.00     0.002 A 
ATOM      6  C7  UNL d   1       2.509   0.398   1.358  0.00  0.00     0.002 A 
ENDROOT
BRANCH   1   7
ATOM      7  C1  UNL d   1       4.117   1.812   0.021  0.00  0.00     0.055 C 
ATOM      8  C   UNL d   1       3.188   3.009   0.155  0.00  0.00     0.019 C 
ENDBRANCH   1   7
TORSDOF 1
ENDMDL
