MODEL 1
REMARK minimizedAffinity 2.82970476
REMARK minimizedRMSD -1
REMARK  1 active torsions:
REMARK  status: ('A' for Active; 'I' for Inactive)
REMARK    1  A    between atoms: C1_2  and  C2_3 
ROOT
ATOM      1  C2  UNL d   1      -3.732  -2.238   5.127  0.00  0.00    -0.077 A 
ATOM      2  C3  UNL d   1      -3.807  -3.508   5.716  0.00  0.00     0.002 A 
ATOM      3  C4  UNL d   1      -4.361  -4.580   5.015  0.00  0.00     0.002 A 
ATOM      4  C5  UNL d   1      -4.840  -4.395   3.719  0.00  0.00    -0.004 A 
ATOM      5  C6  UNL d   1      -4.771  -3.135   3.125  0.00  0.00     0.002 A 
ATOM      6  C7  UNL d   1      -4.219  -2.062   3.825  0.00  0.00     0.002 A 
ENDROOT
BRANCH   1   7
ATOM      7  C1  UNL d   1      -3.090  -1.091   5.863  0.00  0.00     0.055 C 
ATOM      8  C   UNL d   1      -4.033   0.100   5.962  0.00  0.00     0.019 C 
ENDBRANCH   1   7
TORSDOF 1
ENDMDL
