MODEL 1
REMARK minimizedAffinity 6.68877506
REMARK minimizedRMSD -1
REMARK  1 active torsions:
REMARK  status: ('A' for Active; 'I' for Inactive)
REMARK    1  A    between atoms: C1_2  and  C2_3 
ROOT
ATOM      1  C2  UNL d   1      -4.947   1.206   1.898  0.00  0.00    -0.077 A 
ATOM      2  C3  UNL d   1      -3.997   1.849   1.092  0.00  0.00     0.002 A 
ATOM      3  C4  UNL d   1      -3.061   1.103   0.373  0.00  0.00     0.002 A 
ATOM      4  C5  UNL d   1      -3.068  -0.288   0.450  0.00  0.00    -0.004 A 
ATOM      5  C6  UNL d   1      -4.008  -0.936   1.250  0.00  0.00     0.002 A 
ATOM      6  C7  UNL d   1      -4.944  -0.193   1.970  0.00  0.00     0.002 A 
ENDROOT
BRANCH   1   7
ATOM      7  C1  UNL d   1      -5.989   2.006   2.635  0.00  0.00     0.055 C 
ATOM      8  C   UNL d   1      -5.501   3.419   2.923  0.00  0.00     0.019 C 
ENDBRANCH   1   7
TORSDOF 1
ENDMDL
