MODEL 1
REMARK minimizedAffinity -2.35206056
REMARK minimizedRMSD -1
REMARK  1 active torsions:
REMARK  status: ('A' for Active; 'I' for Inactive)
REMARK    1  A    between atoms: C1_2  and  C2_3 
ROOT
ATOM      1  C2  UNL d   1       2.569  -1.101   2.101  0.00  0.00    -0.077 A 
ATOM      2  C3  UNL d   1       1.756  -0.509   1.124  0.00  0.00     0.002 A 
ATOM      3  C4  UNL d   1       2.216   0.588   0.393  0.00  0.00     0.002 A 
ATOM      4  C5  UNL d   1       3.490   1.099   0.628  0.00  0.00    -0.004 A 
ATOM      5  C6  UNL d   1       4.305   0.519   1.599  0.00  0.00     0.002 A 
ATOM      6  C7  UNL d   1       3.847  -0.577   2.332  0.00  0.00     0.002 A 
ENDROOT
BRANCH   1   7
ATOM      7  C1  UNL d   1       2.094  -2.315   2.857  0.00  0.00     0.055 C 
ATOM      8  C   UNL d   1       2.007  -3.533   1.948  0.00  0.00     0.019 C 
ENDBRANCH   1   7
TORSDOF 1
ENDMDL
