MODEL 1
REMARK minimizedAffinity 3.89625692
REMARK minimizedRMSD -1
REMARK  1 active torsions:
REMARK  status: ('A' for Active; 'I' for Inactive)
REMARK    1  A    between atoms: C1_2  and  C2_3 
ROOT
ATOM      1  C2  UNL d   1      -5.754   1.963   3.359  0.00  0.00    -0.077 A 
ATOM      2  C3  UNL d   1      -5.791   1.622   4.718  0.00  0.00     0.002 A 
ATOM      3  C4  UNL d   1      -5.709   2.614   5.697  0.00  0.00     0.002 A 
ATOM      4  C5  UNL d   1      -5.595   3.953   5.328  0.00  0.00    -0.004 A 
ATOM      5  C6  UNL d   1      -5.556   4.301   3.978  0.00  0.00     0.002 A 
ATOM      6  C7  UNL d   1      -5.636   3.311   2.998  0.00  0.00     0.002 A 
ENDROOT
BRANCH   1   7
ATOM      7  C1  UNL d   1      -5.892   0.899   2.302  0.00  0.00     0.055 C 
ATOM      8  C   UNL d   1      -4.571   0.655   1.587  0.00  0.00     0.019 C 
ENDBRANCH   1   7
TORSDOF 1
ENDMDL
