MODEL 1
REMARK minimizedAffinity 7.26764059
REMARK minimizedRMSD -1
REMARK  1 active torsions:
REMARK  status: ('A' for Active; 'I' for Inactive)
REMARK    1  A    between atoms: C1_2  and  C2_3 
ROOT
ATOM      1  C2  UNL d   1      -3.905   0.536   5.990  0.00  0.00    -0.077 A 
ATOM      2  C3  UNL d   1      -2.561   0.140   5.965  0.00  0.00     0.002 A 
ATOM      3  C4  UNL d   1      -2.225  -1.214   5.910  0.00  0.00     0.002 A 
ATOM      4  C5  UNL d   1      -3.226  -2.182   5.875  0.00  0.00    -0.004 A 
ATOM      5  C6  UNL d   1      -4.567  -1.798   5.901  0.00  0.00     0.002 A 
ATOM      6  C7  UNL d   1      -4.904  -0.445   5.957  0.00  0.00     0.002 A 
ENDROOT
BRANCH   1   7
ATOM      7  C1  UNL d   1      -4.270   1.998   5.999  0.00  0.00     0.055 C 
ATOM      8  C   UNL d   1      -3.029   2.878   5.976  0.00  0.00     0.019 C 
ENDBRANCH   1   7
TORSDOF 1
ENDMDL
