MODEL 1
REMARK minimizedAffinity 10.9046488
REMARK minimizedRMSD -1
REMARK  1 active torsions:
REMARK  status: ('A' for Active; 'I' for Inactive)
REMARK    1  A    between atoms: C1_2  and  C2_3 
ROOT
ATOM      1  C2  UNL d   1       1.740   0.058   1.555  0.00  0.00    -0.077 A 
ATOM      2  C3  UNL d   1       0.860  -1.033   1.540  0.00  0.00     0.002 A 
ATOM      3  C4  UNL d   1       1.159  -2.192   2.258  0.00  0.00     0.002 A 
ATOM      4  C5  UNL d   1       2.335  -2.270   3.000  0.00  0.00    -0.004 A 
ATOM      5  C6  UNL d   1       3.218  -1.191   3.020  0.00  0.00     0.002 A 
ATOM      6  C7  UNL d   1       2.922  -0.032   2.301  0.00  0.00     0.002 A 
ENDROOT
BRANCH   1   7
ATOM      7  C1  UNL d   1       1.396   1.327   0.820  0.00  0.00     0.055 C 
ATOM      8  C   UNL d   1       2.577   1.832   0.004  0.00  0.00     0.019 C 
ENDBRANCH   1   7
TORSDOF 1
ENDMDL
