MODEL 1
REMARK minimizedAffinity -0.846359968
REMARK minimizedRMSD -1
REMARK  1 active torsions:
REMARK  status: ('A' for Active; 'I' for Inactive)
REMARK    1  A    between atoms: C1_2  and  C2_3 
ROOT
ATOM      1  C2  UNL d   1      -5.663   1.340   3.409  0.00  0.00    -0.077 A 
ATOM      2  C3  UNL d   1      -5.744   2.651   2.918  0.00  0.00     0.002 A 
ATOM      3  C4  UNL d   1      -5.399   3.732   3.731  0.00  0.00     0.002 A 
ATOM      4  C5  UNL d   1      -4.967   3.514   5.037  0.00  0.00    -0.004 A 
ATOM      5  C6  UNL d   1      -4.884   2.214   5.535  0.00  0.00     0.002 A 
ATOM      6  C7  UNL d   1      -5.230   1.132   4.724  0.00  0.00     0.002 A 
ENDROOT
BRANCH   1   7
ATOM      7  C1  UNL d   1      -5.987   0.170   2.517  0.00  0.00     0.055 C 
ATOM      8  C   UNL d   1      -4.723  -0.522   2.030  0.00  0.00     0.019 C 
ENDBRANCH   1   7
TORSDOF 1
ENDMDL
