MODEL 1
REMARK minimizedAffinity 1.34064925
REMARK minimizedRMSD -1
REMARK  1 active torsions:
REMARK  status: ('A' for Active; 'I' for Inactive)
REMARK    1  A    between atoms: C1_2  and  C2_3 
ROOT
ATOM      1  C2  UNL d   1      -3.918  -1.479   3.314  0.00  0.00    -0.077 A 
ATOM      2  C3  UNL d   1      -3.713  -2.818   3.674  0.00  0.00     0.002 A 
ATOM      3  C4  UNL d   1      -3.520  -3.167   5.012  0.00  0.00     0.002 A 
ATOM      4  C5  UNL d   1      -3.533  -2.185   6.000  0.00  0.00    -0.004 A 
ATOM      5  C6  UNL d   1      -3.734  -0.850   5.651  0.00  0.00     0.002 A 
ATOM      6  C7  UNL d   1      -3.926  -0.498   4.314  0.00  0.00     0.002 A 
ENDROOT
BRANCH   1   7
ATOM      7  C1  UNL d   1      -4.176  -1.106   1.877  0.00  0.00     0.055 C 
ATOM      8  C   UNL d   1      -2.986  -1.449   0.994  0.00  0.00     0.019 C 
ENDBRANCH   1   7
TORSDOF 1
ENDMDL
