MODEL 1
REMARK minimizedAffinity -0.279745489
REMARK minimizedRMSD -1
REMARK  2 active torsions:
REMARK  status: ('A' for Active; 'I' for Inactive)
REMARK    1  A    between atoms: C1_2  and  C2_3 
REMARK    2  A    between atoms: C2_3  and  C3_4 
ROOT
ATOM      1  C3  UNL d   1       2.278  -0.388  -1.141  0.00  0.00    -0.075 A 
ATOM      2  C4  UNL d   1       1.235  -0.853  -0.328  0.00  0.00     0.002 A 
ATOM      3  C5  UNL d   1       0.545   0.023   0.511  0.00  0.00     0.002 A 
ATOM      4  C6  UNL d   1       0.895   1.371   0.554  0.00  0.00    -0.004 A 
ATOM      5  C7  UNL d   1       1.941   1.841  -0.238  0.00  0.00     0.002 A 
ATOM      6  C8  UNL d   1       2.630   0.967  -1.081  0.00  0.00     0.002 A 
ENDROOT
BRANCH   1   7
ATOM      7  C2  UNL d   1       3.008  -1.326  -2.073  0.00  0.00     0.056 C 
BRANCH   7   8
ATOM      8  C1  UNL d   1       4.021  -2.238  -1.372  0.00  0.00     0.007 C 
ATOM      9  C   UNL d   1       5.301  -1.517  -0.972  0.00  0.00     0.009 C 
ENDBRANCH   7   8
ENDBRANCH   1   7
TORSDOF 2
ENDMDL
