MODEL 1
REMARK minimizedAffinity -1.11846936
REMARK minimizedRMSD -1
REMARK  2 active torsions:
REMARK  status: ('A' for Active; 'I' for Inactive)
REMARK    1  A    between atoms: C1_2  and  C2_3 
REMARK    2  A    between atoms: C2_3  and  C3_4 
ROOT
ATOM      1  C3  UNL d   1       2.570   0.275  -0.896  0.00  0.00    -0.075 A 
ATOM      2  C4  UNL d   1       3.948   0.035  -0.794  0.00  0.00     0.002 A 
ATOM      3  C5  UNL d   1       4.636  -0.595  -1.832  0.00  0.00     0.002 A 
ATOM      4  C6  UNL d   1       3.955  -1.001  -2.978  0.00  0.00    -0.004 A 
ATOM      5  C7  UNL d   1       2.583  -0.782  -3.083  0.00  0.00     0.002 A 
ATOM      6  C8  UNL d   1       1.893  -0.148  -2.048  0.00  0.00     0.002 A 
ENDROOT
BRANCH   1   7
ATOM      7  C2  UNL d   1       1.825   0.982   0.211  0.00  0.00     0.056 C 
BRANCH   7   8
ATOM      8  C1  UNL d   1       0.386   0.493   0.406  0.00  0.00     0.007 C 
ATOM      9  C   UNL d   1      -0.641   1.338  -0.336  0.00  0.00     0.009 C 
ENDBRANCH   7   8
ENDBRANCH   1   7
TORSDOF 2
ENDMDL
