MODEL 1
REMARK minimizedAffinity 6.653018
REMARK minimizedRMSD -1
REMARK  2 active torsions:
REMARK  status: ('A' for Active; 'I' for Inactive)
REMARK    1  A    between atoms: C1_2  and  C2_3 
REMARK    2  A    between atoms: C2_3  and  C3_4 
ROOT
ATOM      1  C3  UNL d   1       1.450   0.053  -0.565  0.00  0.00    -0.075 A 
ATOM      2  C4  UNL d   1       0.916  -0.382  -1.786  0.00  0.00     0.002 A 
ATOM      3  C5  UNL d   1       1.755  -0.820  -2.811  0.00  0.00     0.002 A 
ATOM      4  C6  UNL d   1       3.137  -0.819  -2.632  0.00  0.00    -0.004 A 
ATOM      5  C7  UNL d   1       3.680  -0.373  -1.429  0.00  0.00     0.002 A 
ATOM      6  C8  UNL d   1       2.842   0.061  -0.400  0.00  0.00     0.002 A 
ENDROOT
BRANCH   1   7
ATOM      7  C2  UNL d   1       0.546   0.501   0.558  0.00  0.00     0.056 C 
BRANCH   7   8
ATOM      8  C1  UNL d   1       1.199   1.491   1.529  0.00  0.00     0.007 C 
ATOM      9  C   UNL d   1       0.863   1.212   2.988  0.00  0.00     0.009 C 
ENDBRANCH   7   8
ENDBRANCH   1   7
TORSDOF 2
ENDMDL
