MODEL 1
REMARK minimizedAffinity -0.219841436
REMARK minimizedRMSD -1
REMARK  2 active torsions:
REMARK  status: ('A' for Active; 'I' for Inactive)
REMARK    1  A    between atoms: C1_2  and  C2_3 
REMARK    2  A    between atoms: C2_3  and  C3_4 
ROOT
ATOM      1  C3  UNL d   1      -3.837  -2.051   1.496  0.00  0.00    -0.075 A 
ATOM      2  C4  UNL d   1      -2.675  -2.711   1.922  0.00  0.00     0.002 A 
ATOM      3  C5  UNL d   1      -2.005  -3.588   1.069  0.00  0.00     0.002 A 
ATOM      4  C6  UNL d   1      -2.492  -3.823  -0.215  0.00  0.00    -0.004 A 
ATOM      5  C7  UNL d   1      -3.654  -3.185  -0.643  0.00  0.00     0.002 A 
ATOM      6  C8  UNL d   1      -4.324  -2.304   0.207  0.00  0.00     0.002 A 
ENDROOT
BRANCH   1   7
ATOM      7  C2  UNL d   1      -4.550  -1.079   2.405  0.00  0.00     0.056 C 
BRANCH   7   8
ATOM      8  C1  UNL d   1      -4.687   0.333   1.824  0.00  0.00     0.007 C 
ATOM      9  C   UNL d   1      -3.371   1.098   1.789  0.00  0.00     0.009 C 
ENDBRANCH   7   8
ENDBRANCH   1   7
TORSDOF 2
ENDMDL
