MODEL 1
REMARK minimizedAffinity 5.54288435
REMARK minimizedRMSD -1
REMARK  2 active torsions:
REMARK  status: ('A' for Active; 'I' for Inactive)
REMARK    1  A    between atoms: C1_2  and  C2_3 
REMARK    2  A    between atoms: C2_3  and  C3_4 
ROOT
ATOM      1  C3  UNL d   1      -2.262   2.123  -5.921  0.00  0.00    -0.075 A 
ATOM      2  C4  UNL d   1      -2.007   3.502  -5.939  0.00  0.00     0.002 A 
ATOM      3  C5  UNL d   1      -3.060   4.416  -5.973  0.00  0.00     0.002 A 
ATOM      4  C6  UNL d   1      -4.377   3.966  -6.000  0.00  0.00    -0.004 A 
ATOM      5  C7  UNL d   1      -4.642   2.598  -5.999  0.00  0.00     0.002 A 
ATOM      6  C8  UNL d   1      -3.591   1.680  -5.960  0.00  0.00     0.002 A 
ENDROOT
BRANCH   1   7
ATOM      7  C2  UNL d   1      -1.128   1.128  -5.854  0.00  0.00     0.056 C 
BRANCH   7   8
ATOM      8  C1  UNL d   1      -1.068   0.337  -4.543  0.00  0.00     0.007 C 
ATOM      9  C   UNL d   1       0.351  -0.012  -4.116  0.00  0.00     0.009 C 
ENDBRANCH   7   8
ENDBRANCH   1   7
TORSDOF 2
ENDMDL
