MODEL 1
REMARK minimizedAffinity -1.01123619
REMARK minimizedRMSD -1
REMARK  2 active torsions:
REMARK  status: ('A' for Active; 'I' for Inactive)
REMARK    1  A    between atoms: C1_2  and  C2_3 
REMARK    2  A    between atoms: C2_3  and  C3_4 
ROOT
ATOM      1  C3  UNL d   1      -3.270   2.210  -5.908  0.00  0.00    -0.075 A 
ATOM      2  C4  UNL d   1      -4.516   2.850  -5.962  0.00  0.00     0.002 A 
ATOM      3  C5  UNL d   1      -4.596   4.243  -6.000  0.00  0.00     0.002 A 
ATOM      4  C6  UNL d   1      -3.434   5.011  -5.973  0.00  0.00    -0.004 A 
ATOM      5  C7  UNL d   1      -2.191   4.385  -5.902  0.00  0.00     0.002 A 
ATOM      6  C8  UNL d   1      -2.108   2.992  -5.868  0.00  0.00     0.002 A 
ENDROOT
BRANCH   1   7
ATOM      7  C2  UNL d   1      -3.176   0.702  -5.897  0.00  0.00     0.056 C 
BRANCH   7   8
ATOM      8  C1  UNL d   1      -4.375   0.008  -5.242  0.00  0.00     0.007 C 
ATOM      9  C   UNL d   1      -4.818  -1.248  -5.982  0.00  0.00     0.009 C 
ENDBRANCH   7   8
ENDBRANCH   1   7
TORSDOF 2
ENDMDL
