MODEL 1
REMARK minimizedAffinity -1.18590951
REMARK minimizedRMSD -1
REMARK  2 active torsions:
REMARK  status: ('A' for Active; 'I' for Inactive)
REMARK    1  A    between atoms: C1_2  and  C2_3 
REMARK    2  A    between atoms: C2_3  and  C3_4 
ROOT
ATOM      1  C3  UNL d   1      -2.905   0.767  -5.974  0.00  0.00    -0.075 A 
ATOM      2  C4  UNL d   1      -1.898   1.742  -5.966  0.00  0.00     0.002 A 
ATOM      3  C5  UNL d   1      -2.224   3.099  -5.962  0.00  0.00     0.002 A 
ATOM      4  C6  UNL d   1      -3.559   3.497  -5.976  0.00  0.00    -0.004 A 
ATOM      5  C7  UNL d   1      -4.569   2.537  -6.000  0.00  0.00     0.002 A 
ATOM      6  C8  UNL d   1      -4.245   1.179  -6.000  0.00  0.00     0.002 A 
ENDROOT
BRANCH   1   7
ATOM      7  C2  UNL d   1      -2.559  -0.702  -5.949  0.00  0.00     0.056 C 
BRANCH   7   8
ATOM      8  C1  UNL d   1      -3.776  -1.631  -5.996  0.00  0.00     0.007 C 
ATOM      9  C   UNL d   1      -3.405  -3.108  -5.999  0.00  0.00     0.009 C 
ENDBRANCH   7   8
ENDBRANCH   1   7
TORSDOF 2
ENDMDL
