MODEL 1
REMARK minimizedAffinity 5.71944618
REMARK minimizedRMSD -1
REMARK  2 active torsions:
REMARK  status: ('A' for Active; 'I' for Inactive)
REMARK    1  A    between atoms: C1_2  and  C2_3 
REMARK    2  A    between atoms: C2_3  and  C3_4 
ROOT
ATOM      1  C3  UNL d   1       2.524   1.214  -1.104  0.00  0.00    -0.075 A 
ATOM      2  C4  UNL d   1       1.991   0.221  -0.269  0.00  0.00     0.002 A 
ATOM      3  C5  UNL d   1       1.199  -0.799  -0.797  0.00  0.00     0.002 A 
ATOM      4  C6  UNL d   1       0.922  -0.833  -2.162  0.00  0.00    -0.004 A 
ATOM      5  C7  UNL d   1       1.432   0.157  -2.998  0.00  0.00     0.002 A 
ATOM      6  C8  UNL d   1       2.229   1.176  -2.473  0.00  0.00     0.002 A 
ENDROOT
BRANCH   1   7
ATOM      7  C2  UNL d   1       3.406   2.304  -0.543  0.00  0.00     0.056 C 
BRANCH   7   8
ATOM      8  C1  UNL d   1       4.880   2.181  -0.944  0.00  0.00     0.007 C 
ATOM      9  C   UNL d   1       5.608   1.057  -0.218  0.00  0.00     0.009 C 
ENDBRANCH   7   8
ENDBRANCH   1   7
TORSDOF 2
ENDMDL
