MODEL 1
REMARK minimizedAffinity -1.87646949
REMARK minimizedRMSD -1
REMARK  2 active torsions:
REMARK  status: ('A' for Active; 'I' for Inactive)
REMARK    1  A    between atoms: C1_2  and  C2_3 
REMARK    2  A    between atoms: C2_3  and  C3_4 
ROOT
ATOM      1  C3  UNL d   1      -4.538   1.851  -5.971  0.00  0.00    -0.075 A 
ATOM      2  C4  UNL d   1      -5.548   2.824  -5.993  0.00  0.00     0.002 A 
ATOM      3  C5  UNL d   1      -5.224   4.181  -5.996  0.00  0.00     0.002 A 
ATOM      4  C6  UNL d   1      -3.890   4.582  -5.966  0.00  0.00    -0.004 A 
ATOM      5  C7  UNL d   1      -2.879   3.624  -5.926  0.00  0.00     0.002 A 
ATOM      6  C8  UNL d   1      -3.200   2.265  -5.928  0.00  0.00     0.002 A 
ENDROOT
BRANCH   1   7
ATOM      7  C2  UNL d   1      -4.881   0.381  -5.998  0.00  0.00     0.056 C 
BRANCH   7   8
ATOM      8  C1  UNL d   1      -4.098  -0.461  -4.985  0.00  0.00     0.007 C 
ATOM      9  C   UNL d   1      -4.102  -1.949  -5.310  0.00  0.00     0.009 C 
ENDBRANCH   7   8
ENDBRANCH   1   7
TORSDOF 2
ENDMDL
