MODEL 1
REMARK minimizedAffinity 2.32076931
REMARK minimizedRMSD -1
REMARK  2 active torsions:
REMARK  status: ('A' for Active; 'I' for Inactive)
REMARK    1  A    between atoms: C1_2  and  C2_3 
REMARK    2  A    between atoms: C2_3  and  C3_4 
ROOT
ATOM      1  C3  UNL d   1       0.001   0.195  -0.586  0.00  0.00    -0.075 A 
ATOM      2  C4  UNL d   1       0.201  -0.249  -1.901  0.00  0.00     0.002 A 
ATOM      3  C5  UNL d   1       1.489  -0.491  -2.379  0.00  0.00     0.002 A 
ATOM      4  C6  UNL d   1       2.592  -0.284  -1.554  0.00  0.00    -0.004 A 
ATOM      5  C7  UNL d   1       2.406   0.173  -0.251  0.00  0.00     0.002 A 
ATOM      6  C8  UNL d   1       1.118   0.412   0.232  0.00  0.00     0.002 A 
ENDROOT
BRANCH   1   7
ATOM      7  C2  UNL d   1      -1.392   0.431  -0.053  0.00  0.00     0.056 C 
BRANCH   7   8
ATOM      8  C1  UNL d   1      -1.665   1.881   0.358  0.00  0.00     0.007 C 
ATOM      9  C   UNL d   1      -2.576   2.000   1.573  0.00  0.00     0.009 C 
ENDBRANCH   7   8
ENDBRANCH   1   7
TORSDOF 2
ENDMDL
