MODEL 1
REMARK minimizedAffinity -2.4042182
REMARK minimizedRMSD -1
REMARK  2 active torsions:
REMARK  status: ('A' for Active; 'I' for Inactive)
REMARK    1  A    between atoms: C1_2  and  C2_3 
REMARK    2  A    between atoms: C2_3  and  C3_4 
ROOT
ATOM      1  C3  UNL d   1      -3.635  -0.482  -5.982  0.00  0.00    -0.075 A 
ATOM      2  C4  UNL d   1      -4.335   0.733  -5.962  0.00  0.00     0.002 A 
ATOM      3  C5  UNL d   1      -3.647   1.947  -5.975  0.00  0.00     0.002 A 
ATOM      4  C6  UNL d   1      -2.254   1.962  -5.997  0.00  0.00    -0.004 A 
ATOM      5  C7  UNL d   1      -1.549   0.760  -6.000  0.00  0.00     0.002 A 
ATOM      6  C8  UNL d   1      -2.234  -0.456  -5.992  0.00  0.00     0.002 A 
ENDROOT
BRANCH   1   7
ATOM      7  C2  UNL d   1      -4.374  -1.799  -5.999  0.00  0.00     0.056 C 
BRANCH   7   8
ATOM      8  C1  UNL d   1      -3.695  -2.905  -5.184  0.00  0.00     0.007 C 
ATOM      9  C   UNL d   1      -3.702  -4.257  -5.886  0.00  0.00     0.009 C 
ENDBRANCH   7   8
ENDBRANCH   1   7
TORSDOF 2
ENDMDL
