MODEL 1
REMARK minimizedAffinity 2.70958567
REMARK minimizedRMSD -1
REMARK  2 active torsions:
REMARK  status: ('A' for Active; 'I' for Inactive)
REMARK    1  A    between atoms: C1_2  and  C2_3 
REMARK    2  A    between atoms: C2_3  and  C3_4 
ROOT
ATOM      1  C3  UNL d   1      -5.133   1.307  -5.267  0.00  0.00    -0.075 A 
ATOM      2  C4  UNL d   1      -3.732   1.351  -5.303  0.00  0.00     0.002 A 
ATOM      3  C5  UNL d   1      -2.997   0.223  -5.670  0.00  0.00     0.002 A 
ATOM      4  C6  UNL d   1      -3.652  -0.962  -5.996  0.00  0.00    -0.004 A 
ATOM      5  C7  UNL d   1      -5.043  -1.022  -5.948  0.00  0.00     0.002 A 
ATOM      6  C8  UNL d   1      -5.781   0.106  -5.585  0.00  0.00     0.002 A 
ENDROOT
BRANCH   1   7
ATOM      7  C2  UNL d   1      -5.935   2.533  -4.899  0.00  0.00     0.056 C 
BRANCH   7   8
ATOM      8  C1  UNL d   1      -5.989   3.597  -6.000  0.00  0.00     0.007 C 
ATOM      9  C   UNL d   1      -4.780   4.524  -5.998  0.00  0.00     0.009 C 
ENDBRANCH   7   8
ENDBRANCH   1   7
TORSDOF 2
ENDMDL
