MODEL 1
REMARK minimizedAffinity 1.28581619
REMARK minimizedRMSD -1
REMARK  0 active torsions:
REMARK  status: ('A' for Active; 'I' for Inactive)
ROOT
ATOM      1  C   UNL d   1       0.984   5.974   5.971  0.00  0.00     0.077 C 
ATOM      2  C1  UNL d   1       2.261   5.188   5.974  0.00  0.00    -0.074 A 
ATOM      3  C2  UNL d   1       3.502   5.833   5.987  0.00  0.00    -0.005 A 
ATOM      4  C3  UNL d   1       4.681   5.088   6.000  0.00  0.00     0.006 A 
ATOM      5  C4  UNL d   1       4.632   3.693   6.000  0.00  0.00    -0.005 A 
ATOM      6  C5  UNL d   1       3.400   3.031   5.988  0.00  0.00    -0.074 A 
ATOM      7  C6  UNL d   1       3.329   1.533   5.998  0.00  0.00     0.077 C 
ATOM      8  C7  UNL d   1       2.220   3.786   5.983  0.00  0.00    -0.001 A 
ENDROOT
TORSDOF 0
ENDMDL
