MODEL 1
REMARK minimizedAffinity -4.48881245
REMARK minimizedRMSD -1
REMARK  0 active torsions:
REMARK  status: ('A' for Active; 'I' for Inactive)
ROOT
ATOM      1  C   UNL d   1       1.895   4.285   5.610  0.00  0.00     0.077 C 
ATOM      2  C1  UNL d   1       3.117   3.544   5.156  0.00  0.00    -0.074 A 
ATOM      3  C2  UNL d   1       3.753   2.624   5.996  0.00  0.00    -0.005 A 
ATOM      4  C3  UNL d   1       4.883   1.934   5.556  0.00  0.00     0.006 A 
ATOM      5  C4  UNL d   1       5.388   2.157   4.275  0.00  0.00    -0.005 A 
ATOM      6  C5  UNL d   1       4.765   3.072   3.421  0.00  0.00    -0.074 A 
ATOM      7  C6  UNL d   1       5.289   3.317   2.037  0.00  0.00     0.077 C 
ATOM      8  C7  UNL d   1       3.626   3.756   3.867  0.00  0.00    -0.001 A 
ENDROOT
TORSDOF 0
ENDMDL
