MODEL 1
REMARK minimizedAffinity 4.45030451
REMARK minimizedRMSD -1
REMARK  0 active torsions:
REMARK  status: ('A' for Active; 'I' for Inactive)
ROOT
ATOM      1  C   UNL d   1       1.501  -0.680   4.449  0.00  0.00     0.077 C 
ATOM      2  C1  UNL d   1       1.291  -2.131   4.765  0.00  0.00    -0.074 A 
ATOM      3  C2  UNL d   1       2.089  -2.784   5.709  0.00  0.00    -0.005 A 
ATOM      4  C3  UNL d   1       1.875  -4.131   6.000  0.00  0.00     0.006 A 
ATOM      5  C4  UNL d   1       0.863  -4.838   5.351  0.00  0.00    -0.005 A 
ATOM      6  C5  UNL d   1       0.053  -4.201   4.404  0.00  0.00    -0.074 A 
ATOM      7  C6  UNL d   1      -1.046  -4.944   3.704  0.00  0.00     0.077 C 
ATOM      8  C7  UNL d   1       0.270  -2.845   4.123  0.00  0.00    -0.001 A 
ENDROOT
TORSDOF 0
ENDMDL
