MODEL 1
REMARK minimizedAffinity 5.03068829
REMARK minimizedRMSD -1
REMARK  0 active torsions:
REMARK  status: ('A' for Active; 'I' for Inactive)
ROOT
ATOM      1  C   UNL d   1      -6.000   3.051  -1.481  0.00  0.00     0.077 C 
ATOM      2  C1  UNL d   1      -5.221   2.950  -0.204  0.00  0.00    -0.074 A 
ATOM      3  C2  UNL d   1      -5.429   1.890   0.684  0.00  0.00    -0.005 A 
ATOM      4  C3  UNL d   1      -4.690   1.804   1.864  0.00  0.00     0.006 A 
ATOM      5  C4  UNL d   1      -3.737   2.777   2.168  0.00  0.00    -0.005 A 
ATOM      6  C5  UNL d   1      -3.514   3.844   1.292  0.00  0.00    -0.074 A 
ATOM      7  C6  UNL d   1      -2.486   4.892   1.598  0.00  0.00     0.077 C 
ATOM      8  C7  UNL d   1      -4.255   3.919   0.105  0.00  0.00    -0.001 A 
ENDROOT
TORSDOF 0
ENDMDL
