MODEL 1
REMARK minimizedAffinity -1.16519415
REMARK minimizedRMSD -1
REMARK  0 active torsions:
REMARK  status: ('A' for Active; 'I' for Inactive)
ROOT
ATOM      1  C   UNL d   1       3.757   1.016   5.995  0.00  0.00     0.077 C 
ATOM      2  C1  UNL d   1       3.753   2.491   5.721  0.00  0.00    -0.074 A 
ATOM      3  C2  UNL d   1       4.883   3.128   5.198  0.00  0.00    -0.005 A 
ATOM      4  C3  UNL d   1       4.861   4.498   4.940  0.00  0.00     0.006 A 
ATOM      5  C4  UNL d   1       3.711   5.245   5.200  0.00  0.00    -0.005 A 
ATOM      6  C5  UNL d   1       2.571   4.625   5.722  0.00  0.00    -0.074 A 
ATOM      7  C6  UNL d   1       1.324   5.410   5.999  0.00  0.00     0.077 C 
ATOM      8  C7  UNL d   1       2.599   3.246   5.973  0.00  0.00    -0.001 A 
ENDROOT
TORSDOF 0
ENDMDL
