MODEL 1
REMARK minimizedAffinity 11.091568
REMARK minimizedRMSD -1
REMARK  0 active torsions:
REMARK  status: ('A' for Active; 'I' for Inactive)
ROOT
ATOM      1  C   UNL d   1       5.999   2.975   1.757  0.00  0.00     0.077 C 
ATOM      2  C1  UNL d   1       5.235   3.180   3.031  0.00  0.00    -0.074 A 
ATOM      3  C2  UNL d   1       5.270   4.407   3.700  0.00  0.00    -0.005 A 
ATOM      4  C3  UNL d   1       4.546   4.586   4.879  0.00  0.00     0.006 A 
ATOM      5  C4  UNL d   1       3.782   3.541   5.400  0.00  0.00    -0.005 A 
ATOM      6  C5  UNL d   1       3.735   2.307   4.744  0.00  0.00    -0.074 A 
ATOM      7  C6  UNL d   1       2.912   1.176   5.285  0.00  0.00     0.077 C 
ATOM      8  C7  UNL d   1       4.459   2.137   3.556  0.00  0.00    -0.001 A 
ENDROOT
TORSDOF 0
ENDMDL
