MODEL 1
REMARK minimizedAffinity 1.11545753
REMARK minimizedRMSD -1
REMARK  0 active torsions:
REMARK  status: ('A' for Active; 'I' for Inactive)
ROOT
ATOM      1  C   UNL d   1       3.516   1.392   5.999  0.00  0.00     0.077 C 
ATOM      2  C1  UNL d   1       3.540   2.891   5.989  0.00  0.00    -0.074 A 
ATOM      3  C2  UNL d   1       4.751   3.591   5.953  0.00  0.00    -0.005 A 
ATOM      4  C3  UNL d   1       4.757   4.985   5.935  0.00  0.00     0.006 A 
ATOM      5  C4  UNL d   1       3.555   5.694   5.953  0.00  0.00    -0.005 A 
ATOM      6  C5  UNL d   1       2.335   5.012   5.989  0.00  0.00    -0.074 A 
ATOM      7  C6  UNL d   1       1.034   5.757   5.999  0.00  0.00     0.077 C 
ATOM      8  C7  UNL d   1       2.337   3.610   6.000  0.00  0.00    -0.001 A 
ENDROOT
TORSDOF 0
ENDMDL
