MODEL 1
REMARK minimizedAffinity -2.88703561
REMARK minimizedRMSD -1
REMARK  0 active torsions:
REMARK  status: ('A' for Active; 'I' for Inactive)
ROOT
ATOM      1  C   UNL d   1       3.083   1.530   6.000  0.00  0.00     0.077 C 
ATOM      2  C1  UNL d   1       4.034   2.400   5.233  0.00  0.00    -0.074 A 
ATOM      3  C2  UNL d   1       4.392   2.088   3.918  0.00  0.00    -0.005 A 
ATOM      4  C3  UNL d   1       5.270   2.912   3.213  0.00  0.00     0.006 A 
ATOM      5  C4  UNL d   1       5.797   4.055   3.816  0.00  0.00    -0.005 A 
ATOM      6  C5  UNL d   1       5.450   4.383   5.130  0.00  0.00    -0.074 A 
ATOM      7  C6  UNL d   1       6.000   5.613   5.790  0.00  0.00     0.077 C 
ATOM      8  C7  UNL d   1       4.562   3.554   5.829  0.00  0.00    -0.001 A 
ENDROOT
TORSDOF 0
ENDMDL
