MODEL 1
REMARK minimizedAffinity -4.10679579
REMARK minimizedRMSD -1
REMARK  0 active torsions:
REMARK  status: ('A' for Active; 'I' for Inactive)
ROOT
ATOM      1  C   UNL d   1       3.393   0.743   6.000  0.00  0.00     0.077 C 
ATOM      2  C1  UNL d   1       3.719   2.202   5.877  0.00  0.00    -0.074 A 
ATOM      3  C2  UNL d   1       5.029   2.627   5.632  0.00  0.00    -0.005 A 
ATOM      4  C3  UNL d   1       5.316   3.986   5.510  0.00  0.00     0.006 A 
ATOM      5  C4  UNL d   1       4.298   4.933   5.632  0.00  0.00    -0.005 A 
ATOM      6  C5  UNL d   1       2.983   4.527   5.876  0.00  0.00    -0.074 A 
ATOM      7  C6  UNL d   1       1.875   5.531   6.000  0.00  0.00     0.077 C 
ATOM      8  C7  UNL d   1       2.701   3.158   5.990  0.00  0.00    -0.001 A 
ENDROOT
TORSDOF 0
ENDMDL
