MODEL 1
REMARK minimizedAffinity 2.84339714
REMARK minimizedRMSD -1
REMARK  0 active torsions:
REMARK  status: ('A' for Active; 'I' for Inactive)
ROOT
ATOM      1  C   UNL d   1       5.260   2.993   1.981  0.00  0.00     0.077 C 
ATOM      2  C1  UNL d   1       4.785   3.228   3.384  0.00  0.00    -0.074 A 
ATOM      3  C2  UNL d   1       5.296   2.480   4.450  0.00  0.00    -0.005 A 
ATOM      4  C3  UNL d   1       4.852   2.716   5.751  0.00  0.00     0.006 A 
ATOM      5  C4  UNL d   1       3.894   3.701   5.999  0.00  0.00    -0.005 A 
ATOM      6  C5  UNL d   1       3.373   4.459   4.946  0.00  0.00    -0.074 A 
ATOM      7  C6  UNL d   1       2.351   5.528   5.197  0.00  0.00     0.077 C 
ATOM      8  C7  UNL d   1       3.829   4.221   3.643  0.00  0.00    -0.001 A 
ENDROOT
TORSDOF 0
ENDMDL
