MODEL 1
REMARK minimizedAffinity 2.89716387
REMARK minimizedRMSD -1
REMARK  0 active torsions:
REMARK  status: ('A' for Active; 'I' for Inactive)
ROOT
ATOM      1  C   UNL d   1       5.563   3.375   3.048  0.00  0.00     0.077 C 
ATOM      2  C1  UNL d   1       4.512   3.066   4.072  0.00  0.00    -0.074 A 
ATOM      3  C2  UNL d   1       4.360   1.771   4.578  0.00  0.00    -0.005 A 
ATOM      4  C3  UNL d   1       3.384   1.500   5.537  0.00  0.00     0.006 A 
ATOM      5  C4  UNL d   1       2.551   2.520   6.000  0.00  0.00    -0.005 A 
ATOM      6  C5  UNL d   1       2.689   3.821   5.506  0.00  0.00    -0.074 A 
ATOM      7  C6  UNL d   1       1.809   4.931   6.000  0.00  0.00     0.077 C 
ATOM      8  C7  UNL d   1       3.677   4.087   4.548  0.00  0.00    -0.001 A 
ENDROOT
TORSDOF 0
ENDMDL
