MODEL 1
REMARK minimizedAffinity 1.25918293
REMARK minimizedRMSD -1
REMARK  0 active torsions:
REMARK  status: ('A' for Active; 'I' for Inactive)
ROOT
ATOM      1  C   UNL d   1      -2.161   0.084   2.082  0.00  0.00     0.023 A 
ATOM      2  C1  UNL d   1      -1.807  -0.096   0.744  0.00  0.00     0.003 A 
ATOM      3  C2  UNL d   1      -0.722  -0.908   0.411  0.00  0.00     0.048 A 
ATOM      4  C3  UNL d   1       0.005  -1.539   1.420  0.00  0.00     0.023 A 
ATOM      5  C4  UNL d   1      -0.346  -1.363   2.760  0.00  0.00     0.048 A 
ATOM      6  C5  UNL d   1      -1.431  -0.549   3.088  0.00  0.00     0.003 A 
ATOM      7  I   UNL d   1       1.621  -2.750   0.927  0.00  0.00    -0.146 I 
ENDROOT
TORSDOF 0
ENDMDL
