MODEL 1
REMARK minimizedAffinity 6.63102579
REMARK minimizedRMSD -1
REMARK  0 active torsions:
REMARK  status: ('A' for Active; 'I' for Inactive)
ROOT
ATOM      1  C   UNL d   1      -2.200  -0.468   2.293  0.00  0.00     0.023 A 
ATOM      2  C1  UNL d   1      -2.476  -0.183   0.956  0.00  0.00     0.003 A 
ATOM      3  C2  UNL d   1      -1.433  -0.084   0.032  0.00  0.00     0.048 A 
ATOM      4  C3  UNL d   1      -0.117  -0.272   0.453  0.00  0.00     0.023 A 
ATOM      5  C4  UNL d   1       0.163  -0.558   1.790  0.00  0.00     0.048 A 
ATOM      6  C5  UNL d   1      -0.883  -0.655   2.710  0.00  0.00     0.003 A 
ATOM      7  I   UNL d   1       1.437  -0.126  -0.919  0.00  0.00    -0.146 I 
ENDROOT
TORSDOF 0
ENDMDL
