MODEL 1
REMARK minimizedAffinity -4.26278448
REMARK minimizedRMSD -1
REMARK  1 active torsions:
REMARK  status: ('A' for Active; 'I' for Inactive)
REMARK    1  A    between atoms: C1_2  and  C2_3 
ROOT
ATOM      1  C2  UNL d   1      -0.232   0.693   0.652  0.00  0.00    -0.076 A 
ATOM      2  C3  UNL d   1      -0.589   1.604   1.662  0.00  0.00     0.004 A 
ATOM      3  C4  UNL d   1      -0.884   2.932   1.358  0.00  0.00    -0.003 A 
ATOM      4  C5  UNL d   1      -0.828   3.371   0.040  0.00  0.00     0.000 A 
ATOM      5  C6  UNL d   1      -0.493   2.477  -0.976  0.00  0.00     0.000 A 
ATOM      6  C7  UNL d   1      -0.208   1.130  -0.689  0.00  0.00    -0.073 A 
ATOM      7  C8  UNL d   1       0.153   0.211  -1.824  0.00  0.00     0.078 C 
ENDROOT
BRANCH   1   8
ATOM      8  C1  UNL d   1       0.103  -0.728   1.045  0.00  0.00     0.053 C 
ATOM      9  C   UNL d   1       0.787  -0.811   2.401  0.00  0.00     0.018 C 
ENDBRANCH   1   8
TORSDOF 1
ENDMDL
