MODEL 1
REMARK minimizedAffinity -5.63454437
REMARK minimizedRMSD -1
REMARK  1 active torsions:
REMARK  status: ('A' for Active; 'I' for Inactive)
REMARK    1  A    between atoms: C1_2  and  C2_3 
ROOT
ATOM      1  C2  UNL d   1      -0.164   0.687  -0.176  0.00  0.00    -0.076 A 
ATOM      2  C3  UNL d   1      -0.402   1.825  -0.967  0.00  0.00     0.004 A 
ATOM      3  C4  UNL d   1      -0.730   3.047  -0.384  0.00  0.00    -0.003 A 
ATOM      4  C5  UNL d   1      -0.824   3.153   1.000  0.00  0.00     0.000 A 
ATOM      5  C6  UNL d   1      -0.574   2.039   1.800  0.00  0.00     0.000 A 
ATOM      6  C7  UNL d   1      -0.226   0.802   1.229  0.00  0.00    -0.073 A 
ATOM      7  C8  UNL d   1       0.028  -0.368   2.139  0.00  0.00     0.078 C 
ENDROOT
BRANCH   1   8
ATOM      8  C1  UNL d   1       0.161  -0.619  -0.866  0.00  0.00     0.053 C 
ATOM      9  C   UNL d   1       1.066  -0.431  -2.074  0.00  0.00     0.018 C 
ENDBRANCH   1   8
TORSDOF 1
ENDMDL
