MODEL 1
REMARK minimizedAffinity -5.38545227
REMARK minimizedRMSD -1
REMARK  1 active torsions:
REMARK  status: ('A' for Active; 'I' for Inactive)
REMARK    1  A    between atoms: C1_2  and  C2_3 
ROOT
ATOM      1  C2  UNL d   1      -0.032   0.772  -0.207  0.00  0.00    -0.076 A 
ATOM      2  C3  UNL d   1      -0.813   1.800  -0.765  0.00  0.00     0.004 A 
ATOM      3  C4  UNL d   1      -1.390   2.781   0.040  0.00  0.00    -0.003 A 
ATOM      4  C5  UNL d   1      -1.194   2.751   1.417  0.00  0.00     0.000 A 
ATOM      5  C6  UNL d   1      -0.408   1.749   1.986  0.00  0.00     0.000 A 
ATOM      6  C7  UNL d   1       0.194   0.762   1.187  0.00  0.00    -0.073 A 
ATOM      7  C8  UNL d   1       1.026  -0.298   1.854  0.00  0.00     0.078 C 
ENDROOT
BRANCH   1   8
ATOM      8  C1  UNL d   1       0.545  -0.280  -1.126  0.00  0.00     0.053 C 
ATOM      9  C   UNL d   1      -0.196  -1.604  -1.034  0.00  0.00     0.018 C 
ENDBRANCH   1   8
TORSDOF 1
ENDMDL
