MODEL 1
REMARK minimizedAffinity -4.38896608
REMARK minimizedRMSD -1
REMARK  1 active torsions:
REMARK  status: ('A' for Active; 'I' for Inactive)
REMARK    1  A    between atoms: C1_2  and  C2_3 
ROOT
ATOM      1  C2  UNL d   1      -0.315   0.981  -0.038  0.00  0.00    -0.076 A 
ATOM      2  C3  UNL d   1      -0.588   1.518  -1.308  0.00  0.00     0.004 A 
ATOM      3  C4  UNL d   1      -0.997   2.842  -1.455  0.00  0.00    -0.003 A 
ATOM      4  C5  UNL d   1      -1.139   3.652  -0.333  0.00  0.00     0.000 A 
ATOM      5  C6  UNL d   1      -0.856   3.141   0.933  0.00  0.00     0.000 A 
ATOM      6  C7  UNL d   1      -0.427   1.813   1.097  0.00  0.00    -0.073 A 
ATOM      7  C8  UNL d   1      -0.141   1.312   2.486  0.00  0.00     0.078 C 
ENDROOT
BRANCH   1   8
ATOM      8  C1  UNL d   1       0.099  -0.470   0.062  0.00  0.00     0.053 C 
ATOM      9  C   UNL d   1       0.674  -1.003  -1.241  0.00  0.00     0.018 C 
ENDBRANCH   1   8
TORSDOF 1
ENDMDL
