MODEL 1
REMARK minimizedAffinity -1.90892076
REMARK minimizedRMSD -1
REMARK  0 active torsions:
REMARK  status: ('A' for Active; 'I' for Inactive)
ROOT
ATOM      1  C   UNL d   1       2.010  -0.362   1.165  0.00  0.00     0.124 A 
ATOM      2  C1  UNL d   1       1.951   0.912   0.617  0.00  0.00     0.062 A 
ATOM      3  C2  UNL d   1       0.815   1.325  -0.073  0.00  0.00     0.162 A 
ATOM      4  C3  UNL d   1      -0.273   0.464  -0.218  0.00  0.00    -0.034 A 
ATOM      5  C4  UNL d   1      -0.206  -0.816   0.336  0.00  0.00     0.162 A 
ATOM      6  C5  UNL d   1       0.932  -1.224   1.024  0.00  0.00     0.062 A 
ATOM      7  F   UNL d   1       0.987  -2.455   1.554  0.00  0.00    -0.097 F 
ATOM      8  F1  UNL d   1      -1.233  -1.669   0.216  0.00  0.00    -0.096 F 
ATOM      9  I   UNL d   1      -1.973   1.078  -1.248  0.00  0.00    -0.060 I 
ATOM     10  F2  UNL d   1       0.786   2.561  -0.592  0.00  0.00    -0.096 F 
ATOM     11  F3  UNL d   1       2.992   1.747   0.751  0.00  0.00    -0.097 F 
ATOM     12  F4  UNL d   1       3.105  -0.757   1.828  0.00  0.00    -0.092 F 
ENDROOT
TORSDOF 0
ENDMDL
