MODEL 1
REMARK minimizedAffinity -2.32489467
REMARK minimizedRMSD -1
REMARK  0 active torsions:
REMARK  status: ('A' for Active; 'I' for Inactive)
ROOT
ATOM      1  C   UNL d   1       1.476  -0.767   1.208  0.00  0.00     0.124 A 
ATOM      2  C1  UNL d   1       0.270  -1.433   1.377  0.00  0.00     0.062 A 
ATOM      3  C2  UNL d   1      -0.835  -1.087   0.604  0.00  0.00     0.162 A 
ATOM      4  C3  UNL d   1      -0.739  -0.070  -0.346  0.00  0.00    -0.034 A 
ATOM      5  C4  UNL d   1       0.477   0.596  -0.509  0.00  0.00     0.162 A 
ATOM      6  C5  UNL d   1       1.578   0.246   0.266  0.00  0.00     0.062 A 
ATOM      7  F   UNL d   1       2.743   0.891   0.101  0.00  0.00    -0.097 F 
ATOM      8  F1  UNL d   1       0.604   1.579  -1.413  0.00  0.00    -0.096 F 
ATOM      9  I   UNL d   1      -2.388   0.451  -1.503  0.00  0.00    -0.060 I 
ATOM     10  F2  UNL d   1      -1.988  -1.748   0.788  0.00  0.00    -0.096 F 
ATOM     11  F3  UNL d   1       0.168  -2.412   2.287  0.00  0.00    -0.097 F 
ATOM     12  F4  UNL d   1       2.537  -1.101   1.953  0.00  0.00    -0.092 F 
ENDROOT
TORSDOF 0
ENDMDL
