MODEL 1
REMARK minimizedAffinity -2.90734196
REMARK minimizedRMSD -1
REMARK  0 active torsions:
REMARK  status: ('A' for Active; 'I' for Inactive)
ROOT
ATOM      1  C   UNL d   1       1.586  -0.642   1.478  0.00  0.00     0.124 A 
ATOM      2  C1  UNL d   1       1.651   0.467   0.646  0.00  0.00     0.062 A 
ATOM      3  C2  UNL d   1       0.539   0.850  -0.098  0.00  0.00     0.162 A 
ATOM      4  C3  UNL d   1      -0.649   0.123  -0.013  0.00  0.00    -0.034 A 
ATOM      5  C4  UNL d   1      -0.707  -0.991   0.825  0.00  0.00     0.162 A 
ATOM      6  C5  UNL d   1       0.407  -1.370   1.567  0.00  0.00     0.062 A 
ATOM      7  F   UNL d   1       0.343  -2.442   2.370  0.00  0.00    -0.097 F 
ATOM      8  F1  UNL d   1      -1.833  -1.712   0.931  0.00  0.00    -0.096 F 
ATOM      9  I   UNL d   1      -2.314   0.692  -1.125  0.00  0.00    -0.060 I 
ATOM     10  F2  UNL d   1       0.630   1.926  -0.894  0.00  0.00    -0.096 F 
ATOM     11  F3  UNL d   1       2.788   1.171   0.558  0.00  0.00    -0.097 F 
ATOM     12  F4  UNL d   1       2.657  -1.009   2.193  0.00  0.00    -0.092 F 
ENDROOT
TORSDOF 0
ENDMDL
