MODEL 1
REMARK minimizedAffinity -0.0415952839
REMARK minimizedRMSD -1
REMARK  0 active torsions:
REMARK  status: ('A' for Active; 'I' for Inactive)
ROOT
ATOM      1  C   UNL d   1       1.281  -0.349   1.169  0.00  0.00     0.124 A 
ATOM      2  C1  UNL d   1       0.175  -1.188   1.195  0.00  0.00     0.062 A 
ATOM      3  C2  UNL d   1      -0.835  -1.044   0.249  0.00  0.00     0.162 A 
ATOM      4  C3  UNL d   1      -0.745  -0.057  -0.733  0.00  0.00    -0.034 A 
ATOM      5  C4  UNL d   1       0.369   0.784  -0.752  0.00  0.00     0.162 A 
ATOM      6  C5  UNL d   1       1.377   0.636   0.196  0.00  0.00     0.062 A 
ATOM      7  F   UNL d   1       2.444   1.448   0.169  0.00  0.00    -0.097 F 
ATOM      8  F1  UNL d   1       0.488   1.743  -1.682  0.00  0.00    -0.096 F 
ATOM      9  I   UNL d   1      -2.254   0.161  -2.150  0.00  0.00    -0.060 I 
ATOM     10  F2  UNL d   1      -1.892  -1.869   0.298  0.00  0.00    -0.096 F 
ATOM     11  F3  UNL d   1       0.080  -2.139   2.135  0.00  0.00    -0.097 F 
ATOM     12  F4  UNL d   1       2.251  -0.489   2.081  0.00  0.00    -0.092 F 
ENDROOT
TORSDOF 0
ENDMDL
