MODEL 1
REMARK minimizedAffinity -4.42436934
REMARK minimizedRMSD -1
REMARK  0 active torsions:
REMARK  status: ('A' for Active; 'I' for Inactive)
ROOT
ATOM      1  C   UNL d   1       2.031  -0.639   1.888  0.00  0.00     0.124 A 
ATOM      2  C1  UNL d   1       0.972  -1.512   2.099  0.00  0.00     0.062 A 
ATOM      3  C2  UNL d   1      -0.219  -1.351   1.397  0.00  0.00     0.162 A 
ATOM      4  C3  UNL d   1      -0.357  -0.314   0.475  0.00  0.00    -0.034 A 
ATOM      5  C4  UNL d   1       0.711   0.560   0.268  0.00  0.00     0.162 A 
ATOM      6  C5  UNL d   1       1.899   0.396   0.972  0.00  0.00     0.062 A 
ATOM      7  F   UNL d   1       2.921   1.240   0.767  0.00  0.00    -0.097 F 
ATOM      8  F1  UNL d   1       0.612   1.568  -0.611  0.00  0.00    -0.096 F 
ATOM      9  I   UNL d   1      -2.136  -0.070  -0.578  0.00  0.00    -0.060 I 
ATOM     10  F2  UNL d   1      -1.225  -2.209   1.622  0.00  0.00    -0.096 F 
ATOM     11  F3  UNL d   1       1.096  -2.512   2.984  0.00  0.00    -0.097 F 
ATOM     12  F4  UNL d   1       3.175  -0.795   2.566  0.00  0.00    -0.092 F 
ENDROOT
TORSDOF 0
ENDMDL
