MODEL 1
REMARK minimizedAffinity 0.494915664
REMARK minimizedRMSD -1
REMARK  0 active torsions:
REMARK  status: ('A' for Active; 'I' for Inactive)
ROOT
ATOM      1  C   UNL d   1       1.824  -0.302   1.635  0.00  0.00     0.124 A 
ATOM      2  C1  UNL d   1       0.731  -1.157   1.591  0.00  0.00     0.062 A 
ATOM      3  C2  UNL d   1      -0.360  -0.857   0.781  0.00  0.00     0.162 A 
ATOM      4  C3  UNL d   1      -0.364   0.303   0.007  0.00  0.00    -0.034 A 
ATOM      5  C4  UNL d   1       0.737   1.159   0.057  0.00  0.00     0.162 A 
ATOM      6  C5  UNL d   1       1.826   0.855   0.868  0.00  0.00     0.062 A 
ATOM      7  F   UNL d   1       2.880   1.683   0.909  0.00  0.00    -0.097 F 
ATOM      8  F1  UNL d   1       0.766   2.283  -0.675  0.00  0.00    -0.096 F 
ATOM      9  I   UNL d   1      -1.994   0.754  -1.206  0.00  0.00    -0.060 I 
ATOM     10  F2  UNL d   1      -1.402  -1.702   0.758  0.00  0.00    -0.096 F 
ATOM     11  F3  UNL d   1       0.726  -2.274   2.332  0.00  0.00    -0.097 F 
ATOM     12  F4  UNL d   1       2.872  -0.592   2.416  0.00  0.00    -0.092 F 
ENDROOT
TORSDOF 0
ENDMDL
