MODEL 1
REMARK minimizedAffinity 4.58398056
REMARK minimizedRMSD -1
REMARK  0 active torsions:
REMARK  status: ('A' for Active; 'I' for Inactive)
ROOT
ATOM      1  C   UNL d   1       1.859  -0.571   1.850  0.00  0.00     0.124 A 
ATOM      2  C1  UNL d   1       1.983   0.493   0.967  0.00  0.00     0.062 A 
ATOM      3  C2  UNL d   1       0.919   0.845   0.142  0.00  0.00     0.162 A 
ATOM      4  C3  UNL d   1      -0.279   0.134   0.197  0.00  0.00    -0.034 A 
ATOM      5  C4  UNL d   1      -0.397  -0.935   1.087  0.00  0.00     0.162 A 
ATOM      6  C5  UNL d   1       0.670  -1.283   1.909  0.00  0.00     0.062 A 
ATOM      7  F   UNL d   1       0.548  -2.311   2.762  0.00  0.00    -0.097 F 
ATOM      8  F1  UNL d   1      -1.535  -1.640   1.165  0.00  0.00    -0.096 F 
ATOM      9  I   UNL d   1      -1.873   0.659  -1.035  0.00  0.00    -0.060 I 
ATOM     10  F2  UNL d   1       1.068   1.878  -0.701  0.00  0.00    -0.096 F 
ATOM     11  F3  UNL d   1       3.132   1.182   0.908  0.00  0.00    -0.097 F 
ATOM     12  F4  UNL d   1       2.885  -0.909   2.642  0.00  0.00    -0.092 F 
ENDROOT
TORSDOF 0
ENDMDL
