MODEL 1
REMARK minimizedAffinity -3.22415447
REMARK minimizedRMSD -1
REMARK  0 active torsions:
REMARK  status: ('A' for Active; 'I' for Inactive)
ROOT
ATOM      1  C   UNL d   1       1.718  -0.537   1.245  0.00  0.00     0.124 A 
ATOM      2  C1  UNL d   1       1.678   0.729   0.677  0.00  0.00     0.062 A 
ATOM      3  C2  UNL d   1       0.550   1.147  -0.022  0.00  0.00     0.162 A 
ATOM      4  C3  UNL d   1      -0.549   0.298  -0.158  0.00  0.00    -0.034 A 
ATOM      5  C4  UNL d   1      -0.501  -0.974   0.415  0.00  0.00     0.162 A 
ATOM      6  C5  UNL d   1       0.629  -1.387   1.113  0.00  0.00     0.062 A 
ATOM      7  F   UNL d   1       0.667  -2.611   1.661  0.00  0.00    -0.097 F 
ATOM      8  F1  UNL d   1      -1.539  -1.816   0.304  0.00  0.00    -0.096 F 
ATOM      9  I   UNL d   1      -2.238   0.919  -1.203  0.00  0.00    -0.060 I 
ATOM     10  F2  UNL d   1       0.538   2.375  -0.560  0.00  0.00    -0.096 F 
ATOM     11  F3  UNL d   1       2.729   1.552   0.802  0.00  0.00    -0.097 F 
ATOM     12  F4  UNL d   1       2.806  -0.937   1.917  0.00  0.00    -0.092 F 
ENDROOT
TORSDOF 0
ENDMDL
