MODEL 1
REMARK minimizedAffinity -1.12741339
REMARK minimizedRMSD -1
REMARK  0 active torsions:
REMARK  status: ('A' for Active; 'I' for Inactive)
ROOT
ATOM      1  C   UNL d   1       1.852  -0.726   1.887  0.00  0.00     0.124 A 
ATOM      2  C1  UNL d   1       1.839   0.464   1.172  0.00  0.00     0.062 A 
ATOM      3  C2  UNL d   1       0.812   0.730   0.272  0.00  0.00     0.162 A 
ATOM      4  C3  UNL d   1      -0.214  -0.197   0.082  0.00  0.00    -0.034 A 
ATOM      5  C4  UNL d   1      -0.194  -1.392   0.803  0.00  0.00     0.162 A 
ATOM      6  C5  UNL d   1       0.835  -1.653   1.701  0.00  0.00     0.062 A 
ATOM      7  F   UNL d   1       0.845  -2.803   2.390  0.00  0.00    -0.097 F 
ATOM      8  F1  UNL d   1      -1.165  -2.304   0.644  0.00  0.00    -0.096 F 
ATOM      9  I   UNL d   1      -1.753   0.197  -1.263  0.00  0.00    -0.060 I 
ATOM     10  F2  UNL d   1       0.825   1.888  -0.404  0.00  0.00    -0.096 F 
ATOM     11  F3  UNL d   1       2.821   1.360   1.349  0.00  0.00    -0.097 F 
ATOM     12  F4  UNL d   1       2.842  -0.980   2.751  0.00  0.00    -0.092 F 
ENDROOT
TORSDOF 0
ENDMDL
