MODEL 1
REMARK minimizedAffinity -2.08687067
REMARK minimizedRMSD -1
REMARK  0 active torsions:
REMARK  status: ('A' for Active; 'I' for Inactive)
ROOT
ATOM      1  C   UNL d   1       1.321  -0.164   1.281  0.00  0.00     0.124 A 
ATOM      2  C1  UNL d   1       1.283   0.986   0.506  0.00  0.00     0.062 A 
ATOM      3  C2  UNL d   1       0.201   1.228  -0.336  0.00  0.00     0.162 A 
ATOM      4  C3  UNL d   1      -0.853   0.317  -0.406  0.00  0.00    -0.034 A 
ATOM      5  C4  UNL d   1      -0.807  -0.838   0.376  0.00  0.00     0.162 A 
ATOM      6  C5  UNL d   1       0.276  -1.075   1.215  0.00  0.00     0.062 A 
ATOM      7  F   UNL d   1       0.311  -2.188   1.963  0.00  0.00    -0.097 F 
ATOM      8  F1  UNL d   1      -1.804  -1.735   0.332  0.00  0.00    -0.096 F 
ATOM      9  I   UNL d   1      -2.473   0.675  -1.663  0.00  0.00    -0.060 I 
ATOM     10  F2  UNL d   1       0.190   2.348  -1.074  0.00  0.00    -0.096 F 
ATOM     11  F3  UNL d   1       2.291   1.868   0.566  0.00  0.00    -0.097 F 
ATOM     12  F4  UNL d   1       2.364  -0.395   2.089  0.00  0.00    -0.092 F 
ENDROOT
TORSDOF 0
ENDMDL
