MODEL 1
REMARK minimizedAffinity -2.47060752
REMARK minimizedRMSD -1
REMARK  0 active torsions:
REMARK  status: ('A' for Active; 'I' for Inactive)
ROOT
ATOM      1  C   UNL d   1       2.239  -0.693   1.868  0.00  0.00     0.124 A 
ATOM      2  C1  UNL d   1       1.283  -1.699   1.896  0.00  0.00     0.062 A 
ATOM      3  C2  UNL d   1       0.079  -1.540   1.216  0.00  0.00     0.162 A 
ATOM      4  C3  UNL d   1      -0.175  -0.371   0.499  0.00  0.00    -0.034 A 
ATOM      5  C4  UNL d   1       0.791   0.637   0.475  0.00  0.00     0.162 A 
ATOM      6  C5  UNL d   1       1.992   0.473   1.157  0.00  0.00     0.062 A 
ATOM      7  F   UNL d   1       2.915   1.446   1.128  0.00  0.00    -0.097 F 
ATOM      8  F1  UNL d   1       0.579   1.774  -0.204  0.00  0.00    -0.096 F 
ATOM      9  I   UNL d   1      -1.974  -0.129  -0.520  0.00  0.00    -0.060 I 
ATOM     10  F2  UNL d   1      -0.827  -2.528   1.261  0.00  0.00    -0.096 F 
ATOM     11  F3  UNL d   1       1.518  -2.826   2.583  0.00  0.00    -0.097 F 
ATOM     12  F4  UNL d   1       3.395  -0.848   2.524  0.00  0.00    -0.092 F 
ENDROOT
TORSDOF 0
ENDMDL
