MODEL 1
REMARK minimizedAffinity -3.23982739
REMARK minimizedRMSD -1
REMARK  0 active torsions:
REMARK  status: ('A' for Active; 'I' for Inactive)
ROOT
ATOM      1  C   UNL d   1       2.030  -0.523   1.686  0.00  0.00     0.124 A 
ATOM      2  C1  UNL d   1       2.034   0.513   0.762  0.00  0.00     0.062 A 
ATOM      3  C2  UNL d   1       0.916   0.745  -0.034  0.00  0.00     0.162 A 
ATOM      4  C3  UNL d   1      -0.216  -0.060   0.091  0.00  0.00    -0.034 A 
ATOM      5  C4  UNL d   1      -0.212  -1.101   1.022  0.00  0.00     0.162 A 
ATOM      6  C5  UNL d   1       0.908  -1.329   1.815  0.00  0.00     0.062 A 
ATOM      7  F   UNL d   1       0.902  -2.330   2.707  0.00  0.00    -0.097 F 
ATOM      8  F1  UNL d   1      -1.284  -1.894   1.168  0.00  0.00    -0.096 F 
ATOM      9  I   UNL d   1      -1.890   0.284  -1.097  0.00  0.00    -0.060 I 
ATOM     10  F2  UNL d   1       0.947   1.753  -0.918  0.00  0.00    -0.096 F 
ATOM     11  F3  UNL d   1       3.118   1.292   0.635  0.00  0.00    -0.097 F 
ATOM     12  F4  UNL d   1       3.108  -0.745   2.449  0.00  0.00    -0.092 F 
ENDROOT
TORSDOF 0
ENDMDL
