MODEL 1
REMARK minimizedAffinity -2.98488402
REMARK minimizedRMSD -1
REMARK  0 active torsions:
REMARK  status: ('A' for Active; 'I' for Inactive)
ROOT
ATOM      1  C   UNL d   1       2.461  -1.827   1.837  0.00  0.00     0.124 A 
ATOM      2  C1  UNL d   1       3.273  -0.764   1.466  0.00  0.00     0.062 A 
ATOM      3  C2  UNL d   1       2.719   0.366   0.872  0.00  0.00     0.162 A 
ATOM      4  C3  UNL d   1       1.344   0.440   0.646  0.00  0.00    -0.034 A 
ATOM      5  C4  UNL d   1       0.534  -0.633   1.021  0.00  0.00     0.162 A 
ATOM      6  C5  UNL d   1       1.093  -1.761   1.614  0.00  0.00     0.062 A 
ATOM      7  F   UNL d   1       0.307  -2.786   1.972  0.00  0.00    -0.097 F 
ATOM      8  F1  UNL d   1      -0.791  -0.595   0.818  0.00  0.00    -0.096 F 
ATOM      9  I   UNL d   1       0.512   2.129  -0.242  0.00  0.00    -0.060 I 
ATOM     10  F2  UNL d   1       3.527   1.378   0.524  0.00  0.00    -0.096 F 
ATOM     11  F3  UNL d   1       4.595  -0.826   1.679  0.00  0.00    -0.097 F 
ATOM     12  F4  UNL d   1       2.997  -2.914   2.407  0.00  0.00    -0.092 F 
ENDROOT
TORSDOF 0
ENDMDL
