MODEL 1
REMARK minimizedAffinity 0.183509231
REMARK minimizedRMSD -1
REMARK  0 active torsions:
REMARK  status: ('A' for Active; 'I' for Inactive)
ROOT
ATOM      1  C   UNL d   1       1.621  -0.187   1.024  0.00  0.00     0.124 A 
ATOM      2  C1  UNL d   1       1.766   0.791   0.050  0.00  0.00     0.062 A 
ATOM      3  C2  UNL d   1       0.741   1.030  -0.861  0.00  0.00     0.162 A 
ATOM      4  C3  UNL d   1      -0.439   0.290  -0.802  0.00  0.00    -0.034 A 
ATOM      5  C4  UNL d   1      -0.578  -0.693   0.179  0.00  0.00     0.162 A 
ATOM      6  C5  UNL d   1       0.449  -0.928   1.087  0.00  0.00     0.062 A 
ATOM      7  F   UNL d   1       0.306  -1.874   2.027  0.00  0.00    -0.097 F 
ATOM      8  F1  UNL d   1      -1.700  -1.423   0.264  0.00  0.00    -0.096 F 
ATOM      9  I   UNL d   1      -1.974   0.645  -2.162  0.00  0.00    -0.060 I 
ATOM     10  F2  UNL d   1       0.910   1.982  -1.791  0.00  0.00    -0.096 F 
ATOM     11  F3  UNL d   1       2.898   1.508  -0.014  0.00  0.00    -0.097 F 
ATOM     12  F4  UNL d   1       2.609  -0.416   1.898  0.00  0.00    -0.092 F 
ENDROOT
TORSDOF 0
ENDMDL
