MODEL 1
REMARK minimizedAffinity 6.09307909
REMARK minimizedRMSD -1
REMARK  1 active torsions:
REMARK  status: ('A' for Active; 'I' for Inactive)
REMARK    1  A    between atoms: N_2  and  C1_3 
ROOT
ATOM      1  C1  UNL d   1       0.192   1.260  -1.076  0.00  0.00     0.143 A 
ATOM      2  C2  UNL d   1       0.653   2.356  -1.815  0.00  0.00    -0.057 A 
ATOM      3  C3  UNL d   1       0.414   3.669  -1.392  0.00  0.00     0.033 A 
ATOM      4  C4  UNL d   1      -0.318   3.911  -0.234  0.00  0.00    -0.042 A 
ATOM      5  C5  UNL d   1      -0.808   2.838   0.502  0.00  0.00     0.033 A 
ATOM      6  C6  UNL d   1      -0.560   1.529   0.078  0.00  0.00    -0.057 A 
ENDROOT
BRANCH   1   7
ATOM      7  N   UNL d   1       0.312  -0.067  -1.496  0.00  0.00    -0.732 N 
ATOM      8  C   UNL d   1      -0.737  -0.692  -2.272  0.00  0.00     0.284 C 
ATOM      9  H3  UNL d   1       1.253  -0.290  -1.812  0.00  0.00     0.395 HD
ENDBRANCH   1   7
TORSDOF 1
ENDMDL
