MODEL 1
REMARK minimizedAffinity -3.15154958
REMARK minimizedRMSD -1
REMARK  1 active torsions:
REMARK  status: ('A' for Active; 'I' for Inactive)
REMARK    1  A    between atoms: N_2  and  C1_3 
ROOT
ATOM      1  C1  UNL d   1      -0.386   2.714  -0.354  0.00  0.00     0.143 A 
ATOM      2  C2  UNL d   1      -1.220   3.788  -0.681  0.00  0.00    -0.057 A 
ATOM      3  C3  UNL d   1      -2.335   4.107   0.103  0.00  0.00     0.033 A 
ATOM      4  C4  UNL d   1      -2.653   3.335   1.216  0.00  0.00    -0.042 A 
ATOM      5  C5  UNL d   1      -1.852   2.247   1.546  0.00  0.00     0.033 A 
ATOM      6  C6  UNL d   1      -0.736   1.939   0.762  0.00  0.00    -0.057 A 
ENDROOT
BRANCH   1   7
ATOM      7  N   UNL d   1       0.680   2.287  -1.150  0.00  0.00    -0.732 N 
ATOM      8  C   UNL d   1       1.011   0.881  -1.247  0.00  0.00     0.284 C 
ATOM      9  H3  UNL d   1       0.730   2.788  -2.034  0.00  0.00     0.395 HD
ENDBRANCH   1   7
TORSDOF 1
ENDMDL
