MODEL 1
REMARK minimizedAffinity 1.05923617
REMARK minimizedRMSD -1
REMARK  1 active torsions:
REMARK  status: ('A' for Active; 'I' for Inactive)
REMARK    1  A    between atoms: N_2  and  C1_3 
ROOT
ATOM      1  C1  UNL d   1      -0.831   2.563   1.114  0.00  0.00     0.143 A 
ATOM      2  C2  UNL d   1      -0.535   1.592   0.152  0.00  0.00    -0.057 A 
ATOM      3  C3  UNL d   1       0.176   1.914  -1.011  0.00  0.00     0.033 A 
ATOM      4  C4  UNL d   1       0.580   3.224  -1.245  0.00  0.00    -0.042 A 
ATOM      5  C5  UNL d   1       0.275   4.211  -0.314  0.00  0.00     0.033 A 
ATOM      6  C6  UNL d   1      -0.430   3.881   0.847  0.00  0.00    -0.057 A 
ENDROOT
BRANCH   1   7
ATOM      7  N   UNL d   1      -1.620   2.325   2.242  0.00  0.00    -0.732 N 
ATOM      8  C   UNL d   1      -2.415   1.120   2.345  0.00  0.00     0.284 C 
ATOM      9  H3  UNL d   1      -1.152   2.589   3.106  0.00  0.00     0.395 HD
ENDBRANCH   1   7
TORSDOF 1
ENDMDL
