MODEL 1
REMARK minimizedAffinity 0.35027051
REMARK minimizedRMSD -1
REMARK  1 active torsions:
REMARK  status: ('A' for Active; 'I' for Inactive)
REMARK    1  A    between atoms: N_2  and  C1_3 
ROOT
ATOM      1  C1  UNL d   1      -0.144   2.090  -0.222  0.00  0.00     0.143 A 
ATOM      2  C2  UNL d   1      -0.777   1.544   0.900  0.00  0.00    -0.057 A 
ATOM      3  C3  UNL d   1      -1.100   2.337   2.009  0.00  0.00     0.033 A 
ATOM      4  C4  UNL d   1      -0.768   3.688   2.026  0.00  0.00    -0.042 A 
ATOM      5  C5  UNL d   1      -0.117   4.246   0.931  0.00  0.00     0.033 A 
ATOM      6  C6  UNL d   1       0.196   3.451  -0.175  0.00  0.00    -0.057 A 
ENDROOT
BRANCH   1   7
ATOM      7  N   UNL d   1       0.291   1.334  -1.313  0.00  0.00    -0.732 N 
ATOM      8  C   UNL d   1       1.343   0.353  -1.158  0.00  0.00     0.284 C 
ATOM      9  H3  UNL d   1      -0.478   1.029  -1.906  0.00  0.00     0.395 HD
ENDBRANCH   1   7
TORSDOF 1
ENDMDL
