MODEL 1
REMARK minimizedAffinity 0.548029423
REMARK minimizedRMSD -1
REMARK  1 active torsions:
REMARK  status: ('A' for Active; 'I' for Inactive)
REMARK    1  A    between atoms: N_2  and  C1_3 
ROOT
ATOM      1  C1  UNL d   1      -0.237   2.483  -0.160  0.00  0.00     0.143 A 
ATOM      2  C2  UNL d   1      -1.076   3.490   0.330  0.00  0.00    -0.057 A 
ATOM      3  C3  UNL d   1      -1.908   3.270   1.433  0.00  0.00     0.033 A 
ATOM      4  C4  UNL d   1      -1.939   2.024   2.052  0.00  0.00    -0.042 A 
ATOM      5  C5  UNL d   1      -1.132   1.000   1.567  0.00  0.00     0.033 A 
ATOM      6  C6  UNL d   1      -0.298   1.229   0.468  0.00  0.00    -0.057 A 
ENDROOT
BRANCH   1   7
ATOM      7  N   UNL d   1       0.540   2.609  -1.313  0.00  0.00    -0.732 N 
ATOM      8  C   UNL d   1       0.961   1.438  -2.051  0.00  0.00     0.284 C 
ATOM      9  H3  UNL d   1       0.240   3.385  -1.900  0.00  0.00     0.395 HD
ENDBRANCH   1   7
TORSDOF 1
ENDMDL
