MODEL 1
REMARK minimizedAffinity 2.96042752
REMARK minimizedRMSD -1
REMARK  1 active torsions:
REMARK  status: ('A' for Active; 'I' for Inactive)
REMARK    1  A    between atoms: N_2  and  C1_3 
ROOT
ATOM      1  C1  UNL d   1      -0.414   1.237  -0.916  0.00  0.00     0.143 A 
ATOM      2  C2  UNL d   1      -1.335   0.562  -1.725  0.00  0.00    -0.057 A 
ATOM      3  C3  UNL d   1      -1.007  -0.652  -2.341  0.00  0.00     0.033 A 
ATOM      4  C4  UNL d   1       0.261  -1.199  -2.182  0.00  0.00    -0.042 A 
ATOM      5  C5  UNL d   1       1.201  -0.533  -1.403  0.00  0.00     0.033 A 
ATOM      6  C6  UNL d   1       0.866   0.675  -0.785  0.00  0.00    -0.057 A 
ENDROOT
BRANCH   1   7
ATOM      7  N   UNL d   1      -0.646   2.495  -0.356  0.00  0.00    -0.732 N 
ATOM      8  C   UNL d   1      -1.130   2.620   1.002  0.00  0.00     0.284 C 
ATOM      9  H3  UNL d   1       0.074   3.170  -0.605  0.00  0.00     0.395 HD
ENDBRANCH   1   7
TORSDOF 1
ENDMDL
