MODEL 1
REMARK minimizedAffinity -1.1750232
REMARK minimizedRMSD -1
REMARK  1 active torsions:
REMARK  status: ('A' for Active; 'I' for Inactive)
REMARK    1  A    between atoms: N_2  and  C1_3 
ROOT
ATOM      1  C1  UNL d   1       0.116   1.545  -1.405  0.00  0.00     0.143 A 
ATOM      2  C2  UNL d   1       0.603   2.756  -1.909  0.00  0.00    -0.057 A 
ATOM      3  C3  UNL d   1       0.304   3.974  -1.286  0.00  0.00     0.033 A 
ATOM      4  C4  UNL d   1      -0.513   4.004  -0.160  0.00  0.00    -0.042 A 
ATOM      5  C5  UNL d   1      -1.028   2.815   0.343  0.00  0.00     0.033 A 
ATOM      6  C6  UNL d   1      -0.721   1.601  -0.280  0.00  0.00    -0.057 A 
ENDROOT
BRANCH   1   7
ATOM      7  N   UNL d   1       0.297   0.311  -2.037  0.00  0.00    -0.732 N 
ATOM      8  C   UNL d   1      -0.838  -0.428  -2.548  0.00  0.00     0.284 C 
ATOM      9  H3  UNL d   1       1.108   0.304  -2.650  0.00  0.00     0.395 HD
ENDBRANCH   1   7
TORSDOF 1
ENDMDL
