MODEL 1
REMARK minimizedAffinity -1.54044139
REMARK minimizedRMSD -1
REMARK  1 active torsions:
REMARK  status: ('A' for Active; 'I' for Inactive)
REMARK    1  A    between atoms: N_2  and  C1_3 
ROOT
ATOM      1  C1  UNL d   1      -0.326   2.613  -0.633  0.00  0.00     0.143 A 
ATOM      2  C2  UNL d   1      -0.892   3.752  -0.050  0.00  0.00    -0.057 A 
ATOM      3  C3  UNL d   1      -1.580   3.680   1.167  0.00  0.00     0.033 A 
ATOM      4  C4  UNL d   1      -1.739   2.458   1.811  0.00  0.00    -0.042 A 
ATOM      5  C5  UNL d   1      -1.206   1.308   1.239  0.00  0.00     0.033 A 
ATOM      6  C6  UNL d   1      -0.514   1.388   0.026  0.00  0.00    -0.057 A 
ENDROOT
BRANCH   1   7
ATOM      7  N   UNL d   1       0.284   2.603  -1.889  0.00  0.00    -0.732 N 
ATOM      8  C   UNL d   1       0.648   3.843  -2.542  0.00  0.00     0.284 C 
ATOM      9  H3  UNL d   1       0.981   1.867  -1.977  0.00  0.00     0.395 HD
ENDBRANCH   1   7
TORSDOF 1
ENDMDL
