MODEL 1
REMARK minimizedAffinity 2.51815319
REMARK minimizedRMSD -1
REMARK  1 active torsions:
REMARK  status: ('A' for Active; 'I' for Inactive)
REMARK    1  A    between atoms: N_2  and  C1_3 
ROOT
ATOM      1  C1  UNL d   1      -0.021   3.027  -1.069  0.00  0.00     0.143 A 
ATOM      2  C2  UNL d   1       0.420   3.931  -2.040  0.00  0.00    -0.057 A 
ATOM      3  C3  UNL d   1       0.816   5.230  -1.697  0.00  0.00     0.033 A 
ATOM      4  C4  UNL d   1       0.750   5.657  -0.375  0.00  0.00    -0.042 A 
ATOM      5  C5  UNL d   1       0.290   4.784   0.604  0.00  0.00     0.033 A 
ATOM      6  C6  UNL d   1      -0.098   3.486   0.256  0.00  0.00    -0.057 A 
ENDROOT
BRANCH   1   7
ATOM      7  N   UNL d   1      -0.521   1.755  -1.359  0.00  0.00    -0.732 N 
ATOM      8  C   UNL d   1       0.373   0.626  -1.502  0.00  0.00     0.284 C 
ATOM      9  H3  UNL d   1      -1.375   1.547  -0.847  0.00  0.00     0.395 HD
ENDBRANCH   1   7
TORSDOF 1
ENDMDL
