MODEL 1
REMARK minimizedAffinity 2.99874425
REMARK minimizedRMSD -1
REMARK  1 active torsions:
REMARK  status: ('A' for Active; 'I' for Inactive)
REMARK    1  A    between atoms: N_2  and  C1_3 
ROOT
ATOM      1  C1  UNL d   1       0.314   1.599  -0.858  0.00  0.00     0.143 A 
ATOM      2  C2  UNL d   1      -0.293   1.342   0.375  0.00  0.00    -0.057 A 
ATOM      3  C3  UNL d   1      -0.989   2.343   1.065  0.00  0.00     0.033 A 
ATOM      4  C4  UNL d   1      -1.065   3.630   0.544  0.00  0.00    -0.042 A 
ATOM      5  C5  UNL d   1      -0.448   3.915  -0.669  0.00  0.00     0.033 A 
ATOM      6  C6  UNL d   1       0.240   2.910  -1.356  0.00  0.00    -0.057 A 
ENDROOT
BRANCH   1   7
ATOM      7  N   UNL d   1       1.103   0.673  -1.545  0.00  0.00    -0.732 N 
ATOM      8  C   UNL d   1       0.493  -0.350  -2.366  0.00  0.00     0.284 C 
ATOM      9  H3  UNL d   1       1.931   1.098  -1.957  0.00  0.00     0.395 HD
ENDBRANCH   1   7
TORSDOF 1
ENDMDL
