MODEL 1
REMARK minimizedAffinity 6.33237457
REMARK minimizedRMSD -1
REMARK  1 active torsions:
REMARK  status: ('A' for Active; 'I' for Inactive)
REMARK    1  A    between atoms: N_2  and  C1_3 
ROOT
ATOM      1  C1  UNL d   1      -1.148   2.184   0.991  0.00  0.00     0.143 A 
ATOM      2  C2  UNL d   1      -0.847   3.548   1.064  0.00  0.00    -0.057 A 
ATOM      3  C3  UNL d   1      -0.271   4.223  -0.020  0.00  0.00     0.033 A 
ATOM      4  C4  UNL d   1       0.041   3.537  -1.188  0.00  0.00    -0.042 A 
ATOM      5  C5  UNL d   1      -0.226   2.175  -1.274  0.00  0.00     0.033 A 
ATOM      6  C6  UNL d   1      -0.808   1.508  -0.191  0.00  0.00    -0.057 A 
ENDROOT
BRANCH   1   7
ATOM      7  N   UNL d   1      -1.630   1.436   2.068  0.00  0.00    -0.732 N 
ATOM      8  C   UNL d   1      -0.995   0.191   2.443  0.00  0.00     0.284 C 
ATOM      9  H3  UNL d   1      -1.899   2.019   2.857  0.00  0.00     0.395 HD
ENDBRANCH   1   7
TORSDOF 1
ENDMDL
