MODEL 1
REMARK minimizedAffinity 6.8338728
REMARK minimizedRMSD -1
REMARK  1 active torsions:
REMARK  status: ('A' for Active; 'I' for Inactive)
REMARK    1  A    between atoms: N_2  and  C1_3 
ROOT
ATOM      1  C1  UNL d   1      -1.450  -0.414   2.877  0.00  0.00     0.143 A 
ATOM      2  C2  UNL d   1      -0.082  -0.464   2.589  0.00  0.00    -0.057 A 
ATOM      3  C3  UNL d   1       0.532   0.518   1.802  0.00  0.00     0.033 A 
ATOM      4  C4  UNL d   1      -0.221   1.556   1.262  0.00  0.00    -0.042 A 
ATOM      5  C5  UNL d   1      -1.587   1.612   1.514  0.00  0.00     0.033 A 
ATOM      6  C6  UNL d   1      -2.193   0.632   2.306  0.00  0.00    -0.057 A 
ENDROOT
BRANCH   1   7
ATOM      7  N   UNL d   1      -2.136  -1.413   3.571  0.00  0.00    -0.732 N 
ATOM      8  C   UNL d   1      -1.536  -2.714   3.775  0.00  0.00     0.284 C 
ATOM      9  H3  UNL d   1      -2.632  -1.052   4.382  0.00  0.00     0.395 HD
ENDBRANCH   1   7
TORSDOF 1
ENDMDL
