MODEL 1
REMARK minimizedAffinity 7.15335035
REMARK minimizedRMSD -1
REMARK  1 active torsions:
REMARK  status: ('A' for Active; 'I' for Inactive)
REMARK    1  A    between atoms: N_2  and  C1_3 
ROOT
ATOM      1  C1  UNL d   1      -0.117   0.999  -2.075  0.00  0.00     0.143 A 
ATOM      2  C2  UNL d   1      -1.483   0.912  -1.787  0.00  0.00    -0.057 A 
ATOM      3  C3  UNL d   1      -2.250  -0.174  -2.224  0.00  0.00     0.033 A 
ATOM      4  C4  UNL d   1      -1.667  -1.184  -2.984  0.00  0.00    -0.042 A 
ATOM      5  C5  UNL d   1      -0.316  -1.106  -3.303  0.00  0.00     0.033 A 
ATOM      6  C6  UNL d   1       0.446  -0.022  -2.858  0.00  0.00    -0.057 A 
ENDROOT
BRANCH   1   7
ATOM      7  N   UNL d   1       0.678   2.102  -1.753  0.00  0.00    -0.732 N 
ATOM      8  C   UNL d   1       0.074   3.350  -1.340  0.00  0.00     0.284 C 
ATOM      9  H3  UNL d   1       1.504   1.843  -1.218  0.00  0.00     0.395 HD
ENDBRANCH   1   7
TORSDOF 1
ENDMDL
