MODEL 1
REMARK minimizedAffinity -1.06374121
REMARK minimizedRMSD -1
REMARK  0 active torsions:
REMARK  status: ('A' for Active; 'I' for Inactive)
ROOT
ATOM      1  C   UNL d   1      -5.126   4.669  -5.992  0.00  0.00    -0.002 A 
ATOM      2  C1  UNL d   1      -5.238   5.879  -5.322  0.00  0.00     0.010 A 
ATOM      3  C2  UNL d   1      -5.508   5.911  -3.953  0.00  0.00     0.041 A 
ATOM      4  C3  UNL d   1      -5.663   4.694  -3.260  0.00  0.00    -0.075 A 
ATOM      5  S   UNL d   1      -5.997   4.488  -1.581  0.00  0.00     0.015 SA
ATOM      6  C4  UNL d   1      -5.997   2.789  -1.713  0.00  0.00     0.022 A 
ATOM      7  C5  UNL d   1      -5.751   2.372  -3.000  0.00  0.00     0.026 A 
ATOM      8  C6  UNL d   1      -5.554   3.463  -3.912  0.00  0.00    -0.082 A 
ATOM      9  C7  UNL d   1      -5.280   3.464  -5.302  0.00  0.00     0.045 A 
ENDROOT
TORSDOF 0
ENDMDL
