MODEL 1
REMARK minimizedAffinity 12.7638931
REMARK minimizedRMSD -1
REMARK  0 active torsions:
REMARK  status: ('A' for Active; 'I' for Inactive)
ROOT
ATOM      1  C   UNL d   1       5.465   4.002  -0.338  0.00  0.00    -0.002 A 
ATOM      2  C1  UNL d   1       5.930   5.308  -0.270  0.00  0.00     0.010 A 
ATOM      3  C2  UNL d   1       5.931   6.000   0.943  0.00  0.00     0.041 A 
ATOM      4  C3  UNL d   1       5.454   5.350   2.098  0.00  0.00    -0.075 A 
ATOM      5  S   UNL d   1       5.361   6.000   3.692  0.00  0.00     0.015 SA
ATOM      6  C4  UNL d   1       4.703   4.559   4.322  0.00  0.00     0.022 A 
ATOM      7  C5  UNL d   1       4.551   3.596   3.353  0.00  0.00     0.026 A 
ATOM      8  C6  UNL d   1       4.982   4.035   2.055  0.00  0.00    -0.082 A 
ATOM      9  C7  UNL d   1       4.993   3.361   0.811  0.00  0.00     0.045 A 
ENDROOT
TORSDOF 0
ENDMDL
