MODEL 1
REMARK minimizedAffinity -2.76610565
REMARK minimizedRMSD -1
REMARK  0 active torsions:
REMARK  status: ('A' for Active; 'I' for Inactive)
ROOT
ATOM      1  C   UNL d   1      -5.967   4.844  -2.020  0.00  0.00    -0.002 A 
ATOM      2  C1  UNL d   1      -5.396   6.000  -2.533  0.00  0.00     0.010 A 
ATOM      3  C2  UNL d   1      -4.731   5.979  -3.760  0.00  0.00     0.041 A 
ATOM      4  C3  UNL d   1      -4.650   4.765  -4.471  0.00  0.00    -0.075 A 
ATOM      5  S   UNL d   1      -3.886   4.502  -5.994  0.00  0.00     0.015 SA
ATOM      6  C4  UNL d   1      -4.301   2.849  -6.000  0.00  0.00     0.022 A 
ATOM      7  C5  UNL d   1      -5.005   2.490  -4.875  0.00  0.00     0.026 A 
ATOM      8  C6  UNL d   1      -5.218   3.589  -3.975  0.00  0.00    -0.082 A 
ATOM      9  C7  UNL d   1      -5.885   3.642  -2.728  0.00  0.00     0.045 A 
ENDROOT
TORSDOF 0
ENDMDL
