MODEL 1
REMARK minimizedAffinity 1.58578968
REMARK minimizedRMSD -1
REMARK  0 active torsions:
REMARK  status: ('A' for Active; 'I' for Inactive)
ROOT
ATOM      1  C   UNL d   1      -4.961   4.575  -1.450  0.00  0.00    -0.002 A 
ATOM      2  C1  UNL d   1      -5.929   5.505  -1.802  0.00  0.00     0.010 A 
ATOM      3  C2  UNL d   1      -5.999   5.999  -3.106  0.00  0.00     0.041 A 
ATOM      4  C3  UNL d   1      -5.073   5.536  -4.061  0.00  0.00    -0.075 A 
ATOM      5  S   UNL d   1      -4.970   5.999  -5.718  0.00  0.00     0.015 SA
ATOM      6  C4  UNL d   1      -3.639   4.973  -6.000  0.00  0.00     0.022 A 
ATOM      7  C5  UNL d   1      -3.269   4.286  -4.867  0.00  0.00     0.026 A 
ATOM      8  C6  UNL d   1      -4.090   4.599  -3.732  0.00  0.00    -0.082 A 
ATOM      9  C7  UNL d   1      -4.043   4.119  -2.401  0.00  0.00     0.045 A 
ENDROOT
TORSDOF 0
ENDMDL
