MODEL 1
REMARK minimizedAffinity 15.9485817
REMARK minimizedRMSD -1
REMARK  0 active torsions:
REMARK  status: ('A' for Active; 'I' for Inactive)
ROOT
ATOM      1  C   UNL d   1      -1.830  -5.617  -2.225  0.00  0.00    -0.002 A 
ATOM      2  C1  UNL d   1      -2.172  -6.000  -0.936  0.00  0.00     0.010 A 
ATOM      3  C2  UNL d   1      -3.375  -5.580  -0.366  0.00  0.00     0.041 A 
ATOM      4  C3  UNL d   1      -4.238  -4.762  -1.121  0.00  0.00    -0.075 A 
ATOM      5  S   UNL d   1      -5.764  -4.128  -0.629  0.00  0.00     0.015 SA
ATOM      6  C4  UNL d   1      -5.999  -3.335  -2.120  0.00  0.00     0.022 A 
ATOM      7  C5  UNL d   1      -4.949  -3.538  -2.983  0.00  0.00     0.026 A 
ATOM      8  C6  UNL d   1      -3.917  -4.365  -2.422  0.00  0.00    -0.082 A 
ATOM      9  C7  UNL d   1      -2.689  -4.806  -2.972  0.00  0.00     0.045 A 
ENDROOT
TORSDOF 0
ENDMDL
