MODEL 1
REMARK minimizedAffinity 22.0732079
REMARK minimizedRMSD -1
REMARK  0 active torsions:
REMARK  status: ('A' for Active; 'I' for Inactive)
ROOT
ATOM      1  C   UNL d   1       1.620   1.191  -3.965  0.00  0.00    -0.002 A 
ATOM      2  C1  UNL d   1       2.502   2.205  -4.308  0.00  0.00     0.010 A 
ATOM      3  C2  UNL d   1       2.044   3.361  -4.943  0.00  0.00     0.041 A 
ATOM      4  C3  UNL d   1       0.670   3.483  -5.229  0.00  0.00    -0.075 A 
ATOM      5  S   UNL d   1      -0.118   4.808  -5.999  0.00  0.00     0.015 SA
ATOM      6  C4  UNL d   1      -1.646   4.060  -5.890  0.00  0.00     0.022 A 
ATOM      7  C5  UNL d   1      -1.574   2.828  -5.284  0.00  0.00     0.026 A 
ATOM      8  C6  UNL d   1      -0.239   2.475  -4.892  0.00  0.00    -0.082 A 
ATOM      9  C7  UNL d   1       0.257   1.315  -4.250  0.00  0.00     0.045 A 
ENDROOT
TORSDOF 0
ENDMDL
