MODEL 1
REMARK minimizedAffinity 0.649364054
REMARK minimizedRMSD -1
REMARK  0 active torsions:
REMARK  status: ('A' for Active; 'I' for Inactive)
ROOT
ATOM      1  C   UNL d   1       1.804   2.626  -3.356  0.00  0.00    -0.002 A 
ATOM      2  C1  UNL d   1       2.473   2.084  -2.268  0.00  0.00     0.010 A 
ATOM      3  C2  UNL d   1       3.741   1.519  -2.423  0.00  0.00     0.041 A 
ATOM      4  C3  UNL d   1       4.331   1.510  -3.702  0.00  0.00    -0.075 A 
ATOM      5  S   UNL d   1       5.875   0.873  -4.130  0.00  0.00     0.015 SA
ATOM      6  C4  UNL d   1       5.684   1.307  -5.767  0.00  0.00     0.022 A 
ATOM      7  C5  UNL d   1       4.477   1.923  -5.999  0.00  0.00     0.026 A 
ATOM      8  C6  UNL d   1       3.678   2.051  -4.813  0.00  0.00    -0.082 A 
ATOM      9  C7  UNL d   1       2.394   2.615  -4.623  0.00  0.00     0.045 A 
ENDROOT
TORSDOF 0
ENDMDL
