MODEL 1
REMARK minimizedAffinity 1.08649623
REMARK minimizedRMSD -1
REMARK  0 active torsions:
REMARK  status: ('A' for Active; 'I' for Inactive)
ROOT
ATOM      1  C   UNL d   1      -5.988   0.479   0.221  0.00  0.00    -0.002 A 
ATOM      2  C1  UNL d   1      -5.994   1.347   1.303  0.00  0.00     0.010 A 
ATOM      3  C2  UNL d   1      -5.997   2.729   1.106  0.00  0.00     0.041 A 
ATOM      4  C3  UNL d   1      -5.996   3.229  -0.212  0.00  0.00    -0.075 A 
ATOM      5  S   UNL d   1      -6.000   4.884  -0.695  0.00  0.00     0.015 SA
ATOM      6  C4  UNL d   1      -5.996   4.478  -2.350  0.00  0.00     0.022 A 
ATOM      7  C5  UNL d   1      -5.991   3.117  -2.547  0.00  0.00     0.026 A 
ATOM      8  C6  UNL d   1      -5.991   2.375  -1.318  0.00  0.00    -0.082 A 
ATOM      9  C7  UNL d   1      -5.988   0.979  -1.084  0.00  0.00     0.045 A 
ENDROOT
TORSDOF 0
ENDMDL
