MODEL 1
REMARK minimizedAffinity 22.8173218
REMARK minimizedRMSD -1
REMARK  0 active torsions:
REMARK  status: ('A' for Active; 'I' for Inactive)
ROOT
ATOM      1  C   UNL d   1      -4.430  -4.463  -1.121  0.00  0.00    -0.002 A 
ATOM      2  C1  UNL d   1      -3.319  -4.436  -0.290  0.00  0.00     0.010 A 
ATOM      3  C2  UNL d   1      -2.064  -4.815  -0.770  0.00  0.00     0.041 A 
ATOM      4  C3  UNL d   1      -1.943  -5.224  -2.113  0.00  0.00    -0.075 A 
ATOM      5  S   UNL d   1      -0.506  -5.731  -2.919  0.00  0.00     0.015 SA
ATOM      6  C4  UNL d   1      -1.333  -5.994  -4.386  0.00  0.00     0.022 A 
ATOM      7  C5  UNL d   1      -2.673  -5.708  -4.281  0.00  0.00     0.026 A 
ATOM      8  C6  UNL d   1      -3.047  -5.259  -2.969  0.00  0.00    -0.082 A 
ATOM      9  C7  UNL d   1      -4.306  -4.869  -2.453  0.00  0.00     0.045 A 
ENDROOT
TORSDOF 0
ENDMDL
