MODEL 1
REMARK minimizedAffinity 17.3791752
REMARK minimizedRMSD -1
REMARK  0 active torsions:
REMARK  status: ('A' for Active; 'I' for Inactive)
ROOT
ATOM      1  C   UNL d   1      -2.486   4.991  -4.560  0.00  0.00    -0.002 A 
ATOM      2  C1  UNL d   1      -1.975   5.998  -5.366  0.00  0.00     0.010 A 
ATOM      3  C2  UNL d   1      -0.669   5.922  -5.854  0.00  0.00     0.041 A 
ATOM      4  C3  UNL d   1       0.122   4.806  -5.517  0.00  0.00    -0.075 A 
ATOM      5  S   UNL d   1       1.748   4.499  -6.000  0.00  0.00     0.015 SA
ATOM      6  C4  UNL d   1       1.802   3.024  -5.148  0.00  0.00     0.022 A 
ATOM      7  C5  UNL d   1       0.617   2.757  -4.504  0.00  0.00     0.026 A 
ATOM      8  C6  UNL d   1      -0.371   3.779  -4.707  0.00  0.00    -0.082 A 
ATOM      9  C7  UNL d   1      -1.699   3.885  -4.227  0.00  0.00     0.045 A 
ENDROOT
TORSDOF 0
ENDMDL
