MODEL 1
REMARK minimizedAffinity 6.06952143
REMARK minimizedRMSD -1
REMARK  0 active torsions:
REMARK  status: ('A' for Active; 'I' for Inactive)
ROOT
ATOM      1  C   UNL d   1      -5.239   3.712  -2.959  0.00  0.00    -0.002 A 
ATOM      2  C1  UNL d   1      -5.735   4.790  -2.238  0.00  0.00     0.010 A 
ATOM      3  C2  UNL d   1      -5.999   4.670  -0.872  0.00  0.00     0.041 A 
ATOM      4  C3  UNL d   1      -5.752   3.437  -0.236  0.00  0.00    -0.075 A 
ATOM      5  S   UNL d   1      -6.000   3.058   1.427  0.00  0.00     0.015 SA
ATOM      6  C4  UNL d   1      -5.453   1.457   1.221  0.00  0.00     0.022 A 
ATOM      7  C5  UNL d   1      -5.087   1.201  -0.079  0.00  0.00     0.026 A 
ATOM      8  C6  UNL d   1      -5.253   2.338  -0.940  0.00  0.00    -0.082 A 
ATOM      9  C7  UNL d   1      -4.996   2.491  -2.324  0.00  0.00     0.045 A 
ENDROOT
TORSDOF 0
ENDMDL
