MODEL 1
REMARK minimizedAffinity 19.8904591
REMARK minimizedRMSD -1
REMARK  0 active torsions:
REMARK  status: ('A' for Active; 'I' for Inactive)
ROOT
ATOM      1  C   UNL d   1      -2.285  -4.135   0.398  0.00  0.00    -0.002 A 
ATOM      2  C1  UNL d   1      -2.320  -3.459  -0.813  0.00  0.00     0.010 A 
ATOM      3  C2  UNL d   1      -2.447  -2.069  -0.847  0.00  0.00     0.041 A 
ATOM      4  C3  UNL d   1      -2.537  -1.363   0.369  0.00  0.00    -0.075 A 
ATOM      5  S   UNL d   1      -2.697   0.342   0.572  0.00  0.00     0.015 SA
ATOM      6  C4  UNL d   1      -2.721   0.212   2.271  0.00  0.00     0.022 A 
ATOM      7  C5  UNL d   1      -2.611  -1.092   2.691  0.00  0.00     0.026 A 
ATOM      8  C6  UNL d   1      -2.503  -2.022   1.601  0.00  0.00    -0.082 A 
ATOM      9  C7  UNL d   1      -2.374  -3.432   1.602  0.00  0.00     0.045 A 
ENDROOT
TORSDOF 0
ENDMDL
