MODEL 1
REMARK minimizedAffinity 12.4076748
REMARK minimizedRMSD -1
REMARK  0 active torsions:
REMARK  status: ('A' for Active; 'I' for Inactive)
ROOT
ATOM      1  C   UNL d   1       5.929   5.207   3.017  0.00  0.00    -0.002 A 
ATOM      2  C1  UNL d   1       5.999   3.829   2.865  0.00  0.00     0.010 A 
ATOM      3  C2  UNL d   1       5.501   3.215   1.715  0.00  0.00     0.041 A 
ATOM      4  C3  UNL d   1       4.927   4.017   0.709  0.00  0.00    -0.075 A 
ATOM      5  S   UNL d   1       4.253   3.485  -0.786  0.00  0.00     0.015 SA
ATOM      6  C4  UNL d   1       3.857   5.073  -1.259  0.00  0.00     0.022 A 
ATOM      7  C5  UNL d   1       4.222   6.000  -0.311  0.00  0.00     0.026 A 
ATOM      8  C6  UNL d   1       4.846   5.406   0.838  0.00  0.00    -0.082 A 
ATOM      9  C7  UNL d   1       5.359   5.999   2.017  0.00  0.00     0.045 A 
ENDROOT
TORSDOF 0
ENDMDL
