MODEL 1
REMARK minimizedAffinity 12.44627
REMARK minimizedRMSD -1
REMARK  0 active torsions:
REMARK  status: ('A' for Active; 'I' for Inactive)
ROOT
ATOM      1  C   UNL d   1      -2.655  -0.892   0.173  0.00  0.00    -0.002 A 
ATOM      2  C1  UNL d   1      -2.313  -1.136   1.496  0.00  0.00     0.010 A 
ATOM      3  C2  UNL d   1      -0.973  -1.197   1.883  0.00  0.00     0.041 A 
ATOM      4  C3  UNL d   1       0.027  -1.004   0.909  0.00  0.00    -0.075 A 
ATOM      5  S   UNL d   1       1.734  -1.033   1.152  0.00  0.00     0.015 SA
ATOM      6  C4  UNL d   1       2.049  -0.722  -0.494  0.00  0.00     0.022 A 
ATOM      7  C5  UNL d   1       0.892  -0.596  -1.225  0.00  0.00     0.026 A 
ATOM      8  C6  UNL d   1      -0.293  -0.756  -0.429  0.00  0.00    -0.082 A 
ATOM      9  C7  UNL d   1      -1.660  -0.702  -0.790  0.00  0.00     0.045 A 
ENDROOT
TORSDOF 0
ENDMDL
