MODEL 1
REMARK minimizedAffinity 3.87426138
REMARK minimizedRMSD -1
REMARK  0 active torsions:
REMARK  status: ('A' for Active; 'I' for Inactive)
ROOT
ATOM      1  C   UNL d   1       0.068  -1.719   0.276  0.00  0.00     0.020 A 
ATOM      2  C1  UNL d   1       0.423  -2.197  -0.985  0.00  0.00     0.020 A 
ATOM      3  C2  UNL d   1       1.203  -1.411  -1.835  0.00  0.00     0.034 A 
ATOM      4  C3  UNL d   1       1.631  -0.143  -1.427  0.00  0.00     0.017 A 
ATOM      5  C4  UNL d   1       1.273   0.337  -0.161  0.00  0.00     0.017 A 
ATOM      6  C5  UNL d   1       0.492  -0.455   0.686  0.00  0.00     0.034 A 
ATOM      7 Cl   UNL d   1       1.763   1.892   0.413  0.00  0.00    -0.070 Cl
ATOM      8 Cl1  UNL d   1       2.593   0.775  -2.530  0.00  0.00    -0.070 Cl
ENDROOT
TORSDOF 0
ENDMDL
