MODEL 1
REMARK minimizedAffinity 9.68571281
REMARK minimizedRMSD -1
REMARK  0 active torsions:
REMARK  status: ('A' for Active; 'I' for Inactive)
ROOT
ATOM      1  C   UNL d   1      -0.735  -2.780  -1.100  0.00  0.00     0.020 A 
ATOM      2  C1  UNL d   1      -1.439  -2.031  -0.158  0.00  0.00     0.020 A 
ATOM      3  C2  UNL d   1      -1.324  -0.639  -0.145  0.00  0.00     0.034 A 
ATOM      4  C3  UNL d   1      -0.503   0.007  -1.077  0.00  0.00     0.017 A 
ATOM      5  C4  UNL d   1       0.202  -0.746  -2.022  0.00  0.00     0.017 A 
ATOM      6  C5  UNL d   1       0.083  -2.139  -2.030  0.00  0.00     0.034 A 
ATOM      7 Cl   UNL d   1       1.234  -0.019  -3.204  0.00  0.00    -0.070 Cl
ATOM      8 Cl1  UNL d   1      -0.408   1.731  -1.004  0.00  0.00    -0.070 Cl
ENDROOT
TORSDOF 0
ENDMDL
