MODEL 1
REMARK minimizedAffinity -1.86670923
REMARK minimizedRMSD -1
REMARK  0 active torsions:
REMARK  status: ('A' for Active; 'I' for Inactive)
ROOT
ATOM      1  C   UNL d   1       5.997  -1.516   2.072  0.00  0.00     0.020 A 
ATOM      2  C1  UNL d   1       5.996  -0.121   2.062  0.00  0.00     0.020 A 
ATOM      3  C2  UNL d   1       5.996   0.586   3.266  0.00  0.00     0.034 A 
ATOM      4  C3  UNL d   1       5.997  -0.101   4.486  0.00  0.00     0.017 A 
ATOM      5  C4  UNL d   1       5.997  -1.501   4.495  0.00  0.00     0.017 A 
ATOM      6  C5  UNL d   1       5.997  -2.204   3.286  0.00  0.00     0.034 A 
ATOM      7 Cl   UNL d   1       5.998  -2.418   5.960  0.00  0.00    -0.070 Cl
ATOM      8 Cl1  UNL d   1       5.997   0.838   5.936  0.00  0.00    -0.070 Cl
ENDROOT
TORSDOF 0
ENDMDL
