MODEL 1
REMARK minimizedAffinity 4.87769842
REMARK minimizedRMSD -1
REMARK  0 active torsions:
REMARK  status: ('A' for Active; 'I' for Inactive)
ROOT
ATOM      1  C   UNL d   1       5.999   2.344   6.000  0.00  0.00     0.020 A 
ATOM      2  C1  UNL d   1       5.842   1.050   5.506  0.00  0.00     0.020 A 
ATOM      3  C2  UNL d   1       5.684   0.840   4.135  0.00  0.00     0.034 A 
ATOM      4  C3  UNL d   1       5.683   1.926   3.252  0.00  0.00     0.017 A 
ATOM      5  C4  UNL d   1       5.840   3.225   3.749  0.00  0.00     0.017 A 
ATOM      6  C5  UNL d   1       5.998   3.429   5.123  0.00  0.00     0.034 A 
ATOM      7 Cl   UNL d   1       5.849   4.616   2.722  0.00  0.00    -0.070 Cl
ATOM      8 Cl1  UNL d   1       5.483   1.594   1.568  0.00  0.00    -0.070 Cl
ENDROOT
TORSDOF 0
ENDMDL
