MODEL 1
REMARK minimizedAffinity -2.10464025
REMARK minimizedRMSD -1
REMARK  0 active torsions:
REMARK  status: ('A' for Active; 'I' for Inactive)
ROOT
ATOM      1  C   UNL d   1       6.000   1.069   6.000  0.00  0.00     0.020 A 
ATOM      2  C1  UNL d   1       5.484  -0.041   5.332  0.00  0.00     0.020 A 
ATOM      3  C2  UNL d   1       4.862   0.117   4.092  0.00  0.00     0.034 A 
ATOM      4  C3  UNL d   1       4.754   1.388   3.516  0.00  0.00     0.017 A 
ATOM      5  C4  UNL d   1       5.271   2.502   4.187  0.00  0.00     0.017 A 
ATOM      6  C5  UNL d   1       5.893   2.338   5.428  0.00  0.00     0.034 A 
ATOM      7 Cl   UNL d   1       5.175   4.101   3.539  0.00  0.00    -0.070 Cl
ATOM      8 Cl1  UNL d   1       3.972   1.509   1.980  0.00  0.00    -0.070 Cl
ENDROOT
TORSDOF 0
ENDMDL
