MODEL 1
REMARK minimizedAffinity -4.74418974
REMARK minimizedRMSD -1
REMARK  0 active torsions:
REMARK  status: ('A' for Active; 'I' for Inactive)
ROOT
ATOM      1  C   UNL d   1       5.722  -1.997   4.808  0.00  0.00     0.020 A 
ATOM      2  C1  UNL d   1       5.682  -1.937   3.415  0.00  0.00     0.020 A 
ATOM      3  C2  UNL d   1       5.740  -0.701   2.768  0.00  0.00     0.034 A 
ATOM      4  C3  UNL d   1       5.839   0.480   3.513  0.00  0.00     0.017 A 
ATOM      5  C4  UNL d   1       5.879   0.418   4.911  0.00  0.00     0.017 A 
ATOM      6  C5  UNL d   1       5.820  -0.822   5.554  0.00  0.00     0.034 A 
ATOM      7 Cl   UNL d   1       5.999   1.832   5.897  0.00  0.00    -0.070 Cl
ATOM      8 Cl1  UNL d   1       5.906   1.973   2.646  0.00  0.00    -0.070 Cl
ENDROOT
TORSDOF 0
ENDMDL
