MODEL 1
REMARK minimizedAffinity -4.03859186
REMARK minimizedRMSD -1
REMARK  0 active torsions:
REMARK  status: ('A' for Active; 'I' for Inactive)
ROOT
ATOM      1  C   UNL d   1       5.685   0.491   3.918  0.00  0.00     0.020 A 
ATOM      2  C1  UNL d   1       5.589   0.361   5.303  0.00  0.00     0.020 A 
ATOM      3  C2  UNL d   1       5.557  -0.908   5.885  0.00  0.00     0.034 A 
ATOM      4  C3  UNL d   1       5.621  -2.052   5.081  0.00  0.00     0.017 A 
ATOM      5  C4  UNL d   1       5.717  -1.920   3.691  0.00  0.00     0.017 A 
ATOM      6  C5  UNL d   1       5.749  -0.647   3.114  0.00  0.00     0.034 A 
ATOM      7 Cl   UNL d   1       5.800  -3.285   2.634  0.00  0.00    -0.070 Cl
ATOM      8 Cl1  UNL d   1       5.576  -3.590   5.867  0.00  0.00    -0.070 Cl
ENDROOT
TORSDOF 0
ENDMDL
