MODEL 1
REMARK minimizedAffinity -3.60701871
REMARK minimizedRMSD -1
REMARK  0 active torsions:
REMARK  status: ('A' for Active; 'I' for Inactive)
ROOT
ATOM      1  C   UNL d   1       5.715   1.109   3.658  0.00  0.00     0.020 A 
ATOM      2  C1  UNL d   1       5.893   1.538   4.973  0.00  0.00     0.020 A 
ATOM      3  C2  UNL d   1       5.979   2.902   5.257  0.00  0.00     0.034 A 
ATOM      4  C3  UNL d   1       5.886   3.843   4.225  0.00  0.00     0.017 A 
ATOM      5  C4  UNL d   1       5.707   3.412   2.906  0.00  0.00     0.017 A 
ATOM      6  C5  UNL d   1       5.622   2.044   2.627  0.00  0.00     0.034 A 
ATOM      7 Cl   UNL d   1       5.584   4.513   1.579  0.00  0.00    -0.070 Cl
ATOM      8 Cl1  UNL d   1       5.999   5.514   4.649  0.00  0.00    -0.070 Cl
ENDROOT
TORSDOF 0
ENDMDL
