MODEL 1
REMARK minimizedAffinity -0.015729649
REMARK minimizedRMSD -1
REMARK  0 active torsions:
REMARK  status: ('A' for Active; 'I' for Inactive)
ROOT
ATOM      1  C   UNL d   1       5.843  -0.261   5.884  0.00  0.00     0.020 A 
ATOM      2  C1  UNL d   1       5.916  -0.853   4.624  0.00  0.00     0.020 A 
ATOM      3  C2  UNL d   1       5.963  -0.056   3.479  0.00  0.00     0.034 A 
ATOM      4  C3  UNL d   1       5.938   1.339   3.591  0.00  0.00     0.017 A 
ATOM      5  C4  UNL d   1       5.865   1.933   4.857  0.00  0.00     0.017 A 
ATOM      6  C5  UNL d   1       5.818   1.130   6.000  0.00  0.00     0.034 A 
ATOM      7 Cl   UNL d   1       5.831   3.647   5.075  0.00  0.00    -0.070 Cl
ATOM      8 Cl1  UNL d   1       6.000   2.264   2.133  0.00  0.00    -0.070 Cl
ENDROOT
TORSDOF 0
ENDMDL
