MODEL 1
REMARK minimizedAffinity -1.10216653
REMARK minimizedRMSD -1
REMARK  0 active torsions:
REMARK  status: ('A' for Active; 'I' for Inactive)
ROOT
ATOM      1  C   UNL d   1       5.997   1.800   4.832  0.00  0.00     0.020 A 
ATOM      2  C1  UNL d   1       5.999   1.776   3.438  0.00  0.00     0.020 A 
ATOM      3  C2  UNL d   1       6.000   2.973   2.719  0.00  0.00     0.034 A 
ATOM      4  C3  UNL d   1       5.998   4.200   3.394  0.00  0.00     0.017 A 
ATOM      5  C4  UNL d   1       5.996   4.223   4.793  0.00  0.00     0.017 A 
ATOM      6  C5  UNL d   1       5.996   3.021   5.508  0.00  0.00     0.034 A 
ATOM      7 Cl   UNL d   1       5.994   5.696   5.696  0.00  0.00    -0.070 Cl
ATOM      8 Cl1  UNL d   1       6.000   5.641   2.441  0.00  0.00    -0.070 Cl
ENDROOT
TORSDOF 0
ENDMDL
