MODEL 1
REMARK minimizedAffinity -0.258424819
REMARK minimizedRMSD -1
REMARK  0 active torsions:
REMARK  status: ('A' for Active; 'I' for Inactive)
ROOT
ATOM      1  C   UNL d   1       5.574   0.972   3.959  0.00  0.00     0.020 A 
ATOM      2  C1  UNL d   1       5.651   1.393   5.286  0.00  0.00     0.020 A 
ATOM      3  C2  UNL d   1       5.782   2.752   5.580  0.00  0.00     0.034 A 
ATOM      4  C3  UNL d   1       5.837   3.694   4.546  0.00  0.00     0.017 A 
ATOM      5  C4  UNL d   1       5.760   3.270   3.215  0.00  0.00     0.017 A 
ATOM      6  C5  UNL d   1       5.628   1.908   2.926  0.00  0.00     0.034 A 
ATOM      7 Cl   UNL d   1       5.820   4.373   1.885  0.00  0.00    -0.070 Cl
ATOM      8 Cl1  UNL d   1       6.000   5.358   4.983  0.00  0.00    -0.070 Cl
ENDROOT
TORSDOF 0
ENDMDL
