MODEL 1
REMARK minimizedAffinity -3.96337414
REMARK minimizedRMSD -1
REMARK  0 active torsions:
REMARK  status: ('A' for Active; 'I' for Inactive)
ROOT
ATOM      1  C   UNL d   1       5.895   3.373   3.127  0.00  0.00     0.020 A 
ATOM      2  C1  UNL d   1       5.693   3.390   4.506  0.00  0.00     0.020 A 
ATOM      3  C2  UNL d   1       5.582   2.189   5.211  0.00  0.00     0.034 A 
ATOM      4  C3  UNL d   1       5.674   0.966   4.536  0.00  0.00     0.017 A 
ATOM      5  C4  UNL d   1       5.877   0.950   3.151  0.00  0.00     0.017 A 
ATOM      6  C5  UNL d   1       5.987   2.155   2.451  0.00  0.00     0.034 A 
ATOM      7 Cl   UNL d   1       6.000  -0.519   2.250  0.00  0.00    -0.070 Cl
ATOM      8 Cl1  UNL d   1       5.528  -0.480   5.471  0.00  0.00    -0.070 Cl
ENDROOT
TORSDOF 0
ENDMDL
