MODEL 1
REMARK minimizedAffinity -0.0494152978
REMARK minimizedRMSD -1
REMARK  0 active torsions:
REMARK  status: ('A' for Active; 'I' for Inactive)
ROOT
ATOM      1  C   UNL d   1       5.999   1.103   5.071  0.00  0.00     0.020 A 
ATOM      2  C1  UNL d   1       5.998   0.962   3.684  0.00  0.00     0.020 A 
ATOM      3  C2  UNL d   1       5.997   2.095   2.867  0.00  0.00     0.034 A 
ATOM      4  C3  UNL d   1       5.997   3.373   3.437  0.00  0.00     0.017 A 
ATOM      5  C4  UNL d   1       5.999   3.513   4.829  0.00  0.00     0.017 A 
ATOM      6  C5  UNL d   1       6.000   2.376   5.642  0.00  0.00     0.034 A 
ATOM      7 Cl   UNL d   1       5.999   5.058   5.606  0.00  0.00    -0.070 Cl
ATOM      8 Cl1  UNL d   1       5.996   4.730   2.367  0.00  0.00    -0.070 Cl
ENDROOT
TORSDOF 0
ENDMDL
