MODEL 1
REMARK minimizedAffinity 1.4817872
REMARK minimizedRMSD -1
REMARK  0 active torsions:
REMARK  status: ('A' for Active; 'I' for Inactive)
ROOT
ATOM      1  C   UNL d   1       5.040   4.137   4.568  0.00  0.00     0.020 A 
ATOM      2  C1  UNL d   1       5.711   4.046   3.349  0.00  0.00     0.020 A 
ATOM      3  C2  UNL d   1       5.997   2.794   2.802  0.00  0.00     0.034 A 
ATOM      4  C3  UNL d   1       5.613   1.627   3.473  0.00  0.00     0.017 A 
ATOM      5  C4  UNL d   1       4.939   1.720   4.696  0.00  0.00     0.017 A 
ATOM      6  C5  UNL d   1       4.655   2.976   5.240  0.00  0.00     0.034 A 
ATOM      7 Cl   UNL d   1       4.433   0.325   5.583  0.00  0.00    -0.070 Cl
ATOM      8 Cl1  UNL d   1       5.999   0.112   2.737  0.00  0.00    -0.070 Cl
ENDROOT
TORSDOF 0
ENDMDL
