MODEL 1
REMARK minimizedAffinity 2.2592566
REMARK minimizedRMSD -1
REMARK  0 active torsions:
REMARK  status: ('A' for Active; 'I' for Inactive)
ROOT
ATOM      1  C   UNL d   1       5.968  -0.031   5.999  0.00  0.00     0.020 A 
ATOM      2  C1  UNL d   1       5.256  -0.944   5.221  0.00  0.00     0.020 A 
ATOM      3  C2  UNL d   1       4.576  -0.508   4.082  0.00  0.00     0.034 A 
ATOM      4  C3  UNL d   1       4.605   0.843   3.718  0.00  0.00     0.017 A 
ATOM      5  C4  UNL d   1       5.320   1.758   4.500  0.00  0.00     0.017 A 
ATOM      6  C5  UNL d   1       6.000   1.316   5.639  0.00  0.00     0.034 A 
ATOM      7 Cl   UNL d   1       5.403   3.441   4.114  0.00  0.00    -0.070 Cl
ATOM      8 Cl1  UNL d   1       3.741   1.311   2.297  0.00  0.00    -0.070 Cl
ENDROOT
TORSDOF 0
ENDMDL
