MODEL 1
REMARK minimizedAffinity -1.50020492
REMARK minimizedRMSD -1
REMARK  0 active torsions:
REMARK  status: ('A' for Active; 'I' for Inactive)
ROOT
ATOM      1  C   UNL d   1       5.598   5.760   0.899  0.00  0.00     0.020 A 
ATOM      2  C1  UNL d   1       4.591   4.832   0.637  0.00  0.00     0.020 A 
ATOM      3  C2  UNL d   1       3.985   4.143   1.690  0.00  0.00     0.034 A 
ATOM      4  C3  UNL d   1       4.386   4.382   3.010  0.00  0.00     0.017 A 
ATOM      5  C4  UNL d   1       5.397   5.313   3.272  0.00  0.00     0.017 A 
ATOM      6  C5  UNL d   1       6.000   6.000   2.214  0.00  0.00     0.034 A 
ATOM      7 Cl   UNL d   1       5.944   5.661   4.874  0.00  0.00    -0.070 Cl
ATOM      8 Cl1  UNL d   1       3.593   3.495   4.263  0.00  0.00    -0.070 Cl
ENDROOT
TORSDOF 0
ENDMDL
