MODEL 1
REMARK minimizedAffinity -0.177275121
REMARK minimizedRMSD -1
REMARK  0 active torsions:
REMARK  status: ('A' for Active; 'I' for Inactive)
ROOT
ATOM      1  C   UNL d   1       5.921   1.639   4.528  0.00  0.00     0.020 A 
ATOM      2  C1  UNL d   1       5.734   1.316   3.185  0.00  0.00     0.020 A 
ATOM      3  C2  UNL d   1       5.626   2.330   2.231  0.00  0.00     0.034 A 
ATOM      4  C3  UNL d   1       5.705   3.673   2.619  0.00  0.00     0.017 A 
ATOM      5  C4  UNL d   1       5.893   3.996   3.968  0.00  0.00     0.017 A 
ATOM      6  C5  UNL d   1       6.000   2.976   4.919  0.00  0.00     0.034 A 
ATOM      7 Cl   UNL d   1       6.000   5.629   4.523  0.00  0.00    -0.070 Cl
ATOM      8 Cl1  UNL d   1       5.564   4.875   1.387  0.00  0.00    -0.070 Cl
ENDROOT
TORSDOF 0
ENDMDL
