MODEL 1
REMARK minimizedAffinity -5.22804022
REMARK minimizedRMSD -1
REMARK  2 active torsions:
REMARK  status: ('A' for Active; 'I' for Inactive)
REMARK    1  A    between atoms: C1_2  and  C2_3 
REMARK    2  A    between atoms: C2_3  and  C3_4 
ROOT
ATOM      1  C3  UNL d   1       0.039  -0.993   0.126  0.00  0.00    -0.075 A 
ATOM      2  C4  UNL d   1       0.772  -1.922  -0.627  0.00  0.00     0.002 A 
ATOM      3  C5  UNL d   1       1.661  -1.492  -1.612  0.00  0.00     0.002 A 
ATOM      4  C6  UNL d   1       1.822  -0.131  -1.864  0.00  0.00    -0.004 A 
ATOM      5  C7  UNL d   1       1.087   0.800  -1.133  0.00  0.00     0.002 A 
ATOM      6  C8  UNL d   1       0.200   0.373  -0.144  0.00  0.00     0.002 A 
ENDROOT
BRANCH   1   7
ATOM      7  C2  UNL d   1      -0.903  -1.451   1.214  0.00  0.00     0.056 C 
BRANCH   7   8
ATOM      8  C1  UNL d   1      -2.331  -0.915   1.068  0.00  0.00     0.007 C 
ATOM      9  C   UNL d   1      -2.729   0.044   2.182  0.00  0.00     0.009 C 
ENDBRANCH   7   8
ENDBRANCH   1   7
TORSDOF 2
ENDMDL
