MODEL 1
REMARK minimizedAffinity 0.580566943
REMARK minimizedRMSD -1
REMARK  2 active torsions:
REMARK  status: ('A' for Active; 'I' for Inactive)
REMARK    1  A    between atoms: C1_2  and  C2_3 
REMARK    2  A    between atoms: C2_3  and  C3_4 
ROOT
ATOM      1  C3  UNL d   1       0.864  -0.372  -0.020  0.00  0.00    -0.075 A 
ATOM      2  C4  UNL d   1       0.215   0.688   0.628  0.00  0.00     0.002 A 
ATOM      3  C5  UNL d   1       0.453   2.007   0.240  0.00  0.00     0.002 A 
ATOM      4  C6  UNL d   1       1.349   2.283  -0.791  0.00  0.00    -0.004 A 
ATOM      5  C7  UNL d   1       2.012   1.238  -1.430  0.00  0.00     0.002 A 
ATOM      6  C8  UNL d   1       1.772  -0.083  -1.048  0.00  0.00     0.002 A 
ENDROOT
BRANCH   1   7
ATOM      7  C2  UNL d   1       0.589  -1.804   0.375  0.00  0.00     0.056 C 
BRANCH   7   8
ATOM      8  C1  UNL d   1      -0.365  -2.540  -0.573  0.00  0.00     0.007 C 
ATOM      9  C   UNL d   1      -1.771  -1.955  -0.582  0.00  0.00     0.009 C 
ENDBRANCH   7   8
ENDBRANCH   1   7
TORSDOF 2
ENDMDL
