MODEL 1
REMARK minimizedAffinity -0.819747746
REMARK minimizedRMSD -1
REMARK  2 active torsions:
REMARK  status: ('A' for Active; 'I' for Inactive)
REMARK    1  A    between atoms: C1_2  and  C2_3 
REMARK    2  A    between atoms: C2_3  and  C3_4 
ROOT
ATOM      1  C3  UNL d   1      -2.791   1.816  -5.352  0.00  0.00    -0.075 A 
ATOM      2  C4  UNL d   1      -1.577   2.458  -5.067  0.00  0.00     0.002 A 
ATOM      3  C5  UNL d   1      -1.471   3.846  -5.162  0.00  0.00     0.002 A 
ATOM      4  C6  UNL d   1      -2.572   4.607  -5.552  0.00  0.00    -0.004 A 
ATOM      5  C7  UNL d   1      -3.778   3.977  -5.852  0.00  0.00     0.002 A 
ATOM      6  C8  UNL d   1      -3.888   2.589  -5.754  0.00  0.00     0.002 A 
ENDROOT
BRANCH   1   7
ATOM      7  C2  UNL d   1      -2.920   0.317  -5.222  0.00  0.00     0.056 C 
BRANCH   7   8
ATOM      8  C1  UNL d   1      -4.363  -0.194  -5.303  0.00  0.00     0.007 C 
ATOM      9  C   UNL d   1      -4.557  -1.552  -4.642  0.00  0.00     0.009 C 
ENDBRANCH   7   8
ENDBRANCH   1   7
TORSDOF 2
ENDMDL
