MODEL 1
REMARK minimizedAffinity 1.32551301
REMARK minimizedRMSD -1
REMARK  2 active torsions:
REMARK  status: ('A' for Active; 'I' for Inactive)
REMARK    1  A    between atoms: C1_2  and  C2_3 
REMARK    2  A    between atoms: C2_3  and  C3_4 
ROOT
ATOM      1  C3  UNL d   1       1.476   2.006  -1.781  0.00  0.00    -0.075 A 
ATOM      2  C4  UNL d   1       0.976   1.530  -3.002  0.00  0.00     0.002 A 
ATOM      3  C5  UNL d   1       1.081   0.179  -3.332  0.00  0.00     0.002 A 
ATOM      4  C6  UNL d   1       1.696  -0.710  -2.453  0.00  0.00    -0.004 A 
ATOM      5  C7  UNL d   1       2.211  -0.245  -1.245  0.00  0.00     0.002 A 
ATOM      6  C8  UNL d   1       2.103   1.106  -0.910  0.00  0.00     0.002 A 
ENDROOT
BRANCH   1   7
ATOM      7  C2  UNL d   1       1.339   3.462  -1.405  0.00  0.00     0.056 C 
BRANCH   7   8
ATOM      8  C1  UNL d   1       1.252   3.711   0.104  0.00  0.00     0.007 C 
ATOM      9  C   UNL d   1       1.326   5.187   0.475  0.00  0.00     0.009 C 
ENDBRANCH   7   8
ENDBRANCH   1   7
TORSDOF 2
ENDMDL
