MODEL 1
REMARK minimizedAffinity 4.38299894
REMARK minimizedRMSD -1
REMARK  2 active torsions:
REMARK  status: ('A' for Active; 'I' for Inactive)
REMARK    1  A    between atoms: C1_2  and  C2_3 
REMARK    2  A    between atoms: C2_3  and  C3_4 
ROOT
ATOM      1  C3  UNL d   1       1.525   0.031  -1.584  0.00  0.00    -0.075 A 
ATOM      2  C4  UNL d   1       2.198   0.771  -0.601  0.00  0.00     0.002 A 
ATOM      3  C5  UNL d   1       2.234   2.165  -0.665  0.00  0.00     0.002 A 
ATOM      4  C6  UNL d   1       1.608   2.834  -1.714  0.00  0.00    -0.004 A 
ATOM      5  C7  UNL d   1       0.951   2.108  -2.705  0.00  0.00     0.002 A 
ATOM      6  C8  UNL d   1       0.909   0.714  -2.641  0.00  0.00     0.002 A 
ENDROOT
BRANCH   1   7
ATOM      7  C2  UNL d   1       1.457  -1.475  -1.505  0.00  0.00     0.056 C 
BRANCH   7   8
ATOM      8  C1  UNL d   1       0.251  -2.005  -0.722  0.00  0.00     0.007 C 
ATOM      9  C   UNL d   1       0.076  -3.513  -0.838  0.00  0.00     0.009 C 
ENDBRANCH   7   8
ENDBRANCH   1   7
TORSDOF 2
ENDMDL
