MODEL 1
REMARK minimizedAffinity 1.83755434
REMARK minimizedRMSD -1
REMARK  2 active torsions:
REMARK  status: ('A' for Active; 'I' for Inactive)
REMARK    1  A    between atoms: C1_2  and  C2_3 
REMARK    2  A    between atoms: C2_3  and  C3_4 
ROOT
ATOM      1  C3  UNL d   1       1.215   0.481  -0.504  0.00  0.00    -0.075 A 
ATOM      2  C4  UNL d   1       0.886   1.802  -0.165  0.00  0.00     0.002 A 
ATOM      3  C5  UNL d   1       1.253   2.860  -0.997  0.00  0.00     0.002 A 
ATOM      4  C6  UNL d   1       1.960   2.613  -2.172  0.00  0.00    -0.004 A 
ATOM      5  C7  UNL d   1       2.306   1.306  -2.511  0.00  0.00     0.002 A 
ATOM      6  C8  UNL d   1       1.937   0.246  -1.682  0.00  0.00     0.002 A 
ENDROOT
BRANCH   1   7
ATOM      7  C2  UNL d   1       0.795  -0.670   0.378  0.00  0.00     0.056 C 
BRANCH   7   8
ATOM      8  C1  UNL d   1       0.305  -1.900  -0.394  0.00  0.00     0.007 C 
ATOM      9  C   UNL d   1      -0.219  -3.007   0.511  0.00  0.00     0.009 C 
ENDBRANCH   7   8
ENDBRANCH   1   7
TORSDOF 2
ENDMDL
