MODEL 1
REMARK minimizedAffinity 9.03510094
REMARK minimizedRMSD -1
REMARK  2 active torsions:
REMARK  status: ('A' for Active; 'I' for Inactive)
REMARK    1  A    between atoms: C1_2  and  C2_3 
REMARK    2  A    between atoms: C2_3  and  C3_4 
ROOT
ATOM      1  C3  UNL d   1       0.146  -2.949  -1.045  0.00  0.00    -0.075 A 
ATOM      2  C4  UNL d   1      -0.170  -3.012   0.320  0.00  0.00     0.002 A 
ATOM      3  C5  UNL d   1      -1.408  -2.566   0.782  0.00  0.00     0.002 A 
ATOM      4  C6  UNL d   1      -2.341  -2.043  -0.110  0.00  0.00    -0.004 A 
ATOM      5  C7  UNL d   1      -2.032  -1.960  -1.466  0.00  0.00     0.002 A 
ATOM      6  C8  UNL d   1      -0.795  -2.409  -1.932  0.00  0.00     0.002 A 
ENDROOT
BRANCH   1   7
ATOM      7  C2  UNL d   1       1.473  -3.457  -1.556  0.00  0.00     0.056 C 
BRANCH   7   8
ATOM      8  C1  UNL d   1       2.613  -2.439  -1.449  0.00  0.00     0.007 C 
ATOM      9  C   UNL d   1       2.154  -1.000  -1.644  0.00  0.00     0.009 C 
ENDBRANCH   7   8
ENDBRANCH   1   7
TORSDOF 2
ENDMDL
