MODEL 1
REMARK minimizedAffinity 0.32512477
REMARK minimizedRMSD -1
REMARK  2 active torsions:
REMARK  status: ('A' for Active; 'I' for Inactive)
REMARK    1  A    between atoms: C1_2  and  C2_3 
REMARK    2  A    between atoms: C2_3  and  C3_4 
ROOT
ATOM      1  C3  UNL d   1      -4.798   3.149  -5.774  0.00  0.00    -0.075 A 
ATOM      2  C4  UNL d   1      -3.501   2.622  -5.855  0.00  0.00     0.002 A 
ATOM      3  C5  UNL d   1      -2.392   3.468  -5.882  0.00  0.00     0.002 A 
ATOM      4  C6  UNL d   1      -2.566   4.850  -5.841  0.00  0.00    -0.004 A 
ATOM      5  C7  UNL d   1      -3.851   5.385  -5.778  0.00  0.00     0.002 A 
ATOM      6  C8  UNL d   1      -4.961   4.540  -5.745  0.00  0.00     0.002 A 
ENDROOT
BRANCH   1   7
ATOM      7  C2  UNL d   1      -6.000   2.237  -5.714  0.00  0.00     0.056 C 
BRANCH   7   8
ATOM      8  C1  UNL d   1      -5.682   0.766  -6.000  0.00  0.00     0.007 C 
ATOM      9  C   UNL d   1      -5.863  -0.134  -4.785  0.00  0.00     0.009 C 
ENDBRANCH   7   8
ENDBRANCH   1   7
TORSDOF 2
ENDMDL
