MODEL 1
REMARK minimizedAffinity 1.97351396
REMARK minimizedRMSD -1
REMARK  2 active torsions:
REMARK  status: ('A' for Active; 'I' for Inactive)
REMARK    1  A    between atoms: C1_2  and  C2_3 
REMARK    2  A    between atoms: C2_3  and  C3_4 
ROOT
ATOM      1  C3  UNL d   1      -3.879   3.345  -5.762  0.00  0.00    -0.075 A 
ATOM      2  C4  UNL d   1      -4.566   4.544  -6.000  0.00  0.00     0.002 A 
ATOM      3  C5  UNL d   1      -3.928   5.772  -5.827  0.00  0.00     0.002 A 
ATOM      4  C6  UNL d   1      -2.601   5.818  -5.406  0.00  0.00    -0.004 A 
ATOM      5  C7  UNL d   1      -1.913   4.633  -5.151  0.00  0.00     0.002 A 
ATOM      6  C8  UNL d   1      -2.548   3.403  -5.327  0.00  0.00     0.002 A 
ENDROOT
BRANCH   1   7
ATOM      7  C2  UNL d   1      -4.555   2.012  -5.975  0.00  0.00     0.056 C 
BRANCH   7   8
ATOM      8  C1  UNL d   1      -4.035   0.895  -5.064  0.00  0.00     0.007 C 
ATOM      9  C   UNL d   1      -4.791  -0.416  -5.229  0.00  0.00     0.009 C 
ENDBRANCH   7   8
ENDBRANCH   1   7
TORSDOF 2
ENDMDL
