MODEL 1
REMARK minimizedAffinity 3.86568451
REMARK minimizedRMSD -1
REMARK  2 active torsions:
REMARK  status: ('A' for Active; 'I' for Inactive)
REMARK    1  A    between atoms: C1_2  and  C2_3 
REMARK    2  A    between atoms: C2_3  and  C3_4 
ROOT
ATOM      1  C3  UNL d   1       4.119  -1.728  -2.685  0.00  0.00    -0.075 A 
ATOM      2  C4  UNL d   1       4.510  -2.994  -2.226  0.00  0.00     0.002 A 
ATOM      3  C5  UNL d   1       4.949  -3.969  -3.122  0.00  0.00     0.002 A 
ATOM      4  C6  UNL d   1       4.994  -3.695  -4.487  0.00  0.00    -0.004 A 
ATOM      5  C7  UNL d   1       4.593  -2.446  -4.957  0.00  0.00     0.002 A 
ATOM      6  C8  UNL d   1       4.157  -1.467  -4.061  0.00  0.00     0.002 A 
ENDROOT
BRANCH   1   7
ATOM      7  C2  UNL d   1       3.671  -0.659  -1.717  0.00  0.00     0.056 C 
BRANCH   7   8
ATOM      8  C1  UNL d   1       3.143   0.611  -2.392  0.00  0.00     0.007 C 
ATOM      9  C   UNL d   1       2.216   1.425  -1.499  0.00  0.00     0.009 C 
ENDBRANCH   7   8
ENDBRANCH   1   7
TORSDOF 2
ENDMDL
