MODEL 1
REMARK minimizedAffinity -2.67851472
REMARK minimizedRMSD -1
REMARK  2 active torsions:
REMARK  status: ('A' for Active; 'I' for Inactive)
REMARK    1  A    between atoms: C1_2  and  C2_3 
REMARK    2  A    between atoms: C2_3  and  C3_4 
ROOT
ATOM      1  C3  UNL d   1      -3.767   1.366  -5.870  0.00  0.00    -0.075 A 
ATOM      2  C4  UNL d   1      -2.407   1.046  -5.999  0.00  0.00     0.002 A 
ATOM      3  C5  UNL d   1      -1.432   2.036  -5.876  0.00  0.00     0.002 A 
ATOM      4  C6  UNL d   1      -1.802   3.357  -5.633  0.00  0.00    -0.004 A 
ATOM      5  C7  UNL d   1      -3.150   3.689  -5.519  0.00  0.00     0.002 A 
ATOM      6  C8  UNL d   1      -4.128   2.699  -5.638  0.00  0.00     0.002 A 
ENDROOT
BRANCH   1   7
ATOM      7  C2  UNL d   1      -4.826   0.294  -5.973  0.00  0.00     0.056 C 
BRANCH   7   8
ATOM      8  C1  UNL d   1      -4.368  -1.084  -5.483  0.00  0.00     0.007 C 
ATOM      9  C   UNL d   1      -5.237  -2.223  -6.000  0.00  0.00     0.009 C 
ENDBRANCH   7   8
ENDBRANCH   1   7
TORSDOF 2
ENDMDL
