MODEL 1
REMARK minimizedAffinity 1.06945586
REMARK minimizedRMSD -1
REMARK  2 active torsions:
REMARK  status: ('A' for Active; 'I' for Inactive)
REMARK    1  A    between atoms: C1_2  and  C2_3 
REMARK    2  A    between atoms: C2_3  and  C3_4 
ROOT
ATOM      1  C3  UNL d   1       1.303  -0.940  -0.241  0.00  0.00    -0.075 A 
ATOM      2  C4  UNL d   1       2.408  -1.013  -1.102  0.00  0.00     0.002 A 
ATOM      3  C5  UNL d   1       3.017   0.151  -1.573  0.00  0.00     0.002 A 
ATOM      4  C6  UNL d   1       2.525   1.399  -1.197  0.00  0.00    -0.004 A 
ATOM      5  C7  UNL d   1       1.418   1.483  -0.355  0.00  0.00     0.002 A 
ATOM      6  C8  UNL d   1       0.809   0.320   0.121  0.00  0.00     0.002 A 
ENDROOT
BRANCH   1   7
ATOM      7  C2  UNL d   1       0.658  -2.196   0.295  0.00  0.00     0.056 C 
BRANCH   7   8
ATOM      8  C1  UNL d   1      -0.832  -2.324  -0.041  0.00  0.00     0.007 C 
ATOM      9  C   UNL d   1      -1.516  -3.470   0.691  0.00  0.00     0.009 C 
ENDBRANCH   7   8
ENDBRANCH   1   7
TORSDOF 2
ENDMDL
