MODEL 1
REMARK minimizedAffinity -2.64371467
REMARK minimizedRMSD -1
REMARK  2 active torsions:
REMARK  status: ('A' for Active; 'I' for Inactive)
REMARK    1  A    between atoms: C1_2  and  C2_3 
REMARK    2  A    between atoms: C2_3  and  C3_4 
ROOT
ATOM      1  C3  UNL d   1      -1.086   0.523   1.058  0.00  0.00    -0.075 A 
ATOM      2  C4  UNL d   1      -0.855  -0.832   0.781  0.00  0.00     0.002 A 
ATOM      3  C5  UNL d   1       0.216  -1.218  -0.025  0.00  0.00     0.002 A 
ATOM      4  C6  UNL d   1       1.061  -0.256  -0.573  0.00  0.00    -0.004 A 
ATOM      5  C7  UNL d   1       0.831   1.095  -0.318  0.00  0.00     0.002 A 
ATOM      6  C8  UNL d   1      -0.237   1.483   0.492  0.00  0.00     0.002 A 
ENDROOT
BRANCH   1   7
ATOM      7  C2  UNL d   1      -2.226   0.946   1.954  0.00  0.00     0.056 C 
BRANCH   7   8
ATOM      8  C1  UNL d   1      -3.605   0.487   1.468  0.00  0.00     0.007 C 
ATOM      9  C   UNL d   1      -4.695   1.528   1.686  0.00  0.00     0.009 C 
ENDBRANCH   7   8
ENDBRANCH   1   7
TORSDOF 2
ENDMDL
