MODEL 1
REMARK minimizedAffinity -3.42874908
REMARK minimizedRMSD -1
REMARK  1 active torsions:
REMARK  status: ('A' for Active; 'I' for Inactive)
REMARK    1  A    between atoms: C3_4  and  O_7 
ROOT
ATOM      1  C   UNL d   1      -0.207  -0.745  -0.169  0.00  0.00    -0.033 A 
ATOM      2  C1  UNL d   1       0.850  -0.150   0.523  0.00  0.00     0.039 A 
ATOM      3  C2  UNL d   1       0.596   0.848   1.466  0.00  0.00    -0.080 A 
ATOM      4  C3  UNL d   1      -0.718   1.242   1.707  0.00  0.00     0.150 A 
ATOM      5  C4  UNL d   1      -1.776   0.651   1.024  0.00  0.00    -0.007 A 
ATOM      6  C5  UNL d   1      -1.520  -0.345   0.083  0.00  0.00     0.039 A 
ENDROOT
BRANCH   4   7
ATOM      7  O   UNL d   1      -1.014   2.215   2.614  0.00  0.00    -0.526 OA
ATOM      8  H5  UNL d   1      -0.183   2.552   2.987  0.00  0.00     0.418 HD
ENDBRANCH   4   7
TORSDOF 1
ENDMDL
