MODEL 1
REMARK minimizedAffinity -1.22659338
REMARK minimizedRMSD -1
REMARK  1 active torsions:
REMARK  status: ('A' for Active; 'I' for Inactive)
REMARK    1  A    between atoms: C3_4  and  O_7 
ROOT
ATOM      1  C   UNL d   1      -0.989   0.851  -0.161  0.00  0.00    -0.033 A 
ATOM      2  C1  UNL d   1       0.098   1.411   0.514  0.00  0.00     0.039 A 
ATOM      3  C2  UNL d   1       1.243   0.647   0.751  0.00  0.00    -0.080 A 
ATOM      4  C3  UNL d   1       1.288  -0.671   0.307  0.00  0.00     0.150 A 
ATOM      5  C4  UNL d   1       0.211  -1.234  -0.369  0.00  0.00    -0.007 A 
ATOM      6  C5  UNL d   1      -0.932  -0.470  -0.604  0.00  0.00     0.039 A 
ENDROOT
BRANCH   4   7
ATOM      7  O   UNL d   1       2.382  -1.457   0.519  0.00  0.00    -0.526 OA
ATOM      8  H5  UNL d   1       3.036  -0.944   1.023  0.00  0.00     0.418 HD
ENDBRANCH   4   7
TORSDOF 1
ENDMDL
