MODEL 1
REMARK minimizedAffinity -4.5688777
REMARK minimizedRMSD -1
REMARK  1 active torsions:
REMARK  status: ('A' for Active; 'I' for Inactive)
REMARK    1  A    between atoms: C3_4  and  O_7 
ROOT
ATOM      1  C   UNL d   1      -0.316  -0.391  -0.671  0.00  0.00    -0.033 A 
ATOM      2  C1  UNL d   1       0.722  -0.314   0.259  0.00  0.00     0.039 A 
ATOM      3  C2  UNL d   1       0.517   0.321   1.486  0.00  0.00    -0.080 A 
ATOM      4  C3  UNL d   1      -0.729   0.872   1.770  0.00  0.00     0.150 A 
ATOM      5  C4  UNL d   1      -1.769   0.795   0.850  0.00  0.00    -0.007 A 
ATOM      6  C5  UNL d   1      -1.563   0.162  -0.375  0.00  0.00     0.039 A 
ENDROOT
BRANCH   4   7
ATOM      7  O   UNL d   1      -0.976   1.506   2.952  0.00  0.00    -0.526 OA
ATOM      8  H5  UNL d   1      -0.158   1.507   3.477  0.00  0.00     0.418 HD
ENDBRANCH   4   7
TORSDOF 1
ENDMDL
