MODEL 1
REMARK minimizedAffinity -3.16008735
REMARK minimizedRMSD -1
REMARK  1 active torsions:
REMARK  status: ('A' for Active; 'I' for Inactive)
REMARK    1  A    between atoms: C3_4  and  O_7 
ROOT
ATOM      1  C   UNL d   1      -0.128  -0.488  -0.339  0.00  0.00    -0.033 A 
ATOM      2  C1  UNL d   1       0.910   0.125   0.365  0.00  0.00     0.039 A 
ATOM      3  C2  UNL d   1       0.625   0.952   1.454  0.00  0.00    -0.080 A 
ATOM      4  C3  UNL d   1      -0.700   1.156   1.828  0.00  0.00     0.150 A 
ATOM      5  C4  UNL d   1      -1.739   0.545   1.134  0.00  0.00    -0.007 A 
ATOM      6  C5  UNL d   1      -1.452  -0.279   0.047  0.00  0.00     0.039 A 
ENDROOT
BRANCH   4   7
ATOM      7  O   UNL d   1      -1.028   1.959   2.880  0.00  0.00    -0.526 OA
ATOM      8  H5  UNL d   1      -0.210   2.336   3.246  0.00  0.00     0.418 HD
ENDBRANCH   4   7
TORSDOF 1
ENDMDL
