MODEL 1
REMARK minimizedAffinity -4.48575783
REMARK minimizedRMSD -1
REMARK  1 active torsions:
REMARK  status: ('A' for Active; 'I' for Inactive)
REMARK    1  A    between atoms: C3_4  and  O_7 
ROOT
ATOM      1  C   UNL d   1      -0.347  -0.275  -0.694  0.00  0.00    -0.033 A 
ATOM      2  C1  UNL d   1       0.748  -0.244   0.173  0.00  0.00     0.039 A 
ATOM      3  C2  UNL d   1       0.610   0.290   1.456  0.00  0.00    -0.080 A 
ATOM      4  C3  UNL d   1      -0.626   0.787   1.860  0.00  0.00     0.150 A 
ATOM      5  C4  UNL d   1      -1.722   0.755   1.003  0.00  0.00    -0.007 A 
ATOM      6  C5  UNL d   1      -1.582   0.223  -0.278  0.00  0.00     0.039 A 
ENDROOT
BRANCH   4   7
ATOM      7  O   UNL d   1      -0.808   1.322   3.100  0.00  0.00    -0.526 OA
ATOM      8  H5  UNL d   1       0.042   1.303   3.571  0.00  0.00     0.418 HD
ENDBRANCH   4   7
TORSDOF 1
ENDMDL
