MODEL 1
REMARK minimizedAffinity -5.5150733
REMARK minimizedRMSD -1
REMARK  0 active torsions:
REMARK  status: ('A' for Active; 'I' for Inactive)
ROOT
ATOM      1  C   UNL d   1      -1.413   3.402   0.595  0.00  0.00     0.078 C 
ATOM      2  C1  UNL d   1      -1.078   1.957   0.811  0.00  0.00    -0.077 A 
ATOM      3  C2  UNL d   1      -1.166   1.379   2.083  0.00  0.00    -0.001 A 
ATOM      4  C3  UNL d   1      -0.841   0.034   2.272  0.00  0.00     0.003 A 
ATOM      5  C4  UNL d   1      -0.425  -0.743   1.193  0.00  0.00    -0.005 A 
ATOM      6  C5  UNL d   1      -0.331  -0.176  -0.076  0.00  0.00     0.003 A 
ATOM      7  C6  UNL d   1      -0.656   1.168  -0.267  0.00  0.00    -0.001 A 
ENDROOT
TORSDOF 0
ENDMDL
