MODEL 1
REMARK minimizedAffinity -5.75403261
REMARK minimizedRMSD -1
REMARK  0 active torsions:
REMARK  status: ('A' for Active; 'I' for Inactive)
ROOT
ATOM      1  C   UNL d   1       0.466  -0.609  -0.099  0.00  0.00     0.078 C 
ATOM      2  C1  UNL d   1      -0.313   0.575   0.389  0.00  0.00    -0.077 A 
ATOM      3  C2  UNL d   1      -0.367   1.760  -0.356  0.00  0.00    -0.001 A 
ATOM      4  C3  UNL d   1      -1.089   2.858   0.116  0.00  0.00     0.003 A 
ATOM      5  C4  UNL d   1      -1.761   2.783   1.334  0.00  0.00    -0.005 A 
ATOM      6  C5  UNL d   1      -1.711   1.609   2.084  0.00  0.00     0.003 A 
ATOM      7  C6  UNL d   1      -0.990   0.510   1.614  0.00  0.00    -0.001 A 
ENDROOT
TORSDOF 0
ENDMDL
