MODEL 1
REMARK minimizedAffinity -2.7724843
REMARK minimizedRMSD -1
REMARK  0 active torsions:
REMARK  status: ('A' for Active; 'I' for Inactive)
ROOT
ATOM      1  C   UNL d   1       1.020  -0.643  -0.205  0.00  0.00     0.078 C 
ATOM      2  C1  UNL d   1      -0.018   0.179   0.499  0.00  0.00    -0.077 A 
ATOM      3  C2  UNL d   1      -0.389  -0.104   1.819  0.00  0.00    -0.001 A 
ATOM      4  C3  UNL d   1      -1.363   0.664   2.459  0.00  0.00     0.003 A 
ATOM      5  C4  UNL d   1      -1.975   1.719   1.786  0.00  0.00    -0.005 A 
ATOM      6  C5  UNL d   1      -1.615   2.007   0.471  0.00  0.00     0.003 A 
ATOM      7  C6  UNL d   1      -0.640   1.240  -0.170  0.00  0.00    -0.001 A 
ENDROOT
TORSDOF 0
ENDMDL
