MODEL 1
REMARK minimizedAffinity -4.38160658
REMARK minimizedRMSD -1
REMARK  0 active torsions:
REMARK  status: ('A' for Active; 'I' for Inactive)
ROOT
ATOM      1  C   UNL d   1      -1.494   1.685   1.542  0.00  0.00     0.078 C 
ATOM      2  C1  UNL d   1      -0.774   0.508   0.954  0.00  0.00    -0.077 A 
ATOM      3  C2  UNL d   1      -0.600  -0.672   1.688  0.00  0.00    -0.001 A 
ATOM      4  C3  UNL d   1       0.080  -1.756   1.131  0.00  0.00     0.003 A 
ATOM      5  C4  UNL d   1       0.594  -1.671  -0.161  0.00  0.00    -0.005 A 
ATOM      6  C5  UNL d   1       0.428  -0.500  -0.899  0.00  0.00     0.003 A 
ATOM      7  C6  UNL d   1      -0.253   0.585  -0.344  0.00  0.00    -0.001 A 
ENDROOT
TORSDOF 0
ENDMDL
