MODEL 1
REMARK minimizedAffinity -2.11501741
REMARK minimizedRMSD -1
REMARK  0 active torsions:
REMARK  status: ('A' for Active; 'I' for Inactive)
ROOT
ATOM      1  C   UNL d   1      -2.159   2.185   1.369  0.00  0.00     0.078 C 
ATOM      2  C1  UNL d   1      -1.024   1.401   0.780  0.00  0.00    -0.077 A 
ATOM      3  C2  UNL d   1      -0.495   1.730  -0.474  0.00  0.00    -0.001 A 
ATOM      4  C3  UNL d   1       0.555   0.985  -1.015  0.00  0.00     0.003 A 
ATOM      5  C4  UNL d   1       1.083  -0.094  -0.309  0.00  0.00    -0.005 A 
ATOM      6  C5  UNL d   1       0.562  -0.430   0.939  0.00  0.00     0.003 A 
ATOM      7  C6  UNL d   1      -0.488   0.314   1.481  0.00  0.00    -0.001 A 
ENDROOT
TORSDOF 0
ENDMDL
