MODEL 1
REMARK minimizedAffinity -4.73577929
REMARK minimizedRMSD -1
REMARK  0 active torsions:
REMARK  status: ('A' for Active; 'I' for Inactive)
ROOT
ATOM      1  C   UNL d   1      -2.352   2.099   1.258  0.00  0.00     0.078 C 
ATOM      2  C1  UNL d   1      -1.312   1.183   0.686  0.00  0.00    -0.077 A 
ATOM      3  C2  UNL d   1      -0.728   1.443  -0.560  0.00  0.00    -0.001 A 
ATOM      4  C3  UNL d   1       0.232   0.577  -1.085  0.00  0.00     0.003 A 
ATOM      5  C4  UNL d   1       0.616  -0.557  -0.371  0.00  0.00    -0.005 A 
ATOM      6  C5  UNL d   1       0.039  -0.826   0.868  0.00  0.00     0.003 A 
ATOM      7  C6  UNL d   1      -0.921   0.040   1.395  0.00  0.00    -0.001 A 
ENDROOT
TORSDOF 0
ENDMDL
