MODEL 1
REMARK minimizedAffinity -2.49705529
REMARK minimizedRMSD -1
REMARK  0 active torsions:
REMARK  status: ('A' for Active; 'I' for Inactive)
ROOT
ATOM      1  C   UNL d   1      -0.133  -0.406  -0.018  0.00  0.00     0.078 C 
ATOM      2  C1  UNL d   1       0.349  -1.564  -0.839  0.00  0.00    -0.077 A 
ATOM      3  C2  UNL d   1      -0.328  -1.957  -2.001  0.00  0.00    -0.001 A 
ATOM      4  C3  UNL d   1       0.127  -3.043  -2.750  0.00  0.00     0.003 A 
ATOM      5  C4  UNL d   1       1.260  -3.747  -2.345  0.00  0.00    -0.005 A 
ATOM      6  C5  UNL d   1       1.938  -3.365  -1.190  0.00  0.00     0.003 A 
ATOM      7  C6  UNL d   1       1.485  -2.279  -0.439  0.00  0.00    -0.001 A 
ENDROOT
TORSDOF 0
ENDMDL
