MODEL 1
REMARK minimizedAffinity -2.66289663
REMARK minimizedRMSD -1
REMARK  0 active torsions:
REMARK  status: ('A' for Active; 'I' for Inactive)
ROOT
ATOM      1  C   UNL d   1       1.221  -1.450  -0.804  0.00  0.00     0.078 C 
ATOM      2  C1  UNL d   1       0.466  -0.569   0.146  0.00  0.00    -0.077 A 
ATOM      3  C2  UNL d   1       0.080  -1.035   1.409  0.00  0.00    -0.001 A 
ATOM      4  C3  UNL d   1      -0.631  -0.207   2.279  0.00  0.00     0.003 A 
ATOM      5  C4  UNL d   1      -0.962   1.091   1.896  0.00  0.00    -0.005 A 
ATOM      6  C5  UNL d   1      -0.584   1.562   0.640  0.00  0.00     0.003 A 
ATOM      7  C6  UNL d   1       0.126   0.736  -0.232  0.00  0.00    -0.001 A 
ENDROOT
TORSDOF 0
ENDMDL
