MODEL 1
REMARK minimizedAffinity -4.9653182
REMARK minimizedRMSD -1
REMARK  0 active torsions:
REMARK  status: ('A' for Active; 'I' for Inactive)
ROOT
ATOM      1  C   UNL d   1       1.406  -0.629  -0.019  0.00  0.00     0.078 C 
ATOM      2  C1  UNL d   1       0.289   0.217   0.515  0.00  0.00    -0.077 A 
ATOM      3  C2  UNL d   1       0.061   1.507   0.020  0.00  0.00    -0.001 A 
ATOM      4  C3  UNL d   1      -0.976   2.287   0.534  0.00  0.00     0.003 A 
ATOM      5  C4  UNL d   1      -1.792   1.787   1.546  0.00  0.00    -0.005 A 
ATOM      6  C5  UNL d   1      -1.572   0.505   2.047  0.00  0.00     0.003 A 
ATOM      7  C6  UNL d   1      -0.535  -0.276   1.534  0.00  0.00    -0.001 A 
ENDROOT
TORSDOF 0
ENDMDL
