MODEL 1
REMARK minimizedAffinity -5.19199991
REMARK minimizedRMSD -1
REMARK  0 active torsions:
REMARK  status: ('A' for Active; 'I' for Inactive)
ROOT
ATOM      1  C   UNL d   1      -2.058   1.943   0.477  0.00  0.00     0.078 C 
ATOM      2  C1  UNL d   1      -0.843   1.185   0.033  0.00  0.00    -0.077 A 
ATOM      3  C2  UNL d   1      -0.533  -0.066   0.580  0.00  0.00    -0.001 A 
ATOM      4  C3  UNL d   1       0.607  -0.755   0.164  0.00  0.00     0.003 A 
ATOM      5  C4  UNL d   1       1.447  -0.202  -0.800  0.00  0.00    -0.005 A 
ATOM      6  C5  UNL d   1       1.147   1.043  -1.349  0.00  0.00     0.003 A 
ATOM      7  C6  UNL d   1       0.008   1.735  -0.934  0.00  0.00    -0.001 A 
ENDROOT
TORSDOF 0
ENDMDL
