MODEL 1
REMARK minimizedAffinity -5.66708422
REMARK minimizedRMSD -1
REMARK  0 active torsions:
REMARK  status: ('A' for Active; 'I' for Inactive)
ROOT
ATOM      1  C   UNL d   1      -0.818  -0.665   0.203  0.00  0.00     0.078 C 
ATOM      2  C1  UNL d   1      -0.808   0.834   0.212  0.00  0.00    -0.077 A 
ATOM      3  C2  UNL d   1      -1.529   1.553   1.173  0.00  0.00    -0.001 A 
ATOM      4  C3  UNL d   1      -1.519   2.949   1.165  0.00  0.00     0.003 A 
ATOM      5  C4  UNL d   1      -0.791   3.638   0.196  0.00  0.00    -0.005 A 
ATOM      6  C5  UNL d   1      -0.072   2.930  -0.765  0.00  0.00     0.003 A 
ATOM      7  C6  UNL d   1      -0.081   1.535  -0.758  0.00  0.00    -0.001 A 
ENDROOT
TORSDOF 0
ENDMDL
