MODEL 1
REMARK minimizedAffinity -3.08648372
REMARK minimizedRMSD -1
REMARK  0 active torsions:
REMARK  status: ('A' for Active; 'I' for Inactive)
ROOT
ATOM      1  C   UNL d   1       0.494   1.972  -1.319  0.00  0.00     0.078 C 
ATOM      2  C1  UNL d   1      -0.125   1.173  -0.212  0.00  0.00    -0.077 A 
ATOM      3  C2  UNL d   1      -0.915   1.789   0.767  0.00  0.00    -0.001 A 
ATOM      4  C3  UNL d   1      -1.477   1.034   1.798  0.00  0.00     0.003 A 
ATOM      5  C4  UNL d   1      -1.255  -0.341   1.860  0.00  0.00    -0.005 A 
ATOM      6  C5  UNL d   1      -0.469  -0.961   0.891  0.00  0.00     0.003 A 
ATOM      7  C6  UNL d   1       0.094  -0.208  -0.140  0.00  0.00    -0.001 A 
ENDROOT
TORSDOF 0
ENDMDL
