MODEL 1
REMARK minimizedAffinity -3.96128082
REMARK minimizedRMSD -1
REMARK  0 active torsions:
REMARK  status: ('A' for Active; 'I' for Inactive)
ROOT
ATOM      1  C   UNL d   1      -0.770   0.141   1.260  0.00  0.00     0.078 C 
ATOM      2  C1  UNL d   1      -0.109  -0.661   0.178  0.00  0.00    -0.077 A 
ATOM      3  C2  UNL d   1      -0.850  -1.539  -0.623  0.00  0.00    -0.001 A 
ATOM      4  C3  UNL d   1      -0.220  -2.286  -1.619  0.00  0.00     0.003 A 
ATOM      5  C4  UNL d   1       1.153  -2.164  -1.824  0.00  0.00    -0.005 A 
ATOM      6  C5  UNL d   1       1.898  -1.294  -1.030  0.00  0.00     0.003 A 
ATOM      7  C6  UNL d   1       1.270  -0.547  -0.033  0.00  0.00    -0.001 A 
ENDROOT
TORSDOF 0
ENDMDL
