MODEL 1
REMARK minimizedAffinity -4.15794039
REMARK minimizedRMSD -1
REMARK  0 active torsions:
REMARK  status: ('A' for Active; 'I' for Inactive)
ROOT
ATOM      1  C   UNL d   1       0.088   0.299   0.069  0.00  0.00     0.172 C 
ATOM      2  N   UNL d   1      -0.844  -0.610   0.693  0.00  0.00    -0.070 N 
ATOM      3  C1  UNL d   1      -0.731  -1.974   0.722  0.00  0.00    -0.004 A 
ATOM      4  C2  UNL d   1      -1.816  -2.474   1.409  0.00  0.00    -0.047 A 
ATOM      5  C3  UNL d   1      -2.610  -1.371   1.805  0.00  0.00    -0.047 A 
ATOM      6  C4  UNL d   1      -1.985  -0.230   1.349  0.00  0.00    -0.004 A 
ENDROOT
TORSDOF 0
ENDMDL
