MODEL 1
REMARK minimizedAffinity -3.67248797
REMARK minimizedRMSD -1
REMARK  0 active torsions:
REMARK  status: ('A' for Active; 'I' for Inactive)
ROOT
ATOM      1  C   UNL d   1       1.130  -1.035   0.004  0.00  0.00     0.172 C 
ATOM      2  N   UNL d   1      -0.178  -1.352   0.527  0.00  0.00    -0.070 N 
ATOM      3  C1  UNL d   1      -0.523  -2.515   1.162  0.00  0.00    -0.004 A 
ATOM      4  C2  UNL d   1      -1.855  -2.429   1.506  0.00  0.00    -0.047 A 
ATOM      5  C3  UNL d   1      -2.326  -1.170   1.063  0.00  0.00    -0.047 A 
ATOM      6  C4  UNL d   1      -1.267  -0.524   0.460  0.00  0.00    -0.004 A 
ENDROOT
TORSDOF 0
ENDMDL
