MODEL 1
REMARK minimizedAffinity -2.12419581
REMARK minimizedRMSD -1
REMARK  0 active torsions:
REMARK  status: ('A' for Active; 'I' for Inactive)
ROOT
ATOM      1  C   UNL d   1       0.257   1.004  -0.285  0.00  0.00     0.172 C 
ATOM      2  N   UNL d   1       0.741   1.341  -1.603  0.00  0.00    -0.070 N 
ATOM      3  C1  UNL d   1       1.870   2.064  -1.878  0.00  0.00    -0.004 A 
ATOM      4  C2  UNL d   1       1.984   2.165  -3.248  0.00  0.00    -0.047 A 
ATOM      5  C3  UNL d   1       0.884   1.480  -3.816  0.00  0.00    -0.047 A 
ATOM      6  C4  UNL d   1       0.130   0.979  -2.775  0.00  0.00    -0.004 A 
ENDROOT
TORSDOF 0
ENDMDL
