MODEL 1
REMARK minimizedAffinity -4.09943295
REMARK minimizedRMSD -1
REMARK  0 active torsions:
REMARK  status: ('A' for Active; 'I' for Inactive)
ROOT
ATOM      1  C   UNL d   1       0.174   0.486   0.084  0.00  0.00     0.172 C 
ATOM      2  N   UNL d   1      -0.606  -0.666   0.470  0.00  0.00    -0.070 N 
ATOM      3  C1  UNL d   1      -1.668  -0.657   1.334  0.00  0.00    -0.004 A 
ATOM      4  C2  UNL d   1      -2.139  -1.949   1.437  0.00  0.00    -0.047 A 
ATOM      5  C3  UNL d   1      -1.331  -2.761   0.607  0.00  0.00    -0.047 A 
ATOM      6  C4  UNL d   1      -0.390  -1.942   0.020  0.00  0.00    -0.004 A 
ENDROOT
TORSDOF 0
ENDMDL
