MODEL 1
REMARK minimizedAffinity -3.33603859
REMARK minimizedRMSD -1
REMARK  0 active torsions:
REMARK  status: ('A' for Active; 'I' for Inactive)
ROOT
ATOM      1  C   UNL d   1      -3.199   0.128   1.839  0.00  0.00     0.172 C 
ATOM      2  N   UNL d   1      -2.178  -0.771   1.355  0.00  0.00    -0.070 N 
ATOM      3  C1  UNL d   1      -1.181  -0.447   0.475  0.00  0.00    -0.004 A 
ATOM      4  C2  UNL d   1      -0.417  -1.575   0.268  0.00  0.00    -0.047 A 
ATOM      5  C3  UNL d   1      -0.976  -2.614   1.050  0.00  0.00    -0.047 A 
ATOM      6  C4  UNL d   1      -2.065  -2.089   1.713  0.00  0.00    -0.004 A 
ENDROOT
TORSDOF 0
ENDMDL
