MODEL 1
REMARK minimizedAffinity -4.43445921
REMARK minimizedRMSD -1
REMARK  0 active torsions:
REMARK  status: ('A' for Active; 'I' for Inactive)
ROOT
ATOM      1  C   UNL d   1      -0.010   0.989   0.172  0.00  0.00     0.172 C 
ATOM      2  N   UNL d   1      -0.639  -0.186   0.728  0.00  0.00    -0.070 N 
ATOM      3  C1  UNL d   1      -1.834  -0.211   1.397  0.00  0.00    -0.004 A 
ATOM      4  C2  UNL d   1      -2.085  -1.515   1.764  0.00  0.00    -0.047 A 
ATOM      5  C3  UNL d   1      -1.003  -2.301   1.300  0.00  0.00    -0.047 A 
ATOM      6  C4  UNL d   1      -0.123  -1.453   0.662  0.00  0.00    -0.004 A 
ENDROOT
TORSDOF 0
ENDMDL
