MODEL 1
REMARK minimizedAffinity -3.63096905
REMARK minimizedRMSD -1
REMARK  0 active torsions:
REMARK  status: ('A' for Active; 'I' for Inactive)
ROOT
ATOM      1  C   UNL d   1       0.232   0.972  -0.353  0.00  0.00     0.172 C 
ATOM      2  N   UNL d   1      -0.215  -0.315   0.126  0.00  0.00    -0.070 N 
ATOM      3  C1  UNL d   1       0.551  -1.222   0.809  0.00  0.00    -0.004 A 
ATOM      4  C2  UNL d   1      -0.239  -2.317   1.085  0.00  0.00    -0.047 A 
ATOM      5  C3  UNL d   1      -1.523  -2.060   0.549  0.00  0.00    -0.047 A 
ATOM      6  C4  UNL d   1      -1.480  -0.814  -0.040  0.00  0.00    -0.004 A 
ENDROOT
TORSDOF 0
ENDMDL
