MODEL 1
REMARK minimizedAffinity -4.06147051
REMARK minimizedRMSD -1
REMARK  0 active torsions:
REMARK  status: ('A' for Active; 'I' for Inactive)
ROOT
ATOM      1  C   UNL d   1      -0.462   0.813   0.197  0.00  0.00     0.172 C 
ATOM      2  N   UNL d   1      -1.032  -0.437   0.640  0.00  0.00    -0.070 N 
ATOM      3  C1  UNL d   1      -0.538  -1.683   0.361  0.00  0.00    -0.004 A 
ATOM      4  C2  UNL d   1      -1.363  -2.609   0.963  0.00  0.00    -0.047 A 
ATOM      5  C3  UNL d   1      -2.389  -1.894   1.625  0.00  0.00    -0.047 A 
ATOM      6  C4  UNL d   1      -2.160  -0.552   1.409  0.00  0.00    -0.004 A 
ENDROOT
TORSDOF 0
ENDMDL
