MODEL 1
REMARK minimizedAffinity -4.2863307
REMARK minimizedRMSD -1
REMARK  0 active torsions:
REMARK  status: ('A' for Active; 'I' for Inactive)
ROOT
ATOM      1  C   UNL d   1      -0.382   0.299  -0.432  0.00  0.00     0.172 C 
ATOM      2  N   UNL d   1      -1.223  -0.485   0.441  0.00  0.00    -0.070 N 
ATOM      3  C1  UNL d   1      -2.240   0.001   1.220  0.00  0.00    -0.004 A 
ATOM      4  C2  UNL d   1      -2.795  -1.061   1.901  0.00  0.00    -0.047 A 
ATOM      5  C3  UNL d   1      -2.087  -2.225   1.519  0.00  0.00    -0.047 A 
ATOM      6  C4  UNL d   1      -1.120  -1.840   0.615  0.00  0.00    -0.004 A 
ENDROOT
TORSDOF 0
ENDMDL
