MODEL 1
REMARK minimizedAffinity -4.04858017
REMARK minimizedRMSD -1
REMARK  0 active torsions:
REMARK  status: ('A' for Active; 'I' for Inactive)
ROOT
ATOM      1  C   UNL d   1      -0.026   0.575  -0.011  0.00  0.00     0.172 C 
ATOM      2  N   UNL d   1      -0.909  -0.223   0.807  0.00  0.00    -0.070 N 
ATOM      3  C1  UNL d   1      -0.790  -1.569   1.030  0.00  0.00    -0.004 A 
ATOM      4  C2  UNL d   1      -1.821  -1.951   1.861  0.00  0.00    -0.047 A 
ATOM      5  C3  UNL d   1      -2.587  -0.796   2.145  0.00  0.00    -0.047 A 
ATOM      6  C4  UNL d   1      -2.000   0.260   1.480  0.00  0.00    -0.004 A 
ENDROOT
TORSDOF 0
ENDMDL
