MODEL 1
REMARK minimizedAffinity -4.23185968
REMARK minimizedRMSD -1
REMARK  0 active torsions:
REMARK  status: ('A' for Active; 'I' for Inactive)
ROOT
ATOM      1  C   UNL d   1       0.021   0.634  -0.003  0.00  0.00     0.172 C 
ATOM      2  N   UNL d   1      -0.769  -0.448   0.537  0.00  0.00    -0.070 N 
ATOM      3  C1  UNL d   1      -1.909  -0.309   1.281  0.00  0.00    -0.004 A 
ATOM      4  C2  UNL d   1      -2.360  -1.571   1.602  0.00  0.00    -0.047 A 
ATOM      5  C3  UNL d   1      -1.459  -2.501   1.031  0.00  0.00    -0.047 A 
ATOM      6  C4  UNL d   1      -0.483  -1.778   0.378  0.00  0.00    -0.004 A 
ENDROOT
TORSDOF 0
ENDMDL
