MODEL 1
REMARK minimizedAffinity -0.185852662
REMARK minimizedRMSD -1
REMARK  0 active torsions:
REMARK  status: ('A' for Active; 'I' for Inactive)
ROOT
ATOM      1  C   UNL d   1       0.320  -2.311   0.956  0.00  0.00     0.172 C 
ATOM      2  N   UNL d   1       0.040  -0.910   0.747  0.00  0.00    -0.070 N 
ATOM      3  C1  UNL d   1      -1.153  -0.287   1.000  0.00  0.00    -0.004 A 
ATOM      4  C2  UNL d   1      -1.012   1.044   0.670  0.00  0.00    -0.047 A 
ATOM      5  C3  UNL d   1       0.310   1.227   0.201  0.00  0.00    -0.047 A 
ATOM      6  C4  UNL d   1       0.940   0.001   0.259  0.00  0.00    -0.004 A 
ENDROOT
TORSDOF 0
ENDMDL
