MODEL 1
REMARK minimizedAffinity -4.07365847
REMARK minimizedRMSD -1
REMARK  0 active torsions:
REMARK  status: ('A' for Active; 'I' for Inactive)
ROOT
ATOM      1  C   UNL d   1      -0.240   0.526  -0.288  0.00  0.00     0.172 C 
ATOM      2  N   UNL d   1      -0.979  -0.404   0.533  0.00  0.00    -0.070 N 
ATOM      3  C1  UNL d   1      -2.059  -0.095   1.317  0.00  0.00    -0.004 A 
ATOM      4  C2  UNL d   1      -2.476  -1.253   1.937  0.00  0.00    -0.047 A 
ATOM      5  C3  UNL d   1      -1.617  -2.294   1.512  0.00  0.00    -0.047 A 
ATOM      6  C4  UNL d   1      -0.700  -1.741   0.643  0.00  0.00    -0.004 A 
ENDROOT
TORSDOF 0
ENDMDL
