MODEL 1
REMARK minimizedAffinity -3.42018032
REMARK minimizedRMSD -1
REMARK  0 active torsions:
REMARK  status: ('A' for Active; 'I' for Inactive)
ROOT
ATOM      1  C   UNL d   1      -0.208   0.615  -0.133  0.00  0.00     0.172 C 
ATOM      2  N   UNL d   1      -0.952  -0.342   0.653  0.00  0.00    -0.070 N 
ATOM      3  C1  UNL d   1      -0.645  -1.669   0.795  0.00  0.00    -0.004 A 
ATOM      4  C2  UNL d   1      -1.592  -2.235   1.620  0.00  0.00    -0.047 A 
ATOM      5  C3  UNL d   1      -2.501  -1.213   1.986  0.00  0.00    -0.047 A 
ATOM      6  C4  UNL d   1      -2.081  -0.052   1.373  0.00  0.00    -0.004 A 
ENDROOT
TORSDOF 0
ENDMDL
