MODEL 1
REMARK minimizedAffinity -1.91395271
REMARK minimizedRMSD -1
REMARK  0 active torsions:
REMARK  status: ('A' for Active; 'I' for Inactive)
ROOT
ATOM      1  C   UNL d   1       0.574   1.962  -0.555  0.00  0.00     0.172 C 
ATOM      2  N   UNL d   1       1.110   1.988  -1.895  0.00  0.00    -0.070 N 
ATOM      3  C1  UNL d   1       0.391   2.210  -3.039  0.00  0.00    -0.004 A 
ATOM      4  C2  UNL d   1       1.263   2.156  -4.104  0.00  0.00    -0.047 A 
ATOM      5  C3  UNL d   1       2.552   1.891  -3.582  0.00  0.00    -0.047 A 
ATOM      6  C4  UNL d   1       2.428   1.792  -2.213  0.00  0.00    -0.004 A 
ENDROOT
TORSDOF 0
ENDMDL
