MODEL 1
REMARK minimizedAffinity -2.84642863
REMARK minimizedRMSD -1
REMARK  0 active torsions:
REMARK  status: ('A' for Active; 'I' for Inactive)
ROOT
ATOM      1  C   UNL d   1      -2.923   0.295   2.223  0.00  0.00     0.172 C 
ATOM      2  N   UNL d   1      -2.018  -0.733   1.765  0.00  0.00    -0.070 N 
ATOM      3  C1  UNL d   1      -1.882  -1.980   2.313  0.00  0.00    -0.004 A 
ATOM      4  C2  UNL d   1      -0.922  -2.657   1.592  0.00  0.00    -0.047 A 
ATOM      5  C3  UNL d   1      -0.464  -1.785   0.576  0.00  0.00    -0.047 A 
ATOM      6  C4  UNL d   1      -1.159  -0.601   0.705  0.00  0.00    -0.004 A 
ENDROOT
TORSDOF 0
ENDMDL
