MODEL 1
REMARK minimizedAffinity -3.62112737
REMARK minimizedRMSD -1
REMARK  0 active torsions:
REMARK  status: ('A' for Active; 'I' for Inactive)
ROOT
ATOM      1  C   UNL d   1       0.192  -0.036  -0.186  0.00  0.00     0.172 C 
ATOM      2  N   UNL d   1      -0.885  -0.581   0.606  0.00  0.00    -0.070 N 
ATOM      3  C1  UNL d   1      -0.976  -1.875   1.047  0.00  0.00    -0.004 A 
ATOM      4  C2  UNL d   1      -2.145  -1.994   1.767  0.00  0.00    -0.047 A 
ATOM      5  C3  UNL d   1      -2.779  -0.729   1.757  0.00  0.00    -0.047 A 
ATOM      6  C4  UNL d   1      -1.977   0.127   1.031  0.00  0.00    -0.004 A 
ENDROOT
TORSDOF 0
ENDMDL
