MODEL 1
REMARK minimizedAffinity 7.9221344
REMARK minimizedRMSD -1
REMARK  0 active torsions:
REMARK  status: ('A' for Active; 'I' for Inactive)
ROOT
ATOM      1  C   UNL d   1       1.120  -1.956   4.093  0.00  0.00     0.077 C 
ATOM      2  C1  UNL d   1       2.249  -1.415   3.267  0.00  0.00    -0.074 A 
ATOM      3  C2  UNL d   1       2.031  -0.406   2.324  0.00  0.00    -0.005 A 
ATOM      4  C3  UNL d   1       3.093   0.094   1.570  0.00  0.00     0.006 A 
ATOM      5  C4  UNL d   1       4.381  -0.411   1.750  0.00  0.00    -0.005 A 
ATOM      6  C5  UNL d   1       4.619  -1.420   2.689  0.00  0.00    -0.074 A 
ATOM      7  C6  UNL d   1       5.999  -1.966   2.902  0.00  0.00     0.077 C 
ATOM      8  C7  UNL d   1       3.548  -1.911   3.448  0.00  0.00    -0.001 A 
ENDROOT
TORSDOF 0
ENDMDL
