MODEL 1
REMARK minimizedAffinity 11.361124
REMARK minimizedRMSD -1
REMARK  0 active torsions:
REMARK  status: ('A' for Active; 'I' for Inactive)
ROOT
ATOM      1  C   UNL d   1      -5.998   3.793  -0.875  0.00  0.00     0.077 C 
ATOM      2  C1  UNL d   1      -5.239   3.335   0.335  0.00  0.00    -0.074 A 
ATOM      3  C2  UNL d   1      -3.843   3.238   0.314  0.00  0.00    -0.005 A 
ATOM      4  C3  UNL d   1      -3.150   2.821   1.450  0.00  0.00     0.006 A 
ATOM      5  C4  UNL d   1      -3.844   2.497   2.616  0.00  0.00    -0.005 A 
ATOM      6  C5  UNL d   1      -5.238   2.589   2.657  0.00  0.00    -0.074 A 
ATOM      7  C6  UNL d   1      -5.998   2.254   3.906  0.00  0.00     0.077 C 
ATOM      8  C7  UNL d   1      -5.927   3.016   1.513  0.00  0.00    -0.001 A 
ENDROOT
TORSDOF 0
ENDMDL
