MODEL 1
REMARK minimizedAffinity 6.77373648
REMARK minimizedRMSD -1
REMARK  0 active torsions:
REMARK  status: ('A' for Active; 'I' for Inactive)
ROOT
ATOM      1  C   UNL d   1       4.365  -2.965   3.929  0.00  0.00     0.077 C 
ATOM      2  C1  UNL d   1       3.399  -1.949   3.397  0.00  0.00    -0.074 A 
ATOM      3  C2  UNL d   1       2.080  -1.899   3.859  0.00  0.00    -0.005 A 
ATOM      4  C3  UNL d   1       1.196  -0.942   3.362  0.00  0.00     0.006 A 
ATOM      5  C4  UNL d   1       1.621  -0.027   2.398  0.00  0.00    -0.005 A 
ATOM      6  C5  UNL d   1       2.936  -0.060   1.925  0.00  0.00    -0.074 A 
ATOM      7  C6  UNL d   1       3.412   0.923   0.897  0.00  0.00     0.077 C 
ATOM      8  C7  UNL d   1       3.820  -1.020   2.435  0.00  0.00    -0.001 A 
ENDROOT
TORSDOF 0
ENDMDL
