MODEL 1
REMARK minimizedAffinity 5.55569839
REMARK minimizedRMSD -1
REMARK  0 active torsions:
REMARK  status: ('A' for Active; 'I' for Inactive)
ROOT
ATOM      1  C   UNL d   1       4.790  -5.985  -1.333  0.00  0.00     0.077 C 
ATOM      2  C1  UNL d   1       4.736  -5.951  -2.832  0.00  0.00    -0.074 A 
ATOM      3  C2  UNL d   1       5.909  -5.910  -3.592  0.00  0.00    -0.005 A 
ATOM      4  C3  UNL d   1       5.843  -5.888  -4.985  0.00  0.00     0.006 A 
ATOM      5  C4  UNL d   1       4.606  -5.908  -5.631  0.00  0.00    -0.005 A 
ATOM      6  C5  UNL d   1       3.423  -5.951  -4.887  0.00  0.00    -0.074 A 
ATOM      7  C6  UNL d   1       2.085  -5.982  -5.565  0.00  0.00     0.077 C 
ATOM      8  C7  UNL d   1       3.497  -5.979  -3.488  0.00  0.00    -0.001 A 
ENDROOT
TORSDOF 0
ENDMDL
