MODEL 1
REMARK minimizedAffinity 7.79321146
REMARK minimizedRMSD -1
REMARK  0 active torsions:
REMARK  status: ('A' for Active; 'I' for Inactive)
ROOT
ATOM      1  C   UNL d   1       5.998  -2.569   4.773  0.00  0.00     0.077 C 
ATOM      2  C1  UNL d   1       4.516  -2.599   4.545  0.00  0.00    -0.074 A 
ATOM      3  C2  UNL d   1       3.746  -3.689   4.962  0.00  0.00    -0.005 A 
ATOM      4  C3  UNL d   1       2.368  -3.698   4.751  0.00  0.00     0.006 A 
ATOM      5  C4  UNL d   1       1.746  -2.619   4.121  0.00  0.00    -0.005 A 
ATOM      6  C5  UNL d   1       2.499  -1.520   3.698  0.00  0.00    -0.074 A 
ATOM      7  C6  UNL d   1       1.846  -0.348   3.028  0.00  0.00     0.077 C 
ATOM      8  C7  UNL d   1       3.883  -1.515   3.920  0.00  0.00    -0.001 A 
ENDROOT
TORSDOF 0
ENDMDL
