MODEL 1
REMARK minimizedAffinity 8.84209347
REMARK minimizedRMSD -1
REMARK  0 active torsions:
REMARK  status: ('A' for Active; 'I' for Inactive)
ROOT
ATOM      1  C   UNL d   1       1.500  -1.320   4.241  0.00  0.00     0.077 C 
ATOM      2  C1  UNL d   1       2.555  -1.054   3.208  0.00  0.00    -0.074 A 
ATOM      3  C2  UNL d   1       2.384  -0.052   2.247  0.00  0.00    -0.005 A 
ATOM      4  C3  UNL d   1       3.378   0.190   1.299  0.00  0.00     0.006 A 
ATOM      5  C4  UNL d   1       4.551  -0.566   1.302  0.00  0.00    -0.005 A 
ATOM      6  C5  UNL d   1       4.740  -1.571   2.256  0.00  0.00    -0.074 A 
ATOM      7  C6  UNL d   1       5.999  -2.386   2.279  0.00  0.00     0.077 C 
ATOM      8  C7  UNL d   1       3.739  -1.804   3.210  0.00  0.00    -0.001 A 
ENDROOT
TORSDOF 0
ENDMDL
