MODEL 1
REMARK minimizedAffinity 8.72936153
REMARK minimizedRMSD -1
REMARK  0 active torsions:
REMARK  status: ('A' for Active; 'I' for Inactive)
ROOT
ATOM      1  C   UNL d   1      -2.180   1.574   0.857  0.00  0.00     0.077 C 
ATOM      2  C1  UNL d   1      -3.509   2.252   1.014  0.00  0.00    -0.074 A 
ATOM      3  C2  UNL d   1      -4.160   2.819  -0.086  0.00  0.00    -0.005 A 
ATOM      4  C3  UNL d   1      -5.400   3.437   0.073  0.00  0.00     0.006 A 
ATOM      5  C4  UNL d   1      -6.000   3.495   1.332  0.00  0.00    -0.005 A 
ATOM      6  C5  UNL d   1      -5.364   2.933   2.443  0.00  0.00    -0.074 A 
ATOM      7  C6  UNL d   1      -5.999   2.978   3.801  0.00  0.00     0.077 C 
ATOM      8  C7  UNL d   1      -4.121   2.307   2.274  0.00  0.00    -0.001 A 
ENDROOT
TORSDOF 0
ENDMDL
