MODEL 1
REMARK minimizedAffinity 8.25440693
REMARK minimizedRMSD -1
REMARK  0 active torsions:
REMARK  status: ('A' for Active; 'I' for Inactive)
ROOT
ATOM      1  C   UNL d   1       1.881  -0.999   3.719  0.00  0.00     0.077 C 
ATOM      2  C1  UNL d   1       2.154  -2.353   4.304  0.00  0.00    -0.074 A 
ATOM      3  C2  UNL d   1       3.449  -2.880   4.323  0.00  0.00    -0.005 A 
ATOM      4  C3  UNL d   1       3.689  -4.137   4.879  0.00  0.00     0.006 A 
ATOM      5  C4  UNL d   1       2.638  -4.877   5.421  0.00  0.00    -0.005 A 
ATOM      6  C5  UNL d   1       1.337  -4.366   5.412  0.00  0.00    -0.074 A 
ATOM      7  C6  UNL d   1       0.197  -5.145   6.000  0.00  0.00     0.077 C 
ATOM      8  C7  UNL d   1       1.105  -3.100   4.858  0.00  0.00    -0.001 A 
ENDROOT
TORSDOF 0
ENDMDL
