MODEL 1
REMARK minimizedAffinity -2.15556002
REMARK minimizedRMSD -1
REMARK  0 active torsions:
REMARK  status: ('A' for Active; 'I' for Inactive)
ROOT
ATOM      1  C1  BNZ d   1      -2.117   1.576  -1.706  0.00  0.00     0.000 A 
ATOM      2  C2  BNZ d   1      -0.981   2.327  -1.850  0.00  0.00     0.000 A 
ATOM      3  C3  BNZ d   1      -0.589   2.776  -3.080  0.00  0.00     0.000 A 
ATOM      4  C4  BNZ d   1      -1.310   2.440  -4.169  0.00  0.00     0.000 A 
ATOM      5  C5  BNZ d   1      -2.453   1.676  -4.042  0.00  0.00     0.000 A 
ATOM      6  C6  BNZ d   1      -2.866   1.259  -2.797  0.00  0.00     0.000 A 
ENDROOT
TORSDOF 0
ENDMDL
