MODEL 1
REMARK minimizedAffinity -3.27640271
REMARK minimizedRMSD -1
REMARK  0 active torsions:
REMARK  status: ('A' for Active; 'I' for Inactive)
ROOT
ATOM      1  C1  BNZ d   1      -2.087   1.794  -1.512  0.00  0.00     0.000 A 
ATOM      2  C2  BNZ d   1      -0.753   2.105  -1.519  0.00  0.00     0.000 A 
ATOM      3  C3  BNZ d   1      -0.098   2.349  -2.694  0.00  0.00     0.000 A 
ATOM      4  C4  BNZ d   1      -0.765   2.242  -3.860  0.00  0.00     0.000 A 
ATOM      5  C5  BNZ d   1      -2.108   1.919  -3.871  0.00  0.00     0.000 A 
ATOM      6  C6  BNZ d   1      -2.774   1.713  -2.684  0.00  0.00     0.000 A 
ENDROOT
TORSDOF 0
ENDMDL
