MODEL 1
REMARK minimizedAffinity -2.73303843
REMARK minimizedRMSD -1
REMARK  0 active torsions:
REMARK  status: ('A' for Active; 'I' for Inactive)
ROOT
ATOM      1  C1  BNZ d   1      -1.946   0.992  -2.381  0.00  0.00     0.000 A 
ATOM      2  C2  BNZ d   1      -0.862   0.366  -1.826  0.00  0.00     0.000 A 
ATOM      3  C3  BNZ d   1      -0.479   0.637  -0.542  0.00  0.00     0.000 A 
ATOM      4  C4  BNZ d   1      -1.155   1.562   0.170  0.00  0.00     0.000 A 
ATOM      5  C5  BNZ d   1      -2.244   2.208  -0.379  0.00  0.00     0.000 A 
ATOM      6  C6  BNZ d   1      -2.650   1.905  -1.658  0.00  0.00     0.000 A 
ENDROOT
TORSDOF 0
ENDMDL
