MODEL 1
REMARK minimizedAffinity -3.00739288
REMARK minimizedRMSD -1
REMARK  0 active torsions:
REMARK  status: ('A' for Active; 'I' for Inactive)
ROOT
ATOM      1  C1  BNZ d   1      -0.129  -0.305   1.178  0.00  0.00     0.000 A 
ATOM      2  C2  BNZ d   1       0.693  -1.078   1.955  0.00  0.00     0.000 A 
ATOM      3  C3  BNZ d   1       1.818  -1.649   1.430  0.00  0.00     0.000 A 
ATOM      4  C4  BNZ d   1       2.099  -1.480   0.122  0.00  0.00     0.000 A 
ATOM      5  C5  BNZ d   1       1.276  -0.711  -0.676  0.00  0.00     0.000 A 
ATOM      6  C6  BNZ d   1       0.165  -0.106  -0.136  0.00  0.00     0.000 A 
ENDROOT
TORSDOF 0
ENDMDL
