MODEL 1
REMARK minimizedAffinity -1.90352643
REMARK minimizedRMSD -1
REMARK  0 active torsions:
REMARK  status: ('A' for Active; 'I' for Inactive)
ROOT
ATOM      1  C1  BNZ d   1      -1.233   1.626  -1.156  0.00  0.00     0.000 A 
ATOM      2  C2  BNZ d   1      -2.368   0.907  -1.418  0.00  0.00     0.000 A 
ATOM      3  C3  BNZ d   1      -3.053   1.080  -2.588  0.00  0.00     0.000 A 
ATOM      4  C4  BNZ d   1      -2.624   2.000  -3.476  0.00  0.00     0.000 A 
ATOM      5  C5  BNZ d   1      -1.486   2.740  -3.223  0.00  0.00     0.000 A 
ATOM      6  C6  BNZ d   1      -0.778   2.535  -2.061  0.00  0.00     0.000 A 
ENDROOT
TORSDOF 0
ENDMDL
