MODEL 1
REMARK minimizedAffinity -0.616143942
REMARK minimizedRMSD -1
REMARK  0 active torsions:
REMARK  status: ('A' for Active; 'I' for Inactive)
ROOT
ATOM      1  C1  BNZ d   1      -2.306   0.652  -0.909  0.00  0.00     0.000 A 
ATOM      2  C2  BNZ d   1      -3.075   0.726  -2.039  0.00  0.00     0.000 A 
ATOM      3  C3  BNZ d   1      -2.715   1.536  -3.080  0.00  0.00     0.000 A 
ATOM      4  C4  BNZ d   1      -1.610   2.301  -2.972  0.00  0.00     0.000 A 
ATOM      5  C5  BNZ d   1      -0.829   2.245  -1.835  0.00  0.00     0.000 A 
ATOM      6  C6  BNZ d   1      -1.173   1.400  -0.806  0.00  0.00     0.000 A 
ENDROOT
TORSDOF 0
ENDMDL
