MODEL 1
REMARK minimizedAffinity -3.78109932
REMARK minimizedRMSD -1
REMARK  0 active torsions:
REMARK  status: ('A' for Active; 'I' for Inactive)
ROOT
ATOM      1  C1  BNZ d   1       1.108   1.490  -1.112  0.00  0.00     0.000 A 
ATOM      2  C2  BNZ d   1      -0.189   1.617  -0.690  0.00  0.00     0.000 A 
ATOM      3  C3  BNZ d   1      -0.760   0.671   0.114  0.00  0.00     0.000 A 
ATOM      4  C4  BNZ d   1      -0.048  -0.421   0.462  0.00  0.00     0.000 A 
ATOM      5  C5  BNZ d   1       1.257  -0.569   0.036  0.00  0.00     0.000 A 
ATOM      6  C6  BNZ d   1       1.841   0.405  -0.740  0.00  0.00     0.000 A 
ENDROOT
TORSDOF 0
ENDMDL
