MODEL 1
REMARK minimizedAffinity -4.31862926
REMARK minimizedRMSD -1
REMARK  0 active torsions:
REMARK  status: ('A' for Active; 'I' for Inactive)
ROOT
ATOM      1  C1  BNZ d   1       2.069   0.192  -0.052  0.00  0.00     0.000 A 
ATOM      2  C2  BNZ d   1       0.743   0.525  -0.128  0.00  0.00     0.000 A 
ATOM      3  C3  BNZ d   1      -0.225  -0.371   0.230  0.00  0.00     0.000 A 
ATOM      4  C4  BNZ d   1       0.131  -1.610   0.624  0.00  0.00     0.000 A 
ATOM      5  C5  BNZ d   1       1.464  -1.964   0.697  0.00  0.00     0.000 A 
ATOM      6  C6  BNZ d   1       2.437  -1.047   0.373  0.00  0.00     0.000 A 
ENDROOT
TORSDOF 0
ENDMDL
