MODEL 1
REMARK minimizedAffinity -0.436604112
REMARK minimizedRMSD -1
REMARK  0 active torsions:
REMARK  status: ('A' for Active; 'I' for Inactive)
ROOT
ATOM      1  C1  BNZ d   1       2.298  -1.665   1.035  0.00  0.00     0.000 A 
ATOM      2  C2  BNZ d   1       1.250  -0.810   1.245  0.00  0.00     0.000 A 
ATOM      3  C3  BNZ d   1       0.860   0.071   0.275  0.00  0.00     0.000 A 
ATOM      4  C4  BNZ d   1       1.543   0.124  -0.886  0.00  0.00     0.000 A 
ATOM      5  C5  BNZ d   1       2.609  -0.726  -1.110  0.00  0.00     0.000 A 
ATOM      6  C6  BNZ d   1       2.974  -1.638  -0.146  0.00  0.00     0.000 A 
ENDROOT
TORSDOF 0
ENDMDL
