MODEL 1
REMARK minimizedAffinity -1.60197723
REMARK minimizedRMSD -1
REMARK  0 active torsions:
REMARK  status: ('A' for Active; 'I' for Inactive)
ROOT
ATOM      1  C1  BNZ d   1      -1.863   0.535   1.348  0.00  0.00     0.000 A 
ATOM      2  C2  BNZ d   1      -0.648   0.073   1.778  0.00  0.00     0.000 A 
ATOM      3  C3  BNZ d   1       0.433   0.064   0.943  0.00  0.00     0.000 A 
ATOM      4  C4  BNZ d   1       0.290   0.480  -0.332  0.00  0.00     0.000 A 
ATOM      5  C5  BNZ d   1      -0.931   0.941  -0.784  0.00  0.00     0.000 A 
ATOM      6  C6  BNZ d   1      -2.008   0.984   0.071  0.00  0.00     0.000 A 
ENDROOT
TORSDOF 0
ENDMDL
