MODEL 1
REMARK minimizedAffinity -1.30384958
REMARK minimizedRMSD -1
REMARK  0 active torsions:
REMARK  status: ('A' for Active; 'I' for Inactive)
ROOT
ATOM      1  C1  BNZ d   1       1.748   1.326   0.039  0.00  0.00     0.000 A 
ATOM      2  C2  BNZ d   1       0.381   1.403   0.026  0.00  0.00     0.000 A 
ATOM      3  C3  BNZ d   1      -0.368   0.453  -0.610  0.00  0.00     0.000 A 
ATOM      4  C4  BNZ d   1       0.252  -0.551  -1.264  0.00  0.00     0.000 A 
ATOM      5  C5  BNZ d   1       1.630  -0.637  -1.268  0.00  0.00     0.000 A 
ATOM      6  C6  BNZ d   1       2.379   0.300  -0.594  0.00  0.00     0.000 A 
ENDROOT
TORSDOF 0
ENDMDL
