MODEL 1
REMARK minimizedAffinity 0.120433114
REMARK minimizedRMSD -1
REMARK  0 active torsions:
REMARK  status: ('A' for Active; 'I' for Inactive)
ROOT
ATOM      1  C1  BNZ d   1      -0.164   0.832  -1.027  0.00  0.00     0.000 A 
ATOM      2  C2  BNZ d   1       1.068   0.833  -1.626  0.00  0.00     0.000 A 
ATOM      3  C3  BNZ d   1       2.180   0.433  -0.940  0.00  0.00     0.000 A 
ATOM      4  C4  BNZ d   1       2.065   0.070   0.354  0.00  0.00     0.000 A 
ATOM      5  C5  BNZ d   1       0.832   0.072   0.974  0.00  0.00     0.000 A 
ATOM      6  C6  BNZ d   1      -0.291   0.438   0.269  0.00  0.00     0.000 A 
ENDROOT
TORSDOF 0
ENDMDL
