MODEL 1
REMARK minimizedAffinity 0.0671357438
REMARK minimizedRMSD -1
REMARK  0 active torsions:
REMARK  status: ('A' for Active; 'I' for Inactive)
ROOT
ATOM      1  C1  BNZ d   1      -1.158   0.210   0.985  0.00  0.00     0.000 A 
ATOM      2  C2  BNZ d   1      -0.588   0.867  -0.074  0.00  0.00     0.000 A 
ATOM      3  C3  BNZ d   1       0.677   0.559  -0.489  0.00  0.00     0.000 A 
ATOM      4  C4  BNZ d   1       1.385  -0.375   0.179  0.00  0.00     0.000 A 
ATOM      5  C5  BNZ d   1       0.829  -1.039   1.254  0.00  0.00     0.000 A 
ATOM      6  C6  BNZ d   1      -0.460  -0.754   1.645  0.00  0.00     0.000 A 
ENDROOT
TORSDOF 0
ENDMDL
