MODEL 1
REMARK minimizedAffinity -1.18346584
REMARK minimizedRMSD -1
REMARK  0 active torsions:
REMARK  status: ('A' for Active; 'I' for Inactive)
ROOT
ATOM      1  O1  BZF d   1      -3.222  -5.921  -4.495  0.00  0.00    -0.204 OA
ATOM      2  C2  BZF d   1      -3.743  -5.922  -3.216  0.00  0.00     0.174 A 
ATOM      3  C3  BZF d   1      -2.758  -6.000  -2.298  0.00  0.00    -0.012 A 
ATOM      4  C3A BZF d   1      -1.540  -5.957  -3.049  0.00  0.00    -0.107 A 
ATOM      5  C4  BZF d   1      -0.220  -5.982  -2.699  0.00  0.00     0.055 A 
ATOM      6  C5  BZF d   1       0.722  -6.000  -3.678  0.00  0.00    -0.016 A 
ATOM      7  C6  BZF d   1       0.381  -5.998  -5.014  0.00  0.00     0.022 A 
ATOM      8  C7  BZF d   1      -0.915  -5.969  -5.410  0.00  0.00     0.029 A 
ATOM      9  C7A BZF d   1      -1.869  -5.918  -4.423  0.00  0.00     0.058 A 
ENDROOT
TORSDOF 0
ENDMDL
