MODEL 1
REMARK minimizedAffinity 0.890001118
REMARK minimizedRMSD -1
REMARK  0 active torsions:
REMARK  status: ('A' for Active; 'I' for Inactive)
ROOT
ATOM      1  O1  BZF d   1      -0.806  -5.974  -2.005  0.00  0.00    -0.204 OA
ATOM      2  C2  BZF d   1      -2.186  -5.989  -2.069  0.00  0.00     0.174 A 
ATOM      3  C3  BZF d   1      -2.606  -5.944  -3.350  0.00  0.00    -0.012 A 
ATOM      4  C3A BZF d   1      -1.413  -5.991  -4.139  0.00  0.00    -0.107 A 
ATOM      5  C4  BZF d   1      -1.177  -5.993  -5.484  0.00  0.00     0.055 A 
ATOM      6  C5  BZF d   1       0.107  -5.971  -5.929  0.00  0.00    -0.016 A 
ATOM      7  C6  BZF d   1       1.176  -5.941  -5.058  0.00  0.00     0.022 A 
ATOM      8  C7  BZF d   1       0.992  -5.943  -3.715  0.00  0.00     0.029 A 
ATOM      9  C7A BZF d   1      -0.304  -5.999  -3.263  0.00  0.00     0.058 A 
ENDROOT
TORSDOF 0
ENDMDL
