MODEL 1
REMARK minimizedAffinity 0.16979374
REMARK minimizedRMSD -1
REMARK  0 active torsions:
REMARK  status: ('A' for Active; 'I' for Inactive)
ROOT
ATOM      1  O1  BZF d   1       1.562  -5.913  -3.752  0.00  0.00    -0.204 OA
ATOM      2  C2  BZF d   1       2.263  -5.894  -4.943  0.00  0.00     0.174 A 
ATOM      3  C3  BZF d   1       1.421  -5.958  -5.994  0.00  0.00    -0.012 A 
ATOM      4  C3A BZF d   1       0.107  -5.928  -5.427  0.00  0.00    -0.107 A 
ATOM      5  C4  BZF d   1      -1.148  -5.947  -5.965  0.00  0.00     0.055 A 
ATOM      6  C5  BZF d   1      -2.222  -5.980  -5.133  0.00  0.00    -0.016 A 
ATOM      7  C6  BZF d   1      -2.078  -5.999  -3.761  0.00  0.00     0.022 A 
ATOM      8  C7  BZF d   1      -0.853  -5.976  -3.181  0.00  0.00     0.029 A 
ATOM      9  C7A BZF d   1       0.234  -5.909  -4.019  0.00  0.00     0.058 A 
ENDROOT
TORSDOF 0
ENDMDL
