MODEL 1
REMARK minimizedAffinity 8.733881
REMARK minimizedRMSD -1
REMARK  0 active torsions:
REMARK  status: ('A' for Active; 'I' for Inactive)
ROOT
ATOM      1  O1  BZF d   1       1.585  -5.869  -4.716  0.00  0.00    -0.204 OA
ATOM      2  C2  BZF d   1       1.044  -5.864  -5.987  0.00  0.00     0.174 A 
ATOM      3  C3  BZF d   1      -0.301  -5.951  -5.935  0.00  0.00    -0.012 A 
ATOM      4  C3A BZF d   1      -0.626  -5.920  -4.542  0.00  0.00    -0.107 A 
ATOM      5  C4  BZF d   1      -1.804  -5.957  -3.852  0.00  0.00     0.055 A 
ATOM      6  C5  BZF d   1      -1.773  -5.984  -2.493  0.00  0.00    -0.016 A 
ATOM      7  C6  BZF d   1      -0.584  -5.981  -1.794  0.00  0.00     0.022 A 
ATOM      8  C7  BZF d   1       0.610  -5.939  -2.435  0.00  0.00     0.029 A 
ATOM      9  C7A BZF d   1       0.581  -5.879  -3.806  0.00  0.00     0.058 A 
ENDROOT
TORSDOF 0
ENDMDL
