MODEL 1
REMARK minimizedAffinity 2.46114302
REMARK minimizedRMSD -1
REMARK  0 active torsions:
REMARK  status: ('A' for Active; 'I' for Inactive)
ROOT
ATOM      1  O1  BZF d   1       0.675  -5.957  -4.490  0.00  0.00    -0.204 OA
ATOM      2  C2  BZF d   1       0.197  -5.947  -5.786  0.00  0.00     0.174 A 
ATOM      3  C3  BZF d   1      -1.150  -5.998  -5.800  0.00  0.00    -0.012 A 
ATOM      4  C3A BZF d   1      -1.543  -5.951  -4.425  0.00  0.00    -0.107 A 
ATOM      5  C4  BZF d   1      -2.754  -5.953  -3.794  0.00  0.00     0.055 A 
ATOM      6  C5  BZF d   1      -2.791  -5.972  -2.436  0.00  0.00    -0.016 A 
ATOM      7  C6  BZF d   1      -1.638  -5.995  -1.678  0.00  0.00     0.022 A 
ATOM      8  C7  BZF d   1      -0.413  -5.989  -2.259  0.00  0.00     0.029 A 
ATOM      9  C7A BZF d   1      -0.373  -5.936  -3.631  0.00  0.00     0.058 A 
ENDROOT
TORSDOF 0
ENDMDL
