MODEL 1
REMARK minimizedAffinity 4.29569292
REMARK minimizedRMSD -1
REMARK  0 active torsions:
REMARK  status: ('A' for Active; 'I' for Inactive)
ROOT
ATOM      1  O1  BZF d   1       2.567  -1.723   1.144  0.00  0.00    -0.204 OA
ATOM      2  C2  BZF d   1       1.353  -2.199   1.600  0.00  0.00     0.174 A 
ATOM      3  C3  BZF d   1       0.366  -1.315   1.347  0.00  0.00    -0.012 A 
ATOM      4  C3A BZF d   1       0.988  -0.259   0.609  0.00  0.00    -0.107 A 
ATOM      5  C4  BZF d   1       0.523   0.902   0.059  0.00  0.00     0.055 A 
ATOM      6  C5  BZF d   1       1.404   1.751  -0.532  0.00  0.00    -0.016 A 
ATOM      7  C6  BZF d   1       2.754   1.475  -0.587  0.00  0.00     0.022 A 
ATOM      8  C7  BZF d   1       3.261   0.334  -0.060  0.00  0.00     0.029 A 
ATOM      9  C7A BZF d   1       2.370  -0.542   0.509  0.00  0.00     0.058 A 
ENDROOT
TORSDOF 0
ENDMDL
