MODEL 1
REMARK minimizedAffinity 0.854538202
REMARK minimizedRMSD -1
REMARK  0 active torsions:
REMARK  status: ('A' for Active; 'I' for Inactive)
ROOT
ATOM      1  O1  BZF d   1      -1.192  -0.320   0.334  0.00  0.00    -0.204 OA
ATOM      2  C2  BZF d   1      -1.555  -1.600   0.707  0.00  0.00     0.174 A 
ATOM      3  C3  BZF d   1      -0.468  -2.389   0.827  0.00  0.00    -0.012 A 
ATOM      4  C3A BZF d   1       0.650  -1.527   0.599  0.00  0.00    -0.107 A 
ATOM      5  C4  BZF d   1       2.002  -1.723   0.598  0.00  0.00     0.055 A 
ATOM      6  C5  BZF d   1       2.819  -0.689   0.265  0.00  0.00    -0.016 A 
ATOM      7  C6  BZF d   1       2.319   0.550  -0.077  0.00  0.00     0.022 A 
ATOM      8  C7  BZF d   1       0.986   0.794  -0.086  0.00  0.00     0.029 A 
ATOM      9  C7A BZF d   1       0.159  -0.239   0.282  0.00  0.00     0.058 A 
ENDROOT
TORSDOF 0
ENDMDL
