MODEL 1
REMARK minimizedAffinity 1.88790452
REMARK minimizedRMSD -1
REMARK  0 active torsions:
REMARK  status: ('A' for Active; 'I' for Inactive)
ROOT
ATOM      1  O1  BZF d   1      -1.925  -5.970  -1.885  0.00  0.00    -0.204 OA
ATOM      2  C2  BZF d   1      -1.961  -5.956  -3.266  0.00  0.00     0.174 A 
ATOM      3  C3  BZF d   1      -3.234  -5.999  -3.712  0.00  0.00    -0.012 A 
ATOM      4  C3A BZF d   1      -4.046  -5.949  -2.535  0.00  0.00    -0.107 A 
ATOM      5  C4  BZF d   1      -5.396  -5.945  -2.326  0.00  0.00     0.055 A 
ATOM      6  C5  BZF d   1      -5.866  -5.964  -1.051  0.00  0.00    -0.016 A 
ATOM      7  C6  BZF d   1      -5.017  -5.995   0.036  0.00  0.00     0.022 A 
ATOM      8  C7  BZF d   1      -3.671  -5.995  -0.122  0.00  0.00     0.029 A 
ATOM      9  C7A BZF d   1      -3.192  -5.942  -1.408  0.00  0.00     0.058 A 
ENDROOT
TORSDOF 0
ENDMDL
