MODEL 1
REMARK minimizedAffinity 5.35196161
REMARK minimizedRMSD -1
REMARK  0 active torsions:
REMARK  status: ('A' for Active; 'I' for Inactive)
ROOT
ATOM      1  O1  BZF d   1      -0.670  -1.151   0.270  0.00  0.00    -0.204 OA
ATOM      2  C2  BZF d   1      -0.650  -2.278   1.069  0.00  0.00     0.174 A 
ATOM      3  C3  BZF d   1       0.617  -2.624   1.377  0.00  0.00    -0.012 A 
ATOM      4  C3A BZF d   1       1.436  -1.599   0.805  0.00  0.00    -0.107 A 
ATOM      5  C4  BZF d   1       2.783  -1.376   0.785  0.00  0.00     0.055 A 
ATOM      6  C5  BZF d   1       3.268  -0.323   0.077  0.00  0.00    -0.016 A 
ATOM      7  C6  BZF d   1       2.436   0.524  -0.626  0.00  0.00     0.022 A 
ATOM      8  C7  BZF d   1       1.092   0.346  -0.631  0.00  0.00     0.029 A 
ATOM      9  C7A BZF d   1       0.597  -0.698   0.110  0.00  0.00     0.058 A 
ENDROOT
TORSDOF 0
ENDMDL
