MODEL 1
REMARK minimizedAffinity 1.54224455
REMARK minimizedRMSD -1
REMARK  0 active torsions:
REMARK  status: ('A' for Active; 'I' for Inactive)
ROOT
ATOM      1  O1  BZF d   1       1.475  -0.038   0.765  0.00  0.00    -0.204 OA
ATOM      2  C2  BZF d   1       0.836   0.692  -0.220  0.00  0.00     0.174 A 
ATOM      3  C3  BZF d   1      -0.129  -0.043  -0.810  0.00  0.00    -0.012 A 
ATOM      4  C3A BZF d   1      -0.153  -1.280  -0.091  0.00  0.00    -0.107 A 
ATOM      5  C4  BZF d   1      -0.909  -2.412  -0.195  0.00  0.00     0.055 A 
ATOM      6  C5  BZF d   1      -0.632  -3.469   0.613  0.00  0.00    -0.016 A 
ATOM      7  C6  BZF d   1       0.397  -3.430   1.531  0.00  0.00     0.022 A 
ATOM      8  C7  BZF d   1       1.172  -2.327   1.675  0.00  0.00     0.029 A 
ATOM      9  C7A BZF d   1       0.872  -1.246   0.883  0.00  0.00     0.058 A 
ENDROOT
TORSDOF 0
ENDMDL
