MODEL 1
REMARK minimizedAffinity 0.994638205
REMARK minimizedRMSD -1
REMARK  0 active torsions:
REMARK  status: ('A' for Active; 'I' for Inactive)
ROOT
ATOM      1  O1  BZF d   1      -1.776  -5.956  -2.401  0.00  0.00    -0.204 OA
ATOM      2  C2  BZF d   1      -3.095  -6.000  -2.811  0.00  0.00     0.174 A 
ATOM      3  C3  BZF d   1      -3.178  -5.968  -4.157  0.00  0.00    -0.012 A 
ATOM      4  C3A BZF d   1      -1.824  -5.994  -4.619  0.00  0.00    -0.107 A 
ATOM      5  C4  BZF d   1      -1.256  -5.996  -5.860  0.00  0.00     0.055 A 
ATOM      6  C5  BZF d   1       0.098  -5.950  -5.967  0.00  0.00    -0.016 A 
ATOM      7  C6  BZF d   1       0.913  -5.895  -4.855  0.00  0.00     0.022 A 
ATOM      8  C7  BZF d   1       0.395  -5.895  -3.602  0.00  0.00     0.029 A 
ATOM      9  C7A BZF d   1      -0.972  -5.975  -3.491  0.00  0.00     0.058 A 
ENDROOT
TORSDOF 0
ENDMDL
