MODEL 1
REMARK minimizedAffinity -0.900492311
REMARK minimizedRMSD -1
REMARK  0 active torsions:
REMARK  status: ('A' for Active; 'I' for Inactive)
ROOT
ATOM      1  O1  BZF d   1       2.154  -2.882   1.461  0.00  0.00    -0.204 OA
ATOM      2  C2  BZF d   1       0.896  -3.453   1.471  0.00  0.00     0.174 A 
ATOM      3  C3  BZF d   1      -0.038  -2.559   1.086  0.00  0.00    -0.012 A 
ATOM      4  C3A BZF d   1       0.692  -1.381   0.730  0.00  0.00    -0.107 A 
ATOM      5  C4  BZF d   1       0.323  -0.155   0.257  0.00  0.00     0.055 A 
ATOM      6  C5  BZF d   1       1.274   0.799   0.082  0.00  0.00    -0.016 A 
ATOM      7  C6  BZF d   1       2.602   0.563   0.373  0.00  0.00     0.022 A 
ATOM      8  C7  BZF d   1       3.017  -0.639   0.840  0.00  0.00     0.029 A 
ATOM      9  C7A BZF d   1       2.063  -1.616   0.988  0.00  0.00     0.058 A 
ENDROOT
TORSDOF 0
ENDMDL
