MODEL 1
REMARK minimizedAffinity -3.04529858
REMARK minimizedRMSD -1
REMARK  0 active torsions:
REMARK  status: ('A' for Active; 'I' for Inactive)
ROOT
ATOM      1  O1  BZF d   1      -1.669  -5.999  -2.280  0.00  0.00    -0.204 OA
ATOM      2  C2  BZF d   1      -3.022  -6.000  -2.559  0.00  0.00     0.174 A 
ATOM      3  C3  BZF d   1      -3.238  -5.841  -3.881  0.00  0.00    -0.012 A 
ATOM      4  C3A BZF d   1      -1.937  -5.826  -4.476  0.00  0.00    -0.107 A 
ATOM      5  C4  BZF d   1      -1.494  -5.713  -5.763  0.00  0.00     0.055 A 
ATOM      6  C5  BZF d   1      -0.157  -5.661  -5.999  0.00  0.00    -0.016 A 
ATOM      7  C6  BZF d   1       0.764  -5.713  -4.974  0.00  0.00     0.022 A 
ATOM      8  C7  BZF d   1       0.373  -5.831  -3.681  0.00  0.00     0.029 A 
ATOM      9  C7A BZF d   1      -0.977  -5.917  -3.442  0.00  0.00     0.058 A 
ENDROOT
TORSDOF 0
ENDMDL
