MODEL 1
REMARK minimizedAffinity 1.63794053
REMARK minimizedRMSD -1
REMARK  0 active torsions:
REMARK  status: ('A' for Active; 'I' for Inactive)
ROOT
ATOM      1  O1  BZF d   1      -1.105  -5.854  -2.607  0.00  0.00    -0.204 OA
ATOM      2  C2  BZF d   1      -2.375  -5.986  -3.135  0.00  0.00     0.174 A 
ATOM      3  C3  BZF d   1      -2.333  -5.999  -4.483  0.00  0.00    -0.012 A 
ATOM      4  C3A BZF d   1      -0.942  -5.960  -4.817  0.00  0.00    -0.107 A 
ATOM      5  C4  BZF d   1      -0.260  -5.966  -6.000  0.00  0.00     0.055 A 
ATOM      6  C5  BZF d   1       1.094  -5.844  -5.982  0.00  0.00    -0.016 A 
ATOM      7  C6  BZF d   1       1.795  -5.709  -4.802  0.00  0.00     0.022 A 
ATOM      8  C7  BZF d   1       1.163  -5.702  -3.604  0.00  0.00     0.029 A 
ATOM      9  C7A BZF d   1      -0.202  -5.859  -3.616  0.00  0.00     0.058 A 
ENDROOT
TORSDOF 0
ENDMDL
