MODEL 1
REMARK minimizedAffinity -0.819056571
REMARK minimizedRMSD -1
REMARK  0 active torsions:
REMARK  status: ('A' for Active; 'I' for Inactive)
ROOT
ATOM      1  O1  BZF d   1       1.892  -5.562  -3.438  0.00  0.00    -0.204 OA
ATOM      2  C2  BZF d   1       1.555  -5.621  -2.099  0.00  0.00     0.174 A 
ATOM      3  C3  BZF d   1       0.220  -5.738  -1.948  0.00  0.00    -0.012 A 
ATOM      4  C3A BZF d   1      -0.302  -5.845  -3.276  0.00  0.00    -0.107 A 
ATOM      5  C4  BZF d   1      -1.562  -5.999  -3.780  0.00  0.00     0.055 A 
ATOM      6  C5  BZF d   1      -1.739  -5.995  -5.127  0.00  0.00    -0.016 A 
ATOM      7  C6  BZF d   1      -0.681  -5.835  -5.998  0.00  0.00     0.022 A 
ATOM      8  C7  BZF d   1       0.587  -5.684  -5.545  0.00  0.00     0.029 A 
ATOM      9  C7A BZF d   1       0.774  -5.720  -4.185  0.00  0.00     0.058 A 
ENDROOT
TORSDOF 0
ENDMDL
