MODEL 1
REMARK minimizedAffinity 2.19505644
REMARK minimizedRMSD -1
REMARK  0 active torsions:
REMARK  status: ('A' for Active; 'I' for Inactive)
ROOT
ATOM      1  O1  BZF d   1      -1.090  -5.818  -4.597  0.00  0.00    -0.204 OA
ATOM      2  C2  BZF d   1      -0.690  -5.995  -5.907  0.00  0.00     0.174 A 
ATOM      3  C3  BZF d   1       0.656  -5.996  -6.000  0.00  0.00    -0.012 A 
ATOM      4  C3A BZF d   1       1.126  -5.899  -4.652  0.00  0.00    -0.107 A 
ATOM      5  C4  BZF d   1       2.371  -5.870  -4.092  0.00  0.00     0.055 A 
ATOM      6  C5  BZF d   1       2.487  -5.695  -2.749  0.00  0.00    -0.016 A 
ATOM      7  C6  BZF d   1       1.381  -5.542  -1.938  0.00  0.00     0.022 A 
ATOM      8  C7  BZF d   1       0.126  -5.570  -2.448  0.00  0.00     0.029 A 
ATOM      9  C7A BZF d   1       0.004  -5.779  -3.800  0.00  0.00     0.058 A 
ENDROOT
TORSDOF 0
ENDMDL
