MODEL 1
REMARK minimizedAffinity -0.920623839
REMARK minimizedRMSD -1
REMARK  0 active torsions:
REMARK  status: ('A' for Active; 'I' for Inactive)
ROOT
ATOM      1  O1  BZF d   1       1.497  -5.695  -5.106  0.00  0.00    -0.204 OA
ATOM      2  C2  BZF d   1       0.377  -5.918  -5.883  0.00  0.00     0.174 A 
ATOM      3  C3  BZF d   1      -0.729  -5.998  -5.115  0.00  0.00    -0.012 A 
ATOM      4  C3A BZF d   1      -0.284  -5.721  -3.784  0.00  0.00    -0.107 A 
ATOM      5  C4  BZF d   1      -0.922  -5.638  -2.579  0.00  0.00     0.055 A 
ATOM      6  C5  BZF d   1      -0.187  -5.423  -1.456  0.00  0.00    -0.016 A 
ATOM      7  C6  BZF d   1       1.185  -5.291  -1.501  0.00  0.00     0.022 A 
ATOM      8  C7  BZF d   1       1.861  -5.361  -2.674  0.00  0.00     0.029 A 
ATOM      9  C7A BZF d   1       1.118  -5.546  -3.814  0.00  0.00     0.058 A 
ENDROOT
TORSDOF 0
ENDMDL
