MODEL 1
REMARK minimizedAffinity 6.54232121
REMARK minimizedRMSD -1
REMARK  0 active torsions:
REMARK  status: ('A' for Active; 'I' for Inactive)
ROOT
ATOM      1  O1  BZF d   1       0.149  -5.942  -1.957  0.00  0.00    -0.204 OA
ATOM      2  C2  BZF d   1      -1.224  -5.917  -1.804  0.00  0.00     0.174 A 
ATOM      3  C3  BZF d   1      -1.838  -5.870  -3.004  0.00  0.00    -0.012 A 
ATOM      4  C3A BZF d   1      -0.785  -5.958  -3.969  0.00  0.00    -0.107 A 
ATOM      5  C4  BZF d   1      -0.763  -5.978  -5.334  0.00  0.00     0.055 A 
ATOM      6  C5  BZF d   1       0.436  -5.997  -5.975  0.00  0.00    -0.016 A 
ATOM      7  C6  BZF d   1       1.629  -5.992  -5.283  0.00  0.00     0.022 A 
ATOM      8  C7  BZF d   1       1.657  -5.978  -3.928  0.00  0.00     0.029 A 
ATOM      9  C7A BZF d   1       0.448  -5.991  -3.277  0.00  0.00     0.058 A 
ENDROOT
TORSDOF 0
ENDMDL
