MODEL 1
REMARK minimizedAffinity -4.31650734
REMARK minimizedRMSD -1
REMARK  1 active torsions:
REMARK  status: ('A' for Active; 'I' for Inactive)
REMARK    1  A    between atoms: N_2  and  C1_3 
ROOT
ATOM      1  C1  UNL d   1       1.288   1.366   0.006  0.00  0.00     0.143 A 
ATOM      2  C2  UNL d   1       2.055   1.189  -1.151  0.00  0.00    -0.057 A 
ATOM      3  C3  UNL d   1       1.980   0.007  -1.898  0.00  0.00     0.033 A 
ATOM      4  C4  UNL d   1       1.156  -1.034  -1.484  0.00  0.00    -0.042 A 
ATOM      5  C5  UNL d   1       0.404  -0.890  -0.323  0.00  0.00     0.033 A 
ATOM      6  C6  UNL d   1       0.478   0.295   0.415  0.00  0.00    -0.057 A 
ENDROOT
BRANCH   1   7
ATOM      7  N   UNL d   1       1.392   2.477   0.845  0.00  0.00    -0.732 N 
ATOM      8  C   UNL d   1       1.632   2.311   2.263  0.00  0.00     0.284 C 
ATOM      9  H3  UNL d   1       1.920   3.237   0.421  0.00  0.00     0.395 HD
ENDBRANCH   1   7
TORSDOF 1
ENDMDL
