MODEL 1
REMARK minimizedAffinity -1.07878101
REMARK minimizedRMSD -1
REMARK  1 active torsions:
REMARK  status: ('A' for Active; 'I' for Inactive)
REMARK    1  A    between atoms: N_2  and  C1_3 
ROOT
ATOM      1  C1  UNL d   1      -0.073  -0.083  -0.079  0.00  0.00     0.143 A 
ATOM      2  C2  UNL d   1       0.679   1.090  -0.200  0.00  0.00    -0.057 A 
ATOM      3  C3  UNL d   1       1.472   1.331  -1.329  0.00  0.00     0.033 A 
ATOM      4  C4  UNL d   1       1.549   0.387  -2.347  0.00  0.00    -0.042 A 
ATOM      5  C5  UNL d   1       0.829  -0.798  -2.237  0.00  0.00     0.033 A 
ATOM      6  C6  UNL d   1       0.034  -1.030  -1.110  0.00  0.00    -0.057 A 
ENDROOT
BRANCH   1   7
ATOM      7  N   UNL d   1      -0.802  -0.425   1.062  0.00  0.00    -0.732 N 
ATOM      8  C   UNL d   1      -2.188  -0.029   1.198  0.00  0.00     0.284 C 
ATOM      9  H3  UNL d   1      -0.608  -1.373   1.377  0.00  0.00     0.395 HD
ENDBRANCH   1   7
TORSDOF 1
ENDMDL
