MODEL 1
REMARK minimizedAffinity -4.16691828
REMARK minimizedRMSD -1
REMARK  1 active torsions:
REMARK  status: ('A' for Active; 'I' for Inactive)
REMARK    1  A    between atoms: N_2  and  C1_3 
ROOT
ATOM      1  C1  UNL d   1       0.724   0.312   0.144  0.00  0.00     0.143 A 
ATOM      2  C2  UNL d   1       1.449   1.098  -0.758  0.00  0.00    -0.057 A 
ATOM      3  C3  UNL d   1       1.910   0.573  -1.972  0.00  0.00     0.033 A 
ATOM      4  C4  UNL d   1       1.678  -0.760  -2.292  0.00  0.00    -0.042 A 
ATOM      5  C5  UNL d   1       0.981  -1.567  -1.400  0.00  0.00     0.033 A 
ATOM      6  C6  UNL d   1       0.517  -1.035  -0.193  0.00  0.00    -0.057 A 
ENDROOT
BRANCH   1   7
ATOM      7  N   UNL d   1       0.324   0.748   1.409  0.00  0.00    -0.732 N 
ATOM      8  C   UNL d   1       1.307   1.111   2.408  0.00  0.00     0.284 C 
ATOM      9  H3  UNL d   1      -0.478   1.372   1.369  0.00  0.00     0.395 HD
ENDBRANCH   1   7
TORSDOF 1
ENDMDL
