MODEL 1
REMARK minimizedAffinity -2.48706794
REMARK minimizedRMSD -1
REMARK  1 active torsions:
REMARK  status: ('A' for Active; 'I' for Inactive)
REMARK    1  A    between atoms: N_2  and  C1_3 
ROOT
ATOM      1  C1  UNL d   1      -0.194   0.840   3.173  0.00  0.00     0.143 A 
ATOM      2  C2  UNL d   1      -0.230  -0.006   2.059  0.00  0.00    -0.057 A 
ATOM      3  C3  UNL d   1      -1.438  -0.323   1.427  0.00  0.00     0.033 A 
ATOM      4  C4  UNL d   1      -2.639   0.178   1.917  0.00  0.00    -0.042 A 
ATOM      5  C5  UNL d   1      -2.630   1.001   3.038  0.00  0.00     0.033 A 
ATOM      6  C6  UNL d   1      -1.420   1.319   3.661  0.00  0.00    -0.057 A 
ENDROOT
BRANCH   1   7
ATOM      7  N   UNL d   1       0.964   1.113   3.905  0.00  0.00    -0.732 N 
ATOM      8  C   UNL d   1       2.013   1.936   3.343  0.00  0.00     0.284 C 
ATOM      9  H3  UNL d   1       0.768   1.301   4.886  0.00  0.00     0.395 HD
ENDBRANCH   1   7
TORSDOF 1
ENDMDL
