MODEL 1
REMARK minimizedAffinity -2.65704703
REMARK minimizedRMSD -1
REMARK  1 active torsions:
REMARK  status: ('A' for Active; 'I' for Inactive)
REMARK    1  A    between atoms: N_2  and  C1_3 
ROOT
ATOM      1  C1  UNL d   1       0.502   0.241   0.329  0.00  0.00     0.143 A 
ATOM      2  C2  UNL d   1       1.279   1.136  -0.414  0.00  0.00    -0.057 A 
ATOM      3  C3  UNL d   1       1.724   0.815  -1.702  0.00  0.00     0.033 A 
ATOM      4  C4  UNL d   1       1.423  -0.422  -2.260  0.00  0.00    -0.042 A 
ATOM      5  C5  UNL d   1       0.673  -1.338  -1.531  0.00  0.00     0.033 A 
ATOM      6  C6  UNL d   1       0.225  -1.009  -0.247  0.00  0.00    -0.057 A 
ENDROOT
BRANCH   1   7
ATOM      7  N   UNL d   1       0.112   0.461   1.652  0.00  0.00    -0.732 N 
ATOM      8  C   UNL d   1       1.065   0.938   2.632  0.00  0.00     0.284 C 
ATOM      9  H3  UNL d   1      -0.806   0.896   1.720  0.00  0.00     0.395 HD
ENDBRANCH   1   7
TORSDOF 1
ENDMDL
