MODEL 1
REMARK minimizedAffinity -3.13310814
REMARK minimizedRMSD -1
REMARK  1 active torsions:
REMARK  status: ('A' for Active; 'I' for Inactive)
REMARK    1  A    between atoms: N_2  and  C1_3 
ROOT
ATOM      1  C1  UNL d   1      -0.829  -0.309   0.305  0.00  0.00     0.143 A 
ATOM      2  C2  UNL d   1      -0.496  -1.662   0.431  0.00  0.00    -0.057 A 
ATOM      3  C3  UNL d   1       0.287  -2.309  -0.532  0.00  0.00     0.033 A 
ATOM      4  C4  UNL d   1       0.728  -1.621  -1.657  0.00  0.00    -0.042 A 
ATOM      5  C5  UNL d   1       0.388  -0.282  -1.816  0.00  0.00     0.033 A 
ATOM      6  C6  UNL d   1      -0.389   0.361  -0.848  0.00  0.00    -0.057 A 
ENDROOT
BRANCH   1   7
ATOM      7  N   UNL d   1      -1.687   0.366   1.177  0.00  0.00    -0.732 N 
ATOM      8  C   UNL d   1      -3.020  -0.135   1.435  0.00  0.00     0.284 C 
ATOM      9  H3  UNL d   1      -1.205   0.712   2.004  0.00  0.00     0.395 HD
ENDBRANCH   1   7
TORSDOF 1
ENDMDL
