MODEL 1
REMARK minimizedAffinity -4.58668613
REMARK minimizedRMSD -1
REMARK  1 active torsions:
REMARK  status: ('A' for Active; 'I' for Inactive)
REMARK    1  A    between atoms: N_2  and  C1_3 
ROOT
ATOM      1  C1  UNL d   1       0.125  -0.012  -0.635  0.00  0.00     0.143 A 
ATOM      2  C2  UNL d   1       1.446   0.427  -0.776  0.00  0.00    -0.057 A 
ATOM      3  C3  UNL d   1       2.084   0.420  -2.023  0.00  0.00     0.033 A 
ATOM      4  C4  UNL d   1       1.419  -0.056  -3.148  0.00  0.00    -0.042 A 
ATOM      5  C5  UNL d   1       0.114  -0.521  -3.026  0.00  0.00     0.033 A 
ATOM      6  C6  UNL d   1      -0.520  -0.505  -1.780  0.00  0.00    -0.057 A 
ENDROOT
BRANCH   1   7
ATOM      7  N   UNL d   1      -0.531  -0.122   0.594  0.00  0.00    -0.732 N 
ATOM      8  C   UNL d   1      -1.976  -0.118   0.661  0.00  0.00     0.284 C 
ATOM      9  H3  UNL d   1      -0.088  -0.798   1.212  0.00  0.00     0.395 HD
ENDBRANCH   1   7
TORSDOF 1
ENDMDL
