MODEL 1
REMARK minimizedAffinity -0.636712372
REMARK minimizedRMSD -1
REMARK  1 active torsions:
REMARK  status: ('A' for Active; 'I' for Inactive)
REMARK    1  A    between atoms: N_2  and  C1_3 
ROOT
ATOM      1  C1  UNL d   1       1.874   2.544   1.265  0.00  0.00     0.143 A 
ATOM      2  C2  UNL d   1       1.180   1.347   1.467  0.00  0.00    -0.057 A 
ATOM      3  C3  UNL d   1       0.517   0.705   0.414  0.00  0.00     0.033 A 
ATOM      4  C4  UNL d   1       0.513   1.266  -0.858  0.00  0.00    -0.042 A 
ATOM      5  C5  UNL d   1       1.175   2.469  -1.077  0.00  0.00     0.033 A 
ATOM      6  C6  UNL d   1       1.841   3.102  -0.023  0.00  0.00    -0.057 A 
ENDROOT
BRANCH   1   7
ATOM      7  N   UNL d   1       2.470   3.282   2.291  0.00  0.00    -0.732 N 
ATOM      8  C   UNL d   1       2.714   2.680   3.585  0.00  0.00     0.284 C 
ATOM      9  H3  UNL d   1       3.229   3.870   1.957  0.00  0.00     0.395 HD
ENDBRANCH   1   7
TORSDOF 1
ENDMDL
