MODEL 1
REMARK minimizedAffinity -3.12808084
REMARK minimizedRMSD -1
REMARK  1 active torsions:
REMARK  status: ('A' for Active; 'I' for Inactive)
REMARK    1  A    between atoms: N_2  and  C1_3 
ROOT
ATOM      1  C1  UNL d   1      -4.136   2.036  -5.839  0.00  0.00     0.143 A 
ATOM      2  C2  UNL d   1      -2.946   2.752  -5.671  0.00  0.00    -0.057 A 
ATOM      3  C3  UNL d   1      -2.941   4.151  -5.617  0.00  0.00     0.033 A 
ATOM      4  C4  UNL d   1      -4.127   4.862  -5.761  0.00  0.00    -0.042 A 
ATOM      5  C5  UNL d   1      -5.319   4.173  -5.954  0.00  0.00     0.033 A 
ATOM      6  C6  UNL d   1      -5.318   2.775  -6.000  0.00  0.00    -0.057 A 
ENDROOT
BRANCH   1   7
ATOM      7  N   UNL d   1      -4.194   0.649  -5.999  0.00  0.00    -0.732 N 
ATOM      8  C   UNL d   1      -5.466  -0.040  -6.000  0.00  0.00     0.284 C 
ATOM      9  H3  UNL d   1      -3.538   0.311  -6.699  0.00  0.00     0.395 HD
ENDBRANCH   1   7
TORSDOF 1
ENDMDL
