MODEL 1
REMARK minimizedAffinity 2.40281582
REMARK minimizedRMSD -1
REMARK  1 active torsions:
REMARK  status: ('A' for Active; 'I' for Inactive)
REMARK    1  A    between atoms: N_2  and  C1_3 
ROOT
ATOM      1  C1  UNL d   1      -3.588   4.003  -5.877  0.00  0.00     0.143 A 
ATOM      2  C2  UNL d   1      -4.898   4.477  -5.999  0.00  0.00    -0.057 A 
ATOM      3  C3  UNL d   1      -5.991   3.602  -5.987  0.00  0.00     0.033 A 
ATOM      4  C4  UNL d   1      -5.790   2.230  -5.882  0.00  0.00    -0.042 A 
ATOM      5  C5  UNL d   1      -4.495   1.734  -5.785  0.00  0.00     0.033 A 
ATOM      6  C6  UNL d   1      -3.408   2.613  -5.790  0.00  0.00    -0.057 A 
ENDROOT
BRANCH   1   7
ATOM      7  N   UNL d   1      -2.454   4.813  -5.980  0.00  0.00    -0.732 N 
ATOM      8  C   UNL d   1      -1.130   4.229  -6.000  0.00  0.00     0.284 C 
ATOM      9  H3  UNL d   1      -2.582   5.577  -6.640  0.00  0.00     0.395 HD
ENDBRANCH   1   7
TORSDOF 1
ENDMDL
