MODEL 1
REMARK minimizedAffinity -2.69620347
REMARK minimizedRMSD -1
REMARK  1 active torsions:
REMARK  status: ('A' for Active; 'I' for Inactive)
REMARK    1  A    between atoms: C3_4  and  O_7 
ROOT
ATOM      1  C   UNL d   1       0.809   1.670  -0.085  0.00  0.00    -0.033 A 
ATOM      2  C1  UNL d   1      -0.463   1.777   0.481  0.00  0.00     0.039 A 
ATOM      3  C2  UNL d   1      -0.632   1.624   1.858  0.00  0.00    -0.080 A 
ATOM      4  C3  UNL d   1       0.478   1.367   2.658  0.00  0.00     0.150 A 
ATOM      5  C4  UNL d   1       1.749   1.263   2.102  0.00  0.00    -0.007 A 
ATOM      6  C5  UNL d   1       1.915   1.415   0.726  0.00  0.00     0.039 A 
ENDROOT
BRANCH   4   7
ATOM      7  O   UNL d   1       0.363   1.206   4.007  0.00  0.00    -0.526 OA
ATOM      8  H5  UNL d   1      -0.577   1.275   4.246  0.00  0.00     0.418 HD
ENDBRANCH   4   7
TORSDOF 1
ENDMDL
