MODEL 1
REMARK minimizedAffinity 7.37524748
REMARK minimizedRMSD -1
REMARK  1 active torsions:
REMARK  status: ('A' for Active; 'I' for Inactive)
REMARK    1  A    between atoms: C3_4  and  O_7 
ROOT
ATOM      1  C   UNL d   1       3.623  -0.259   0.260  0.00  0.00    -0.033 A 
ATOM      2  C1  UNL d   1       3.028  -0.418  -0.993  0.00  0.00     0.039 A 
ATOM      3  C2  UNL d   1       2.382  -1.613  -1.315  0.00  0.00    -0.080 A 
ATOM      4  C3  UNL d   1       2.337  -2.640  -0.376  0.00  0.00     0.150 A 
ATOM      5  C4  UNL d   1       2.925  -2.487   0.876  0.00  0.00    -0.007 A 
ATOM      6  C5  UNL d   1       3.570  -1.293   1.195  0.00  0.00     0.039 A 
ENDROOT
BRANCH   4   7
ATOM      7  O   UNL d   1       1.722  -3.826  -0.646  0.00  0.00    -0.526 OA
ATOM      8  H5  UNL d   1       1.387  -3.798  -1.558  0.00  0.00     0.418 HD
ENDBRANCH   4   7
TORSDOF 1
ENDMDL
