MODEL 1
REMARK minimizedAffinity -0.157126531
REMARK minimizedRMSD -1
REMARK  1 active torsions:
REMARK  status: ('A' for Active; 'I' for Inactive)
REMARK    1  A    between atoms: C3_4  and  O_7 
ROOT
ATOM      1  C   UNL d   1      -0.418  -0.047  -0.755  0.00  0.00    -0.033 A 
ATOM      2  C1  UNL d   1       0.917   0.209  -0.436  0.00  0.00     0.039 A 
ATOM      3  C2  UNL d   1       1.882  -0.785  -0.614  0.00  0.00    -0.080 A 
ATOM      4  C3  UNL d   1       1.500  -2.027  -1.111  0.00  0.00     0.150 A 
ATOM      5  C4  UNL d   1       0.172  -2.288  -1.434  0.00  0.00    -0.007 A 
ATOM      6  C5  UNL d   1      -0.790  -1.295  -1.255  0.00  0.00     0.039 A 
ENDROOT
BRANCH   4   7
ATOM      7  O   UNL d   1       2.405  -3.030  -1.297  0.00  0.00    -0.526 OA
ATOM      8  H5  UNL d   1       3.277  -2.715  -1.004  0.00  0.00     0.418 HD
ENDBRANCH   4   7
TORSDOF 1
ENDMDL
