MODEL 1
REMARK minimizedAffinity 0.0837799832
REMARK minimizedRMSD -1
REMARK  1 active torsions:
REMARK  status: ('A' for Active; 'I' for Inactive)
REMARK    1  A    between atoms: C3_4  and  O_7 
ROOT
ATOM      1  C   UNL d   1       4.553   1.427  -1.045  0.00  0.00    -0.033 A 
ATOM      2  C1  UNL d   1       4.138   2.582  -0.378  0.00  0.00     0.039 A 
ATOM      3  C2  UNL d   1       2.893   2.615   0.254  0.00  0.00    -0.080 A 
ATOM      4  C3  UNL d   1       2.076   1.489   0.214  0.00  0.00     0.150 A 
ATOM      5  C4  UNL d   1       2.485   0.334  -0.445  0.00  0.00    -0.007 A 
ATOM      6  C5  UNL d   1       3.727   0.303  -1.077  0.00  0.00     0.039 A 
ENDROOT
BRANCH   4   7
ATOM      7  O   UNL d   1       0.851   1.476   0.813  0.00  0.00    -0.526 OA
ATOM      8  H5  UNL d   1       0.690   2.351   1.204  0.00  0.00     0.418 HD
ENDBRANCH   4   7
TORSDOF 1
ENDMDL
