MODEL 1
REMARK minimizedAffinity 1.34254491
REMARK minimizedRMSD -1
REMARK  1 active torsions:
REMARK  status: ('A' for Active; 'I' for Inactive)
REMARK    1  A    between atoms: C3_4  and  O_7 
ROOT
ATOM      1  C   UNL d   1       2.176  -2.329  -0.074  0.00  0.00    -0.033 A 
ATOM      2  C1  UNL d   1       1.054  -3.052  -0.485  0.00  0.00     0.039 A 
ATOM      3  C2  UNL d   1      -0.070  -2.383  -0.973  0.00  0.00    -0.080 A 
ATOM      4  C3  UNL d   1      -0.059  -0.993  -1.046  0.00  0.00     0.150 A 
ATOM      5  C4  UNL d   1       1.056  -0.266  -0.642  0.00  0.00    -0.007 A 
ATOM      6  C5  UNL d   1       2.177  -0.936  -0.154  0.00  0.00     0.039 A 
ENDROOT
BRANCH   4   7
ATOM      7  O   UNL d   1      -1.134  -0.295  -1.511  0.00  0.00    -0.526 OA
ATOM      8  H5  UNL d   1      -1.841  -0.927  -1.726  0.00  0.00     0.418 HD
ENDBRANCH   4   7
TORSDOF 1
ENDMDL
