MODEL 1
REMARK minimizedAffinity 3.33705473
REMARK minimizedRMSD -1
REMARK  1 active torsions:
REMARK  status: ('A' for Active; 'I' for Inactive)
REMARK    1  A    between atoms: C3_4  and  O_7 
ROOT
ATOM      1  C   UNL d   1      -1.436  -2.174  -0.576  0.00  0.00    -0.033 A 
ATOM      2  C1  UNL d   1      -0.709  -1.533   0.429  0.00  0.00     0.039 A 
ATOM      3  C2  UNL d   1       0.665  -1.335   0.282  0.00  0.00    -0.080 A 
ATOM      4  C3  UNL d   1       1.300  -1.782  -0.873  0.00  0.00     0.150 A 
ATOM      5  C4  UNL d   1       0.582  -2.418  -1.881  0.00  0.00    -0.007 A 
ATOM      6  C5  UNL d   1      -0.790  -2.615  -1.732  0.00  0.00     0.039 A 
ENDROOT
BRANCH   4   7
ATOM      7  O   UNL d   1       2.640  -1.616  -1.060  0.00  0.00    -0.526 OA
ATOM      8  H5  UNL d   1       3.010  -1.187  -0.270  0.00  0.00     0.418 HD
ENDBRANCH   4   7
TORSDOF 1
ENDMDL
