MODEL 1
REMARK minimizedAffinity 0.84144479
REMARK minimizedRMSD -1
REMARK  1 active torsions:
REMARK  status: ('A' for Active; 'I' for Inactive)
REMARK    1  A    between atoms: C3_4  and  O_7 
ROOT
ATOM      1  C   UNL d   1       0.155  -1.796  -0.841  0.00  0.00    -0.033 A 
ATOM      2  C1  UNL d   1       1.495  -2.107  -0.598  0.00  0.00     0.039 A 
ATOM      3  C2  UNL d   1       2.432  -1.084  -0.440  0.00  0.00    -0.080 A 
ATOM      4  C3  UNL d   1       2.018   0.242  -0.525  0.00  0.00     0.150 A 
ATOM      5  C4  UNL d   1       0.685   0.559  -0.763  0.00  0.00    -0.007 A 
ATOM      6  C5  UNL d   1      -0.250  -0.464  -0.922  0.00  0.00     0.039 A 
ENDROOT
BRANCH   4   7
ATOM      7  O   UNL d   1       2.898   1.274  -0.382  0.00  0.00    -0.526 OA
ATOM      8  H5  UNL d   1       3.787   0.904  -0.252  0.00  0.00     0.418 HD
ENDBRANCH   4   7
TORSDOF 1
ENDMDL
