MODEL 1
REMARK minimizedAffinity -2.62295437
REMARK minimizedRMSD -1
REMARK  1 active torsions:
REMARK  status: ('A' for Active; 'I' for Inactive)
REMARK    1  A    between atoms: C3_4  and  O_7 
ROOT
ATOM      1  C   UNL d   1       2.115   0.489  -0.200  0.00  0.00    -0.033 A 
ATOM      2  C1  UNL d   1       0.762   0.790  -0.374  0.00  0.00     0.039 A 
ATOM      3  C2  UNL d   1      -0.149  -0.227  -0.665  0.00  0.00    -0.080 A 
ATOM      4  C3  UNL d   1       0.305  -1.539  -0.779  0.00  0.00     0.150 A 
ATOM      5  C4  UNL d   1       1.650  -1.846  -0.604  0.00  0.00    -0.007 A 
ATOM      6  C5  UNL d   1       2.558  -0.828  -0.314  0.00  0.00     0.039 A 
ENDROOT
BRANCH   4   7
ATOM      7  O   UNL d   1      -0.546  -2.564  -1.067  0.00  0.00    -0.526 OA
ATOM      8  H5  UNL d   1      -1.438  -2.199  -1.189  0.00  0.00     0.418 HD
ENDBRANCH   4   7
TORSDOF 1
ENDMDL
