MODEL 1
REMARK minimizedAffinity 2.70701241
REMARK minimizedRMSD -1
REMARK  1 active torsions:
REMARK  status: ('A' for Active; 'I' for Inactive)
REMARK    1  A    between atoms: C3_4  and  O_7 
ROOT
ATOM      1  C   UNL d   1       0.401  -1.864  -0.330  0.00  0.00    -0.033 A 
ATOM      2  C1  UNL d   1       0.247  -0.498  -0.086  0.00  0.00     0.039 A 
ATOM      3  C2  UNL d   1       1.292   0.385  -0.367  0.00  0.00    -0.080 A 
ATOM      4  C3  UNL d   1       2.482  -0.110  -0.892  0.00  0.00     0.150 A 
ATOM      5  C4  UNL d   1       2.641  -1.469  -1.141  0.00  0.00    -0.007 A 
ATOM      6  C5  UNL d   1       1.597  -2.350  -0.859  0.00  0.00     0.039 A 
ENDROOT
BRANCH   4   7
ATOM      7  O   UNL d   1       3.531   0.713  -1.178  0.00  0.00    -0.526 OA
ATOM      8  H5  UNL d   1       3.288   1.620  -0.928  0.00  0.00     0.418 HD
ENDBRANCH   4   7
TORSDOF 1
ENDMDL
