MODEL 1
REMARK minimizedAffinity -4.87553453
REMARK minimizedRMSD -1
REMARK  1 active torsions:
REMARK  status: ('A' for Active; 'I' for Inactive)
REMARK    1  A    between atoms: C3_4  and  O_7 
ROOT
ATOM      1  C   UNL d   1       1.957  -1.211  -0.096  0.00  0.00    -0.033 A 
ATOM      2  C1  UNL d   1       1.209  -0.059   0.159  0.00  0.00     0.039 A 
ATOM      3  C2  UNL d   1       1.848   1.176   0.285  0.00  0.00    -0.080 A 
ATOM      4  C3  UNL d   1       3.232   1.247   0.153  0.00  0.00     0.150 A 
ATOM      5  C4  UNL d   1       3.982   0.105  -0.106  0.00  0.00    -0.007 A 
ATOM      6  C5  UNL d   1       3.343  -1.128  -0.230  0.00  0.00     0.039 A 
ENDROOT
BRANCH   4   7
ATOM      7  O   UNL d   1       3.899   2.429   0.272  0.00  0.00    -0.526 OA
ATOM      8  H5  UNL d   1       3.255   3.127   0.479  0.00  0.00     0.418 HD
ENDBRANCH   4   7
TORSDOF 1
ENDMDL
