MODEL 1
REMARK minimizedAffinity 0.634188533
REMARK minimizedRMSD -1
REMARK  0 active torsions:
REMARK  status: ('A' for Active; 'I' for Inactive)
ROOT
ATOM      1  C1  DEN d   1       2.392  -1.808   0.668  0.00  0.00     0.130 A 
ATOM      2  C2  DEN d   1       2.267  -3.240   0.926  0.00  0.00    -0.031 A 
ATOM      3  C3  DEN d   1       1.141  -3.438   1.860  0.00  0.00     0.027 A 
ATOM      4  C4  DEN d   1      -0.416  -1.678   2.922  0.00  0.00     0.027 A 
ATOM      5  C5  DEN d   1      -0.691  -0.331   3.012  0.00  0.00    -0.003 A 
ATOM      6  C6  DEN d   1       0.057   0.613   2.359  0.00  0.00     0.001 A 
ATOM      7  C7  DEN d   1       1.090   0.219   1.551  0.00  0.00     0.017 A 
ATOM      8  C8  DEN d   1       1.379  -1.136   1.461  0.00  0.00    -0.094 A 
ATOM      9  C9  DEN d   1       0.603  -2.076   2.119  0.00  0.00    -0.072 A 
ENDROOT
TORSDOF 0
ENDMDL
