MODEL 1
REMARK minimizedAffinity 8.69470501
REMARK minimizedRMSD -1
REMARK  0 active torsions:
REMARK  status: ('A' for Active; 'I' for Inactive)
ROOT
ATOM      1  C1  DEN d   1       0.843  -3.188   0.717  0.00  0.00     0.130 A 
ATOM      2  C2  DEN d   1       2.131  -3.420   1.365  0.00  0.00    -0.031 A 
ATOM      3  C3  DEN d   1       2.120  -2.722   2.666  0.00  0.00     0.027 A 
ATOM      4  C4  DEN d   1       0.242  -1.315   3.737  0.00  0.00     0.027 A 
ATOM      5  C5  DEN d   1      -1.033  -0.825   3.560  0.00  0.00    -0.003 A 
ATOM      6  C6  DEN d   1      -1.753  -1.057   2.419  0.00  0.00     0.001 A 
ATOM      7  C7  DEN d   1      -1.220  -1.838   1.427  0.00  0.00     0.017 A 
ATOM      8  C8  DEN d   1       0.067  -2.330   1.595  0.00  0.00    -0.094 A 
ATOM      9  C9  DEN d   1       0.774  -2.094   2.762  0.00  0.00    -0.072 A 
ENDROOT
TORSDOF 0
ENDMDL
