MODEL 1
REMARK minimizedAffinity 4.32854319
REMARK minimizedRMSD -1
REMARK  0 active torsions:
REMARK  status: ('A' for Active; 'I' for Inactive)
ROOT
ATOM      1  C1  DEN d   1      -0.212  -1.118   3.790  0.00  0.00     0.130 A 
ATOM      2  C2  DEN d   1       0.409  -1.873   2.705  0.00  0.00    -0.031 A 
ATOM      3  C3  DEN d   1      -0.419  -1.698   1.495  0.00  0.00     0.027 A 
ATOM      4  C4  DEN d   1      -2.588  -0.335   1.196  0.00  0.00     0.027 A 
ATOM      5  C5  DEN d   1      -3.507   0.467   1.836  0.00  0.00    -0.003 A 
ATOM      6  C6  DEN d   1      -3.412   0.767   3.169  0.00  0.00     0.001 A 
ATOM      7  C7  DEN d   1      -2.349   0.298   3.896  0.00  0.00     0.017 A 
ATOM      8  C8  DEN d   1      -1.423  -0.517   3.259  0.00  0.00    -0.094 A 
ATOM      9  C9  DEN d   1      -1.530  -0.799   1.908  0.00  0.00    -0.072 A 
ENDROOT
TORSDOF 0
ENDMDL
