MODEL 1
REMARK minimizedAffinity 11.9140368
REMARK minimizedRMSD -1
REMARK  0 active torsions:
REMARK  status: ('A' for Active; 'I' for Inactive)
ROOT
ATOM      1  C1  DEN d   1       1.172  -1.277  -1.318  0.00  0.00     0.130 A 
ATOM      2  C2  DEN d   1      -0.265  -1.018  -1.332  0.00  0.00    -0.031 A 
ATOM      3  C3  DEN d   1      -0.803  -1.355   0.001  0.00  0.00     0.027 A 
ATOM      4  C4  DEN d   1       0.445  -2.244   2.076  0.00  0.00     0.027 A 
ATOM      5  C5  DEN d   1       1.671  -2.633   2.568  0.00  0.00    -0.003 A 
ATOM      6  C6  DEN d   1       2.802  -2.629   1.795  0.00  0.00     0.001 A 
ATOM      7  C7  DEN d   1       2.738  -2.185   0.500  0.00  0.00     0.017 A 
ATOM      8  C8  DEN d   1       1.503  -1.799  -0.005  0.00  0.00    -0.094 A 
ATOM      9  C9  DEN d   1       0.374  -1.799   0.796  0.00  0.00    -0.072 A 
ENDROOT
TORSDOF 0
ENDMDL
