MODEL 1
REMARK minimizedAffinity 0.36722669
REMARK minimizedRMSD -1
REMARK  0 active torsions:
REMARK  status: ('A' for Active; 'I' for Inactive)
ROOT
ATOM      1  C1  BNZ d   1      -3.146   1.658  -5.987  0.00  0.00     0.000 A 
ATOM      2  C2  BNZ d   1      -2.442   2.833  -6.000  0.00  0.00     0.000 A 
ATOM      3  C3  BNZ d   1      -3.090   4.036  -5.984  0.00  0.00     0.000 A 
ATOM      4  C4  BNZ d   1      -4.438   4.064  -5.997  0.00  0.00     0.000 A 
ATOM      5  C5  BNZ d   1      -5.161   2.888  -5.993  0.00  0.00     0.000 A 
ATOM      6  C6  BNZ d   1      -4.506   1.678  -5.969  0.00  0.00     0.000 A 
ENDROOT
TORSDOF 0
ENDMDL
