MODEL 1
REMARK minimizedAffinity -2.1950829
REMARK minimizedRMSD -1
REMARK  0 active torsions:
REMARK  status: ('A' for Active; 'I' for Inactive)
ROOT
ATOM      1  C1  BNZ d   1      -3.511   2.546  -5.975  0.00  0.00     0.000 A 
ATOM      2  C2  BNZ d   1      -3.009   3.820  -5.995  0.00  0.00     0.000 A 
ATOM      3  C3  BNZ d   1      -3.845   4.902  -5.986  0.00  0.00     0.000 A 
ATOM      4  C4  BNZ d   1      -5.180   4.708  -5.996  0.00  0.00     0.000 A 
ATOM      5  C5  BNZ d   1      -5.701   3.430  -5.985  0.00  0.00     0.000 A 
ATOM      6  C6  BNZ d   1      -4.856   2.344  -5.955  0.00  0.00     0.000 A 
ENDROOT
TORSDOF 0
ENDMDL
