MODEL 1
REMARK minimizedAffinity 2.93247604
REMARK minimizedRMSD -1
REMARK  0 active torsions:
REMARK  status: ('A' for Active; 'I' for Inactive)
ROOT
ATOM      1  C1  BNZ d   1      -4.514  -3.450  -5.946  0.00  0.00     0.000 A 
ATOM      2  C2  BNZ d   1      -3.165  -3.685  -5.938  0.00  0.00     0.000 A 
ATOM      3  C3  BNZ d   1      -2.676  -4.961  -5.985  0.00  0.00     0.000 A 
ATOM      4  C4  BNZ d   1      -3.535  -6.000  -6.000  0.00  0.00     0.000 A 
ATOM      5  C5  BNZ d   1      -4.898  -5.780  -5.999  0.00  0.00     0.000 A 
ATOM      6  C6  BNZ d   1      -5.387  -4.493  -5.991  0.00  0.00     0.000 A 
ENDROOT
TORSDOF 0
ENDMDL
