MODEL 1
REMARK minimizedAffinity -0.208174065
REMARK minimizedRMSD -1
REMARK  0 active torsions:
REMARK  status: ('A' for Active; 'I' for Inactive)
ROOT
ATOM      1  C1  BNZ d   1       3.699  -0.009  -1.100  0.00  0.00     0.000 A 
ATOM      2  C2  BNZ d   1       2.932   1.088  -0.811  0.00  0.00     0.000 A 
ATOM      3  C3  BNZ d   1       1.618   0.951  -0.459  0.00  0.00     0.000 A 
ATOM      4  C4  BNZ d   1       1.063  -0.278  -0.434  0.00  0.00     0.000 A 
ATOM      5  C5  BNZ d   1       1.821  -1.394  -0.731  0.00  0.00     0.000 A 
ATOM      6  C6  BNZ d   1       3.153  -1.255  -1.048  0.00  0.00     0.000 A 
ENDROOT
TORSDOF 0
ENDMDL
