MODEL 1
REMARK minimizedAffinity -3.69698882
REMARK minimizedRMSD -1
REMARK  0 active torsions:
REMARK  status: ('A' for Active; 'I' for Inactive)
ROOT
ATOM      1  C1  BNZ d   1      -3.976  -0.001  -5.999  0.00  0.00     0.000 A 
ATOM      2  C2  BNZ d   1      -5.264   0.463  -6.000  0.00  0.00     0.000 A 
ATOM      3  C3  BNZ d   1      -5.526   1.804  -6.000  0.00  0.00     0.000 A 
ATOM      4  C4  BNZ d   1      -4.500   2.680  -5.959  0.00  0.00     0.000 A 
ATOM      5  C5  BNZ d   1      -3.196   2.228  -5.948  0.00  0.00     0.000 A 
ATOM      6  C6  BNZ d   1      -2.936   0.877  -5.988  0.00  0.00     0.000 A 
ENDROOT
TORSDOF 0
ENDMDL
