MODEL 1
REMARK minimizedAffinity -2.76808286
REMARK minimizedRMSD -1
REMARK  0 active torsions:
REMARK  status: ('A' for Active; 'I' for Inactive)
ROOT
ATOM      1  C1  BNZ d   1      -2.897   0.498  -5.974  0.00  0.00     0.000 A 
ATOM      2  C2  BNZ d   1      -2.877   1.867  -6.000  0.00  0.00     0.000 A 
ATOM      3  C3  BNZ d   1      -4.041   2.583  -5.992  0.00  0.00     0.000 A 
ATOM      4  C4  BNZ d   1      -5.222   1.931  -6.000  0.00  0.00     0.000 A 
ATOM      5  C5  BNZ d   1      -5.258   0.551  -5.984  0.00  0.00     0.000 A 
ATOM      6  C6  BNZ d   1      -4.084  -0.167  -5.952  0.00  0.00     0.000 A 
ENDROOT
TORSDOF 0
ENDMDL
