MODEL 1
REMARK minimizedAffinity -2.91381884
REMARK minimizedRMSD -1
REMARK  0 active torsions:
REMARK  status: ('A' for Active; 'I' for Inactive)
ROOT
ATOM      1  C1  BNZ d   1      -5.995   0.913  -5.279  0.00  0.00     0.000 A 
ATOM      2  C2  BNZ d   1      -5.989   2.282  -5.238  0.00  0.00     0.000 A 
ATOM      3  C3  BNZ d   1      -4.875   2.988  -5.600  0.00  0.00     0.000 A 
ATOM      4  C4  BNZ d   1      -3.759   2.324  -5.963  0.00  0.00     0.000 A 
ATOM      5  C5  BNZ d   1      -3.747   0.944  -6.000  0.00  0.00     0.000 A 
ATOM      6  C6  BNZ d   1      -4.882   0.238  -5.673  0.00  0.00     0.000 A 
ENDROOT
TORSDOF 0
ENDMDL
