MODEL 1
REMARK minimizedAffinity -2.8224678
REMARK minimizedRMSD -1
REMARK  0 active torsions:
REMARK  status: ('A' for Active; 'I' for Inactive)
ROOT
ATOM      1  C1  BNZ d   1      -4.190  -4.292  -5.938  0.00  0.00     0.000 A 
ATOM      2  C2  BNZ d   1      -2.843  -4.526  -5.851  0.00  0.00     0.000 A 
ATOM      3  C3  BNZ d   1      -1.954  -3.490  -5.812  0.00  0.00     0.000 A 
ATOM      4  C4  BNZ d   1      -2.407  -2.223  -5.900  0.00  0.00     0.000 A 
ATOM      5  C5  BNZ d   1      -3.761  -1.970  -5.999  0.00  0.00     0.000 A 
ATOM      6  C6  BNZ d   1      -4.657  -3.015  -5.998  0.00  0.00     0.000 A 
ENDROOT
TORSDOF 0
ENDMDL
