MODEL 1
REMARK minimizedAffinity -0.215543866
REMARK minimizedRMSD -1
REMARK  0 active torsions:
REMARK  status: ('A' for Active; 'I' for Inactive)
ROOT
ATOM      1  C1  BNZ d   1      -3.869   0.987  -6.000  0.00  0.00     0.000 A 
ATOM      2  C2  BNZ d   1      -2.961   2.013  -5.994  0.00  0.00     0.000 A 
ATOM      3  C3  BNZ d   1      -3.377   3.315  -5.966  0.00  0.00     0.000 A 
ATOM      4  C4  BNZ d   1      -4.697   3.590  -5.984  0.00  0.00     0.000 A 
ATOM      5  C5  BNZ d   1      -5.624   2.567  -6.000  0.00  0.00     0.000 A 
ATOM      6  C6  BNZ d   1      -5.202   1.257  -5.988  0.00  0.00     0.000 A 
ENDROOT
TORSDOF 0
ENDMDL
