MODEL 1
REMARK minimizedAffinity -2.80186081
REMARK minimizedRMSD -1
REMARK  0 active torsions:
REMARK  status: ('A' for Active; 'I' for Inactive)
ROOT
ATOM      1  C1  BNZ d   1      -3.055   2.978  -5.112  0.00  0.00     0.000 A 
ATOM      2  C2  BNZ d   1      -2.950   1.624  -5.288  0.00  0.00     0.000 A 
ATOM      3  C3  BNZ d   1      -4.035   0.881  -5.662  0.00  0.00     0.000 A 
ATOM      4  C4  BNZ d   1      -5.230   1.485  -5.820  0.00  0.00     0.000 A 
ATOM      5  C5  BNZ d   1      -5.354   2.848  -5.637  0.00  0.00     0.000 A 
ATOM      6  C6  BNZ d   1      -4.251   3.599  -5.299  0.00  0.00     0.000 A 
ENDROOT
TORSDOF 0
ENDMDL
