MODEL 1
REMARK minimizedAffinity -3.24369764
REMARK minimizedRMSD -1
REMARK  0 active torsions:
REMARK  status: ('A' for Active; 'I' for Inactive)
ROOT
ATOM      1  C1  BNZ d   1      -3.276   1.416  -5.987  0.00  0.00     0.000 A 
ATOM      2  C2  BNZ d   1      -3.776   0.141  -5.985  0.00  0.00     0.000 A 
ATOM      3  C3  BNZ d   1      -5.125  -0.081  -6.000  0.00  0.00     0.000 A 
ATOM      4  C4  BNZ d   1      -5.970   0.970  -5.976  0.00  0.00     0.000 A 
ATOM      5  C5  BNZ d   1      -5.481   2.261  -5.969  0.00  0.00     0.000 A 
ATOM      6  C6  BNZ d   1      -4.123   2.481  -5.994  0.00  0.00     0.000 A 
ENDROOT
TORSDOF 0
ENDMDL
