MODEL 1
REMARK minimizedAffinity -3.14225125
REMARK minimizedRMSD -1
REMARK  0 active torsions:
REMARK  status: ('A' for Active; 'I' for Inactive)
ROOT
ATOM      1  C1  BNZ d   1      -3.327   1.128  -6.000  0.00  0.00     0.000 A 
ATOM      2  C2  BNZ d   1      -3.300   2.497  -5.973  0.00  0.00     0.000 A 
ATOM      3  C3  BNZ d   1      -4.460   3.219  -5.934  0.00  0.00     0.000 A 
ATOM      4  C4  BNZ d   1      -5.644   2.574  -5.963  0.00  0.00     0.000 A 
ATOM      5  C5  BNZ d   1      -5.688   1.194  -6.000  0.00  0.00     0.000 A 
ATOM      6  C6  BNZ d   1      -4.518   0.470  -5.999  0.00  0.00     0.000 A 
ENDROOT
TORSDOF 0
ENDMDL
