MODEL 1
REMARK minimizedAffinity -3.34529781
REMARK minimizedRMSD -1
REMARK  0 active torsions:
REMARK  status: ('A' for Active; 'I' for Inactive)
ROOT
ATOM      1  C1  BNZ d   1      -3.085   0.193  -6.000  0.00  0.00     0.000 A 
ATOM      2  C2  BNZ d   1      -4.425   0.474  -5.989  0.00  0.00     0.000 A 
ATOM      3  C3  BNZ d   1      -4.876   1.722  -5.662  0.00  0.00     0.000 A 
ATOM      4  C4  BNZ d   1      -3.990   2.675  -5.307  0.00  0.00     0.000 A 
ATOM      5  C5  BNZ d   1      -2.636   2.404  -5.304  0.00  0.00     0.000 A 
ATOM      6  C6  BNZ d   1      -2.184   1.158  -5.672  0.00  0.00     0.000 A 
ENDROOT
TORSDOF 0
ENDMDL
