MODEL 1
REMARK minimizedAffinity -3.44107866
REMARK minimizedRMSD -1
REMARK  0 active torsions:
REMARK  status: ('A' for Active; 'I' for Inactive)
ROOT
ATOM      1  C1  BNZ d   1      -3.592   2.291  -5.907  0.00  0.00     0.000 A 
ATOM      2  C2  BNZ d   1      -3.404   0.935  -5.957  0.00  0.00     0.000 A 
ATOM      3  C3  BNZ d   1      -4.466   0.078  -5.880  0.00  0.00     0.000 A 
ATOM      4  C4  BNZ d   1      -5.709   0.575  -5.713  0.00  0.00     0.000 A 
ATOM      5  C5  BNZ d   1      -5.913   1.939  -5.652  0.00  0.00     0.000 A 
ATOM      6  C6  BNZ d   1      -4.846   2.800  -5.769  0.00  0.00     0.000 A 
ENDROOT
TORSDOF 0
ENDMDL
