MODEL 1
REMARK minimizedAffinity -1.08571446
REMARK minimizedRMSD -1
REMARK  1 active torsions:
REMARK  status: ('A' for Active; 'I' for Inactive)
REMARK    1  A    between atoms: C1_2  and  C2_3 
ROOT
ATOM      1  C2  UNL d   1      -1.072  -0.629  -0.143  0.00  0.00    -0.076 A 
ATOM      2  C3  UNL d   1      -0.704  -1.415   0.963  0.00  0.00     0.004 A 
ATOM      3  C4  UNL d   1       0.564  -1.307   1.531  0.00  0.00    -0.003 A 
ATOM      4  C5  UNL d   1       1.486  -0.410   1.002  0.00  0.00     0.000 A 
ATOM      5  C6  UNL d   1       1.132   0.391  -0.084  0.00  0.00     0.000 A 
ATOM      6  C7  UNL d   1      -0.148   0.305  -0.658  0.00  0.00    -0.073 A 
ATOM      7  C8  UNL d   1      -0.473   1.188  -1.831  0.00  0.00     0.078 C 
ENDROOT
BRANCH   1   8
ATOM      8  C1  UNL d   1      -2.452  -0.810  -0.733  0.00  0.00     0.053 C 
ATOM      9  C   UNL d   1      -2.445  -1.691  -1.973  0.00  0.00     0.018 C 
ENDBRANCH   1   8
TORSDOF 1
ENDMDL
