MODEL 1
REMARK minimizedAffinity -0.561034739
REMARK minimizedRMSD -1
REMARK  1 active torsions:
REMARK  status: ('A' for Active; 'I' for Inactive)
REMARK    1  A    between atoms: C1_2  and  C2_3 
ROOT
ATOM      1  C2  UNL d   1      -0.359   0.089   0.351  0.00  0.00    -0.076 A 
ATOM      2  C3  UNL d   1      -0.821   0.745  -0.803  0.00  0.00     0.004 A 
ATOM      3  C4  UNL d   1      -1.928   0.269  -1.504  0.00  0.00    -0.003 A 
ATOM      4  C5  UNL d   1      -2.591  -0.870  -1.062  0.00  0.00     0.000 A 
ATOM      5  C6  UNL d   1      -2.157  -1.524   0.091  0.00  0.00     0.000 A 
ATOM      6  C7  UNL d   1      -1.052  -1.047   0.819  0.00  0.00    -0.073 A 
ATOM      7  C8  UNL d   1      -0.624  -1.795   2.052  0.00  0.00     0.078 C 
ENDROOT
BRANCH   1   8
ATOM      8  C1  UNL d   1       0.863   0.636   1.054  0.00  0.00     0.053 C 
ATOM      9  C   UNL d   1       2.134   0.458   0.238  0.00  0.00     0.018 C 
ENDBRANCH   1   8
TORSDOF 1
ENDMDL
