MODEL 1
REMARK minimizedAffinity 1.49226618
REMARK minimizedRMSD -1
REMARK  1 active torsions:
REMARK  status: ('A' for Active; 'I' for Inactive)
REMARK    1  A    between atoms: C1_2  and  C2_3 
ROOT
ATOM      1  C2  UNL d   1       0.528   0.577   0.517  0.00  0.00    -0.076 A 
ATOM      2  C3  UNL d   1       0.755   1.323   1.687  0.00  0.00     0.004 A 
ATOM      3  C4  UNL d   1       1.757   2.289   1.738  0.00  0.00    -0.003 A 
ATOM      4  C5  UNL d   1       2.549   2.527   0.620  0.00  0.00     0.000 A 
ATOM      5  C6  UNL d   1       2.327   1.809  -0.554  0.00  0.00     0.000 A 
ATOM      6  C7  UNL d   1       1.309   0.842  -0.628  0.00  0.00    -0.073 A 
ATOM      7  C8  UNL d   1       1.117   0.093  -1.918  0.00  0.00     0.078 C 
ENDROOT
BRANCH   1   8
ATOM      8  C1  UNL d   1      -0.556  -0.478   0.529  0.00  0.00     0.053 C 
ATOM      9  C   UNL d   1      -0.099  -1.775   1.179  0.00  0.00     0.018 C 
ENDBRANCH   1   8
TORSDOF 1
ENDMDL
