MODEL 1
REMARK minimizedAffinity -3.52649665
REMARK minimizedRMSD -1
REMARK  1 active torsions:
REMARK  status: ('A' for Active; 'I' for Inactive)
REMARK    1  A    between atoms: C1_2  and  C2_3 
ROOT
ATOM      1  C2  UNL d   1      -0.002   0.179   0.010  0.00  0.00    -0.076 A 
ATOM      2  C3  UNL d   1      -0.757  -0.067   1.170  0.00  0.00     0.004 A 
ATOM      3  C4  UNL d   1      -2.108  -0.402   1.090  0.00  0.00    -0.003 A 
ATOM      4  C5  UNL d   1      -2.725  -0.497  -0.152  0.00  0.00     0.000 A 
ATOM      5  C6  UNL d   1      -1.988  -0.273  -1.314  0.00  0.00     0.000 A 
ATOM      6  C7  UNL d   1      -0.621   0.049  -1.252  0.00  0.00    -0.073 A 
ATOM      7  C8  UNL d   1       0.124   0.286  -2.536  0.00  0.00     0.078 C 
ENDROOT
BRANCH   1   8
ATOM      8  C1  UNL d   1       1.452   0.564   0.160  0.00  0.00     0.053 C 
ATOM      9  C   UNL d   1       1.647   1.755   1.087  0.00  0.00     0.018 C 
ENDBRANCH   1   8
TORSDOF 1
ENDMDL
