MODEL 1
REMARK minimizedAffinity -3.62140131
REMARK minimizedRMSD -1
REMARK  1 active torsions:
REMARK  status: ('A' for Active; 'I' for Inactive)
REMARK    1  A    between atoms: C1_2  and  C2_3 
ROOT
ATOM      1  C2  UNL d   1      -1.039  -0.543  -0.383  0.00  0.00    -0.076 A 
ATOM      2  C3  UNL d   1      -0.858  -1.150   0.872  0.00  0.00     0.004 A 
ATOM      3  C4  UNL d   1       0.392  -1.162   1.489  0.00  0.00    -0.003 A 
ATOM      4  C5  UNL d   1       1.481  -0.567   0.862  0.00  0.00     0.000 A 
ATOM      5  C6  UNL d   1       1.315   0.055  -0.375  0.00  0.00     0.000 A 
ATOM      6  C7  UNL d   1       0.059   0.091  -1.003  0.00  0.00    -0.073 A 
ATOM      7  C8  UNL d   1      -0.061   0.770  -2.340  0.00  0.00     0.078 C 
ENDROOT
BRANCH   1   8
ATOM      8  C1  UNL d   1      -2.411  -0.585  -1.016  0.00  0.00     0.053 C 
ATOM      9  C   UNL d   1      -3.529  -0.585   0.015  0.00  0.00     0.018 C 
ENDBRANCH   1   8
TORSDOF 1
ENDMDL
