MODEL 1
REMARK minimizedAffinity -4.52517414
REMARK minimizedRMSD -1
REMARK  1 active torsions:
REMARK  status: ('A' for Active; 'I' for Inactive)
REMARK    1  A    between atoms: C1_2  and  C2_3 
ROOT
ATOM      1  C2  UNL d   1      -0.722  -0.081   0.023  0.00  0.00    -0.076 A 
ATOM      2  C3  UNL d   1      -1.365  -0.541   1.186  0.00  0.00     0.004 A 
ATOM      3  C4  UNL d   1      -2.604  -1.175   1.118  0.00  0.00    -0.003 A 
ATOM      4  C5  UNL d   1      -3.222  -1.359  -0.115  0.00  0.00     0.000 A 
ATOM      5  C6  UNL d   1      -2.591  -0.924  -1.280  0.00  0.00     0.000 A 
ATOM      6  C7  UNL d   1      -1.333  -0.298  -1.230  0.00  0.00    -0.073 A 
ATOM      7  C8  UNL d   1      -0.702   0.156  -2.517  0.00  0.00     0.078 C 
ENDROOT
BRANCH   1   8
ATOM      8  C1  UNL d   1       0.608   0.623   0.162  0.00  0.00     0.053 C 
ATOM      9  C   UNL d   1       1.742  -0.333   0.499  0.00  0.00     0.018 C 
ENDBRANCH   1   8
TORSDOF 1
ENDMDL
