MODEL 1
REMARK minimizedAffinity -4.80604172
REMARK minimizedRMSD -1
REMARK  1 active torsions:
REMARK  status: ('A' for Active; 'I' for Inactive)
REMARK    1  A    between atoms: C1_2  and  C2_3 
ROOT
ATOM      1  C2  UNL d   1      -0.251  -0.346  -0.135  0.00  0.00    -0.076 A 
ATOM      2  C3  UNL d   1      -0.780   0.376  -1.218  0.00  0.00     0.004 A 
ATOM      3  C4  UNL d   1      -2.144   0.341  -1.506  0.00  0.00    -0.003 A 
ATOM      4  C5  UNL d   1      -3.000  -0.416  -0.714  0.00  0.00     0.000 A 
ATOM      5  C6  UNL d   1      -2.495  -1.125   0.375  0.00  0.00     0.000 A 
ATOM      6  C7  UNL d   1      -1.125  -1.088   0.689  0.00  0.00    -0.073 A 
ATOM      7  C8  UNL d   1      -0.633  -1.876   1.871  0.00  0.00     0.078 C 
ENDROOT
BRANCH   1   8
ATOM      8  C1  UNL d   1       1.240  -0.292   0.112  0.00  0.00     0.053 C 
ATOM      9  C   UNL d   1       1.798   1.118   0.000  0.00  0.00     0.018 C 
ENDBRANCH   1   8
TORSDOF 1
ENDMDL
