MODEL 1
REMARK minimizedAffinity -3.69374442
REMARK minimizedRMSD -1
REMARK  1 active torsions:
REMARK  status: ('A' for Active; 'I' for Inactive)
REMARK    1  A    between atoms: C1_2  and  C2_3 
ROOT
ATOM      1  C2  UNL d   1       0.153  -0.536  -0.009  0.00  0.00    -0.076 A 
ATOM      2  C3  UNL d   1      -0.641  -1.077   1.016  0.00  0.00     0.004 A 
ATOM      3  C4  UNL d   1      -1.995  -1.337   0.814  0.00  0.00    -0.003 A 
ATOM      4  C5  UNL d   1      -2.577  -1.061  -0.419  0.00  0.00     0.000 A 
ATOM      5  C6  UNL d   1      -1.800  -0.541  -1.453  0.00  0.00     0.000 A 
ATOM      6  C7  UNL d   1      -0.430  -0.288  -1.270  0.00  0.00    -0.073 A 
ATOM      7  C8  UNL d   1       0.359   0.280  -2.419  0.00  0.00     0.078 C 
ENDROOT
BRANCH   1   8
ATOM      8  C1  UNL d   1       1.610  -0.249   0.277  0.00  0.00     0.053 C 
ATOM      9  C   UNL d   1       1.814   1.083   0.983  0.00  0.00     0.018 C 
ENDBRANCH   1   8
TORSDOF 1
ENDMDL
