MODEL 1
REMARK minimizedAffinity -0.876420379
REMARK minimizedRMSD -1
REMARK  1 active torsions:
REMARK  status: ('A' for Active; 'I' for Inactive)
REMARK    1  A    between atoms: C1_2  and  C2_3 
ROOT
ATOM      1  C2  UNL d   1      -0.998  -0.665   0.097  0.00  0.00    -0.076 A 
ATOM      2  C3  UNL d   1      -0.208   0.196  -0.684  0.00  0.00     0.004 A 
ATOM      3  C4  UNL d   1       1.158   0.333  -0.443  0.00  0.00    -0.003 A 
ATOM      4  C5  UNL d   1       1.757  -0.391   0.583  0.00  0.00     0.000 A 
ATOM      5  C6  UNL d   1       0.991  -1.263   1.356  0.00  0.00     0.000 A 
ATOM      6  C7  UNL d   1      -0.384  -1.425   1.116  0.00  0.00    -0.073 A 
ATOM      7  C8  UNL d   1      -1.162  -2.375   1.984  0.00  0.00     0.078 C 
ENDROOT
BRANCH   1   8
ATOM      8  C1  UNL d   1      -2.479  -0.751  -0.194  0.00  0.00     0.053 C 
ATOM      9  C   UNL d   1      -2.771  -1.351  -1.561  0.00  0.00     0.018 C 
ENDBRANCH   1   8
TORSDOF 1
ENDMDL
