MODEL 1
REMARK minimizedAffinity -1.17138803
REMARK minimizedRMSD -1
REMARK  1 active torsions:
REMARK  status: ('A' for Active; 'I' for Inactive)
REMARK    1  A    between atoms: C1_2  and  C2_3 
ROOT
ATOM      1  C2  UNL d   1      -1.139  -0.713   0.782  0.00  0.00    -0.076 A 
ATOM      2  C3  UNL d   1      -0.579   0.304  -0.011  0.00  0.00     0.004 A 
ATOM      3  C4  UNL d   1       0.796   0.531  -0.020  0.00  0.00    -0.003 A 
ATOM      4  C5  UNL d   1       1.633  -0.255   0.763  0.00  0.00     0.000 A 
ATOM      5  C6  UNL d   1       1.097  -1.279   1.543  0.00  0.00     0.000 A 
ATOM      6  C7  UNL d   1      -0.285  -1.532   1.551  0.00  0.00    -0.073 A 
ATOM      7  C8  UNL d   1      -0.810  -2.646   2.415  0.00  0.00     0.078 C 
ENDROOT
BRANCH   1   8
ATOM      8  C1  UNL d   1      -2.640  -0.895   0.772  0.00  0.00     0.053 C 
ATOM      9  C   UNL d   1      -3.117  -1.741  -0.399  0.00  0.00     0.018 C 
ENDBRANCH   1   8
TORSDOF 1
ENDMDL
