MODEL 1
REMARK minimizedAffinity -2.46359777
REMARK minimizedRMSD -1
REMARK  1 active torsions:
REMARK  status: ('A' for Active; 'I' for Inactive)
REMARK    1  A    between atoms: C1_2  and  C2_3 
ROOT
ATOM      1  C2  UNL d   1       0.252   0.119   0.251  0.00  0.00    -0.076 A 
ATOM      2  C3  UNL d   1      -0.505  -0.092   1.416  0.00  0.00     0.004 A 
ATOM      3  C4  UNL d   1      -1.856  -0.428   1.344  0.00  0.00    -0.003 A 
ATOM      4  C5  UNL d   1      -2.472  -0.560   0.105  0.00  0.00     0.000 A 
ATOM      5  C6  UNL d   1      -1.732  -0.372  -1.062  0.00  0.00     0.000 A 
ATOM      6  C7  UNL d   1      -0.366  -0.049  -1.008  0.00  0.00    -0.073 A 
ATOM      7  C8  UNL d   1       0.382   0.149  -2.298  0.00  0.00     0.078 C 
ENDROOT
BRANCH   1   8
ATOM      8  C1  UNL d   1       1.706   0.508   0.391  0.00  0.00     0.053 C 
ATOM      9  C   UNL d   1       1.891   1.796   1.179  0.00  0.00     0.018 C 
ENDBRANCH   1   8
TORSDOF 1
ENDMDL
