MODEL 1
REMARK minimizedAffinity 3.86150336
REMARK minimizedRMSD -1
REMARK  1 active torsions:
REMARK  status: ('A' for Active; 'I' for Inactive)
REMARK    1  A    between atoms: C1_2  and  C2_3 
ROOT
ATOM      1  C2  UNL d   1      -0.085  -0.276   0.456  0.00  0.00    -0.076 A 
ATOM      2  C3  UNL d   1       0.997  -1.133   0.723  0.00  0.00     0.004 A 
ATOM      3  C4  UNL d   1       0.876  -2.176   1.640  0.00  0.00    -0.003 A 
ATOM      4  C5  UNL d   1      -0.329  -2.379   2.304  0.00  0.00     0.000 A 
ATOM      5  C6  UNL d   1      -1.417  -1.549   2.038  0.00  0.00     0.000 A 
ATOM      6  C7  UNL d   1      -1.317  -0.503   1.104  0.00  0.00    -0.073 A 
ATOM      7  C8  UNL d   1      -2.521   0.365   0.860  0.00  0.00     0.078 C 
ENDROOT
BRANCH   1   8
ATOM      8  C1  UNL d   1       0.114   0.855  -0.528  0.00  0.00     0.053 C 
ATOM      9  C   UNL d   1       0.744   0.389  -1.832  0.00  0.00     0.018 C 
ENDBRANCH   1   8
TORSDOF 1
ENDMDL
