MODEL 1
REMARK minimizedAffinity -0.273412913
REMARK minimizedRMSD -1
REMARK  1 active torsions:
REMARK  status: ('A' for Active; 'I' for Inactive)
REMARK    1  A    between atoms: C1_2  and  C2_3 
ROOT
ATOM      1  C2  UNL d   1      -0.081  -0.315   0.040  0.00  0.00    -0.076 A 
ATOM      2  C3  UNL d   1      -0.905  -0.634   1.133  0.00  0.00     0.004 A 
ATOM      3  C4  UNL d   1      -2.239  -0.991   0.945  0.00  0.00    -0.003 A 
ATOM      4  C5  UNL d   1      -2.771  -1.036  -0.339  0.00  0.00     0.000 A 
ATOM      5  C6  UNL d   1      -1.963  -0.740  -1.436  0.00  0.00     0.000 A 
ATOM      6  C7  UNL d   1      -0.612  -0.394  -1.266  0.00  0.00    -0.073 A 
ATOM      7  C8  UNL d   1       0.212  -0.079  -2.484  0.00  0.00     0.078 C 
ENDROOT
BRANCH   1   8
ATOM      8  C1  UNL d   1       1.351   0.091   0.306  0.00  0.00     0.053 C 
ATOM      9  C   UNL d   1       1.482   1.564   0.663  0.00  0.00     0.018 C 
ENDBRANCH   1   8
TORSDOF 1
ENDMDL
