MODEL 1
REMARK minimizedAffinity 11.1231499
REMARK minimizedRMSD -1
REMARK  1 active torsions:
REMARK  status: ('A' for Active; 'I' for Inactive)
REMARK    1  A    between atoms: C1_2  and  C2_3 
ROOT
ATOM      1  C2  UNL d   1       0.888  -1.518   0.437  0.00  0.00    -0.081 A 
ATOM      2  C3  UNL d   1      -0.468  -1.400   0.109  0.00  0.00     0.006 A 
ATOM      3  C4  UNL d   1      -1.280  -0.479   0.775  0.00  0.00     0.002 A 
ATOM      4  C5  UNL d   1      -0.748   0.344   1.774  0.00  0.00    -0.080 A 
ATOM      5  C6  UNL d   1      -1.602   1.358   2.476  0.00  0.00     0.076 C 
ATOM      6  C7  UNL d   1       0.603   0.214   2.114  0.00  0.00     0.002 A 
ATOM      7  C8  UNL d   1       1.414  -0.708   1.449  0.00  0.00     0.006 A 
ENDROOT
BRANCH   1   8
ATOM      8  C1  UNL d   1       1.780  -2.465  -0.324  0.00  0.00     0.054 C 
ATOM      9  C   UNL d   1       1.074  -3.783  -0.608  0.00  0.00     0.018 C 
ENDBRANCH   1   8
TORSDOF 1
ENDMDL
