MODEL 1
REMARK minimizedAffinity 4.56662273
REMARK minimizedRMSD -1
REMARK  1 active torsions:
REMARK  status: ('A' for Active; 'I' for Inactive)
REMARK    1  A    between atoms: C1_2  and  C2_3 
ROOT
ATOM      1  C2  UNL d   1       2.937  -0.502   1.990  0.00  0.00    -0.081 A 
ATOM      2  C3  UNL d   1       1.832  -0.413   2.846  0.00  0.00     0.006 A 
ATOM      3  C4  UNL d   1       0.540  -0.623   2.359  0.00  0.00     0.002 A 
ATOM      4  C5  UNL d   1       0.332  -0.934   1.011  0.00  0.00    -0.080 A 
ATOM      5  C6  UNL d   1      -1.047  -1.193   0.481  0.00  0.00     0.076 C 
ATOM      6  C7  UNL d   1       1.434  -1.006   0.152  0.00  0.00     0.002 A 
ATOM      7  C8  UNL d   1       2.726  -0.795   0.638  0.00  0.00     0.006 A 
ENDROOT
BRANCH   1   8
ATOM      8  C1  UNL d   1       4.337  -0.339   2.526  0.00  0.00     0.054 C 
ATOM      9  C   UNL d   1       5.358  -1.010   1.619  0.00  0.00     0.018 C 
ENDBRANCH   1   8
TORSDOF 1
ENDMDL
