MODEL 1
REMARK minimizedAffinity 4.07185364
REMARK minimizedRMSD -1
REMARK  1 active torsions:
REMARK  status: ('A' for Active; 'I' for Inactive)
REMARK    1  A    between atoms: C1_2  and  C2_3 
ROOT
ATOM      1  C2  UNL d   1       2.504  -0.847   1.413  0.00  0.00    -0.081 A 
ATOM      2  C3  UNL d   1       1.175  -0.805   1.852  0.00  0.00     0.006 A 
ATOM      3  C4  UNL d   1       0.210  -1.631   1.269  0.00  0.00     0.002 A 
ATOM      4  C5  UNL d   1       0.560  -2.517   0.245  0.00  0.00    -0.080 A 
ATOM      5  C6  UNL d   1      -0.460  -3.430  -0.368  0.00  0.00     0.076 C 
ATOM      6  C7  UNL d   1       1.884  -2.547  -0.206  0.00  0.00     0.002 A 
ATOM      7  C8  UNL d   1       2.849  -1.721   0.376  0.00  0.00     0.006 A 
ENDROOT
BRANCH   1   8
ATOM      8  C1  UNL d   1       3.559  -0.005   2.083  0.00  0.00     0.054 C 
ATOM      9  C   UNL d   1       4.948  -0.596   1.883  0.00  0.00     0.018 C 
ENDBRANCH   1   8
TORSDOF 1
ENDMDL
