MODEL 1
REMARK minimizedAffinity 10.2037268
REMARK minimizedRMSD -1
REMARK  1 active torsions:
REMARK  status: ('A' for Active; 'I' for Inactive)
REMARK    1  A    between atoms: C1_2  and  C2_3 
ROOT
ATOM      1  C2  UNL d   1       1.144  -2.870  -0.348  0.00  0.00    -0.081 A 
ATOM      2  C3  UNL d   1       2.014  -1.814  -0.051  0.00  0.00     0.006 A 
ATOM      3  C4  UNL d   1       1.547  -0.676   0.611  0.00  0.00     0.002 A 
ATOM      4  C5  UNL d   1       0.205  -0.578   0.993  0.00  0.00    -0.080 A 
ATOM      5  C6  UNL d   1      -0.302   0.625   1.731  0.00  0.00     0.076 C 
ATOM      6  C7  UNL d   1      -0.668  -1.625   0.681  0.00  0.00     0.002 A 
ATOM      7  C8  UNL d   1      -0.202  -2.763   0.019  0.00  0.00     0.006 A 
ENDROOT
BRANCH   1   8
ATOM      8  C1  UNL d   1       1.658  -4.126  -1.004  0.00  0.00     0.054 C 
ATOM      9  C   UNL d   1       3.039  -4.497  -0.483  0.00  0.00     0.018 C 
ENDBRANCH   1   8
TORSDOF 1
ENDMDL
