MODEL 1
REMARK minimizedAffinity 0.976999819
REMARK minimizedRMSD -1
REMARK  1 active torsions:
REMARK  status: ('A' for Active; 'I' for Inactive)
REMARK    1  A    between atoms: C1_2  and  C2_3 
ROOT
ATOM      1  C2  UNL d   1      -0.880  -1.748   1.488  0.00  0.00    -0.081 A 
ATOM      2  C3  UNL d   1      -0.289  -1.425   2.716  0.00  0.00     0.006 A 
ATOM      3  C4  UNL d   1      -0.699  -0.292   3.423  0.00  0.00     0.002 A 
ATOM      4  C5  UNL d   1      -1.711   0.531   2.918  0.00  0.00    -0.080 A 
ATOM      5  C6  UNL d   1      -2.182   1.734   3.681  0.00  0.00     0.076 C 
ATOM      6  C7  UNL d   1      -2.289   0.218   1.683  0.00  0.00     0.002 A 
ATOM      7  C8  UNL d   1      -1.879  -0.914   0.976  0.00  0.00     0.006 A 
ENDROOT
BRANCH   1   8
ATOM      8  C1  UNL d   1      -0.485  -3.005   0.755  0.00  0.00     0.054 C 
ATOM      9  C   UNL d   1       0.754  -2.780  -0.101  0.00  0.00     0.018 C 
ENDBRANCH   1   8
TORSDOF 1
ENDMDL
