MODEL 1
REMARK minimizedAffinity 1.22938764
REMARK minimizedRMSD -1
REMARK  1 active torsions:
REMARK  status: ('A' for Active; 'I' for Inactive)
REMARK    1  A    between atoms: C1_2  and  C2_3 
ROOT
ATOM      1  C2  UNL d   1       1.150  -2.911  -0.443  0.00  0.00    -0.081 A 
ATOM      2  C3  UNL d   1      -0.094  -3.027   0.189  0.00  0.00     0.006 A 
ATOM      3  C4  UNL d   1      -0.625  -1.955   0.909  0.00  0.00     0.002 A 
ATOM      4  C5  UNL d   1       0.074  -0.746   1.002  0.00  0.00    -0.080 A 
ATOM      5  C6  UNL d   1      -0.499   0.423   1.746  0.00  0.00     0.076 C 
ATOM      6  C7  UNL d   1       1.325  -0.636   0.385  0.00  0.00     0.002 A 
ATOM      7  C8  UNL d   1       1.857  -1.709  -0.334  0.00  0.00     0.006 A 
ENDROOT
BRANCH   1   8
ATOM      8  C1  UNL d   1       1.696  -4.045  -1.274  0.00  0.00     0.054 C 
ATOM      9  C   UNL d   1       0.723  -4.444  -2.373  0.00  0.00     0.018 C 
ENDBRANCH   1   8
TORSDOF 1
ENDMDL
