MODEL 1
REMARK minimizedAffinity 4.6874938
REMARK minimizedRMSD -1
REMARK  1 active torsions:
REMARK  status: ('A' for Active; 'I' for Inactive)
REMARK    1  A    between atoms: C1_2  and  C2_3 
ROOT
ATOM      1  C2  UNL d   1       2.315  -3.438  -0.211  0.00  0.00    -0.081 A 
ATOM      2  C3  UNL d   1       2.104  -2.145   0.283  0.00  0.00     0.006 A 
ATOM      3  C4  UNL d   1       0.811  -1.692   0.551  0.00  0.00     0.002 A 
ATOM      4  C5  UNL d   1      -0.292  -2.525   0.336  0.00  0.00    -0.080 A 
ATOM      5  C6  UNL d   1      -1.684  -2.061   0.648  0.00  0.00     0.076 C 
ATOM      6  C7  UNL d   1      -0.083  -3.810  -0.175  0.00  0.00     0.002 A 
ATOM      7  C8  UNL d   1       1.210  -4.264  -0.443  0.00  0.00     0.006 A 
ENDROOT
BRANCH   1   8
ATOM      8  C1  UNL d   1       3.713  -3.953  -0.440  0.00  0.00     0.054 C 
ATOM      9  C   UNL d   1       3.860  -5.389   0.044  0.00  0.00     0.018 C 
ENDBRANCH   1   8
TORSDOF 1
ENDMDL
