MODEL 1
REMARK minimizedAffinity 6.0278697
REMARK minimizedRMSD -1
REMARK  1 active torsions:
REMARK  status: ('A' for Active; 'I' for Inactive)
REMARK    1  A    between atoms: C1_2  and  C2_3 
ROOT
ATOM      1  C2  UNL d   1       2.051  -2.961   0.089  0.00  0.00    -0.081 A 
ATOM      2  C3  UNL d   1       1.094  -3.484  -0.789  0.00  0.00     0.006 A 
ATOM      3  C4  UNL d   1      -0.212  -2.987  -0.790  0.00  0.00     0.002 A 
ATOM      4  C5  UNL d   1      -0.579  -1.955   0.080  0.00  0.00    -0.080 A 
ATOM      5  C6  UNL d   1      -1.970  -1.392   0.068  0.00  0.00     0.076 C 
ATOM      6  C7  UNL d   1       0.373  -1.445   0.969  0.00  0.00     0.002 A 
ATOM      7  C8  UNL d   1       1.678  -1.942   0.971  0.00  0.00     0.006 A 
ENDROOT
BRANCH   1   8
ATOM      8  C1  UNL d   1       3.477  -3.450   0.047  0.00  0.00     0.054 C 
ATOM      9  C   UNL d   1       3.547  -4.916  -0.354  0.00  0.00     0.018 C 
ENDBRANCH   1   8
TORSDOF 1
ENDMDL
