MODEL 1
REMARK minimizedAffinity 2.54367733
REMARK minimizedRMSD -1
REMARK  1 active torsions:
REMARK  status: ('A' for Active; 'I' for Inactive)
REMARK    1  A    between atoms: C1_2  and  C2_3 
ROOT
ATOM      1  C2  UNL d   1       0.115  -1.083   0.719  0.00  0.00    -0.081 A 
ATOM      2  C3  UNL d   1       0.463  -1.981  -0.297  0.00  0.00     0.006 A 
ATOM      3  C4  UNL d   1       1.805  -2.255  -0.572  0.00  0.00     0.002 A 
ATOM      4  C5  UNL d   1       2.821  -1.641   0.169  0.00  0.00    -0.080 A 
ATOM      5  C6  UNL d   1       4.264  -1.949  -0.095  0.00  0.00     0.076 C 
ATOM      6  C7  UNL d   1       2.474  -0.730   1.173  0.00  0.00     0.002 A 
ATOM      7  C8  UNL d   1       1.132  -0.456   1.447  0.00  0.00     0.006 A 
ENDROOT
BRANCH   1   8
ATOM      8  C1  UNL d   1      -1.332  -0.835   1.061  0.00  0.00     0.054 C 
ATOM      9  C   UNL d   1      -1.565   0.614   1.464  0.00  0.00     0.018 C 
ENDBRANCH   1   8
TORSDOF 1
ENDMDL
