MODEL 1
REMARK minimizedAffinity 5.08435106
REMARK minimizedRMSD -1
REMARK  1 active torsions:
REMARK  status: ('A' for Active; 'I' for Inactive)
REMARK    1  A    between atoms: C1_2  and  C2_3 
ROOT
ATOM      1  C2  UNL d   1       2.427  -0.833   0.993  0.00  0.00    -0.081 A 
ATOM      2  C3  UNL d   1       1.488  -0.260   1.859  0.00  0.00     0.006 A 
ATOM      3  C4  UNL d   1       0.121  -0.363   1.590  0.00  0.00     0.002 A 
ATOM      4  C5  UNL d   1      -0.329  -1.046   0.455  0.00  0.00    -0.080 A 
ATOM      5  C6  UNL d   1      -1.794  -1.190   0.170  0.00  0.00     0.076 C 
ATOM      6  C7  UNL d   1       0.610  -1.603  -0.420  0.00  0.00     0.002 A 
ATOM      7  C8  UNL d   1       1.977  -1.500  -0.151  0.00  0.00     0.006 A 
ENDROOT
BRANCH   1   8
ATOM      8  C1  UNL d   1       3.899  -0.780   1.315  0.00  0.00     0.054 C 
ATOM      9  C   UNL d   1       4.730  -1.427   0.217  0.00  0.00     0.018 C 
ENDBRANCH   1   8
TORSDOF 1
ENDMDL
