MODEL 1
REMARK minimizedAffinity 4.10340643
REMARK minimizedRMSD -1
REMARK  2 active torsions:
REMARK  status: ('A' for Active; 'I' for Inactive)
REMARK    1  A    between atoms: C1_2  and  C2_3 
REMARK    2  A    between atoms: C2_3  and  C3_4 
ROOT
ATOM      1  C3  UNL d   1      -4.312  -2.247   3.661  0.00  0.00    -0.075 A 
ATOM      2  C4  UNL d   1      -5.647  -2.592   3.915  0.00  0.00     0.002 A 
ATOM      3  C5  UNL d   1      -5.992  -3.281   5.079  0.00  0.00     0.002 A 
ATOM      4  C6  UNL d   1      -5.007  -3.640   5.997  0.00  0.00    -0.004 A 
ATOM      5  C7  UNL d   1      -3.676  -3.316   5.747  0.00  0.00     0.002 A 
ATOM      6  C8  UNL d   1      -3.329  -2.624   4.585  0.00  0.00     0.002 A 
ENDROOT
BRANCH   1   7
ATOM      7  C2  UNL d   1      -3.937  -1.476   2.418  0.00  0.00     0.056 C 
BRANCH   7   8
ATOM      8  C1  UNL d   1      -4.155   0.036   2.532  0.00  0.00     0.007 C 
ATOM      9  C   UNL d   1      -5.392   0.405   3.340  0.00  0.00     0.009 C 
ENDBRANCH   7   8
ENDBRANCH   1   7
TORSDOF 2
ENDMDL
