MODEL 1
REMARK minimizedAffinity 1.83725631
REMARK minimizedRMSD -1
REMARK  2 active torsions:
REMARK  status: ('A' for Active; 'I' for Inactive)
REMARK    1  A    between atoms: C1_2  and  C2_3 
REMARK    2  A    between atoms: C2_3  and  C3_4 
ROOT
ATOM      1  C3  UNL d   1      -5.098  -0.709   3.361  0.00  0.00    -0.075 A 
ATOM      2  C4  UNL d   1      -5.557  -0.016   4.491  0.00  0.00     0.002 A 
ATOM      3  C5  UNL d   1      -6.000  -0.710   5.617  0.00  0.00     0.002 A 
ATOM      4  C6  UNL d   1      -6.000  -2.103   5.624  0.00  0.00    -0.004 A 
ATOM      5  C7  UNL d   1      -5.562  -2.803   4.502  0.00  0.00     0.002 A 
ATOM      6  C8  UNL d   1      -5.113  -2.110   3.376  0.00  0.00     0.002 A 
ENDROOT
BRANCH   1   7
ATOM      7  C2  UNL d   1      -4.589   0.036   2.151  0.00  0.00     0.056 C 
BRANCH   7   8
ATOM      8  C1  UNL d   1      -4.101  -0.873   1.018  0.00  0.00     0.007 C 
ATOM      9  C   UNL d   1      -4.155  -0.208  -0.351  0.00  0.00     0.009 C 
ENDBRANCH   7   8
ENDBRANCH   1   7
TORSDOF 2
ENDMDL
