MODEL 1
REMARK minimizedAffinity 5.48732519
REMARK minimizedRMSD -1
REMARK  2 active torsions:
REMARK  status: ('A' for Active; 'I' for Inactive)
REMARK    1  A    between atoms: C1_2  and  C2_3 
REMARK    2  A    between atoms: C2_3  and  C3_4 
ROOT
ATOM      1  C3  UNL d   1      -2.039  -5.007  -5.944  0.00  0.00    -0.075 A 
ATOM      2  C4  UNL d   1      -0.710  -5.454  -5.916  0.00  0.00     0.002 A 
ATOM      3  C5  UNL d   1       0.345  -4.540  -5.909  0.00  0.00     0.002 A 
ATOM      4  C6  UNL d   1       0.085  -3.172  -5.939  0.00  0.00    -0.004 A 
ATOM      5  C7  UNL d   1      -1.231  -2.717  -5.984  0.00  0.00     0.002 A 
ATOM      6  C8  UNL d   1      -2.288  -3.629  -5.986  0.00  0.00     0.002 A 
ENDROOT
BRANCH   1   7
ATOM      7  C2  UNL d   1      -3.185  -5.990  -5.922  0.00  0.00     0.056 C 
BRANCH   7   8
ATOM      8  C1  UNL d   1      -4.464  -5.443  -5.279  0.00  0.00     0.007 C 
ATOM      9  C   UNL d   1      -5.735  -5.953  -5.944  0.00  0.00     0.009 C 
ENDBRANCH   7   8
ENDBRANCH   1   7
TORSDOF 2
ENDMDL
