MODEL 1
REMARK minimizedAffinity 9.34385586
REMARK minimizedRMSD -1
REMARK  2 active torsions:
REMARK  status: ('A' for Active; 'I' for Inactive)
REMARK    1  A    between atoms: C1_2  and  C2_3 
REMARK    2  A    between atoms: C2_3  and  C3_4 
ROOT
ATOM      1  C3  UNL d   1      -2.383   2.934  -2.570  0.00  0.00    -0.075 A 
ATOM      2  C4  UNL d   1      -2.671   4.186  -3.132  0.00  0.00     0.002 A 
ATOM      3  C5  UNL d   1      -1.724   5.209  -3.106  0.00  0.00     0.002 A 
ATOM      4  C6  UNL d   1      -0.482   4.998  -2.511  0.00  0.00    -0.004 A 
ATOM      5  C7  UNL d   1      -0.191   3.764  -1.934  0.00  0.00     0.002 A 
ATOM      6  C8  UNL d   1      -1.136   2.736  -1.962  0.00  0.00     0.002 A 
ENDROOT
BRANCH   1   7
ATOM      7  C2  UNL d   1      -3.393   1.813  -2.621  0.00  0.00     0.056 C 
BRANCH   7   8
ATOM      8  C1  UNL d   1      -4.163   1.607  -1.312  0.00  0.00     0.007 C 
ATOM      9  C   UNL d   1      -3.547   0.542  -0.414  0.00  0.00     0.009 C 
ENDBRANCH   7   8
ENDBRANCH   1   7
TORSDOF 2
ENDMDL
