MODEL 1
REMARK minimizedAffinity 9.86862946
REMARK minimizedRMSD -1
REMARK  2 active torsions:
REMARK  status: ('A' for Active; 'I' for Inactive)
REMARK    1  A    between atoms: C1_2  and  C2_3 
REMARK    2  A    between atoms: C2_3  and  C3_4 
ROOT
ATOM      1  C3  UNL d   1      -0.582   3.301  -2.030  0.00  0.00    -0.075 A 
ATOM      2  C4  UNL d   1      -0.585   1.914  -1.820  0.00  0.00     0.002 A 
ATOM      3  C5  UNL d   1      -0.076   1.376  -0.638  0.00  0.00     0.002 A 
ATOM      4  C6  UNL d   1       0.450   2.214   0.343  0.00  0.00    -0.004 A 
ATOM      5  C7  UNL d   1       0.473   3.592   0.138  0.00  0.00     0.002 A 
ATOM      6  C8  UNL d   1      -0.039   4.133  -1.043  0.00  0.00     0.002 A 
ENDROOT
BRANCH   1   7
ATOM      7  C2  UNL d   1      -1.158   3.892  -3.295  0.00  0.00     0.056 C 
BRANCH   7   8
ATOM      8  C1  UNL d   1      -2.687   3.987  -3.299  0.00  0.00     0.007 C 
ATOM      9  C   UNL d   1      -3.371   2.664  -3.616  0.00  0.00     0.009 C 
ENDBRANCH   7   8
ENDBRANCH   1   7
TORSDOF 2
ENDMDL
