MODEL 1
REMARK minimizedAffinity 0.958814621
REMARK minimizedRMSD -1
REMARK  2 active torsions:
REMARK  status: ('A' for Active; 'I' for Inactive)
REMARK    1  A    between atoms: C1_2  and  C2_3 
REMARK    2  A    between atoms: C2_3  and  C3_4 
ROOT
ATOM      1  C3  UNL d   1      -5.976  -2.147   3.325  0.00  0.00    -0.075 A 
ATOM      2  C4  UNL d   1      -5.936  -3.514   3.633  0.00  0.00     0.002 A 
ATOM      3  C5  UNL d   1      -5.941  -3.942   4.961  0.00  0.00     0.002 A 
ATOM      4  C6  UNL d   1      -5.976  -3.011   5.996  0.00  0.00    -0.004 A 
ATOM      5  C7  UNL d   1      -5.999  -1.649   5.702  0.00  0.00     0.002 A 
ATOM      6  C8  UNL d   1      -5.998  -1.218   4.374  0.00  0.00     0.002 A 
ENDROOT
BRANCH   1   7
ATOM      7  C2  UNL d   1      -6.000  -1.678   1.890  0.00  0.00     0.056 C 
BRANCH   7   8
ATOM      8  C1  UNL d   1      -5.278  -0.347   1.656  0.00  0.00     0.007 C 
ATOM      9  C   UNL d   1      -4.882  -0.126   0.202  0.00  0.00     0.009 C 
ENDBRANCH   7   8
ENDBRANCH   1   7
TORSDOF 2
ENDMDL
