MODEL 1
REMARK minimizedAffinity 6.34494638
REMARK minimizedRMSD -1
REMARK  2 active torsions:
REMARK  status: ('A' for Active; 'I' for Inactive)
REMARK    1  A    between atoms: C1_2  and  C2_3 
REMARK    2  A    between atoms: C2_3  and  C3_4 
ROOT
ATOM      1  C3  UNL d   1      -4.126   1.644  -3.220  0.00  0.00    -0.075 A 
ATOM      2  C4  UNL d   1      -4.458   0.523  -3.994  0.00  0.00     0.002 A 
ATOM      3  C5  UNL d   1      -4.612   0.635  -5.376  0.00  0.00     0.002 A 
ATOM      4  C6  UNL d   1      -4.446   1.870  -6.000  0.00  0.00    -0.004 A 
ATOM      5  C7  UNL d   1      -4.132   2.994  -5.239  0.00  0.00     0.002 A 
ATOM      6  C8  UNL d   1      -3.973   2.883  -3.857  0.00  0.00     0.002 A 
ENDROOT
BRANCH   1   7
ATOM      7  C2  UNL d   1      -3.929   1.523  -1.728  0.00  0.00     0.056 C 
BRANCH   7   8
ATOM      8  C1  UNL d   1      -4.912   0.566  -1.045  0.00  0.00     0.007 C 
ATOM      9  C   UNL d   1      -4.604   0.341   0.429  0.00  0.00     0.009 C 
ENDBRANCH   7   8
ENDBRANCH   1   7
TORSDOF 2
ENDMDL
