MODEL 1
REMARK minimizedAffinity 2.0893023
REMARK minimizedRMSD -1
REMARK  2 active torsions:
REMARK  status: ('A' for Active; 'I' for Inactive)
REMARK    1  A    between atoms: C1_2  and  C2_3 
REMARK    2  A    between atoms: C2_3  and  C3_4 
ROOT
ATOM      1  C3  UNL d   1      -0.206   3.754  -0.532  0.00  0.00    -0.075 A 
ATOM      2  C4  UNL d   1      -0.724   4.903   0.083  0.00  0.00     0.002 A 
ATOM      3  C5  UNL d   1      -1.118   6.000  -0.684  0.00  0.00     0.002 A 
ATOM      4  C6  UNL d   1      -0.991   5.966  -2.071  0.00  0.00    -0.004 A 
ATOM      5  C7  UNL d   1      -0.462   4.835  -2.691  0.00  0.00     0.002 A 
ATOM      6  C8  UNL d   1      -0.071   3.735  -1.926  0.00  0.00     0.002 A 
ENDROOT
BRANCH   1   7
ATOM      7  C2  UNL d   1       0.195   2.552   0.290  0.00  0.00     0.056 C 
BRANCH   7   8
ATOM      8  C1  UNL d   1      -0.593   2.399   1.596  0.00  0.00     0.007 C 
ATOM      9  C   UNL d   1       0.149   1.593   2.654  0.00  0.00     0.009 C 
ENDBRANCH   7   8
ENDBRANCH   1   7
TORSDOF 2
ENDMDL
