MODEL 1
REMARK minimizedAffinity -0.933446944
REMARK minimizedRMSD -1
REMARK  2 active torsions:
REMARK  status: ('A' for Active; 'I' for Inactive)
REMARK    1  A    between atoms: C1_2  and  C2_3 
REMARK    2  A    between atoms: C2_3  and  C3_4 
ROOT
ATOM      1  C3  UNL d   1      -3.203  -4.419  -5.994  0.00  0.00    -0.075 A 
ATOM      2  C4  UNL d   1      -3.801  -3.150  -5.995  0.00  0.00     0.002 A 
ATOM      3  C5  UNL d   1      -5.189  -3.021  -5.964  0.00  0.00     0.002 A 
ATOM      4  C6  UNL d   1      -5.997  -4.155  -5.943  0.00  0.00    -0.004 A 
ATOM      5  C7  UNL d   1      -5.415  -5.421  -5.959  0.00  0.00     0.002 A 
ATOM      6  C8  UNL d   1      -4.026  -5.553  -5.985  0.00  0.00     0.002 A 
ENDROOT
BRANCH   1   7
ATOM      7  C2  UNL d   1      -1.700  -4.565  -5.998  0.00  0.00     0.056 C 
BRANCH   7   8
ATOM      8  C1  UNL d   1      -0.944  -3.241  -5.851  0.00  0.00     0.007 C 
ATOM      9  C   UNL d   1       0.568  -3.401  -5.931  0.00  0.00     0.009 C 
ENDBRANCH   7   8
ENDBRANCH   1   7
TORSDOF 2
ENDMDL
