MODEL 1
REMARK minimizedAffinity -2.06963944
REMARK minimizedRMSD -1
REMARK  2 active torsions:
REMARK  status: ('A' for Active; 'I' for Inactive)
REMARK    1  A    between atoms: C1_2  and  C2_3 
REMARK    2  A    between atoms: C2_3  and  C3_4 
ROOT
ATOM      1  C3  UNL d   1      -3.007  -4.529  -5.897  0.00  0.00    -0.075 A 
ATOM      2  C4  UNL d   1      -2.077  -5.578  -5.875  0.00  0.00     0.002 A 
ATOM      3  C5  UNL d   1      -0.708  -5.312  -5.901  0.00  0.00     0.002 A 
ATOM      4  C6  UNL d   1      -0.252  -3.997  -5.960  0.00  0.00    -0.004 A 
ATOM      5  C7  UNL d   1      -1.167  -2.947  -5.999  0.00  0.00     0.002 A 
ATOM      6  C8  UNL d   1      -2.538  -3.211  -5.969  0.00  0.00     0.002 A 
ENDROOT
BRANCH   1   7
ATOM      7  C2  UNL d   1      -4.490  -4.809  -5.840  0.00  0.00     0.056 C 
BRANCH   7   8
ATOM      8  C1  UNL d   1      -4.872  -5.955  -4.896  0.00  0.00     0.007 C 
ATOM      9  C   UNL d   1      -4.025  -5.999  -3.632  0.00  0.00     0.009 C 
ENDBRANCH   7   8
ENDBRANCH   1   7
TORSDOF 2
ENDMDL
