MODEL 1
REMARK minimizedAffinity 0.997965813
REMARK minimizedRMSD -1
REMARK  2 active torsions:
REMARK  status: ('A' for Active; 'I' for Inactive)
REMARK    1  A    between atoms: C1_2  and  C2_3 
REMARK    2  A    between atoms: C2_3  and  C3_4 
ROOT
ATOM      1  C3  UNL d   1      -0.261   4.002  -0.492  0.00  0.00    -0.075 A 
ATOM      2  C4  UNL d   1      -0.004   3.942  -1.869  0.00  0.00     0.002 A 
ATOM      3  C5  UNL d   1      -0.525   4.909  -2.730  0.00  0.00     0.002 A 
ATOM      4  C6  UNL d   1      -1.316   5.940  -2.227  0.00  0.00    -0.004 A 
ATOM      5  C7  UNL d   1      -1.591   6.000  -0.862  0.00  0.00     0.002 A 
ATOM      6  C8  UNL d   1      -1.068   5.037   0.001  0.00  0.00     0.002 A 
ENDROOT
BRANCH   1   7
ATOM      7  C2  UNL d   1       0.324   2.976   0.449  0.00  0.00     0.056 C 
BRANCH   7   8
ATOM      8  C1  UNL d   1      -0.671   2.437   1.481  0.00  0.00     0.007 C 
ATOM      9  C   UNL d   1       0.003   1.804   2.692  0.00  0.00     0.009 C 
ENDBRANCH   7   8
ENDBRANCH   1   7
TORSDOF 2
ENDMDL
