MODEL 1
REMARK minimizedAffinity 3.22048283
REMARK minimizedRMSD -1
REMARK  0 active torsions:
REMARK  status: ('A' for Active; 'I' for Inactive)
ROOT
ATOM      1  N1  IND d   1       1.587   3.609  -0.893  0.00  0.00    -0.196 N 
ATOM      2  C2  IND d   1       1.794   3.381  -2.225  0.00  0.00     0.054 A 
ATOM      3  C3  IND d   1       1.771   2.054  -2.484  0.00  0.00    -0.031 A 
ATOM      4  C4  IND d   1       1.309   0.084  -0.892  0.00  0.00     0.051 A 
ATOM      5  C5  IND d   1       1.101  -0.209   0.427  0.00  0.00    -0.031 A 
ATOM      6  C6  IND d   1       1.041   0.775   1.392  0.00  0.00     0.015 A 
ATOM      7  C7  IND d   1       1.175   2.097   1.071  0.00  0.00    -0.016 A 
ATOM      8  C8  IND d   1       1.394   2.398  -0.266  0.00  0.00    -0.047 A 
ATOM      9  C9  IND d   1       1.498   1.400  -1.244  0.00  0.00    -0.096 A 
ATOM     10  HN1 IND d   1       1.580   4.379  -0.511  0.00  0.00     0.298 HD
ENDROOT
TORSDOF 0
ENDMDL
