MODEL 1
REMARK minimizedAffinity -4.86902332
REMARK minimizedRMSD -1
REMARK  0 active torsions:
REMARK  status: ('A' for Active; 'I' for Inactive)
ROOT
ATOM      1  N1  IND d   1       1.817   3.543  -2.014  0.00  0.00    -0.196 N 
ATOM      2  C2  IND d   1       1.547   4.496  -1.071  0.00  0.00     0.054 A 
ATOM      3  C3  IND d   1       1.103   3.919   0.068  0.00  0.00    -0.031 A 
ATOM      4  C4  IND d   1       0.837   1.423   0.640  0.00  0.00     0.051 A 
ATOM      5  C5  IND d   1       0.924   0.176   0.088  0.00  0.00    -0.031 A 
ATOM      6  C6  IND d   1       1.324  -0.017  -1.219  0.00  0.00     0.015 A 
ATOM      7  C7  IND d   1       1.664   1.035  -2.022  0.00  0.00    -0.016 A 
ATOM      8  C8  IND d   1       1.570   2.303  -1.467  0.00  0.00    -0.047 A 
ATOM      9  C9  IND d   1       1.124   2.508  -0.154  0.00  0.00    -0.096 A 
ATOM     10  HN1 IND d   1       2.093   3.693  -2.814  0.00  0.00     0.298 HD
ENDROOT
TORSDOF 0
ENDMDL
