MODEL 1
REMARK minimizedAffinity -5.22548485
REMARK minimizedRMSD -1
REMARK  0 active torsions:
REMARK  status: ('A' for Active; 'I' for Inactive)
ROOT
ATOM      1  N1  IND d   1       1.871   3.753   0.715  0.00  0.00    -0.196 N 
ATOM      2  C2  IND d   1       2.134   4.613  -0.314  0.00  0.00     0.054 A 
ATOM      3  C3  IND d   1       1.943   3.997  -1.502  0.00  0.00    -0.031 A 
ATOM      4  C4  IND d   1       1.102   1.614  -1.992  0.00  0.00     0.051 A 
ATOM      5  C5  IND d   1       0.765   0.442  -1.374  0.00  0.00    -0.031 A 
ATOM      6  C6  IND d   1       0.778   0.313   0.000  0.00  0.00     0.015 A 
ATOM      7  C7  IND d   1       1.118   1.358   0.811  0.00  0.00    -0.016 A 
ATOM      8  C8  IND d   1       1.467   2.547   0.187  0.00  0.00    -0.047 A 
ATOM      9  C9  IND d   1       1.497   2.672  -1.208  0.00  0.00    -0.096 A 
ATOM     10  HN1 IND d   1       1.945   3.935   1.552  0.00  0.00     0.298 HD
ENDROOT
TORSDOF 0
ENDMDL
