MODEL 1
REMARK minimizedAffinity 0.842687607
REMARK minimizedRMSD -1
REMARK  0 active torsions:
REMARK  status: ('A' for Active; 'I' for Inactive)
ROOT
ATOM      1  N1  IND d   1       1.341   4.051   0.582  0.00  0.00    -0.196 N 
ATOM      2  C2  IND d   1       1.666   4.948  -0.396  0.00  0.00     0.054 A 
ATOM      3  C3  IND d   1       1.765   4.325  -1.592  0.00  0.00    -0.031 A 
ATOM      4  C4  IND d   1       1.334   1.858  -2.191  0.00  0.00     0.051 A 
ATOM      5  C5  IND d   1       1.049   0.647  -1.627  0.00  0.00    -0.031 A 
ATOM      6  C6  IND d   1       0.840   0.506  -0.270  0.00  0.00     0.015 A 
ATOM      7  C7  IND d   1       0.897   1.578   0.575  0.00  0.00    -0.016 A 
ATOM      8  C8  IND d   1       1.193   2.808   0.006  0.00  0.00    -0.047 A 
ATOM      9  C9  IND d   1       1.449   2.951  -1.364  0.00  0.00    -0.096 A 
ATOM     10  HN1 IND d   1       1.246   4.232   1.417  0.00  0.00     0.298 HD
ENDROOT
TORSDOF 0
ENDMDL
