MODEL 1
REMARK minimizedAffinity 3.15460372
REMARK minimizedRMSD -1
REMARK  0 active torsions:
REMARK  status: ('A' for Active; 'I' for Inactive)
ROOT
ATOM      1  N1  IND d   1       1.970  -0.632  -1.467  0.00  0.00    -0.196 N 
ATOM      2  C2  IND d   1       1.393  -1.401  -0.495  0.00  0.00     0.054 A 
ATOM      3  C3  IND d   1       0.814  -0.617   0.442  0.00  0.00    -0.031 A 
ATOM      4  C4  IND d   1       0.604   1.948   0.527  0.00  0.00     0.051 A 
ATOM      5  C5  IND d   1       1.005   3.083  -0.119  0.00  0.00    -0.031 A 
ATOM      6  C6  IND d   1       1.760   3.037  -1.273  0.00  0.00     0.015 A 
ATOM      7  C7  IND d   1       2.136   1.849  -1.832  0.00  0.00    -0.016 A 
ATOM      8  C8  IND d   1       1.737   0.694  -1.174  0.00  0.00    -0.047 A 
ATOM      9  C9  IND d   1       1.006   0.735   0.020  0.00  0.00    -0.096 A 
ATOM     10  HN1 IND d   1       2.406  -0.927  -2.147  0.00  0.00     0.298 HD
ENDROOT
TORSDOF 0
ENDMDL
