MODEL 1
REMARK minimizedAffinity -0.773960054
REMARK minimizedRMSD -1
REMARK  0 active torsions:
REMARK  status: ('A' for Active; 'I' for Inactive)
ROOT
ATOM      1  N1  IND d   1       1.684   3.829  -0.931  0.00  0.00    -0.196 N 
ATOM      2  C2  IND d   1       1.444   4.328   0.319  0.00  0.00     0.054 A 
ATOM      3  C3  IND d   1       1.148   3.325   1.176  0.00  0.00    -0.031 A 
ATOM      4  C4  IND d   1       1.100   0.784   0.767  0.00  0.00     0.051 A 
ATOM      5  C5  IND d   1       1.215  -0.150  -0.225  0.00  0.00    -0.031 A 
ATOM      6  C6  IND d   1       1.501   0.202  -1.528  0.00  0.00     0.015 A 
ATOM      7  C7  IND d   1       1.694   1.506  -1.888  0.00  0.00    -0.016 A 
ATOM      8  C8  IND d   1       1.571   2.457  -0.885  0.00  0.00    -0.047 A 
ATOM      9  C9  IND d   1       1.240   2.110   0.431  0.00  0.00    -0.096 A 
ATOM     10  HN1 IND d   1       1.874   4.295  -1.628  0.00  0.00     0.298 HD
ENDROOT
TORSDOF 0
ENDMDL
