MODEL 1
REMARK minimizedAffinity -4.14064837
REMARK minimizedRMSD -1
REMARK  0 active torsions:
REMARK  status: ('A' for Active; 'I' for Inactive)
ROOT
ATOM      1  N1  IND d   1       1.320   4.155   0.662  0.00  0.00    -0.196 N 
ATOM      2  C2  IND d   1       1.594   4.829  -0.496  0.00  0.00     0.054 A 
ATOM      3  C3  IND d   1       1.716   3.962  -1.527  0.00  0.00    -0.031 A 
ATOM      4  C4  IND d   1       1.405   1.407  -1.560  0.00  0.00     0.051 A 
ATOM      5  C5  IND d   1       1.185   0.338  -0.738  0.00  0.00    -0.031 A 
ATOM      6  C6  IND d   1       0.991   0.490   0.620  0.00  0.00     0.015 A 
ATOM      7  C7  IND d   1       1.000   1.723   1.207  0.00  0.00    -0.016 A 
ATOM      8  C8  IND d   1       1.231   2.811   0.376  0.00  0.00    -0.047 A 
ATOM      9  C9  IND d   1       1.470   2.659  -0.996  0.00  0.00    -0.096 A 
ATOM     10  HN1 IND d   1       1.221   4.512   1.438  0.00  0.00     0.298 HD
ENDROOT
TORSDOF 0
ENDMDL
