MODEL 1
REMARK minimizedAffinity 11.3972216
REMARK minimizedRMSD -1
REMARK  0 active torsions:
REMARK  status: ('A' for Active; 'I' for Inactive)
ROOT
ATOM      1  N1  IND d   1       0.668   1.954  -2.396  0.00  0.00    -0.196 N 
ATOM      2  C2  IND d   1       1.191   3.127  -1.928  0.00  0.00     0.054 A 
ATOM      3  C3  IND d   1       1.872   2.913  -0.779  0.00  0.00    -0.031 A 
ATOM      4  C4  IND d   1       2.343   0.704   0.455  0.00  0.00     0.051 A 
ATOM      5  C5  IND d   1       2.043  -0.629   0.431  0.00  0.00    -0.031 A 
ATOM      6  C6  IND d   1       1.256  -1.181  -0.559  0.00  0.00     0.015 A 
ATOM      7  C7  IND d   1       0.746  -0.419  -1.572  0.00  0.00    -0.016 A 
ATOM      8  C8  IND d   1       1.043   0.937  -1.546  0.00  0.00    -0.047 A 
ATOM      9  C9  IND d   1       1.806   1.510  -0.521  0.00  0.00    -0.096 A 
ATOM     10  HN1 IND d   1       0.187   1.866  -3.103  0.00  0.00     0.298 HD
ENDROOT
TORSDOF 0
ENDMDL
