MODEL 1
REMARK minimizedAffinity 6.52891159
REMARK minimizedRMSD -1
REMARK  0 active torsions:
REMARK  status: ('A' for Active; 'I' for Inactive)
ROOT
ATOM      1  N1  IND d   1       1.483   3.356   1.002  0.00  0.00    -0.196 N 
ATOM      2  C2  IND d   1       1.139   4.355   0.135  0.00  0.00     0.054 A 
ATOM      3  C3  IND d   1       1.132   3.894  -1.136  0.00  0.00    -0.031 A 
ATOM      4  C4  IND d   1       1.555   1.511  -2.013  0.00  0.00     0.051 A 
ATOM      5  C5  IND d   1       1.940   0.265  -1.604  0.00  0.00    -0.031 A 
ATOM      6  C6  IND d   1       2.196  -0.021  -0.278  0.00  0.00     0.015 A 
ATOM      7  C7  IND d   1       2.063   0.930   0.693  0.00  0.00    -0.016 A 
ATOM      8  C8  IND d   1       1.679   2.198   0.281  0.00  0.00    -0.047 A 
ATOM      9  C9  IND d   1       1.460   2.505  -1.068  0.00  0.00    -0.096 A 
ATOM     10  HN1 IND d   1       1.564   3.437   1.854  0.00  0.00     0.298 HD
ENDROOT
TORSDOF 0
ENDMDL
