MODEL 1
REMARK minimizedAffinity -4.87964439
REMARK minimizedRMSD -1
REMARK  0 active torsions:
REMARK  status: ('A' for Active; 'I' for Inactive)
ROOT
ATOM      1  N1  IND d   1       1.986   4.050  -2.217  0.00  0.00    -0.196 N 
ATOM      2  C2  IND d   1       1.871   5.065  -1.308  0.00  0.00     0.054 A 
ATOM      3  C3  IND d   1       1.450   4.584  -0.116  0.00  0.00    -0.031 A 
ATOM      4  C4  IND d   1       0.986   2.153   0.594  0.00  0.00     0.051 A 
ATOM      5  C5  IND d   1       0.918   0.881   0.099  0.00  0.00    -0.031 A 
ATOM      6  C6  IND d   1       1.210   0.594  -1.218  0.00  0.00     0.015 A 
ATOM      7  C7  IND d   1       1.594   1.571  -2.092  0.00  0.00    -0.016 A 
ATOM      8  C8  IND d   1       1.659   2.865  -1.595  0.00  0.00    -0.047 A 
ATOM      9  C9  IND d   1       1.322   3.169  -0.270  0.00  0.00    -0.096 A 
ATOM     10  HN1 IND d   1       2.222   4.138  -3.039  0.00  0.00     0.298 HD
ENDROOT
TORSDOF 0
ENDMDL
