MODEL 1
REMARK minimizedAffinity 6.13919878
REMARK minimizedRMSD -1
REMARK  0 active torsions:
REMARK  status: ('A' for Active; 'I' for Inactive)
ROOT
ATOM      1  N1  IND d   1       1.240   3.470   1.061  0.00  0.00    -0.196 N 
ATOM      2  C2  IND d   1       0.781   4.318   0.092  0.00  0.00     0.054 A 
ATOM      3  C3  IND d   1       0.826   3.717  -1.118  0.00  0.00    -0.031 A 
ATOM      4  C4  IND d   1       1.518   1.313  -1.726  0.00  0.00     0.051 A 
ATOM      5  C5  IND d   1       2.045   0.174  -1.185  0.00  0.00    -0.031 A 
ATOM      6  C6  IND d   1       2.334   0.073   0.161  0.00  0.00     0.015 A 
ATOM      7  C7  IND d   1       2.095   1.107   1.021  0.00  0.00    -0.016 A 
ATOM      8  C8  IND d   1       1.566   2.267   0.473  0.00  0.00    -0.047 A 
ATOM      9  C9  IND d   1       1.311   2.391  -0.899  0.00  0.00    -0.096 A 
ATOM     10  HN1 IND d   1       1.312   3.656   1.898  0.00  0.00     0.298 HD
ENDROOT
TORSDOF 0
ENDMDL
