MODEL 1
REMARK minimizedAffinity -0.888636649
REMARK minimizedRMSD -1
REMARK  0 active torsions:
REMARK  status: ('A' for Active; 'I' for Inactive)
ROOT
ATOM      1  N1  IND d   1       1.673  -0.039  -1.802  0.00  0.00    -0.196 N 
ATOM      2  C2  IND d   1       1.499  -0.831  -0.701  0.00  0.00     0.054 A 
ATOM      3  C3  IND d   1       1.212  -0.075   0.382  0.00  0.00    -0.031 A 
ATOM      4  C4  IND d   1       0.878   2.472   0.557  0.00  0.00     0.051 A 
ATOM      5  C5  IND d   1       0.970   3.623  -0.174  0.00  0.00    -0.031 A 
ATOM      6  C6  IND d   1       1.304   3.612  -1.513  0.00  0.00     0.015 A 
ATOM      7  C7  IND d   1       1.550   2.443  -2.176  0.00  0.00    -0.016 A 
ATOM      8  C8  IND d   1       1.465   1.273  -1.435  0.00  0.00    -0.047 A 
ATOM      9  C9  IND d   1       1.168   1.281  -0.066  0.00  0.00    -0.096 A 
ATOM     10  HN1 IND d   1       1.878  -0.314  -2.590  0.00  0.00     0.298 HD
ENDROOT
TORSDOF 0
ENDMDL
