MODEL 1
REMARK minimizedAffinity 2.7108252
REMARK minimizedRMSD -1
REMARK  0 active torsions:
REMARK  status: ('A' for Active; 'I' for Inactive)
ROOT
ATOM      1  N1  IND d   1       1.375   3.474  -0.897  0.00  0.00    -0.196 N 
ATOM      2  C2  IND d   1       1.559   3.452  -2.252  0.00  0.00     0.054 A 
ATOM      3  C3  IND d   1       1.570   2.178  -2.704  0.00  0.00    -0.031 A 
ATOM      4  C4  IND d   1       1.203  -0.020  -1.414  0.00  0.00     0.051 A 
ATOM      5  C5  IND d   1       1.034  -0.511  -0.150  0.00  0.00    -0.031 A 
ATOM      6  C6  IND d   1       0.965   0.317   0.951  0.00  0.00     0.015 A 
ATOM      7  C7  IND d   1       1.052   1.675   0.828  0.00  0.00    -0.016 A 
ATOM      8  C8  IND d   1       1.232   2.177  -0.453  0.00  0.00    -0.047 A 
ATOM      9  C9  IND d   1       1.345   1.339  -1.570  0.00  0.00    -0.096 A 
ATOM     10  HN1 IND d   1       1.352   4.178  -0.405  0.00  0.00     0.298 HD
ENDROOT
TORSDOF 0
ENDMDL
