MODEL 1
REMARK minimizedAffinity -4.10275459
REMARK minimizedRMSD -1
REMARK  0 active torsions:
REMARK  status: ('A' for Active; 'I' for Inactive)
ROOT
ATOM      1  N1  IND d   1       1.188   0.856  -2.173  0.00  0.00    -0.196 N 
ATOM      2  C2  IND d   1       1.145  -0.375  -1.580  0.00  0.00     0.054 A 
ATOM      3  C3  IND d   1       1.127  -0.249  -0.234  0.00  0.00    -0.031 A 
ATOM      4  C4  IND d   1       1.061   1.884   1.207  0.00  0.00     0.051 A 
ATOM      5  C5  IND d   1       1.121   3.246   1.119  0.00  0.00    -0.031 A 
ATOM      6  C6  IND d   1       1.206   3.895  -0.096  0.00  0.00     0.015 A 
ATOM      7  C7  IND d   1       1.222   3.202  -1.274  0.00  0.00    -0.016 A 
ATOM      8  C8  IND d   1       1.168   1.818  -1.187  0.00  0.00    -0.047 A 
ATOM      9  C9  IND d   1       1.125   1.153   0.045  0.00  0.00    -0.096 A 
ATOM     10  HN1 IND d   1       1.221   1.004  -3.019  0.00  0.00     0.298 HD
ENDROOT
TORSDOF 0
ENDMDL
