MODEL 1
REMARK minimizedAffinity 0.489467412
REMARK minimizedRMSD -1
REMARK  0 active torsions:
REMARK  status: ('A' for Active; 'I' for Inactive)
ROOT
ATOM      1  N1  IND d   1       1.498   4.616  -1.703  0.00  0.00    -0.196 N 
ATOM      2  C2  IND d   1       1.548   5.313  -0.528  0.00  0.00     0.054 A 
ATOM      3  C3  IND d   1       1.359   4.480   0.521  0.00  0.00    -0.031 A 
ATOM      4  C4  IND d   1       1.053   1.924   0.544  0.00  0.00     0.051 A 
ATOM      5  C5  IND d   1       0.902   0.849  -0.287  0.00  0.00    -0.031 A 
ATOM      6  C6  IND d   1       0.947   0.978  -1.660  0.00  0.00     0.015 A 
ATOM      7  C7  IND d   1       1.155   2.189  -2.256  0.00  0.00    -0.016 A 
ATOM      8  C8  IND d   1       1.301   3.284  -1.415  0.00  0.00    -0.047 A 
ATOM      9  C9  IND d   1       1.215   3.166  -0.022  0.00  0.00    -0.096 A 
ATOM     10  HN1 IND d   1       1.577   4.954  -2.490  0.00  0.00     0.298 HD
ENDROOT
TORSDOF 0
ENDMDL
