MODEL 1
REMARK minimizedAffinity -0.314485252
REMARK minimizedRMSD -1
REMARK  0 active torsions:
REMARK  status: ('A' for Active; 'I' for Inactive)
ROOT
ATOM      1  N1  IND d   1       1.347  -1.229   0.225  0.00  0.00    -0.196 N 
ATOM      2  C2  IND d   1       1.325  -1.904  -0.964  0.00  0.00     0.054 A 
ATOM      3  C3  IND d   1       1.221  -1.036  -1.995  0.00  0.00    -0.031 A 
ATOM      4  C4  IND d   1       1.175   1.538  -1.968  0.00  0.00     0.051 A 
ATOM      5  C5  IND d   1       1.135   2.606  -1.116  0.00  0.00    -0.031 A 
ATOM      6  C6  IND d   1       1.167   2.447   0.255  0.00  0.00     0.015 A 
ATOM      7  C7  IND d   1       1.252   1.209   0.826  0.00  0.00    -0.016 A 
ATOM      8  C8  IND d   1       1.286   0.122  -0.036  0.00  0.00    -0.047 A 
ATOM      9  C9  IND d   1       1.211   0.275  -1.427  0.00  0.00    -0.096 A 
ATOM     10  HN1 IND d   1       1.392  -1.589   1.005  0.00  0.00     0.298 HD
ENDROOT
TORSDOF 0
ENDMDL
