MODEL 1
REMARK minimizedAffinity -6.10509157
REMARK minimizedRMSD -1
REMARK  0 active torsions:
REMARK  status: ('A' for Active; 'I' for Inactive)
ROOT
ATOM      1  O1  BZF d   1      -0.480   1.220  -1.519  0.00  0.00    -0.204 OA
ATOM      2  C2  BZF d   1      -0.859   0.290  -0.570  0.00  0.00     0.174 A 
ATOM      3  C3  BZF d   1       0.025  -0.728  -0.519  0.00  0.00    -0.012 A 
ATOM      4  C3A BZF d   1       1.066  -0.368  -1.432  0.00  0.00    -0.107 A 
ATOM      5  C4  BZF d   1       2.233  -0.969  -1.809  0.00  0.00     0.055 A 
ATOM      6  C5  BZF d   1       2.990  -0.391  -2.778  0.00  0.00    -0.016 A 
ATOM      7  C6  BZF d   1       2.609   0.783  -3.394  0.00  0.00     0.022 A 
ATOM      8  C7  BZF d   1       1.463   1.418  -3.050  0.00  0.00     0.029 A 
ATOM      9  C7A BZF d   1       0.712   0.854  -2.048  0.00  0.00     0.058 A 
ENDROOT
TORSDOF 0
ENDMDL
