MODEL 1
REMARK minimizedAffinity -2.68971586
REMARK minimizedRMSD -1
REMARK  0 active torsions:
REMARK  status: ('A' for Active; 'I' for Inactive)
ROOT
ATOM      1  O1  BZF d   1       1.279   1.357  -1.994  0.00  0.00    -0.204 OA
ATOM      2  C2  BZF d   1       0.497   2.491  -1.895  0.00  0.00     0.174 A 
ATOM      3  C3  BZF d   1      -0.621   2.240  -1.183  0.00  0.00    -0.012 A 
ATOM      4  C3A BZF d   1      -0.487   0.888  -0.736  0.00  0.00    -0.107 A 
ATOM      5  C4  BZF d   1      -1.270   0.069   0.028  0.00  0.00     0.055 A 
ATOM      6  C5  BZF d   1      -0.888  -1.221   0.218  0.00  0.00    -0.016 A 
ATOM      7  C6  BZF d   1       0.267  -1.727  -0.343  0.00  0.00     0.022 A 
ATOM      8  C7  BZF d   1       1.078  -0.952  -1.104  0.00  0.00     0.029 A 
ATOM      9  C7A BZF d   1       0.711   0.361  -1.271  0.00  0.00     0.058 A 
ENDROOT
TORSDOF 0
ENDMDL
