MODEL 1
REMARK minimizedAffinity -3.97802901
REMARK minimizedRMSD -1
REMARK  0 active torsions:
REMARK  status: ('A' for Active; 'I' for Inactive)
ROOT
ATOM      1  O1  BZF d   1      -2.634   0.804   2.063  0.00  0.00    -0.204 OA
ATOM      2  C2  BZF d   1      -2.090   1.210   3.266  0.00  0.00     0.174 A 
ATOM      3  C3  BZF d   1      -0.778   0.901   3.325  0.00  0.00    -0.012 A 
ATOM      4  C3A BZF d   1      -0.464   0.345   2.045  0.00  0.00    -0.107 A 
ATOM      5  C4  BZF d   1       0.686  -0.136   1.487  0.00  0.00     0.055 A 
ATOM      6  C5  BZF d   1       0.640  -0.676   0.241  0.00  0.00    -0.016 A 
ATOM      7  C6  BZF d   1      -0.538  -0.755  -0.473  0.00  0.00     0.022 A 
ATOM      8  C7  BZF d   1      -1.703  -0.286   0.037  0.00  0.00     0.029 A 
ATOM      9  C7A BZF d   1      -1.653   0.290   1.283  0.00  0.00     0.058 A 
ENDROOT
TORSDOF 0
ENDMDL
