MODEL 1
REMARK minimizedAffinity -0.924624503
REMARK minimizedRMSD -1
REMARK  0 active torsions:
REMARK  status: ('A' for Active; 'I' for Inactive)
ROOT
ATOM      1  O1  BZF d   1      -0.030   1.856   0.889  0.00  0.00    -0.204 OA
ATOM      2  C2  BZF d   1      -0.089   0.742   0.074  0.00  0.00     0.174 A 
ATOM      3  C3  BZF d   1      -0.880  -0.206   0.616  0.00  0.00    -0.012 A 
ATOM      4  C3A BZF d   1      -1.418   0.385   1.802  0.00  0.00    -0.107 A 
ATOM      5  C4  BZF d   1      -2.283  -0.056   2.762  0.00  0.00     0.055 A 
ATOM      6  C5  BZF d   1      -2.547   0.741   3.831  0.00  0.00    -0.016 A 
ATOM      7  C6  BZF d   1      -1.960   1.981   3.974  0.00  0.00     0.022 A 
ATOM      8  C7  BZF d   1      -1.099   2.464   3.045  0.00  0.00     0.029 A 
ATOM      9  C7A BZF d   1      -0.856   1.675   1.948  0.00  0.00     0.058 A 
ENDROOT
TORSDOF 0
ENDMDL
