MODEL 1
REMARK minimizedAffinity -3.01805043
REMARK minimizedRMSD -1
REMARK  0 active torsions:
REMARK  status: ('A' for Active; 'I' for Inactive)
ROOT
ATOM      1  O1  BZF d   1      -0.846   0.389   3.850  0.00  0.00    -0.204 OA
ATOM      2  C2  BZF d   1      -2.133   0.863   4.016  0.00  0.00     0.174 A 
ATOM      3  C3  BZF d   1      -2.737   1.034   2.822  0.00  0.00    -0.012 A 
ATOM      4  C3A BZF d   1      -1.800   0.555   1.854  0.00  0.00    -0.107 A 
ATOM      5  C4  BZF d   1      -1.827   0.449   0.492  0.00  0.00     0.055 A 
ATOM      6  C5  BZF d   1      -0.719   0.007  -0.158  0.00  0.00    -0.016 A 
ATOM      7  C6  BZF d   1       0.434  -0.331   0.519  0.00  0.00     0.022 A 
ATOM      8  C7  BZF d   1       0.508  -0.247   1.870  0.00  0.00     0.029 A 
ATOM      9  C7A BZF d   1      -0.621   0.168   2.533  0.00  0.00     0.058 A 
ENDROOT
TORSDOF 0
ENDMDL
