MODEL 1
REMARK minimizedAffinity -6.01996088
REMARK minimizedRMSD -1
REMARK  0 active torsions:
REMARK  status: ('A' for Active; 'I' for Inactive)
ROOT
ATOM      1  O1  BZF d   1      -0.590   0.718  -0.680  0.00  0.00    -0.204 OA
ATOM      2  C2  BZF d   1      -0.656  -0.168   0.378  0.00  0.00     0.174 A 
ATOM      3  C3  BZF d   1       0.542  -0.747   0.593  0.00  0.00    -0.012 A 
ATOM      4  C3A BZF d   1       1.435  -0.120  -0.333  0.00  0.00    -0.107 A 
ATOM      5  C4  BZF d   1       2.768  -0.259  -0.592  0.00  0.00     0.055 A 
ATOM      6  C5  BZF d   1       3.320   0.450  -1.612  0.00  0.00    -0.016 A 
ATOM      7  C6  BZF d   1       2.568   1.301  -2.395  0.00  0.00     0.022 A 
ATOM      8  C7  BZF d   1       1.243   1.475  -2.173  0.00  0.00     0.029 A 
ATOM      9  C7A BZF d   1       0.689   0.785  -1.122  0.00  0.00     0.058 A 
ENDROOT
TORSDOF 0
ENDMDL
