MODEL 1
REMARK minimizedAffinity -5.44282484
REMARK minimizedRMSD -1
REMARK  0 active torsions:
REMARK  status: ('A' for Active; 'I' for Inactive)
ROOT
ATOM      1  O1  BZF d   1       0.367   1.698  -2.283  0.00  0.00    -0.204 OA
ATOM      2  C2  BZF d   1       1.288   1.563  -3.304  0.00  0.00     0.174 A 
ATOM      3  C3  BZF d   1       1.967   0.404  -3.186  0.00  0.00    -0.012 A 
ATOM      4  C3A BZF d   1       1.373  -0.268  -2.071  0.00  0.00    -0.107 A 
ATOM      5  C4  BZF d   1       1.603  -1.472  -1.470  0.00  0.00     0.055 A 
ATOM      6  C5  BZF d   1       0.896  -1.800  -0.356  0.00  0.00    -0.016 A 
ATOM      7  C6  BZF d   1      -0.042  -0.946   0.186  0.00  0.00     0.022 A 
ATOM      8  C7  BZF d   1      -0.309   0.257  -0.379  0.00  0.00     0.029 A 
ATOM      9  C7A BZF d   1       0.380   0.577  -1.523  0.00  0.00     0.058 A 
ENDROOT
TORSDOF 0
ENDMDL
