MODEL 1
REMARK minimizedAffinity -4.75208855
REMARK minimizedRMSD -1
REMARK  0 active torsions:
REMARK  status: ('A' for Active; 'I' for Inactive)
ROOT
ATOM      1  O1  BZF d   1      -0.999   0.636  -0.261  0.00  0.00    -0.204 OA
ATOM      2  C2  BZF d   1      -1.105  -0.475   0.553  0.00  0.00     0.174 A 
ATOM      3  C3  BZF d   1      -0.150  -1.380   0.254  0.00  0.00    -0.012 A 
ATOM      4  C3A BZF d   1       0.656  -0.757  -0.752  0.00  0.00    -0.107 A 
ATOM      5  C4  BZF d   1       1.769  -1.150  -1.439  0.00  0.00     0.055 A 
ATOM      6  C5  BZF d   1       2.268  -0.338  -2.407  0.00  0.00    -0.016 A 
ATOM      7  C6  BZF d   1       1.679   0.871  -2.716  0.00  0.00     0.022 A 
ATOM      8  C7  BZF d   1       0.576   1.305  -2.058  0.00  0.00     0.029 A 
ATOM      9  C7A BZF d   1       0.088   0.501  -1.057  0.00  0.00     0.058 A 
ENDROOT
TORSDOF 0
ENDMDL
