MODEL 1
REMARK minimizedAffinity -5.09524632
REMARK minimizedRMSD -1
REMARK  0 active torsions:
REMARK  status: ('A' for Active; 'I' for Inactive)
ROOT
ATOM      1  O1  BZF d   1      -0.563   0.760  -0.538  0.00  0.00    -0.204 OA
ATOM      2  C2  BZF d   1      -0.712  -0.189   0.455  0.00  0.00     0.174 A 
ATOM      3  C3  BZF d   1       0.350  -1.019   0.487  0.00  0.00    -0.012 A 
ATOM      4  C3A BZF d   1       1.260  -0.504  -0.490  0.00  0.00    -0.107 A 
ATOM      5  C4  BZF d   1       2.501  -0.888  -0.911  0.00  0.00     0.055 A 
ATOM      6  C5  BZF d   1       3.088  -0.215  -1.935  0.00  0.00    -0.016 A 
ATOM      7  C6  BZF d   1       2.462   0.842  -2.563  0.00  0.00     0.022 A 
ATOM      8  C7  BZF d   1       1.233   1.262  -2.177  0.00  0.00     0.029 A 
ATOM      9  C7A BZF d   1       0.651   0.605  -1.120  0.00  0.00     0.058 A 
ENDROOT
TORSDOF 0
ENDMDL
