MODEL 1
REMARK minimizedAffinity -3.5945065
REMARK minimizedRMSD -1
REMARK  0 active torsions:
REMARK  status: ('A' for Active; 'I' for Inactive)
ROOT
ATOM      1  O1  BZF d   1      -0.207   1.300   0.312  0.00  0.00    -0.204 OA
ATOM      2  C2  BZF d   1      -0.219   0.102  -0.377  0.00  0.00     0.174 A 
ATOM      3  C3  BZF d   1      -1.132  -0.741   0.146  0.00  0.00    -0.012 A 
ATOM      4  C3A BZF d   1      -1.793   0.008   1.171  0.00  0.00    -0.107 A 
ATOM      5  C4  BZF d   1      -2.807  -0.280   2.039  0.00  0.00     0.055 A 
ATOM      6  C5  BZF d   1      -3.168   0.647   2.964  0.00  0.00    -0.016 A 
ATOM      7  C6  BZF d   1      -2.533   1.869   3.054  0.00  0.00     0.022 A 
ATOM      8  C7  BZF d   1      -1.525   2.202   2.212  0.00  0.00     0.029 A 
ATOM      9  C7A BZF d   1      -1.180   1.279   1.254  0.00  0.00     0.058 A 
ENDROOT
TORSDOF 0
ENDMDL
