MODEL 1
REMARK minimizedAffinity -2.05620456
REMARK minimizedRMSD -1
REMARK  0 active torsions:
REMARK  status: ('A' for Active; 'I' for Inactive)
ROOT
ATOM      1  O1  BZF d   1      -0.757   1.472  -0.323  0.00  0.00    -0.204 OA
ATOM      2  C2  BZF d   1      -1.039   0.504   0.622  0.00  0.00     0.174 A 
ATOM      3  C3  BZF d   1      -0.228  -0.563   0.470  0.00  0.00    -0.012 A 
ATOM      4  C3A BZF d   1       0.674  -0.203  -0.581  0.00  0.00    -0.107 A 
ATOM      5  C4  BZF d   1       1.722  -0.843  -1.178  0.00  0.00     0.055 A 
ATOM      6  C5  BZF d   1       2.351  -0.246  -2.225  0.00  0.00    -0.016 A 
ATOM      7  C6  BZF d   1       1.954   0.985  -2.703  0.00  0.00     0.022 A 
ATOM      8  C7  BZF d   1       0.922   1.660  -2.141  0.00  0.00     0.029 A 
ATOM      9  C7A BZF d   1       0.306   1.075  -1.061  0.00  0.00     0.058 A 
ENDROOT
TORSDOF 0
ENDMDL
