MODEL 1
REMARK minimizedAffinity -5.23766279
REMARK minimizedRMSD -1
REMARK  0 active torsions:
REMARK  status: ('A' for Active; 'I' for Inactive)
ROOT
ATOM      1  O1  BZF d   1       1.807  -0.160  -2.459  0.00  0.00    -0.204 OA
ATOM      2  C2  BZF d   1       1.505   1.155  -2.758  0.00  0.00     0.174 A 
ATOM      3  C3  BZF d   1       0.420   1.565  -2.071  0.00  0.00    -0.012 A 
ATOM      4  C3A BZF d   1       0.073   0.465  -1.224  0.00  0.00    -0.107 A 
ATOM      5  C4  BZF d   1      -0.908   0.268  -0.294  0.00  0.00     0.055 A 
ATOM      6  C5  BZF d   1      -1.017  -0.947   0.304  0.00  0.00    -0.016 A 
ATOM      7  C6  BZF d   1      -0.167  -1.988  -0.007  0.00  0.00     0.022 A 
ATOM      8  C7  BZF d   1       0.824  -1.840  -0.920  0.00  0.00     0.029 A 
ATOM      9  C7A BZF d   1       0.957  -0.603  -1.502  0.00  0.00     0.058 A 
ENDROOT
TORSDOF 0
ENDMDL
