MODEL 1
REMARK minimizedAffinity -4.45646429
REMARK minimizedRMSD -1
REMARK  0 active torsions:
REMARK  status: ('A' for Active; 'I' for Inactive)
ROOT
ATOM      1  O1  BZF d   1      -0.063   0.757  -0.410  0.00  0.00    -0.204 OA
ATOM      2  C2  BZF d   1      -0.447  -0.414   0.214  0.00  0.00     0.174 A 
ATOM      3  C3  BZF d   1       0.406  -1.416  -0.084  0.00  0.00    -0.012 A 
ATOM      4  C3A BZF d   1       1.435  -0.812  -0.873  0.00  0.00    -0.107 A 
ATOM      5  C4  BZF d   1       2.573  -1.290  -1.456  0.00  0.00     0.055 A 
ATOM      6  C5  BZF d   1       3.325  -0.455  -2.221  0.00  0.00    -0.016 A 
ATOM      7  C6  BZF d   1       2.965   0.860  -2.428  0.00  0.00     0.022 A 
ATOM      8  C7  BZF d   1       1.847   1.381  -1.867  0.00  0.00     0.029 A 
ATOM      9  C7A BZF d   1       1.103   0.549  -1.066  0.00  0.00     0.058 A 
ENDROOT
TORSDOF 0
ENDMDL
