MODEL 1
REMARK minimizedAffinity -5.90899801
REMARK minimizedRMSD -1
REMARK  0 active torsions:
REMARK  status: ('A' for Active; 'I' for Inactive)
ROOT
ATOM      1  O1  BZF d   1       0.037   1.116  -0.517  0.00  0.00    -0.204 OA
ATOM      2  C2  BZF d   1      -0.244   0.003   0.251  0.00  0.00     0.174 A 
ATOM      3  C3  BZF d   1       0.699  -0.946   0.081  0.00  0.00    -0.012 A 
ATOM      4  C3A BZF d   1       1.675  -0.356  -0.782  0.00  0.00    -0.107 A 
ATOM      5  C4  BZF d   1       2.858  -0.798  -1.303  0.00  0.00     0.055 A 
ATOM      6  C5  BZF d   1       3.536  -0.002  -2.170  0.00  0.00    -0.016 A 
ATOM      7  C6  BZF d   1       3.060   1.238  -2.542  0.00  0.00     0.022 A 
ATOM      8  C7  BZF d   1       1.895   1.722  -2.048  0.00  0.00     0.029 A 
ATOM      9  C7A BZF d   1       1.223   0.934  -1.145  0.00  0.00     0.058 A 
ENDROOT
TORSDOF 0
ENDMDL
