MODEL 1
REMARK minimizedAffinity -6.39118099
REMARK minimizedRMSD -1
REMARK  0 active torsions:
REMARK  status: ('A' for Active; 'I' for Inactive)
ROOT
ATOM      1  O1  BZF d   1      -0.814   0.738  -0.815  0.00  0.00    -0.204 OA
ATOM      2  C2  BZF d   1      -0.876  -0.327   0.062  0.00  0.00     0.174 A 
ATOM      3  C3  BZF d   1       0.298  -0.991   0.092  0.00  0.00    -0.012 A 
ATOM      4  C3A BZF d   1       1.175  -0.242  -0.754  0.00  0.00    -0.107 A 
ATOM      5  C4  BZF d   1       2.484  -0.389  -1.116  0.00  0.00     0.055 A 
ATOM      6  C5  BZF d   1       3.021   0.474  -2.018  0.00  0.00    -0.016 A 
ATOM      7  C6  BZF d   1       2.279   1.491  -2.581  0.00  0.00     0.022 A 
ATOM      8  C7  BZF d   1       0.978   1.680  -2.250  0.00  0.00     0.029 A 
ATOM      9  C7A BZF d   1       0.441   0.830  -1.314  0.00  0.00     0.058 A 
ENDROOT
TORSDOF 0
ENDMDL
