MODEL 1
REMARK minimizedAffinity -6.67308283
REMARK minimizedRMSD -1
REMARK  0 active torsions:
REMARK  status: ('A' for Active; 'I' for Inactive)
ROOT
ATOM      1  O1  BZF d   1      -0.457   0.786  -0.650  0.00  0.00    -0.204 OA
ATOM      2  C2  BZF d   1      -0.614  -0.122   0.379  0.00  0.00     0.174 A 
ATOM      3  C3  BZF d   1       0.484  -0.894   0.508  0.00  0.00    -0.012 A 
ATOM      4  C3A BZF d   1       1.420  -0.379  -0.444  0.00  0.00    -0.107 A 
ATOM      5  C4  BZF d   1       2.700  -0.717  -0.780  0.00  0.00     0.055 A 
ATOM      6  C5  BZF d   1       3.309  -0.062  -1.803  0.00  0.00    -0.016 A 
ATOM      7  C6  BZF d   1       2.667   0.932  -2.513  0.00  0.00     0.022 A 
ATOM      8  C7  BZF d   1       1.400   1.306  -2.213  0.00  0.00     0.029 A 
ATOM      9  C7A BZF d   1       0.793   0.668  -1.159  0.00  0.00     0.058 A 
ENDROOT
TORSDOF 0
ENDMDL
