MODEL 1
REMARK minimizedAffinity -3.79942513
REMARK minimizedRMSD -1
REMARK  3 active torsions:
REMARK  status: ('A' for Active; 'I' for Inactive)
REMARK    1  A    between atoms: C3'_2  and  C2'_3 
REMARK    2  A    between atoms: C2'_3  and  C1'_4 
REMARK    3  A    between atoms: C1'_4  and  C1_5 
ROOT
ATOM      1  C1  N4B d   1      -0.230   0.413   0.193  0.00  0.00    -0.075 A 
ATOM      2  C2  N4B d   1       0.877  -0.221   0.797  0.00  0.00     0.002 A 
ATOM      3  C3  N4B d   1       2.113   0.378   0.765  0.00  0.00     0.002 A 
ATOM      4  C4  N4B d   1       2.268   1.596   0.121  0.00  0.00    -0.004 A 
ATOM      5  C5  N4B d   1       1.188   2.214  -0.438  0.00  0.00     0.002 A 
ATOM      6  C6  N4B d   1      -0.061   1.625  -0.410  0.00  0.00     0.002 A 
ENDROOT
BRANCH   1   7
ATOM      7  C1' N4B d   1      -1.582  -0.243   0.127  0.00  0.00     0.057 C 
BRANCH   7   8
ATOM      8  C2' N4B d   1      -2.343   0.295  -1.081  0.00  0.00     0.009 C 
BRANCH   8   9
ATOM      9  C3' N4B d   1      -2.098  -0.542  -2.325  0.00  0.00     0.004 C 
ATOM     10  C4' N4B d   1      -2.281   0.236  -3.594  0.00  0.00     0.003 C 
ENDBRANCH   8   9
ENDBRANCH   7   8
ENDBRANCH   1   7
TORSDOF 3
ENDMDL
