MODEL 1
REMARK minimizedAffinity -6.09563208
REMARK minimizedRMSD -1
REMARK  3 active torsions:
REMARK  status: ('A' for Active; 'I' for Inactive)
REMARK    1  A    between atoms: C3'_2  and  C2'_3 
REMARK    2  A    between atoms: C2'_3  and  C1'_4 
REMARK    3  A    between atoms: C1'_4  and  C1_5 
ROOT
ATOM      1  C1  N4B d   1       0.026  -0.575   0.393  0.00  0.00    -0.075 A 
ATOM      2  C2  N4B d   1       0.558  -1.682   1.091  0.00  0.00     0.002 A 
ATOM      3  C3  N4B d   1       1.881  -1.691   1.458  0.00  0.00     0.002 A 
ATOM      4  C4  N4B d   1       2.693  -0.619   1.122  0.00  0.00    -0.004 A 
ATOM      5  C5  N4B d   1       2.167   0.458   0.470  0.00  0.00     0.002 A 
ATOM      6  C6  N4B d   1       0.837   0.483   0.099  0.00  0.00     0.002 A 
ENDROOT
BRANCH   1   7
ATOM      7  C1' N4B d   1      -1.393  -0.557  -0.105  0.00  0.00     0.057 C 
BRANCH   7   8
ATOM      8  C2' N4B d   1      -1.448   0.188  -1.435  0.00  0.00     0.009 C 
BRANCH   8   9
ATOM      9  C3' N4B d   1      -2.875   0.396  -1.912  0.00  0.00     0.004 C 
ATOM     10  C4' N4B d   1      -3.009   1.553  -2.857  0.00  0.00     0.003 C 
ENDBRANCH   8   9
ENDBRANCH   7   8
ENDBRANCH   1   7
TORSDOF 3
ENDMDL
