MODEL 1
REMARK minimizedAffinity -6.09743929
REMARK minimizedRMSD -1
REMARK  3 active torsions:
REMARK  status: ('A' for Active; 'I' for Inactive)
REMARK    1  A    between atoms: C3'_2  and  C2'_3 
REMARK    2  A    between atoms: C2'_3  and  C1'_4 
REMARK    3  A    between atoms: C1'_4  and  C1_5 
ROOT
ATOM      1  C1  N4B d   1       0.916   0.142   0.427  0.00  0.00    -0.075 A 
ATOM      2  C2  N4B d   1       2.208   0.664   0.203  0.00  0.00     0.002 A 
ATOM      3  C3  N4B d   1       3.310   0.003   0.689  0.00  0.00     0.002 A 
ATOM      4  C4  N4B d   1       3.142  -1.168   1.413  0.00  0.00    -0.004 A 
ATOM      5  C5  N4B d   1       1.892  -1.680   1.603  0.00  0.00     0.002 A 
ATOM      6  C6  N4B d   1       0.776  -1.027   1.117  0.00  0.00     0.002 A 
ENDROOT
BRANCH   1   7
ATOM      7  C1' N4B d   1      -0.324   0.874  -0.010  0.00  0.00     0.057 C 
BRANCH   7   8
ATOM      8  C2' N4B d   1      -1.393  -0.141  -0.403  0.00  0.00     0.009 C 
BRANCH   8   9
ATOM      9  C3' N4B d   1      -2.386   0.436  -1.397  0.00  0.00     0.004 C 
ATOM     10  C4' N4B d   1      -2.754  -0.533  -2.481  0.00  0.00     0.003 C 
ENDBRANCH   8   9
ENDBRANCH   7   8
ENDBRANCH   1   7
TORSDOF 3
ENDMDL
