MODEL 1
REMARK minimizedAffinity -3.17181039
REMARK minimizedRMSD -1
REMARK  3 active torsions:
REMARK  status: ('A' for Active; 'I' for Inactive)
REMARK    1  A    between atoms: C3'_2  and  C2'_3 
REMARK    2  A    between atoms: C2'_3  and  C1'_4 
REMARK    3  A    between atoms: C1'_4  and  C1_5 
ROOT
ATOM      1  C1  N4B d   1      -1.257  -0.152  -0.421  0.00  0.00    -0.075 A 
ATOM      2  C2  N4B d   1      -1.194  -1.234   0.484  0.00  0.00     0.002 A 
ATOM      3  C3  N4B d   1      -0.161  -1.316   1.385  0.00  0.00     0.002 A 
ATOM      4  C4  N4B d   1       0.826  -0.342   1.387  0.00  0.00    -0.004 A 
ATOM      5  C5  N4B d   1       0.744   0.714   0.527  0.00  0.00     0.002 A 
ATOM      6  C6  N4B d   1      -0.291   0.811  -0.382  0.00  0.00     0.002 A 
ENDROOT
BRANCH   1   7
ATOM      7  C1' N4B d   1      -2.321  -0.065  -1.482  0.00  0.00     0.057 C 
BRANCH   7   8
ATOM      8  C2' N4B d   1      -2.249  -1.307  -2.366  0.00  0.00     0.009 C 
BRANCH   8   9
ATOM      9  C3' N4B d   1      -2.607  -0.998  -3.809  0.00  0.00     0.004 C 
ATOM     10  C4' N4B d   1      -2.614   0.473  -4.104  0.00  0.00     0.003 C 
ENDBRANCH   8   9
ENDBRANCH   7   8
ENDBRANCH   1   7
TORSDOF 3
ENDMDL
