MODEL 1
REMARK minimizedAffinity -5.30318737
REMARK minimizedRMSD -1
REMARK  1 active torsions:
REMARK  status: ('A' for Active; 'I' for Inactive)
REMARK    1  A    between atoms: C1_2  and  C2_3 
ROOT
ATOM      1  C2  UNL d   1       0.137  -0.041   0.226  0.00  0.00    -0.077 A 
ATOM      2  C3  UNL d   1       1.015   0.960  -0.212  0.00  0.00     0.002 A 
ATOM      3  C4  UNL d   1       0.640   2.304  -0.152  0.00  0.00     0.002 A 
ATOM      4  C5  UNL d   1      -0.611   2.658   0.348  0.00  0.00    -0.004 A 
ATOM      5  C6  UNL d   1      -1.492   1.669   0.784  0.00  0.00     0.002 A 
ATOM      6  C7  UNL d   1      -1.119   0.326   0.724  0.00  0.00     0.002 A 
ENDROOT
BRANCH   1   7
ATOM      7  C1  UNL d   1       0.559  -1.487   0.209  0.00  0.00     0.055 C 
ATOM      8  C   UNL d   1      -0.480  -2.359  -0.482  0.00  0.00     0.019 C 
ENDBRANCH   1   7
TORSDOF 1
ENDMDL
