MODEL 1
REMARK minimizedAffinity -5.55051422
REMARK minimizedRMSD -1
REMARK  1 active torsions:
REMARK  status: ('A' for Active; 'I' for Inactive)
REMARK    1  A    between atoms: C1_2  and  C2_3 
ROOT
ATOM      1  C2  UNL d   1      -0.515   0.754  -0.576  0.00  0.00    -0.077 A 
ATOM      2  C3  UNL d   1       0.615   1.528  -0.871  0.00  0.00     0.002 A 
ATOM      3  C4  UNL d   1       0.813   2.759  -0.241  0.00  0.00     0.002 A 
ATOM      4  C5  UNL d   1      -0.113   3.223   0.690  0.00  0.00    -0.004 A 
ATOM      5  C6  UNL d   1      -1.242   2.461   0.989  0.00  0.00     0.002 A 
ATOM      6  C7  UNL d   1      -1.442   1.231   0.360  0.00  0.00     0.002 A 
ENDROOT
BRANCH   1   7
ATOM      7  C1  UNL d   1      -0.705  -0.596  -1.218  0.00  0.00     0.055 C 
ATOM      8  C   UNL d   1      -0.027  -1.693  -0.411  0.00  0.00     0.019 C 
ENDBRANCH   1   7
TORSDOF 1
ENDMDL
