MODEL 1
REMARK minimizedAffinity -2.67989683
REMARK minimizedRMSD -1
REMARK  1 active torsions:
REMARK  status: ('A' for Active; 'I' for Inactive)
REMARK    1  A    between atoms: C1_2  and  C2_3 
ROOT
ATOM      1  C2  UNL d   1       0.664   0.620   0.002  0.00  0.00    -0.077 A 
ATOM      2  C3  UNL d   1       1.215  -0.619   0.356  0.00  0.00     0.002 A 
ATOM      3  C4  UNL d   1       0.504  -1.500   1.174  0.00  0.00     0.002 A 
ATOM      4  C5  UNL d   1      -0.762  -1.153   1.641  0.00  0.00    -0.004 A 
ATOM      5  C6  UNL d   1      -1.318   0.079   1.296  0.00  0.00     0.002 A 
ATOM      6  C7  UNL d   1      -0.608   0.961   0.479  0.00  0.00     0.002 A 
ENDROOT
BRANCH   1   7
ATOM      7  C1  UNL d   1       1.407   1.551  -0.920  0.00  0.00     0.055 C 
ATOM      8  C   UNL d   1       0.532   2.718  -1.352  0.00  0.00     0.019 C 
ENDBRANCH   1   7
TORSDOF 1
ENDMDL
