MODEL 1
REMARK minimizedAffinity -4.392097
REMARK minimizedRMSD -1
REMARK  1 active torsions:
REMARK  status: ('A' for Active; 'I' for Inactive)
REMARK    1  A    between atoms: C1_2  and  C2_3 
ROOT
ATOM      1  C2  UNL d   1      -0.676   1.529   0.522  0.00  0.00    -0.077 A 
ATOM      2  C3  UNL d   1      -0.852   2.917   0.422  0.00  0.00     0.002 A 
ATOM      3  C4  UNL d   1       0.080   3.699  -0.263  0.00  0.00     0.002 A 
ATOM      4  C5  UNL d   1       1.191   3.103  -0.857  0.00  0.00    -0.004 A 
ATOM      5  C6  UNL d   1       1.376   1.725  -0.761  0.00  0.00     0.002 A 
ATOM      6  C7  UNL d   1       0.447   0.941  -0.075  0.00  0.00     0.002 A 
ENDROOT
BRANCH   1   7
ATOM      7  C1  UNL d   1      -1.704   0.678   1.219  0.00  0.00     0.055 C 
ATOM      8  C   UNL d   1      -1.123  -0.668   1.630  0.00  0.00     0.019 C 
ENDBRANCH   1   7
TORSDOF 1
ENDMDL
