MODEL 1
REMARK minimizedAffinity -3.59814715
REMARK minimizedRMSD -1
REMARK  1 active torsions:
REMARK  status: ('A' for Active; 'I' for Inactive)
REMARK    1  A    between atoms: C1_2  and  C2_3 
ROOT
ATOM      1  C2  UNL d   1      -0.510   0.428   0.211  0.00  0.00    -0.077 A 
ATOM      2  C3  UNL d   1      -1.519   1.401   0.181  0.00  0.00     0.002 A 
ATOM      3  C4  UNL d   1      -1.248   2.711   0.581  0.00  0.00     0.002 A 
ATOM      4  C5  UNL d   1       0.031   3.061   1.008  0.00  0.00    -0.004 A 
ATOM      5  C6  UNL d   1       1.040   2.100   1.043  0.00  0.00     0.002 A 
ATOM      6  C7  UNL d   1       0.772   0.790   0.645  0.00  0.00     0.002 A 
ENDROOT
BRANCH   1   7
ATOM      7  C1  UNL d   1      -0.787  -0.974  -0.267  0.00  0.00     0.055 C 
ATOM      8  C   UNL d   1       0.244  -1.955   0.271  0.00  0.00     0.019 C 
ENDBRANCH   1   7
TORSDOF 1
ENDMDL
