MODEL 1
REMARK minimizedAffinity -3.34836268
REMARK minimizedRMSD -1
REMARK  1 active torsions:
REMARK  status: ('A' for Active; 'I' for Inactive)
REMARK    1  A    between atoms: C1_2  and  C2_3 
ROOT
ATOM      1  C2  UNL d   1      -0.057  -2.412  -0.846  0.00  0.00    -0.077 A 
ATOM      2  C3  UNL d   1       0.988  -2.758  -1.714  0.00  0.00     0.002 A 
ATOM      3  C4  UNL d   1       0.743  -3.563  -2.828  0.00  0.00     0.002 A 
ATOM      4  C5  UNL d   1      -0.546  -4.026  -3.086  0.00  0.00    -0.004 A 
ATOM      5  C6  UNL d   1      -1.591  -3.689  -2.227  0.00  0.00     0.002 A 
ATOM      6  C7  UNL d   1      -1.348  -2.885  -1.113  0.00  0.00     0.002 A 
ENDROOT
BRANCH   1   7
ATOM      7  C1  UNL d   1       0.195  -1.503   0.328  0.00  0.00     0.055 C 
ATOM      8  C   UNL d   1       0.007  -0.041  -0.052  0.00  0.00     0.019 C 
ENDBRANCH   1   7
TORSDOF 1
ENDMDL
