MODEL 1
REMARK minimizedAffinity -3.48988724
REMARK minimizedRMSD -1
REMARK  1 active torsions:
REMARK  status: ('A' for Active; 'I' for Inactive)
REMARK    1  A    between atoms: C1_2  and  C2_3 
ROOT
ATOM      1  C2  UNL d   1      -0.399   1.033   0.308  0.00  0.00    -0.077 A 
ATOM      2  C3  UNL d   1      -1.418   0.334  -0.353  0.00  0.00     0.002 A 
ATOM      3  C4  UNL d   1      -1.209  -0.976  -0.790  0.00  0.00     0.002 A 
ATOM      4  C5  UNL d   1       0.017  -1.598  -0.566  0.00  0.00    -0.004 A 
ATOM      5  C6  UNL d   1       1.038  -0.911   0.089  0.00  0.00     0.002 A 
ATOM      6  C7  UNL d   1       0.831   0.399   0.525  0.00  0.00     0.002 A 
ENDROOT
BRANCH   1   7
ATOM      7  C1  UNL d   1      -0.640   2.428   0.824  0.00  0.00     0.055 C 
ATOM      8  C   UNL d   1       0.110   3.461  -0.005  0.00  0.00     0.019 C 
ENDBRANCH   1   7
TORSDOF 1
ENDMDL
