MODEL 1
REMARK minimizedAffinity -5.34468842
REMARK minimizedRMSD -1
REMARK  1 active torsions:
REMARK  status: ('A' for Active; 'I' for Inactive)
REMARK    1  A    between atoms: C1_2  and  C2_3 
ROOT
ATOM      1  C2  UNL d   1      -0.336   0.669   0.287  0.00  0.00    -0.077 A 
ATOM      2  C3  UNL d   1       0.605   1.291  -0.545  0.00  0.00     0.002 A 
ATOM      3  C4  UNL d   1       0.897   2.648  -0.391  0.00  0.00     0.002 A 
ATOM      4  C5  UNL d   1       0.256   3.392   0.597  0.00  0.00    -0.004 A 
ATOM      5  C6  UNL d   1      -0.683   2.783   1.428  0.00  0.00     0.002 A 
ATOM      6  C7  UNL d   1      -0.977   1.428   1.274  0.00  0.00     0.002 A 
ENDROOT
BRANCH   1   7
ATOM      7  C1  UNL d   1      -0.616  -0.805   0.154  0.00  0.00     0.055 C 
ATOM      8  C   UNL d   1       0.507  -1.638   0.757  0.00  0.00     0.019 C 
ENDBRANCH   1   7
TORSDOF 1
ENDMDL
