MODEL 1
REMARK minimizedAffinity -4.80600405
REMARK minimizedRMSD -1
REMARK  1 active torsions:
REMARK  status: ('A' for Active; 'I' for Inactive)
REMARK    1  A    between atoms: C1_2  and  C2_3 
ROOT
ATOM      1  C2  UNL d   1       0.177   0.659  -0.697  0.00  0.00    -0.077 A 
ATOM      2  C3  UNL d   1      -0.812   0.271   0.218  0.00  0.00     0.002 A 
ATOM      3  C4  UNL d   1      -1.300   1.180   1.159  0.00  0.00     0.002 A 
ATOM      4  C5  UNL d   1      -0.807   2.483   1.191  0.00  0.00    -0.004 A 
ATOM      5  C6  UNL d   1       0.178   2.878   0.287  0.00  0.00     0.002 A 
ATOM      6  C7  UNL d   1       0.667   1.970  -0.654  0.00  0.00     0.002 A 
ENDROOT
BRANCH   1   7
ATOM      7  C1  UNL d   1       0.669  -0.306  -1.744  0.00  0.00     0.055 C 
ATOM      8  C   UNL d   1      -0.384  -1.357  -2.067  0.00  0.00     0.019 C 
ENDBRANCH   1   7
TORSDOF 1
ENDMDL
