MODEL 1
REMARK minimizedAffinity -3.23157501
REMARK minimizedRMSD -1
REMARK  1 active torsions:
REMARK  status: ('A' for Active; 'I' for Inactive)
REMARK    1  A    between atoms: C1_2  and  C2_3 
ROOT
ATOM      1  C2  UNL d   1      -0.489   1.594   0.756  0.00  0.00    -0.077 A 
ATOM      2  C3  UNL d   1       0.252   1.546  -0.433  0.00  0.00     0.002 A 
ATOM      3  C4  UNL d   1       0.303   0.372  -1.187  0.00  0.00     0.002 A 
ATOM      4  C5  UNL d   1      -0.388  -0.761  -0.762  0.00  0.00    -0.004 A 
ATOM      5  C6  UNL d   1      -1.126  -0.724   0.420  0.00  0.00     0.002 A 
ATOM      6  C7  UNL d   1      -1.177   0.449   1.175  0.00  0.00     0.002 A 
ENDROOT
BRANCH   1   7
ATOM      7  C1  UNL d   1      -0.585   2.874   1.544  0.00  0.00     0.055 C 
ATOM      8  C   UNL d   1      -1.267   2.648   2.886  0.00  0.00     0.019 C 
ENDBRANCH   1   7
TORSDOF 1
ENDMDL
