MODEL 1
REMARK minimizedAffinity -4.61888218
REMARK minimizedRMSD -1
REMARK  1 active torsions:
REMARK  status: ('A' for Active; 'I' for Inactive)
REMARK    1  A    between atoms: C1_2  and  C2_3 
ROOT
ATOM      1  C2  UNL d   1      -0.135  -0.934   0.018  0.00  0.00    -0.077 A 
ATOM      2  C3  UNL d   1      -0.589   0.233  -0.612  0.00  0.00     0.002 A 
ATOM      3  C4  UNL d   1       0.127   1.425  -0.492  0.00  0.00     0.002 A 
ATOM      4  C5  UNL d   1       1.303   1.462   0.254  0.00  0.00    -0.004 A 
ATOM      5  C6  UNL d   1       1.762   0.307   0.886  0.00  0.00     0.002 A 
ATOM      6  C7  UNL d   1       1.048  -0.886   0.768  0.00  0.00     0.002 A 
ENDROOT
BRANCH   1   7
ATOM      7  C1  UNL d   1      -0.879  -2.233  -0.151  0.00  0.00     0.055 C 
ATOM      8  C   UNL d   1      -0.799  -2.734  -1.585  0.00  0.00     0.019 C 
ENDBRANCH   1   7
TORSDOF 1
ENDMDL
