MODEL 1
REMARK minimizedAffinity -4.8723855
REMARK minimizedRMSD -1
REMARK  1 active torsions:
REMARK  status: ('A' for Active; 'I' for Inactive)
REMARK    1  A    between atoms: C1_2  and  C2_3 
ROOT
ATOM      1  C2  UNL d   1       0.245   0.581   0.099  0.00  0.00    -0.077 A 
ATOM      2  C3  UNL d   1       1.524   1.034   0.454  0.00  0.00     0.002 A 
ATOM      3  C4  UNL d   1       1.729   2.371   0.797  0.00  0.00     0.002 A 
ATOM      4  C5  UNL d   1       0.661   3.265   0.795  0.00  0.00    -0.004 A 
ATOM      5  C6  UNL d   1      -0.614   2.824   0.442  0.00  0.00     0.002 A 
ATOM      6  C7  UNL d   1      -0.821   1.488   0.097  0.00  0.00     0.002 A 
ENDROOT
BRANCH   1   7
ATOM      7  C1  UNL d   1       0.013  -0.872  -0.224  0.00  0.00     0.055 C 
ATOM      8  C   UNL d   1       1.042  -1.763   0.457  0.00  0.00     0.019 C 
ENDBRANCH   1   7
TORSDOF 1
ENDMDL
