MODEL 1
REMARK minimizedAffinity -3.53975606
REMARK minimizedRMSD -1
REMARK  1 active torsions:
REMARK  status: ('A' for Active; 'I' for Inactive)
REMARK    1  A    between atoms: C1_2  and  C2_3 
ROOT
ATOM      1  C2  UNL d   1       0.327   1.276   0.569  0.00  0.00    -0.077 A 
ATOM      2  C3  UNL d   1      -0.518   0.158   0.546  0.00  0.00     0.002 A 
ATOM      3  C4  UNL d   1       0.015  -1.132   0.592  0.00  0.00     0.002 A 
ATOM      4  C5  UNL d   1       1.395  -1.314   0.666  0.00  0.00    -0.004 A 
ATOM      5  C6  UNL d   1       2.243  -0.209   0.687  0.00  0.00     0.002 A 
ATOM      6  C7  UNL d   1       1.712   1.081   0.640  0.00  0.00     0.002 A 
ENDROOT
BRANCH   1   7
ATOM      7  C1  UNL d   1      -0.249   2.668   0.569  0.00  0.00     0.055 C 
ATOM      8  C   UNL d   1      -1.357   2.809   1.603  0.00  0.00     0.019 C 
ENDBRANCH   1   7
TORSDOF 1
ENDMDL
