MODEL 1
REMARK minimizedAffinity -2.88152862
REMARK minimizedRMSD -1
REMARK  1 active torsions:
REMARK  status: ('A' for Active; 'I' for Inactive)
REMARK    1  A    between atoms: C1_2  and  C2_3 
ROOT
ATOM      1  C2  UNL d   1      -0.656   0.644   0.806  0.00  0.00    -0.077 A 
ATOM      2  C3  UNL d   1      -0.941   1.983   1.108  0.00  0.00     0.002 A 
ATOM      3  C4  UNL d   1      -0.243   3.013   0.474  0.00  0.00     0.002 A 
ATOM      4  C5  UNL d   1       0.739   2.716  -0.467  0.00  0.00    -0.004 A 
ATOM      5  C6  UNL d   1       1.031   1.387  -0.773  0.00  0.00     0.002 A 
ATOM      6  C7  UNL d   1       0.336   0.356  -0.140  0.00  0.00     0.002 A 
ENDROOT
BRANCH   1   7
ATOM      7  C1  UNL d   1      -1.441  -0.468   1.451  0.00  0.00     0.055 C 
ATOM      8  C   UNL d   1      -0.977  -1.831   0.959  0.00  0.00     0.019 C 
ENDBRANCH   1   7
TORSDOF 1
ENDMDL
