MODEL 1
REMARK minimizedAffinity -2.45454884
REMARK minimizedRMSD -1
REMARK  1 active torsions:
REMARK  status: ('A' for Active; 'I' for Inactive)
REMARK    1  A    between atoms: C1_2  and  C2_3 
ROOT
ATOM      1  C2  UNL d   1       0.478   0.501   0.666  0.00  0.00    -0.077 A 
ATOM      2  C3  UNL d   1      -0.802   0.006   0.380  0.00  0.00     0.002 A 
ATOM      3  C4  UNL d   1      -1.911   0.852   0.416  0.00  0.00     0.002 A 
ATOM      4  C5  UNL d   1      -1.752   2.199   0.734  0.00  0.00    -0.004 A 
ATOM      5  C6  UNL d   1      -0.483   2.701   1.022  0.00  0.00     0.002 A 
ATOM      6  C7  UNL d   1       0.627   1.856   0.987  0.00  0.00     0.002 A 
ENDROOT
BRANCH   1   7
ATOM      7  C1  UNL d   1       1.683  -0.399   0.579  0.00  0.00     0.055 C 
ATOM      8  C   UNL d   1       2.955   0.400   0.335  0.00  0.00     0.019 C 
ENDBRANCH   1   7
TORSDOF 1
ENDMDL
