MODEL 1
REMARK minimizedAffinity 10.1282454
REMARK minimizedRMSD -1
REMARK  1 active torsions:
REMARK  status: ('A' for Active; 'I' for Inactive)
REMARK    1  A    between atoms: C1_2  and  C2_3 
ROOT
ATOM      1  C2  UNL d   1      -2.295  -1.434   0.823  0.00  0.00    -0.073 A 
ATOM      2  C3  UNL d   1      -2.843  -0.193   1.169  0.00  0.00    -0.002 A 
ATOM      3  C4  UNL d   1      -2.225   0.988   0.758  0.00  0.00     0.004 A 
ATOM      4  C5  UNL d   1      -1.059   0.942  -0.007  0.00  0.00    -0.004 A 
ATOM      5  C6  UNL d   1      -0.504  -0.288  -0.372  0.00  0.00    -0.075 A 
ATOM      6  C7  UNL d   1       0.751  -0.355  -1.193  0.00  0.00     0.076 C 
ATOM      7  C8  UNL d   1      -1.129  -1.471   0.046  0.00  0.00     0.001 A 
ENDROOT
BRANCH   1   8
ATOM      8  C1  UNL d   1      -2.963  -2.713   1.259  0.00  0.00     0.053 C 
ATOM      9  C   UNL d   1      -3.819  -3.314   0.155  0.00  0.00     0.018 C 
ENDBRANCH   1   8
TORSDOF 1
ENDMDL
