MODEL 1
REMARK minimizedAffinity -4.74169302
REMARK minimizedRMSD -1
REMARK  1 active torsions:
REMARK  status: ('A' for Active; 'I' for Inactive)
REMARK    1  A    between atoms: C1_2  and  C2_3 
ROOT
ATOM      1  C2  UNL d   1      -1.686  -2.117   0.875  0.00  0.00    -0.073 A 
ATOM      2  C3  UNL d   1      -0.760  -2.992   0.296  0.00  0.00    -0.002 A 
ATOM      3  C4  UNL d   1       0.368  -2.493  -0.358  0.00  0.00     0.004 A 
ATOM      4  C5  UNL d   1       0.584  -1.117  -0.433  0.00  0.00    -0.004 A 
ATOM      5  C6  UNL d   1      -0.324  -0.227   0.150  0.00  0.00    -0.075 A 
ATOM      6  C7  UNL d   1      -0.107   1.256   0.076  0.00  0.00     0.076 C 
ATOM      7  C8  UNL d   1      -1.455  -0.736   0.802  0.00  0.00     0.001 A 
ENDROOT
BRANCH   1   8
ATOM      8  C1  UNL d   1      -2.901  -2.652   1.587  0.00  0.00     0.053 C 
ATOM      9  C   UNL d   1      -4.018  -3.011   0.619  0.00  0.00     0.018 C 
ENDBRANCH   1   8
TORSDOF 1
ENDMDL
