MODEL 1
REMARK minimizedAffinity -6.13117647
REMARK minimizedRMSD -1
REMARK  1 active torsions:
REMARK  status: ('A' for Active; 'I' for Inactive)
REMARK    1  A    between atoms: C1_2  and  C2_3 
ROOT
ATOM      1  C2  UNL d   1      -0.679  -1.453   1.263  0.00  0.00    -0.073 A 
ATOM      2  C3  UNL d   1      -0.416  -2.721   1.794  0.00  0.00    -0.002 A 
ATOM      3  C4  UNL d   1       0.015  -3.756   0.964  0.00  0.00     0.004 A 
ATOM      4  C5  UNL d   1       0.195  -3.534  -0.401  0.00  0.00    -0.004 A 
ATOM      5  C6  UNL d   1      -0.051  -2.270  -0.948  0.00  0.00    -0.075 A 
ATOM      6  C7  UNL d   1       0.135  -2.015  -2.415  0.00  0.00     0.076 C 
ATOM      7  C8  UNL d   1      -0.487  -1.236  -0.109  0.00  0.00     0.001 A 
ENDROOT
BRANCH   1   8
ATOM      8  C1  UNL d   1      -1.139  -0.330   2.157  0.00  0.00     0.053 C 
ATOM      9  C   UNL d   1      -1.987   0.685   1.406  0.00  0.00     0.018 C 
ENDBRANCH   1   8
TORSDOF 1
ENDMDL
