MODEL 1
REMARK minimizedAffinity -4.30975628
REMARK minimizedRMSD -1
REMARK  1 active torsions:
REMARK  status: ('A' for Active; 'I' for Inactive)
REMARK    1  A    between atoms: C1_2  and  C2_3 
ROOT
ATOM      1  C2  UNL d   1       0.015  -0.410  -1.817  0.00  0.00    -0.073 A 
ATOM      2  C3  UNL d   1       0.253   0.729  -1.039  0.00  0.00    -0.002 A 
ATOM      3  C4  UNL d   1      -0.059   0.732   0.321  0.00  0.00     0.004 A 
ATOM      4  C5  UNL d   1      -0.605  -0.404   0.918  0.00  0.00    -0.004 A 
ATOM      5  C6  UNL d   1      -0.839  -1.556   0.161  0.00  0.00    -0.075 A 
ATOM      6  C7  UNL d   1      -1.428  -2.785   0.788  0.00  0.00     0.076 C 
ATOM      7  C8  UNL d   1      -0.526  -1.550  -1.205  0.00  0.00     0.001 A 
ENDROOT
BRANCH   1   8
ATOM      8  C1  UNL d   1       0.356  -0.420  -3.285  0.00  0.00     0.053 C 
ATOM      9  C   UNL d   1       1.335  -1.529  -3.635  0.00  0.00     0.018 C 
ENDBRANCH   1   8
TORSDOF 1
ENDMDL
