MODEL 1
REMARK minimizedAffinity -4.60574913
REMARK minimizedRMSD -1
REMARK  1 active torsions:
REMARK  status: ('A' for Active; 'I' for Inactive)
REMARK    1  A    between atoms: C1_2  and  C2_3 
ROOT
ATOM      1  C2  UNL d   1       0.152   0.198   0.389  0.00  0.00    -0.073 A 
ATOM      2  C3  UNL d   1      -1.189   0.377   0.747  0.00  0.00    -0.002 A 
ATOM      3  C4  UNL d   1      -1.981  -0.721   1.085  0.00  0.00     0.004 A 
ATOM      4  C5  UNL d   1      -1.440  -2.007   1.076  0.00  0.00    -0.004 A 
ATOM      5  C6  UNL d   1      -0.099  -2.205   0.733  0.00  0.00    -0.075 A 
ATOM      6  C7  UNL d   1       0.498  -3.582   0.716  0.00  0.00     0.076 C 
ATOM      7  C8  UNL d   1       0.689  -1.098   0.392  0.00  0.00     0.001 A 
ENDROOT
BRANCH   1   8
ATOM      8  C1  UNL d   1       1.012   1.381   0.029  0.00  0.00     0.053 C 
ATOM      9  C   UNL d   1       0.669   2.609   0.858  0.00  0.00     0.018 C 
ENDBRANCH   1   8
TORSDOF 1
ENDMDL
