MODEL 1
REMARK minimizedAffinity -4.47260189
REMARK minimizedRMSD -1
REMARK  1 active torsions:
REMARK  status: ('A' for Active; 'I' for Inactive)
REMARK    1  A    between atoms: C1_2  and  C2_3 
ROOT
ATOM      1  C2  UNL d   1      -0.128   0.442   0.139  0.00  0.00    -0.073 A 
ATOM      2  C3  UNL d   1      -1.394   0.045   0.584  0.00  0.00    -0.002 A 
ATOM      3  C4  UNL d   1      -1.623  -1.278   0.966  0.00  0.00     0.004 A 
ATOM      4  C5  UNL d   1      -0.590  -2.213   0.914  0.00  0.00    -0.004 A 
ATOM      5  C6  UNL d   1       0.685  -1.832   0.483  0.00  0.00    -0.075 A 
ATOM      6  C7  UNL d   1       1.807  -2.827   0.419  0.00  0.00     0.076 C 
ATOM      7  C8  UNL d   1       0.907  -0.503   0.099  0.00  0.00     0.001 A 
ENDROOT
BRANCH   1   8
ATOM      8  C1  UNL d   1       0.126   1.871  -0.268  0.00  0.00     0.053 C 
ATOM      9  C   UNL d   1       1.333   2.461   0.444  0.00  0.00     0.018 C 
ENDBRANCH   1   8
TORSDOF 1
ENDMDL
