MODEL 1
REMARK minimizedAffinity -5.87304831
REMARK minimizedRMSD -1
REMARK  1 active torsions:
REMARK  status: ('A' for Active; 'I' for Inactive)
REMARK    1  A    between atoms: C1_2  and  C2_3 
ROOT
ATOM      1  C2  UNL d   1       0.028   0.572  -0.383  0.00  0.00    -0.073 A 
ATOM      2  C3  UNL d   1       0.388   0.241  -1.694  0.00  0.00    -0.002 A 
ATOM      3  C4  UNL d   1       0.463  -1.096  -2.088  0.00  0.00     0.004 A 
ATOM      4  C5  UNL d   1       0.174  -2.113  -1.178  0.00  0.00    -0.004 A 
ATOM      5  C6  UNL d   1      -0.199  -1.802   0.133  0.00  0.00    -0.075 A 
ATOM      6  C7  UNL d   1      -0.511  -2.884   1.125  0.00  0.00     0.076 C 
ATOM      7  C8  UNL d   1      -0.270  -0.457   0.522  0.00  0.00     0.001 A 
ENDROOT
BRANCH   1   8
ATOM      8  C1  UNL d   1      -0.061   2.014   0.045  0.00  0.00     0.053 C 
ATOM      9  C   UNL d   1       1.283   2.556   0.508  0.00  0.00     0.018 C 
ENDBRANCH   1   8
TORSDOF 1
ENDMDL
