MODEL 1
REMARK minimizedAffinity -4.10259247
REMARK minimizedRMSD -1
REMARK  1 active torsions:
REMARK  status: ('A' for Active; 'I' for Inactive)
REMARK    1  A    between atoms: C1_2  and  C2_3 
ROOT
ATOM      1  C2  UNL d   1       0.113   3.516   1.839  0.00  0.00    -0.073 A 
ATOM      2  C3  UNL d   1       1.263   4.184   1.401  0.00  0.00    -0.002 A 
ATOM      3  C4  UNL d   1       1.991   3.695   0.316  0.00  0.00     0.004 A 
ATOM      4  C5  UNL d   1       1.574   2.539  -0.346  0.00  0.00    -0.004 A 
ATOM      5  C6  UNL d   1       0.422   1.865   0.070  0.00  0.00    -0.075 A 
ATOM      6  C7  UNL d   1      -0.038   0.620  -0.630  0.00  0.00     0.076 C 
ATOM      7  C8  UNL d   1      -0.303   2.361   1.162  0.00  0.00     0.001 A 
ENDROOT
BRANCH   1   8
ATOM      8  C1  UNL d   1      -0.680   4.044   3.006  0.00  0.00     0.053 C 
ATOM      9  C   UNL d   1      -0.827   5.557   2.958  0.00  0.00     0.018 C 
ENDBRANCH   1   8
TORSDOF 1
ENDMDL
