MODEL 1
REMARK minimizedAffinity -4.5332284
REMARK minimizedRMSD -1
REMARK  1 active torsions:
REMARK  status: ('A' for Active; 'I' for Inactive)
REMARK    1  A    between atoms: C1_2  and  C2_3 
ROOT
ATOM      1  C2  UNL d   1      -0.610  -1.530   0.795  0.00  0.00    -0.073 A 
ATOM      2  C3  UNL d   1      -0.567  -2.890   1.124  0.00  0.00    -0.002 A 
ATOM      3  C4  UNL d   1      -0.172  -3.832   0.173  0.00  0.00     0.004 A 
ATOM      4  C5  UNL d   1       0.191  -3.425  -1.110  0.00  0.00    -0.004 A 
ATOM      5  C6  UNL d   1       0.166  -2.070  -1.454  0.00  0.00    -0.075 A 
ATOM      6  C7  UNL d   1       0.552  -1.615  -2.831  0.00  0.00     0.076 C 
ATOM      7  C8  UNL d   1      -0.235  -1.130  -0.495  0.00  0.00     0.001 A 
ENDROOT
BRANCH   1   8
ATOM      8  C1  UNL d   1      -1.031  -0.509   1.820  0.00  0.00     0.053 C 
ATOM      9  C   UNL d   1      -2.118  -1.039   2.741  0.00  0.00     0.018 C 
ENDBRANCH   1   8
TORSDOF 1
ENDMDL
