MODEL 1
REMARK minimizedAffinity -6.47159624
REMARK minimizedRMSD -1
REMARK  1 active torsions:
REMARK  status: ('A' for Active; 'I' for Inactive)
REMARK    1  A    between atoms: C1_2  and  C2_3 
ROOT
ATOM      1  C2  UNL d   1       0.117  -2.276  -0.924  0.00  0.00    -0.073 A 
ATOM      2  C3  UNL d   1      -0.581  -2.890   0.122  0.00  0.00    -0.002 A 
ATOM      3  C4  UNL d   1      -1.082  -2.127   1.177  0.00  0.00     0.004 A 
ATOM      4  C5  UNL d   1      -0.897  -0.744   1.194  0.00  0.00    -0.004 A 
ATOM      5  C6  UNL d   1      -0.213  -0.112   0.152  0.00  0.00    -0.075 A 
ATOM      6  C7  UNL d   1      -0.003   1.374   0.156  0.00  0.00     0.076 C 
ATOM      7  C8  UNL d   1       0.290  -0.885  -0.903  0.00  0.00     0.001 A 
ENDROOT
BRANCH   1   8
ATOM      8  C1  UNL d   1       0.655  -3.095  -2.069  0.00  0.00     0.053 C 
ATOM      9  C   UNL d   1       1.134  -2.223  -3.219  0.00  0.00     0.018 C 
ENDBRANCH   1   8
TORSDOF 1
ENDMDL
