MODEL 1
REMARK minimizedAffinity -5.01430225
REMARK minimizedRMSD -1
REMARK  1 active torsions:
REMARK  status: ('A' for Active; 'I' for Inactive)
REMARK    1  A    between atoms: C1_2  and  C2_3 
ROOT
ATOM      1  C2  UNL d   1       0.176   3.463   1.032  0.00  0.00    -0.073 A 
ATOM      2  C3  UNL d   1       1.502   3.892   0.907  0.00  0.00    -0.002 A 
ATOM      3  C4  UNL d   1       2.407   3.168   0.130  0.00  0.00     0.004 A 
ATOM      4  C5  UNL d   1       1.995   2.013  -0.534  0.00  0.00    -0.004 A 
ATOM      5  C6  UNL d   1       0.671   1.575  -0.432  0.00  0.00    -0.075 A 
ATOM      6  C7  UNL d   1       0.212   0.333  -1.139  0.00  0.00     0.076 C 
ATOM      7  C8  UNL d   1      -0.232   2.306   0.353  0.00  0.00     0.001 A 
ENDROOT
BRANCH   1   8
ATOM      8  C1  UNL d   1      -0.807   4.245   1.864  0.00  0.00     0.053 C 
ATOM      9  C   UNL d   1      -0.182   4.759   3.151  0.00  0.00     0.018 C 
ENDBRANCH   1   8
TORSDOF 1
ENDMDL
