MODEL 1
REMARK minimizedAffinity 15.3104582
REMARK minimizedRMSD -1
REMARK  0 active torsions:
REMARK  status: ('A' for Active; 'I' for Inactive)
ROOT
ATOM      1  C   UNL d   1       1.726  -2.259  -3.091  0.00  0.00     0.124 A 
ATOM      2  C1  UNL d   1       2.169  -1.901  -1.826  0.00  0.00     0.062 A 
ATOM      3  C2  UNL d   1       1.262  -1.769  -0.778  0.00  0.00     0.162 A 
ATOM      4  C3  UNL d   1      -0.098  -1.997  -0.991  0.00  0.00    -0.034 A 
ATOM      5  C4  UNL d   1      -0.536  -2.356  -2.267  0.00  0.00     0.162 A 
ATOM      6  C5  UNL d   1       0.374  -2.487  -3.311  0.00  0.00     0.062 A 
ATOM      7  F   UNL d   1      -0.055  -2.833  -4.533  0.00  0.00    -0.097 F 
ATOM      8  F1  UNL d   1      -1.836  -2.583  -2.507  0.00  0.00    -0.096 F 
ATOM      9  I   UNL d   1      -1.456  -1.801   0.573  0.00  0.00    -0.060 I 
ATOM     10  F2  UNL d   1       1.718  -1.421   0.434  0.00  0.00    -0.096 F 
ATOM     11  F3  UNL d   1       3.474  -1.679  -1.612  0.00  0.00    -0.097 F 
ATOM     12  F4  UNL d   1       2.600  -2.384  -4.098  0.00  0.00    -0.092 F 
ENDROOT
TORSDOF 0
ENDMDL
