MODEL 1
REMARK minimizedAffinity 3.7849021
REMARK minimizedRMSD -1
REMARK  0 active torsions:
REMARK  status: ('A' for Active; 'I' for Inactive)
ROOT
ATOM      1  C   UNL d   1      -1.498  -2.974   0.247  0.00  0.00     0.124 A 
ATOM      2  C1  UNL d   1      -0.145  -3.109  -0.032  0.00  0.00     0.062 A 
ATOM      3  C2  UNL d   1       0.360  -2.702  -1.264  0.00  0.00     0.162 A 
ATOM      4  C3  UNL d   1      -0.488  -2.156  -2.227  0.00  0.00    -0.034 A 
ATOM      5  C4  UNL d   1      -1.848  -2.025  -1.940  0.00  0.00     0.162 A 
ATOM      6  C5  UNL d   1      -2.348  -2.433  -0.707  0.00  0.00     0.062 A 
ATOM      7  F   UNL d   1      -3.656  -2.302  -0.440  0.00  0.00    -0.097 F 
ATOM      8  F1  UNL d   1      -2.692  -1.504  -2.843  0.00  0.00    -0.096 F 
ATOM      9  I   UNL d   1       0.263  -1.548  -4.070  0.00  0.00    -0.060 I 
ATOM     10  F2  UNL d   1       1.672  -2.844  -1.506  0.00  0.00    -0.096 F 
ATOM     11  F3  UNL d   1       0.679  -3.633   0.888  0.00  0.00    -0.097 F 
ATOM     12  F4  UNL d   1      -1.981  -3.367   1.432  0.00  0.00    -0.092 F 
ENDROOT
TORSDOF 0
ENDMDL
