MODEL 1
REMARK minimizedAffinity 10.0717869
REMARK minimizedRMSD -1
REMARK  0 active torsions:
REMARK  status: ('A' for Active; 'I' for Inactive)
ROOT
ATOM      1  C   UNL d   1      -2.069  -2.932   1.294  0.00  0.00     0.124 A 
ATOM      2  C1  UNL d   1      -0.695  -2.737   1.337  0.00  0.00     0.062 A 
ATOM      3  C2  UNL d   1      -0.005  -2.366   0.186  0.00  0.00     0.162 A 
ATOM      4  C3  UNL d   1      -0.688  -2.185  -1.016  0.00  0.00    -0.034 A 
ATOM      5  C4  UNL d   1      -2.069  -2.383  -1.051  0.00  0.00     0.162 A 
ATOM      6  C5  UNL d   1      -2.754  -2.754   0.101  0.00  0.00     0.062 A 
ATOM      7  F   UNL d   1      -4.081  -2.942   0.058  0.00  0.00    -0.097 F 
ATOM      8  F1  UNL d   1      -2.757  -2.218  -2.191  0.00  0.00    -0.096 F 
ATOM      9  I   UNL d   1       0.340  -1.629  -2.739  0.00  0.00    -0.060 I 
ATOM     10  F2  UNL d   1       1.322  -2.185   0.256  0.00  0.00    -0.096 F 
ATOM     11  F3  UNL d   1      -0.030  -2.909   2.488  0.00  0.00    -0.097 F 
ATOM     12  F4  UNL d   1      -2.730  -3.290   2.402  0.00  0.00    -0.092 F 
ENDROOT
TORSDOF 0
ENDMDL
