MODEL 1
REMARK minimizedAffinity 21.9586773
REMARK minimizedRMSD -1
REMARK  0 active torsions:
REMARK  status: ('A' for Active; 'I' for Inactive)
ROOT
ATOM      1  C   UNL d   1       3.588   5.078  -0.600  0.00  0.00     0.124 A 
ATOM      2  C1  UNL d   1       4.795   5.171  -1.279  0.00  0.00     0.062 A 
ATOM      3  C2  UNL d   1       4.811   5.434  -2.646  0.00  0.00     0.162 A 
ATOM      4  C3  UNL d   1       3.615   5.606  -3.344  0.00  0.00    -0.034 A 
ATOM      5  C4  UNL d   1       2.405   5.509  -2.654  0.00  0.00     0.162 A 
ATOM      6  C5  UNL d   1       2.394   5.247  -1.288  0.00  0.00     0.062 A 
ATOM      7  F   UNL d   1       1.227   5.157  -0.634  0.00  0.00    -0.097 F 
ATOM      8  F1  UNL d   1       1.237   5.669  -3.294  0.00  0.00    -0.096 F 
ATOM      9  I   UNL d   1       3.634   5.999  -5.387  0.00  0.00    -0.060 I 
ATOM     10  F2  UNL d   1       5.992   5.519  -3.276  0.00  0.00    -0.096 F 
ATOM     11  F3  UNL d   1       5.949   5.008  -0.617  0.00  0.00    -0.097 F 
ATOM     12  F4  UNL d   1       3.575   4.824   0.714  0.00  0.00    -0.092 F 
ENDROOT
TORSDOF 0
ENDMDL
