MODEL 1
REMARK minimizedAffinity 21.5691833
REMARK minimizedRMSD -1
REMARK  0 active torsions:
REMARK  status: ('A' for Active; 'I' for Inactive)
ROOT
ATOM      1  C   UNL d   1      -2.922  -1.942  -1.234  0.00  0.00     0.124 A 
ATOM      2  C1  UNL d   1      -1.985  -1.484  -0.317  0.00  0.00     0.062 A 
ATOM      3  C2  UNL d   1      -0.669  -1.264  -0.712  0.00  0.00     0.162 A 
ATOM      4  C3  UNL d   1      -0.281  -1.501  -2.031  0.00  0.00    -0.034 A 
ATOM      5  C4  UNL d   1      -1.228  -1.963  -2.947  0.00  0.00     0.162 A 
ATOM      6  C5  UNL d   1      -2.542  -2.181  -2.547  0.00  0.00     0.062 A 
ATOM      7  F   UNL d   1      -3.445  -2.624  -3.434  0.00  0.00    -0.097 F 
ATOM      8  F1  UNL d   1      -0.888  -2.201  -4.222  0.00  0.00    -0.096 F 
ATOM      9  I   UNL d   1       1.687  -1.174  -2.625  0.00  0.00    -0.060 I 
ATOM     10  F2  UNL d   1       0.215  -0.821   0.195  0.00  0.00    -0.096 F 
ATOM     11  F3  UNL d   1      -2.349  -1.253   0.952  0.00  0.00    -0.097 F 
ATOM     12  F4  UNL d   1      -4.187  -2.154  -0.851  0.00  0.00    -0.092 F 
ENDROOT
TORSDOF 0
ENDMDL
