MODEL 1
REMARK minimizedAffinity 29.0586815
REMARK minimizedRMSD -1
REMARK  0 active torsions:
REMARK  status: ('A' for Active; 'I' for Inactive)
ROOT
ATOM      1  C   UNL d   1       4.667   5.535  -3.601  0.00  0.00     0.124 A 
ATOM      2  C1  UNL d   1       4.791   5.439  -2.222  0.00  0.00     0.062 A 
ATOM      3  C2  UNL d   1       3.664   5.532  -1.410  0.00  0.00     0.162 A 
ATOM      4  C3  UNL d   1       2.403   5.721  -1.975  0.00  0.00    -0.034 A 
ATOM      5  C4  UNL d   1       2.286   5.817  -3.363  0.00  0.00     0.162 A 
ATOM      6  C5  UNL d   1       3.415   5.723  -4.170  0.00  0.00     0.062 A 
ATOM      7  F   UNL d   1       3.293   5.816  -5.502  0.00  0.00    -0.097 F 
ATOM      8  F1  UNL d   1       1.089   5.998  -3.939  0.00  0.00    -0.096 F 
ATOM      9  I   UNL d   1       0.716   5.860  -0.764  0.00  0.00    -0.060 I 
ATOM     10  F2  UNL d   1       3.814   5.436  -0.080  0.00  0.00    -0.096 F 
ATOM     11  F3  UNL d   1       5.999   5.258  -1.670  0.00  0.00    -0.097 F 
ATOM     12  F4  UNL d   1       5.752   5.446  -4.380  0.00  0.00    -0.092 F 
ENDROOT
TORSDOF 0
ENDMDL
