MODEL 1
REMARK minimizedAffinity 14.4876022
REMARK minimizedRMSD -1
REMARK  0 active torsions:
REMARK  status: ('A' for Active; 'I' for Inactive)
ROOT
ATOM      1  C   UNL d   1       2.551  -3.992  -3.749  0.00  0.00     0.124 A 
ATOM      2  C1  UNL d   1       2.044  -4.821  -2.758  0.00  0.00     0.062 A 
ATOM      3  C2  UNL d   1       0.927  -4.432  -2.024  0.00  0.00     0.162 A 
ATOM      4  C3  UNL d   1       0.309  -3.208  -2.278  0.00  0.00    -0.034 A 
ATOM      5  C4  UNL d   1       0.825  -2.379  -3.276  0.00  0.00     0.162 A 
ATOM      6  C5  UNL d   1       1.942  -2.772  -4.007  0.00  0.00     0.062 A 
ATOM      7  F   UNL d   1       2.431  -1.970  -4.964  0.00  0.00    -0.097 F 
ATOM      8  F1  UNL d   1       0.256  -1.195  -3.547  0.00  0.00    -0.096 F 
ATOM      9  I   UNL d   1      -1.361  -2.622  -1.183  0.00  0.00    -0.060 I 
ATOM     10  F2  UNL d   1       0.458  -5.253  -1.072  0.00  0.00    -0.096 F 
ATOM     11  F3  UNL d   1       2.631  -6.000  -2.506  0.00  0.00    -0.097 F 
ATOM     12  F4  UNL d   1       3.626  -4.369  -4.453  0.00  0.00    -0.092 F 
ENDROOT
TORSDOF 0
ENDMDL
