MODEL 1
REMARK minimizedAffinity 17.4399624
REMARK minimizedRMSD -1
REMARK  0 active torsions:
REMARK  status: ('A' for Active; 'I' for Inactive)
ROOT
ATOM      1  C   UNL d   1       3.660   4.607  -1.310  0.00  0.00     0.124 A 
ATOM      2  C1  UNL d   1       4.828   4.472  -2.048  0.00  0.00     0.062 A 
ATOM      3  C2  UNL d   1       4.857   4.850  -3.387  0.00  0.00     0.162 A 
ATOM      4  C3  UNL d   1       3.714   5.368  -3.997  0.00  0.00    -0.034 A 
ATOM      5  C4  UNL d   1       2.543   5.500  -3.248  0.00  0.00     0.162 A 
ATOM      6  C5  UNL d   1       2.519   5.121  -1.910  0.00  0.00     0.062 A 
ATOM      7  F   UNL d   1       1.390   5.252  -1.199  0.00  0.00    -0.097 F 
ATOM      8  F1  UNL d   1       1.427   5.994  -3.804  0.00  0.00    -0.096 F 
ATOM      9  I   UNL d   1       3.754   5.935  -5.999  0.00  0.00    -0.060 I 
ATOM     10  F2  UNL d   1       5.999   4.709  -4.076  0.00  0.00    -0.096 F 
ATOM     11  F3  UNL d   1       5.931   3.976  -1.470  0.00  0.00    -0.097 F 
ATOM     12  F4  UNL d   1       3.634   4.242  -0.021  0.00  0.00    -0.092 F 
ENDROOT
TORSDOF 0
ENDMDL
