MODEL 1
REMARK minimizedAffinity 13.6104813
REMARK minimizedRMSD -1
REMARK  0 active torsions:
REMARK  status: ('A' for Active; 'I' for Inactive)
ROOT
ATOM      1  C   UNL d   1       0.235  -3.330  -3.423  0.00  0.00     0.124 A 
ATOM      2  C1  UNL d   1       0.002  -2.145  -2.738  0.00  0.00     0.062 A 
ATOM      3  C2  UNL d   1      -0.404  -2.174  -1.407  0.00  0.00     0.162 A 
ATOM      4  C3  UNL d   1      -0.580  -3.393  -0.752  0.00  0.00    -0.034 A 
ATOM      5  C4  UNL d   1      -0.345  -4.580  -1.448  0.00  0.00     0.162 A 
ATOM      6  C5  UNL d   1       0.061  -4.546  -2.778  0.00  0.00     0.062 A 
ATOM      7  F   UNL d   1       0.285  -5.691  -3.438  0.00  0.00    -0.097 F 
ATOM      8  F1  UNL d   1      -0.504  -5.769  -0.848  0.00  0.00    -0.096 F 
ATOM      9  I   UNL d   1      -1.188  -3.441   1.238  0.00  0.00    -0.060 I 
ATOM     10  F2  UNL d   1      -0.621  -1.014  -0.770  0.00  0.00    -0.096 F 
ATOM     11  F3  UNL d   1       0.169  -0.969  -3.360  0.00  0.00    -0.097 F 
ATOM     12  F4  UNL d   1       0.625  -3.299  -4.704  0.00  0.00    -0.092 F 
ENDROOT
TORSDOF 0
ENDMDL
