MODEL 1
REMARK minimizedAffinity 6.10911179
REMARK minimizedRMSD -1
REMARK  0 active torsions:
REMARK  status: ('A' for Active; 'I' for Inactive)
ROOT
ATOM      1  C   UNL d   1       4.478  -2.672   4.192  0.00  0.00     0.124 A 
ATOM      2  C1  UNL d   1       3.700  -1.700   3.578  0.00  0.00     0.062 A 
ATOM      3  C2  UNL d   1       3.688  -1.585   2.191  0.00  0.00     0.162 A 
ATOM      4  C3  UNL d   1       4.457  -2.446   1.407  0.00  0.00    -0.034 A 
ATOM      5  C4  UNL d   1       5.237  -3.421   2.031  0.00  0.00     0.162 A 
ATOM      6  C5  UNL d   1       5.246  -3.531   3.418  0.00  0.00     0.062 A 
ATOM      7  F   UNL d   1       5.998  -4.471   4.009  0.00  0.00    -0.097 F 
ATOM      8  F1  UNL d   1       5.988  -4.264   1.308  0.00  0.00    -0.096 F 
ATOM      9  I   UNL d   1       4.442  -2.278  -0.667  0.00  0.00    -0.060 I 
ATOM     10  F2  UNL d   1       2.927  -0.637   1.625  0.00  0.00    -0.096 F 
ATOM     11  F3  UNL d   1       2.958  -0.868   4.324  0.00  0.00    -0.097 F 
ATOM     12  F4  UNL d   1       4.488  -2.780   5.527  0.00  0.00    -0.092 F 
ENDROOT
TORSDOF 0
ENDMDL
