MODEL 1
REMARK minimizedAffinity 12.9669333
REMARK minimizedRMSD -1
REMARK  0 active torsions:
REMARK  status: ('A' for Active; 'I' for Inactive)
ROOT
ATOM      1  C   UNL d   1      -2.291  -3.193   1.461  0.00  0.00     0.124 A 
ATOM      2  C1  UNL d   1      -2.936  -2.859   0.278  0.00  0.00     0.062 A 
ATOM      3  C2  UNL d   1      -2.202  -2.424  -0.821  0.00  0.00     0.162 A 
ATOM      4  C3  UNL d   1      -0.813  -2.319  -0.743  0.00  0.00    -0.034 A 
ATOM      5  C4  UNL d   1      -0.171  -2.656   0.450  0.00  0.00     0.162 A 
ATOM      6  C5  UNL d   1      -0.910  -3.091   1.546  0.00  0.00     0.062 A 
ATOM      7  F   UNL d   1      -0.284  -3.412   2.688  0.00  0.00    -0.097 F 
ATOM      8  F1  UNL d   1       1.163  -2.567   0.560  0.00  0.00    -0.096 F 
ATOM      9  I   UNL d   1       0.288  -1.668  -2.384  0.00  0.00    -0.060 I 
ATOM     10  F2  UNL d   1      -2.852  -2.108  -1.951  0.00  0.00    -0.096 F 
ATOM     11  F3  UNL d   1      -4.271  -2.956   0.194  0.00  0.00    -0.097 F 
ATOM     12  F4  UNL d   1      -3.000  -3.611   2.518  0.00  0.00    -0.092 F 
ENDROOT
TORSDOF 0
ENDMDL
