MODEL 1
REMARK minimizedAffinity 11.2394066
REMARK minimizedRMSD -1
REMARK  0 active torsions:
REMARK  status: ('A' for Active; 'I' for Inactive)
ROOT
ATOM      1  C   UNL d   1       0.305  -3.643  -4.052  0.00  0.00     0.124 A 
ATOM      2  C1  UNL d   1       0.197  -4.804  -3.299  0.00  0.00     0.062 A 
ATOM      3  C2  UNL d   1      -0.009  -4.731  -1.925  0.00  0.00     0.162 A 
ATOM      4  C3  UNL d   1      -0.109  -3.492  -1.293  0.00  0.00    -0.034 A 
ATOM      5  C4  UNL d   1       0.002  -2.328  -2.056  0.00  0.00     0.162 A 
ATOM      6  C5  UNL d   1       0.208  -2.406  -3.429  0.00  0.00     0.062 A 
ATOM      7  F   UNL d   1       0.312  -1.283  -4.154  0.00  0.00    -0.097 F 
ATOM      8  F1  UNL d   1      -0.090  -1.120  -1.480  0.00  0.00    -0.096 F 
ATOM      9  I   UNL d   1      -0.417  -3.378   0.762  0.00  0.00    -0.060 I 
ATOM     10  F2  UNL d   1      -0.110  -5.870  -1.223  0.00  0.00    -0.096 F 
ATOM     11  F3  UNL d   1       0.291  -6.000  -3.898  0.00  0.00    -0.097 F 
ATOM     12  F4  UNL d   1       0.504  -3.716  -5.374  0.00  0.00    -0.092 F 
ENDROOT
TORSDOF 0
ENDMDL
