MODEL 1
REMARK minimizedAffinity 12.9824858
REMARK minimizedRMSD -1
REMARK  0 active torsions:
REMARK  status: ('A' for Active; 'I' for Inactive)
ROOT
ATOM      1  C   UNL d   1       1.744  -2.042  -2.895  0.00  0.00     0.124 A 
ATOM      2  C1  UNL d   1       0.419  -2.273  -3.239  0.00  0.00     0.062 A 
ATOM      3  C2  UNL d   1      -0.576  -2.212  -2.268  0.00  0.00     0.162 A 
ATOM      4  C3  UNL d   1      -0.251  -1.917  -0.944  0.00  0.00    -0.034 A 
ATOM      5  C4  UNL d   1       1.084  -1.687  -0.606  0.00  0.00     0.162 A 
ATOM      6  C5  UNL d   1       2.075  -1.749  -1.580  0.00  0.00     0.062 A 
ATOM      7  F   UNL d   1       3.355  -1.526  -1.246  0.00  0.00    -0.097 F 
ATOM      8  F1  UNL d   1       1.432  -1.401   0.657  0.00  0.00    -0.096 F 
ATOM      9  I   UNL d   1      -1.736  -1.825   0.511  0.00  0.00    -0.060 I 
ATOM     10  F2  UNL d   1      -1.848  -2.439  -2.628  0.00  0.00    -0.096 F 
ATOM     11  F3  UNL d   1       0.097  -2.556  -4.509  0.00  0.00    -0.097 F 
ATOM     12  F4  UNL d   1       2.700  -2.102  -3.831  0.00  0.00    -0.092 F 
ENDROOT
TORSDOF 0
ENDMDL
