MODEL 1
REMARK minimizedAffinity 11.685154
REMARK minimizedRMSD -1
REMARK  0 active torsions:
REMARK  status: ('A' for Active; 'I' for Inactive)
ROOT
ATOM      1  C   UNL d   1       2.366  -1.912  -2.672  0.00  0.00     0.124 A 
ATOM      2  C1  UNL d   1       1.004  -1.998  -2.926  0.00  0.00     0.062 A 
ATOM      3  C2  UNL d   1       0.088  -1.845  -1.890  0.00  0.00     0.162 A 
ATOM      4  C3  UNL d   1       0.529  -1.603  -0.590  0.00  0.00    -0.034 A 
ATOM      5  C4  UNL d   1       1.901  -1.519  -0.341  0.00  0.00     0.162 A 
ATOM      6  C5  UNL d   1       2.813  -1.673  -1.380  0.00  0.00     0.062 A 
ATOM      7  F   UNL d   1       4.128  -1.589  -1.132  0.00  0.00    -0.097 F 
ATOM      8  F1  UNL d   1       2.360  -1.287   0.898  0.00  0.00    -0.096 F 
ATOM      9  I   UNL d   1      -0.838  -1.373   0.962  0.00  0.00    -0.060 I 
ATOM     10  F2  UNL d   1      -1.222  -1.933  -2.165  0.00  0.00    -0.096 F 
ATOM     11  F3  UNL d   1       0.570  -2.231  -4.173  0.00  0.00    -0.097 F 
ATOM     12  F4  UNL d   1       3.246  -2.061  -3.670  0.00  0.00    -0.092 F 
ENDROOT
TORSDOF 0
ENDMDL
