MODEL 1
REMARK minimizedAffinity 15.1571264
REMARK minimizedRMSD -1
REMARK  0 active torsions:
REMARK  status: ('A' for Active; 'I' for Inactive)
ROOT
ATOM      1  C   UNL d   1      -0.362  -2.978  -2.618  0.00  0.00     0.124 A 
ATOM      2  C1  UNL d   1      -1.372  -3.678  -1.973  0.00  0.00     0.062 A 
ATOM      3  C2  UNL d   1      -1.723  -3.355  -0.665  0.00  0.00     0.162 A 
ATOM      4  C3  UNL d   1      -1.063  -2.326   0.006  0.00  0.00    -0.034 A 
ATOM      5  C4  UNL d   1      -0.047  -1.627  -0.649  0.00  0.00     0.162 A 
ATOM      6  C5  UNL d   1       0.299  -1.954  -1.956  0.00  0.00     0.062 A 
ATOM      7  F   UNL d   1       1.275  -1.276  -2.578  0.00  0.00    -0.097 F 
ATOM      8  F1  UNL d   1       0.607  -0.632  -0.033  0.00  0.00    -0.096 F 
ATOM      9  I   UNL d   1      -1.584  -1.840   1.962  0.00  0.00    -0.060 I 
ATOM     10  F2  UNL d   1      -2.702  -4.048  -0.066  0.00  0.00    -0.096 F 
ATOM     11  F3  UNL d   1      -2.012  -4.669  -2.611  0.00  0.00    -0.097 F 
ATOM     12  F4  UNL d   1      -0.027  -3.292  -3.876  0.00  0.00    -0.092 F 
ENDROOT
TORSDOF 0
ENDMDL
