MODEL 1
REMARK minimizedAffinity -4.60434008
REMARK minimizedRMSD -1
REMARK  0 active torsions:
REMARK  status: ('A' for Active; 'I' for Inactive)
ROOT
ATOM      1  C   UNL d   1       0.016  -3.454  -0.893  0.00  0.00     0.023 A 
ATOM      2  C1  UNL d   1      -0.301  -2.876   0.337  0.00  0.00     0.003 A 
ATOM      3  C2  UNL d   1      -0.103  -1.509   0.539  0.00  0.00     0.048 A 
ATOM      4  C3  UNL d   1       0.410  -0.724  -0.493  0.00  0.00     0.023 A 
ATOM      5  C4  UNL d   1       0.727  -1.298  -1.726  0.00  0.00     0.048 A 
ATOM      6  C5  UNL d   1       0.529  -2.665  -1.923  0.00  0.00     0.003 A 
ATOM      7  I   UNL d   1       0.705   1.311  -0.195  0.00  0.00    -0.146 I 
ENDROOT
TORSDOF 0
ENDMDL
