MODEL 1
REMARK minimizedAffinity -3.55106568
REMARK minimizedRMSD -1
REMARK  0 active torsions:
REMARK  status: ('A' for Active; 'I' for Inactive)
ROOT
ATOM      1  C   UNL d   1       0.069  -3.703  -0.827  0.00  0.00     0.023 A 
ATOM      2  C1  UNL d   1      -0.221  -3.057   0.375  0.00  0.00     0.003 A 
ATOM      3  C2  UNL d   1      -0.183  -1.664   0.448  0.00  0.00     0.048 A 
ATOM      4  C3  UNL d   1       0.146  -0.921  -0.686  0.00  0.00     0.023 A 
ATOM      5  C4  UNL d   1       0.437  -1.562  -1.891  0.00  0.00     0.048 A 
ATOM      6  C5  UNL d   1       0.398  -2.956  -1.959  0.00  0.00     0.003 A 
ATOM      7  I   UNL d   1       0.204   1.154  -0.580  0.00  0.00    -0.146 I 
ENDROOT
TORSDOF 0
ENDMDL
