MODEL 1
REMARK minimizedAffinity -5.10899067
REMARK minimizedRMSD -1
REMARK  0 active torsions:
REMARK  status: ('A' for Active; 'I' for Inactive)
ROOT
ATOM      1  C   UNL d   1       0.322  -3.778  -1.164  0.00  0.00     0.023 A 
ATOM      2  C1  UNL d   1       0.035  -3.372   0.140  0.00  0.00     0.003 A 
ATOM      3  C2  UNL d   1      -0.047  -2.012   0.447  0.00  0.00     0.048 A 
ATOM      4  C3  UNL d   1       0.159  -1.063  -0.555  0.00  0.00     0.023 A 
ATOM      5  C4  UNL d   1       0.445  -1.465  -1.860  0.00  0.00     0.048 A 
ATOM      6  C5  UNL d   1       0.527  -2.826  -2.162  0.00  0.00     0.003 A 
ATOM      7  I   UNL d   1       0.037   0.961  -0.100  0.00  0.00    -0.146 I 
ENDROOT
TORSDOF 0
ENDMDL
