MODEL 1
REMARK minimizedAffinity -3.02541351
REMARK minimizedRMSD -1
REMARK  0 active torsions:
REMARK  status: ('A' for Active; 'I' for Inactive)
ROOT
ATOM      1  C   UNL d   1      -0.381  -3.350  -1.506  0.00  0.00     0.023 A 
ATOM      2  C1  UNL d   1       0.049  -2.406  -2.438  0.00  0.00     0.003 A 
ATOM      3  C2  UNL d   1       0.207  -1.071  -2.060  0.00  0.00     0.048 A 
ATOM      4  C3  UNL d   1      -0.065  -0.688  -0.748  0.00  0.00     0.023 A 
ATOM      5  C4  UNL d   1      -0.494  -1.629   0.189  0.00  0.00     0.048 A 
ATOM      6  C5  UNL d   1      -0.652  -2.962  -0.193  0.00  0.00     0.003 A 
ATOM      7  I   UNL d   1       0.170   1.299  -0.182  0.00  0.00    -0.146 I 
ENDROOT
TORSDOF 0
ENDMDL
