MODEL 1
REMARK minimizedAffinity -4.84828424
REMARK minimizedRMSD -1
REMARK  0 active torsions:
REMARK  status: ('A' for Active; 'I' for Inactive)
ROOT
ATOM      1  C   UNL d   1       0.100  -3.602  -0.240  0.00  0.00     0.023 A 
ATOM      2  C1  UNL d   1       0.244  -2.925  -1.451  0.00  0.00     0.003 A 
ATOM      3  C2  UNL d   1       0.131  -1.534  -1.492  0.00  0.00     0.048 A 
ATOM      4  C3  UNL d   1      -0.125  -0.826  -0.319  0.00  0.00     0.023 A 
ATOM      5  C4  UNL d   1      -0.268  -1.499   0.896  0.00  0.00     0.048 A 
ATOM      6  C5  UNL d   1      -0.155  -2.890   0.932  0.00  0.00     0.003 A 
ATOM      7  I   UNL d   1      -0.293   1.245  -0.378  0.00  0.00    -0.146 I 
ENDROOT
TORSDOF 0
ENDMDL
