MODEL 1
REMARK minimizedAffinity -2.44011784
REMARK minimizedRMSD -1
REMARK  0 active torsions:
REMARK  status: ('A' for Active; 'I' for Inactive)
ROOT
ATOM      1  C   UNL d   1      -1.120  -1.398   0.775  0.00  0.00     0.023 A 
ATOM      2  C1  UNL d   1      -0.662  -1.063  -0.500  0.00  0.00     0.003 A 
ATOM      3  C2  UNL d   1      -0.092   0.191  -0.731  0.00  0.00     0.048 A 
ATOM      4  C3  UNL d   1       0.019   1.104   0.317  0.00  0.00     0.023 A 
ATOM      5  C4  UNL d   1      -0.436   0.773   1.594  0.00  0.00     0.048 A 
ATOM      6  C5  UNL d   1      -1.007  -0.481   1.820  0.00  0.00     0.003 A 
ATOM      7  I   UNL d   1       0.868   2.970  -0.025  0.00  0.00    -0.146 I 
ENDROOT
TORSDOF 0
ENDMDL
