MODEL 1
REMARK minimizedAffinity -4.07465506
REMARK minimizedRMSD -1
REMARK  0 active torsions:
REMARK  status: ('A' for Active; 'I' for Inactive)
ROOT
ATOM      1  C   UNL d   1      -0.160  -3.457  -0.001  0.00  0.00     0.023 A 
ATOM      2  C1  UNL d   1      -0.378  -2.657   1.121  0.00  0.00     0.003 A 
ATOM      3  C2  UNL d   1      -0.246  -1.270   1.027  0.00  0.00     0.048 A 
ATOM      4  C3  UNL d   1       0.103  -0.690  -0.191  0.00  0.00     0.023 A 
ATOM      5  C4  UNL d   1       0.321  -1.486  -1.317  0.00  0.00     0.048 A 
ATOM      6  C5  UNL d   1       0.189  -2.873  -1.218  0.00  0.00     0.003 A 
ATOM      7  I   UNL d   1       0.300   1.374  -0.334  0.00  0.00    -0.146 I 
ENDROOT
TORSDOF 0
ENDMDL
