MODEL 1
REMARK minimizedAffinity -5.41208744
REMARK minimizedRMSD -1
REMARK  0 active torsions:
REMARK  status: ('A' for Active; 'I' for Inactive)
ROOT
ATOM      1  C   UNL d   1      -0.034  -3.777  -0.299  0.00  0.00     0.023 A 
ATOM      2  C1  UNL d   1       0.101  -3.073  -1.496  0.00  0.00     0.003 A 
ATOM      3  C2  UNL d   1       0.136  -1.677  -1.486  0.00  0.00     0.048 A 
ATOM      4  C3  UNL d   1       0.038  -0.992  -0.275  0.00  0.00     0.023 A 
ATOM      5  C4  UNL d   1      -0.096  -1.693   0.925  0.00  0.00     0.048 A 
ATOM      6  C5  UNL d   1      -0.132  -3.088   0.909  0.00  0.00     0.003 A 
ATOM      7  I   UNL d   1       0.091   1.086  -0.257  0.00  0.00    -0.146 I 
ENDROOT
TORSDOF 0
ENDMDL
