MODEL 1
REMARK minimizedAffinity -1.54401267
REMARK minimizedRMSD -1
REMARK  0 active torsions:
REMARK  status: ('A' for Active; 'I' for Inactive)
ROOT
ATOM      1  C   UNL d   1       2.042   3.378  -0.210  0.00  0.00     0.023 A 
ATOM      2  C1  UNL d   1       2.514   2.076  -0.379  0.00  0.00     0.003 A 
ATOM      3  C2  UNL d   1       1.679   0.989  -0.113  0.00  0.00     0.048 A 
ATOM      4  C3  UNL d   1       0.372   1.210   0.320  0.00  0.00     0.023 A 
ATOM      5  C4  UNL d   1      -0.105   2.511   0.489  0.00  0.00     0.048 A 
ATOM      6  C5  UNL d   1       0.734   3.595   0.223  0.00  0.00     0.003 A 
ATOM      7  I   UNL d   1      -0.872  -0.406   0.715  0.00  0.00    -0.146 I 
ENDROOT
TORSDOF 0
ENDMDL
