MODEL 1
REMARK minimizedAffinity -4.70545101
REMARK minimizedRMSD -1
REMARK  0 active torsions:
REMARK  status: ('A' for Active; 'I' for Inactive)
ROOT
ATOM      1  C   UNL d   1      -0.302  -3.105   0.167  0.00  0.00     0.023 A 
ATOM      2  C1  UNL d   1       0.433  -2.588  -0.899  0.00  0.00     0.003 A 
ATOM      3  C2  UNL d   1       0.663  -1.213  -0.990  0.00  0.00     0.048 A 
ATOM      4  C3  UNL d   1       0.155  -0.362  -0.009  0.00  0.00     0.023 A 
ATOM      5  C4  UNL d   1      -0.580  -0.875   1.061  0.00  0.00     0.048 A 
ATOM      6  C5  UNL d   1      -0.808  -2.250   1.146  0.00  0.00     0.003 A 
ATOM      7  I   UNL d   1       0.496   1.684  -0.140  0.00  0.00    -0.146 I 
ENDROOT
TORSDOF 0
ENDMDL
