MODEL 1
REMARK minimizedAffinity -3.58820558
REMARK minimizedRMSD -1
REMARK  0 active torsions:
REMARK  status: ('A' for Active; 'I' for Inactive)
ROOT
ATOM      1  C   UNL d   1      -0.553   0.242   1.097  0.00  0.00     0.023 A 
ATOM      2  C1  UNL d   1      -0.980  -1.073   1.287  0.00  0.00     0.003 A 
ATOM      3  C2  UNL d   1      -0.971  -1.973   0.220  0.00  0.00     0.048 A 
ATOM      4  C3  UNL d   1      -0.532  -1.553  -1.035  0.00  0.00     0.023 A 
ATOM      5  C4  UNL d   1      -0.102  -0.239  -1.230  0.00  0.00     0.048 A 
ATOM      6  C5  UNL d   1      -0.114   0.658  -0.160  0.00  0.00     0.003 A 
ATOM      7  I   UNL d   1      -0.517  -2.891  -2.625  0.00  0.00    -0.146 I 
ENDROOT
TORSDOF 0
ENDMDL
