MODEL 1
REMARK minimizedAffinity -2.74828458
REMARK minimizedRMSD -1
REMARK  0 active torsions:
REMARK  status: ('A' for Active; 'I' for Inactive)
ROOT
ATOM      1  C   UNL d   1      -0.727  -2.499   1.357  0.00  0.00     0.023 A 
ATOM      2  C1  UNL d   1      -1.037  -1.286   1.974  0.00  0.00     0.003 A 
ATOM      3  C2  UNL d   1      -0.692  -0.081   1.359  0.00  0.00     0.048 A 
ATOM      4  C3  UNL d   1      -0.038  -0.095   0.128  0.00  0.00     0.023 A 
ATOM      5  C4  UNL d   1       0.273  -1.306  -0.493  0.00  0.00     0.048 A 
ATOM      6  C5  UNL d   1      -0.073  -2.508   0.125  0.00  0.00     0.003 A 
ATOM      7  I   UNL d   1       0.477   1.698  -0.789  0.00  0.00    -0.146 I 
ENDROOT
TORSDOF 0
ENDMDL
