MODEL 1
REMARK minimizedAffinity -3.57678032
REMARK minimizedRMSD -1
REMARK  0 active torsions:
REMARK  status: ('A' for Active; 'I' for Inactive)
ROOT
ATOM      1  C   UNL d   1      -0.923   0.139   1.411  0.00  0.00     0.023 A 
ATOM      2  C1  UNL d   1      -0.801  -1.248   1.492  0.00  0.00     0.003 A 
ATOM      3  C2  UNL d   1      -0.525  -1.994   0.344  0.00  0.00     0.048 A 
ATOM      4  C3  UNL d   1      -0.371  -1.346  -0.881  0.00  0.00     0.023 A 
ATOM      5  C4  UNL d   1      -0.491   0.042  -0.967  0.00  0.00     0.048 A 
ATOM      6  C5  UNL d   1      -0.768   0.783   0.184  0.00  0.00     0.003 A 
ATOM      7  I   UNL d   1       0.039  -2.454  -2.592  0.00  0.00    -0.146 I 
ENDROOT
TORSDOF 0
ENDMDL
