MODEL 1
REMARK minimizedAffinity -1.05093801
REMARK minimizedRMSD -1
REMARK  0 active torsions:
REMARK  status: ('A' for Active; 'I' for Inactive)
ROOT
ATOM      1  N1  IND d   1       5.129  -5.990  -2.341  0.00  0.00    -0.196 N 
ATOM      2  C2  IND d   1       4.029  -5.973  -1.529  0.00  0.00     0.054 A 
ATOM      3  C3  IND d   1       2.898  -5.932  -2.269  0.00  0.00    -0.031 A 
ATOM      4  C4  IND d   1       2.615  -5.988  -4.827  0.00  0.00     0.051 A 
ATOM      5  C5  IND d   1       3.331  -5.967  -5.991  0.00  0.00    -0.031 A 
ATOM      6  C6  IND d   1       4.711  -5.956  -5.998  0.00  0.00     0.015 A 
ATOM      7  C7  IND d   1       5.429  -5.976  -4.836  0.00  0.00    -0.016 A 
ATOM      8  C8  IND d   1       4.705  -5.990  -3.652  0.00  0.00    -0.047 A 
ATOM      9  C9  IND d   1       3.305  -5.959  -3.638  0.00  0.00    -0.096 A 
ATOM     10  HN1 IND d   1       5.947  -6.000  -2.077  0.00  0.00     0.298 HD
ENDROOT
TORSDOF 0
ENDMDL
