MODEL 1
REMARK minimizedAffinity -3.51671338
REMARK minimizedRMSD -1
REMARK  0 active torsions:
REMARK  status: ('A' for Active; 'I' for Inactive)
ROOT
ATOM      1  N1  IND d   1       4.718  -5.985  -2.522  0.00  0.00    -0.196 N 
ATOM      2  C2  IND d   1       5.998  -6.000  -3.003  0.00  0.00     0.054 A 
ATOM      3  C3  IND d   1       5.999  -5.825  -4.343  0.00  0.00    -0.031 A 
ATOM      4  C4  IND d   1       4.024  -5.394  -5.938  0.00  0.00     0.051 A 
ATOM      5  C5  IND d   1       2.659  -5.330  -5.969  0.00  0.00    -0.031 A 
ATOM      6  C6  IND d   1       1.895  -5.481  -4.830  0.00  0.00     0.015 A 
ATOM      7  C7  IND d   1       2.472  -5.692  -3.609  0.00  0.00    -0.016 A 
ATOM      8  C8  IND d   1       3.857  -5.765  -3.574  0.00  0.00    -0.047 A 
ATOM      9  C9  IND d   1       4.635  -5.654  -4.734  0.00  0.00    -0.096 A 
ATOM     10  HN1 IND d   1       4.489  -6.096  -1.701  0.00  0.00     0.298 HD
ENDROOT
TORSDOF 0
ENDMDL
