MODEL 1
REMARK minimizedAffinity -1.13210022
REMARK minimizedRMSD -1
REMARK  0 active torsions:
REMARK  status: ('A' for Active; 'I' for Inactive)
ROOT
ATOM      1  N1  IND d   1       4.110  -6.000  -5.995  0.00  0.00    -0.196 N 
ATOM      2  C2  IND d   1       5.477  -5.997  -6.000  0.00  0.00     0.054 A 
ATOM      3  C3  IND d   1       5.951  -5.692  -4.771  0.00  0.00    -0.031 A 
ATOM      4  C4  IND d   1       4.665  -5.261  -2.583  0.00  0.00     0.051 A 
ATOM      5  C5  IND d   1       3.399  -5.121  -2.087  0.00  0.00    -0.031 A 
ATOM      6  C6  IND d   1       2.283  -5.271  -2.884  0.00  0.00     0.015 A 
ATOM      7  C7  IND d   1       2.392  -5.581  -4.210  0.00  0.00    -0.016 A 
ATOM      8  C8  IND d   1       3.676  -5.718  -4.719  0.00  0.00    -0.047 A 
ATOM      9  C9  IND d   1       4.813  -5.524  -3.924  0.00  0.00    -0.096 A 
ATOM     10  HN1 IND d   1       3.607  -6.152  -6.675  0.00  0.00     0.298 HD
ENDROOT
TORSDOF 0
ENDMDL
