MODEL 1
REMARK minimizedAffinity -4.34736347
REMARK minimizedRMSD -1
REMARK  0 active torsions:
REMARK  status: ('A' for Active; 'I' for Inactive)
ROOT
ATOM      1  N1  IND d   1       4.408  -5.881  -1.973  0.00  0.00    -0.196 N 
ATOM      2  C2  IND d   1       3.050  -5.998  -1.861  0.00  0.00     0.054 A 
ATOM      3  C3  IND d   1       2.466  -5.875  -3.074  0.00  0.00    -0.031 A 
ATOM      4  C4  IND d   1       3.550  -5.579  -5.390  0.00  0.00     0.051 A 
ATOM      5  C5  IND d   1       4.759  -5.382  -5.996  0.00  0.00    -0.031 A 
ATOM      6  C6  IND d   1       5.937  -5.343  -5.278  0.00  0.00     0.015 A 
ATOM      7  C7  IND d   1       5.951  -5.512  -3.922  0.00  0.00    -0.016 A 
ATOM      8  C8  IND d   1       4.724  -5.705  -3.303  0.00  0.00    -0.047 A 
ATOM      9  C9  IND d   1       3.521  -5.703  -4.021  0.00  0.00    -0.096 A 
ATOM     10  HN1 IND d   1       4.969  -5.911  -1.323  0.00  0.00     0.298 HD
ENDROOT
TORSDOF 0
ENDMDL
