MODEL 1
REMARK minimizedAffinity -3.75070691
REMARK minimizedRMSD -1
REMARK  0 active torsions:
REMARK  status: ('A' for Active; 'I' for Inactive)
ROOT
ATOM      1  N1  IND d   1       4.374  -5.893  -5.900  0.00  0.00    -0.196 N 
ATOM      2  C2  IND d   1       3.019  -5.737  -5.992  0.00  0.00     0.054 A 
ATOM      3  C3  IND d   1       2.473  -5.633  -4.759  0.00  0.00    -0.031 A 
ATOM      4  C4  IND d   1       3.626  -5.588  -2.458  0.00  0.00     0.051 A 
ATOM      5  C5  IND d   1       4.847  -5.734  -1.862  0.00  0.00    -0.031 A 
ATOM      6  C6  IND d   1       5.997  -5.941  -2.597  0.00  0.00     0.015 A 
ATOM      7  C7  IND d   1       5.969  -6.000  -3.961  0.00  0.00    -0.016 A 
ATOM      8  C8  IND d   1       4.730  -5.860  -4.569  0.00  0.00    -0.047 A 
ATOM      9  C9  IND d   1       3.554  -5.691  -3.827  0.00  0.00    -0.096 A 
ATOM     10  HN1 IND d   1       4.914  -5.995  -6.562  0.00  0.00     0.298 HD
ENDROOT
TORSDOF 0
ENDMDL
