MODEL 1
REMARK minimizedAffinity -3.10940957
REMARK minimizedRMSD -1
REMARK  0 active torsions:
REMARK  status: ('A' for Active; 'I' for Inactive)
ROOT
ATOM      1  N1  IND d   1       2.523  -5.973  -4.668  0.00  0.00    -0.196 N 
ATOM      2  C2  IND d   1       2.973  -6.000  -5.958  0.00  0.00     0.054 A 
ATOM      3  C3  IND d   1       4.299  -5.740  -6.000  0.00  0.00    -0.031 A 
ATOM      4  C4  IND d   1       5.948  -5.341  -4.064  0.00  0.00     0.051 A 
ATOM      5  C5  IND d   1       6.000  -5.186  -2.707  0.00  0.00    -0.031 A 
ATOM      6  C6  IND d   1       4.872  -5.290  -1.918  0.00  0.00     0.015 A 
ATOM      7  C7  IND d   1       3.648  -5.566  -2.458  0.00  0.00    -0.016 A 
ATOM      8  C8  IND d   1       3.591  -5.717  -3.836  0.00  0.00    -0.047 A 
ATOM      9  C9  IND d   1       4.724  -5.570  -4.646  0.00  0.00    -0.096 A 
ATOM     10  HN1 IND d   1       1.709  -6.096  -4.418  0.00  0.00     0.298 HD
ENDROOT
TORSDOF 0
ENDMDL
