MODEL 1
REMARK minimizedAffinity -4.03209686
REMARK minimizedRMSD -1
REMARK  0 active torsions:
REMARK  status: ('A' for Active; 'I' for Inactive)
ROOT
ATOM      1  N1  IND d   1       3.059   0.827   1.564  0.00  0.00    -0.196 N 
ATOM      2  C2  IND d   1       2.066   1.456   0.868  0.00  0.00     0.054 A 
ATOM      3  C3  IND d   1       2.150   2.795   1.035  0.00  0.00    -0.031 A 
ATOM      4  C4  IND d   1       3.899   4.175   2.325  0.00  0.00     0.051 A 
ATOM      5  C5  IND d   1       4.979   4.043   3.153  0.00  0.00    -0.031 A 
ATOM      6  C6  IND d   1       5.486   2.807   3.497  0.00  0.00     0.015 A 
ATOM      7  C7  IND d   1       4.936   1.652   3.016  0.00  0.00    -0.016 A 
ATOM      8  C8  IND d   1       3.835   1.782   2.182  0.00  0.00    -0.047 A 
ATOM      9  C9  IND d   1       3.290   3.033   1.862  0.00  0.00    -0.096 A 
ATOM     10  HN1 IND d   1       3.179  -0.024   1.608  0.00  0.00     0.298 HD
ENDROOT
TORSDOF 0
ENDMDL
