MODEL 1
REMARK minimizedAffinity -3.21231675
REMARK minimizedRMSD -1
REMARK  0 active torsions:
REMARK  status: ('A' for Active; 'I' for Inactive)
ROOT
ATOM      1  N1  IND d   1       2.254  -5.750  -4.131  0.00  0.00    -0.196 N 
ATOM      2  C2  IND d   1       2.361  -5.993  -2.790  0.00  0.00     0.054 A 
ATOM      3  C3  IND d   1       3.609  -5.703  -2.358  0.00  0.00    -0.031 A 
ATOM      4  C4  IND d   1       5.603  -4.723  -3.657  0.00  0.00     0.051 A 
ATOM      5  C5  IND d   1       5.999  -4.369  -4.916  0.00  0.00    -0.031 A 
ATOM      6  C6  IND d   1       5.149  -4.456  -6.000  0.00  0.00     0.015 A 
ATOM      7  C7  IND d   1       3.862  -4.892  -5.861  0.00  0.00    -0.016 A 
ATOM      8  C8  IND d   1       3.458  -5.260  -4.585  0.00  0.00    -0.047 A 
ATOM      9  C9  IND d   1       4.330  -5.213  -3.490  0.00  0.00    -0.096 A 
ATOM     10  HN1 IND d   1       1.553  -5.883  -4.611  0.00  0.00     0.298 HD
ENDROOT
TORSDOF 0
ENDMDL
