MODEL 1
REMARK minimizedAffinity -2.79592586
REMARK minimizedRMSD -1
REMARK  0 active torsions:
REMARK  status: ('A' for Active; 'I' for Inactive)
ROOT
ATOM      1  N1  IND d   1       3.976  -5.553  -5.999  0.00  0.00    -0.196 N 
ATOM      2  C2  IND d   1       2.640  -5.827  -5.915  0.00  0.00     0.054 A 
ATOM      3  C3  IND d   1       2.272  -5.981  -4.623  0.00  0.00    -0.031 A 
ATOM      4  C4  IND d   1       3.677  -5.727  -2.481  0.00  0.00     0.051 A 
ATOM      5  C5  IND d   1       4.957  -5.519  -2.051  0.00  0.00    -0.031 A 
ATOM      6  C6  IND d   1       5.997  -5.305  -2.933  0.00  0.00     0.015 A 
ATOM      7  C7  IND d   1       5.791  -5.279  -4.283  0.00  0.00    -0.016 A 
ATOM      8  C8  IND d   1       4.494  -5.497  -4.724  0.00  0.00    -0.047 A 
ATOM      9  C9  IND d   1       3.442  -5.757  -3.835  0.00  0.00    -0.096 A 
ATOM     10  HN1 IND d   1       4.419  -5.436  -6.727  0.00  0.00     0.298 HD
ENDROOT
TORSDOF 0
ENDMDL
