MODEL 1
REMARK minimizedAffinity -0.10794422
REMARK minimizedRMSD -1
REMARK  0 active torsions:
REMARK  status: ('A' for Active; 'I' for Inactive)
ROOT
ATOM      1  N1  IND d   1       1.888  -5.554  -4.733  0.00  0.00    -0.196 N 
ATOM      2  C2  IND d   1       2.334  -5.830  -5.996  0.00  0.00     0.054 A 
ATOM      3  C3  IND d   1       3.677  -5.990  -5.996  0.00  0.00    -0.031 A 
ATOM      4  C4  IND d   1       5.330  -5.941  -4.023  0.00  0.00     0.051 A 
ATOM      5  C5  IND d   1       5.399  -5.690  -2.681  0.00  0.00    -0.031 A 
ATOM      6  C6  IND d   1       4.278  -5.376  -1.939  0.00  0.00     0.015 A 
ATOM      7  C7  IND d   1       3.039  -5.314  -2.512  0.00  0.00    -0.016 A 
ATOM      8  C8  IND d   1       2.967  -5.562  -3.876  0.00  0.00    -0.047 A 
ATOM      9  C9  IND d   1       4.106  -5.839  -4.642  0.00  0.00    -0.096 A 
ATOM     10  HN1 IND d   1       1.072  -5.401  -4.512  0.00  0.00     0.298 HD
ENDROOT
TORSDOF 0
ENDMDL
