MODEL 1
REMARK minimizedAffinity -3.65277815
REMARK minimizedRMSD -1
REMARK  0 active torsions:
REMARK  status: ('A' for Active; 'I' for Inactive)
ROOT
ATOM      1  N1  IND d   1       4.190  -6.000  -5.817  0.00  0.00    -0.196 N 
ATOM      2  C2  IND d   1       5.549  -5.853  -5.815  0.00  0.00     0.054 A 
ATOM      3  C3  IND d   1       6.000  -5.662  -4.555  0.00  0.00    -0.031 A 
ATOM      4  C4  IND d   1       4.696  -5.658  -2.335  0.00  0.00     0.051 A 
ATOM      5  C5  IND d   1       3.427  -5.716  -1.831  0.00  0.00    -0.031 A 
ATOM      6  C6  IND d   1       2.326  -5.878  -2.646  0.00  0.00     0.015 A 
ATOM      7  C7  IND d   1       2.454  -5.999  -4.001  0.00  0.00    -0.016 A 
ATOM      8  C8  IND d   1       3.740  -5.934  -4.517  0.00  0.00    -0.047 A 
ATOM      9  C9  IND d   1       4.858  -5.727  -3.698  0.00  0.00    -0.096 A 
ATOM     10  HN1 IND d   1       3.699  -6.114  -6.513  0.00  0.00     0.298 HD
ENDROOT
TORSDOF 0
ENDMDL
