MODEL 1
REMARK minimizedAffinity -1.37896729
REMARK minimizedRMSD -1
REMARK  0 active torsions:
REMARK  status: ('A' for Active; 'I' for Inactive)
ROOT
ATOM      1  N1  IND d   1       3.340   1.391   2.236  0.00  0.00    -0.196 N 
ATOM      2  C2  IND d   1       2.125   1.865   1.827  0.00  0.00     0.054 A 
ATOM      3  C3  IND d   1       2.111   3.217   1.866  0.00  0.00    -0.031 A 
ATOM      4  C4  IND d   1       4.002   4.856   2.468  0.00  0.00     0.051 A 
ATOM      5  C5  IND d   1       5.285   4.894   2.940  0.00  0.00    -0.031 A 
ATOM      6  C6  IND d   1       6.000   3.744   3.204  0.00  0.00     0.015 A 
ATOM      7  C7  IND d   1       5.460   2.506   2.994  0.00  0.00    -0.016 A 
ATOM      8  C8  IND d   1       4.156   2.463   2.522  0.00  0.00    -0.047 A 
ATOM      9  C9  IND d   1       3.411   3.627   2.293  0.00  0.00    -0.096 A 
ATOM     10  HN1 IND d   1       3.558   0.562   2.303  0.00  0.00     0.298 HD
ENDROOT
TORSDOF 0
ENDMDL
