MODEL 1
REMARK minimizedAffinity -4.00388288
REMARK minimizedRMSD -1
REMARK  0 active torsions:
REMARK  status: ('A' for Active; 'I' for Inactive)
ROOT
ATOM      1  N1  IND d   1       4.764  -5.719  -5.998  0.00  0.00    -0.196 N 
ATOM      2  C2  IND d   1       5.996  -5.229  -5.663  0.00  0.00     0.054 A 
ATOM      3  C3  IND d   1       6.000  -4.807  -4.378  0.00  0.00    -0.031 A 
ATOM      4  C4  IND d   1       4.128  -4.918  -2.614  0.00  0.00     0.051 A 
ATOM      5  C5  IND d   1       2.811  -5.249  -2.460  0.00  0.00    -0.031 A 
ATOM      6  C6  IND d   1       2.063  -5.766  -3.498  0.00  0.00     0.015 A 
ATOM      7  C7  IND d   1       2.610  -5.984  -4.731  0.00  0.00    -0.016 A 
ATOM      8  C8  IND d   1       3.946  -5.642  -4.893  0.00  0.00    -0.047 A 
ATOM      9  C9  IND d   1       4.698  -5.077  -3.855  0.00  0.00    -0.096 A 
ATOM     10  HN1 IND d   1       4.538  -6.023  -6.770  0.00  0.00     0.298 HD
ENDROOT
TORSDOF 0
ENDMDL
