MODEL 1
REMARK minimizedAffinity -3.99192953
REMARK minimizedRMSD -1
REMARK  0 active torsions:
REMARK  status: ('A' for Active; 'I' for Inactive)
ROOT
ATOM      1  N1  IND d   1       5.264  -5.419  -5.373  0.00  0.00    -0.196 N 
ATOM      2  C2  IND d   1       4.164  -5.936  -5.999  0.00  0.00     0.054 A 
ATOM      3  C3  IND d   1       3.121  -5.999  -5.141  0.00  0.00    -0.031 A 
ATOM      4  C4  IND d   1       2.966  -5.214  -2.694  0.00  0.00     0.051 A 
ATOM      5  C5  IND d   1       3.724  -4.710  -1.675  0.00  0.00    -0.031 A 
ATOM      6  C6  IND d   1       5.060  -4.407  -1.841  0.00  0.00     0.015 A 
ATOM      7  C7  IND d   1       5.688  -4.588  -3.040  0.00  0.00    -0.016 A 
ATOM      8  C8  IND d   1       4.924  -5.107  -4.075  0.00  0.00    -0.047 A 
ATOM      9  C9  IND d   1       3.578  -5.456  -3.901  0.00  0.00    -0.096 A 
ATOM     10  HN1 IND d   1       6.038  -5.308  -5.730  0.00  0.00     0.298 HD
ENDROOT
TORSDOF 0
ENDMDL
