MODEL 1
REMARK minimizedAffinity -1.18017995
REMARK minimizedRMSD -1
REMARK  0 active torsions:
REMARK  status: ('A' for Active; 'I' for Inactive)
ROOT
ATOM      1  N1  IND d   1       2.262  -5.908  -5.194  0.00  0.00    -0.196 N 
ATOM      2  C2  IND d   1       3.364  -5.853  -6.000  0.00  0.00     0.054 A 
ATOM      3  C3  IND d   1       4.491  -5.826  -5.254  0.00  0.00    -0.031 A 
ATOM      4  C4  IND d   1       4.764  -5.967  -2.698  0.00  0.00     0.051 A 
ATOM      5  C5  IND d   1       4.043  -5.993  -1.537  0.00  0.00    -0.031 A 
ATOM      6  C6  IND d   1       2.663  -5.995  -1.536  0.00  0.00     0.015 A 
ATOM      7  C7  IND d   1       1.950  -5.983  -2.702  0.00  0.00    -0.016 A 
ATOM      8  C8  IND d   1       2.679  -5.949  -3.882  0.00  0.00    -0.047 A 
ATOM      9  C9  IND d   1       4.079  -5.904  -3.888  0.00  0.00    -0.096 A 
ATOM     10  HN1 IND d   1       1.445  -5.916  -5.462  0.00  0.00     0.298 HD
ENDROOT
TORSDOF 0
ENDMDL
