MODEL 1
REMARK minimizedAffinity -3.49874806
REMARK minimizedRMSD -1
REMARK  0 active torsions:
REMARK  status: ('A' for Active; 'I' for Inactive)
ROOT
ATOM      1  N1  IND d   1       4.601  -4.423  -2.233  0.00  0.00    -0.196 N 
ATOM      2  C2  IND d   1       3.278  -4.600  -1.938  0.00  0.00     0.054 A 
ATOM      3  C3  IND d   1       2.634  -5.165  -2.984  0.00  0.00    -0.031 A 
ATOM      4  C4  IND d   1       3.574  -5.974  -5.240  0.00  0.00     0.051 A 
ATOM      5  C5  IND d   1       4.720  -5.994  -5.984  0.00  0.00    -0.031 A 
ATOM      6  C6  IND d   1       5.909  -5.482  -5.506  0.00  0.00     0.015 A 
ATOM      7  C7  IND d   1       6.000  -4.941  -4.255  0.00  0.00    -0.016 A 
ATOM      8  C8  IND d   1       4.837  -4.913  -3.499  0.00  0.00    -0.047 A 
ATOM      9  C9  IND d   1       3.617  -5.392  -3.995  0.00  0.00    -0.096 A 
ATOM     10  HN1 IND d   1       5.187  -4.066  -1.715  0.00  0.00     0.298 HD
ENDROOT
TORSDOF 0
ENDMDL
