MODEL 1
REMARK minimizedAffinity -3.96079898
REMARK minimizedRMSD -1
REMARK  0 active torsions:
REMARK  status: ('A' for Active; 'I' for Inactive)
ROOT
ATOM      1  N1  IND d   1       5.986  -4.863  -4.810  0.00  0.00    -0.196 N 
ATOM      2  C2  IND d   1       5.723  -5.492  -5.995  0.00  0.00     0.054 A 
ATOM      3  C3  IND d   1       4.465  -5.987  -5.994  0.00  0.00    -0.031 A 
ATOM      4  C4  IND d   1       2.632  -5.795  -4.197  0.00  0.00     0.051 A 
ATOM      5  C5  IND d   1       2.413  -5.345  -2.925  0.00  0.00    -0.031 A 
ATOM      6  C6  IND d   1       3.393  -4.694  -2.203  0.00  0.00     0.015 A 
ATOM      7  C7  IND d   1       4.631  -4.460  -2.733  0.00  0.00    -0.016 A 
ATOM      8  C8  IND d   1       4.859  -4.923  -4.021  0.00  0.00    -0.047 A 
ATOM      9  C9  IND d   1       3.882  -5.621  -4.743  0.00  0.00    -0.096 A 
ATOM     10  HN1 IND d   1       6.732  -4.493  -4.593  0.00  0.00     0.298 HD
ENDROOT
TORSDOF 0
ENDMDL
