MODEL 1
REMARK minimizedAffinity -2.8041234
REMARK minimizedRMSD -1
REMARK  1 active torsions:
REMARK  status: ('A' for Active; 'I' for Inactive)
REMARK    1  A    between atoms: C1_2  and  C2_3 
ROOT
ATOM      1  C2  UNL d   1      -0.877  -2.751  -1.318  0.00  0.00    -0.073 A 
ATOM      2  C3  UNL d   1      -1.771  -1.846  -1.902  0.00  0.00    -0.002 A 
ATOM      3  C4  UNL d   1      -1.702  -0.487  -1.591  0.00  0.00     0.004 A 
ATOM      4  C5  UNL d   1      -0.737  -0.019  -0.700  0.00  0.00    -0.004 A 
ATOM      5  C6  UNL d   1       0.172  -0.906  -0.115  0.00  0.00    -0.075 A 
ATOM      6  C7  UNL d   1       1.215  -0.418   0.848  0.00  0.00     0.076 C 
ATOM      7  C8  UNL d   1       0.096  -2.269  -0.430  0.00  0.00     0.001 A 
ENDROOT
BRANCH   1   8
ATOM      8  C1  UNL d   1      -0.943  -4.218  -1.656  0.00  0.00     0.053 C 
ATOM      9  C   UNL d   1      -0.969  -4.456  -3.157  0.00  0.00     0.018 C 
ENDBRANCH   1   8
TORSDOF 1
ENDMDL
