MODEL 1
REMARK minimizedAffinity -3.33624363
REMARK minimizedRMSD -1
REMARK  1 active torsions:
REMARK  status: ('A' for Active; 'I' for Inactive)
REMARK    1  A    between atoms: C1_2  and  C2_3 
ROOT
ATOM      1  C2  UNL d   1       1.142   0.383  -1.901  0.00  0.00    -0.073 A 
ATOM      2  C3  UNL d   1       0.022   0.745  -2.658  0.00  0.00    -0.002 A 
ATOM      3  C4  UNL d   1       0.173   1.204  -3.967  0.00  0.00     0.004 A 
ATOM      4  C5  UNL d   1       1.443   1.300  -4.534  0.00  0.00    -0.004 A 
ATOM      5  C6  UNL d   1       2.574   0.931  -3.799  0.00  0.00    -0.075 A 
ATOM      6  C7  UNL d   1       3.948   1.030  -4.394  0.00  0.00     0.076 C 
ATOM      7  C8  UNL d   1       2.414   0.474  -2.484  0.00  0.00     0.001 A 
ENDROOT
BRANCH   1   8
ATOM      8  C1  UNL d   1       0.983  -0.120  -0.490  0.00  0.00     0.053 C 
ATOM      9  C   UNL d   1       2.182  -0.938  -0.037  0.00  0.00     0.018 C 
ENDBRANCH   1   8
TORSDOF 1
ENDMDL
