MODEL 1
REMARK minimizedAffinity 5.97433043
REMARK minimizedRMSD -1
REMARK  1 active torsions:
REMARK  status: ('A' for Active; 'I' for Inactive)
REMARK    1  A    between atoms: C1_2  and  C2_3 
ROOT
ATOM      1  C2  UNL d   1       2.880  -0.946  -4.471  0.00  0.00    -0.073 A 
ATOM      2  C3  UNL d   1       1.541  -0.537  -4.468  0.00  0.00    -0.002 A 
ATOM      3  C4  UNL d   1       1.219   0.819  -4.542  0.00  0.00     0.004 A 
ATOM      4  C5  UNL d   1       2.230   1.777  -4.626  0.00  0.00    -0.004 A 
ATOM      5  C6  UNL d   1       3.573   1.387  -4.641  0.00  0.00    -0.075 A 
ATOM      6  C7  UNL d   1       4.671   2.405  -4.729  0.00  0.00     0.076 C 
ATOM      7  C8  UNL d   1       3.888   0.023  -4.564  0.00  0.00     0.001 A 
ENDROOT
BRANCH   1   8
ATOM      8  C1  UNL d   1       3.232  -2.410  -4.398  0.00  0.00     0.053 C 
ATOM      9  C   UNL d   1       3.232  -3.065  -5.770  0.00  0.00     0.018 C 
ENDBRANCH   1   8
TORSDOF 1
ENDMDL
