MODEL 1
REMARK minimizedAffinity 1.05212843
REMARK minimizedRMSD -1
REMARK  1 active torsions:
REMARK  status: ('A' for Active; 'I' for Inactive)
REMARK    1  A    between atoms: C1_2  and  C2_3 
ROOT
ATOM      1  C2  UNL d   1      -0.024  -1.790  -0.834  0.00  0.00    -0.073 A 
ATOM      2  C3  UNL d   1      -1.198  -1.043  -0.982  0.00  0.00    -0.002 A 
ATOM      3  C4  UNL d   1      -2.274  -1.557  -1.708  0.00  0.00     0.004 A 
ATOM      4  C5  UNL d   1      -2.189  -2.823  -2.287  0.00  0.00    -0.004 A 
ATOM      5  C6  UNL d   1      -1.029  -3.590  -2.140  0.00  0.00    -0.075 A 
ATOM      6  C7  UNL d   1      -0.921  -4.953  -2.758  0.00  0.00     0.076 C 
ATOM      7  C8  UNL d   1       0.048  -3.066  -1.412  0.00  0.00     0.001 A 
ENDROOT
BRANCH   1   8
ATOM      8  C1  UNL d   1       1.138  -1.243  -0.046  0.00  0.00     0.053 C 
ATOM      9  C   UNL d   1       0.682  -0.331   1.082  0.00  0.00     0.018 C 
ENDBRANCH   1   8
TORSDOF 1
ENDMDL
