MODEL 1
REMARK minimizedAffinity -0.256041825
REMARK minimizedRMSD -1
REMARK  1 active torsions:
REMARK  status: ('A' for Active; 'I' for Inactive)
REMARK    1  A    between atoms: C1_2  and  C2_3 
ROOT
ATOM      1  C2  UNL d   1       1.923   0.685   1.429  0.00  0.00    -0.073 A 
ATOM      2  C3  UNL d   1       3.097   0.014   1.071  0.00  0.00    -0.002 A 
ATOM      3  C4  UNL d   1       3.052  -1.058   0.179  0.00  0.00     0.004 A 
ATOM      4  C5  UNL d   1       1.835  -1.466  -0.368  0.00  0.00    -0.004 A 
ATOM      5  C6  UNL d   1       0.652  -0.800  -0.031  0.00  0.00    -0.075 A 
ATOM      6  C7  UNL d   1      -0.665  -1.227  -0.609  0.00  0.00     0.076 C 
ATOM      7  C8  UNL d   1       0.706   0.274   0.867  0.00  0.00     0.001 A 
ENDROOT
BRANCH   1   8
ATOM      8  C1  UNL d   1       1.967   1.848   2.387  0.00  0.00     0.053 C 
ATOM      9  C   UNL d   1       3.164   1.771   3.322  0.00  0.00     0.018 C 
ENDBRANCH   1   8
TORSDOF 1
ENDMDL
