MODEL 1
REMARK minimizedAffinity 11.9241886
REMARK minimizedRMSD -1
REMARK  1 active torsions:
REMARK  status: ('A' for Active; 'I' for Inactive)
REMARK    1  A    between atoms: C1_2  and  C2_3 
ROOT
ATOM      1  C2  UNL d   1       5.233  -0.404   5.014  0.00  0.00    -0.073 A 
ATOM      2  C3  UNL d   1       3.834  -0.409   5.053  0.00  0.00    -0.002 A 
ATOM      3  C4  UNL d   1       3.140  -1.590   5.317  0.00  0.00     0.004 A 
ATOM      4  C5  UNL d   1       3.836  -2.776   5.553  0.00  0.00    -0.004 A 
ATOM      5  C6  UNL d   1       5.234  -2.789   5.530  0.00  0.00    -0.075 A 
ATOM      6  C7  UNL d   1       5.998  -4.057   5.779  0.00  0.00     0.076 C 
ATOM      7  C8  UNL d   1       5.924  -1.599   5.261  0.00  0.00     0.001 A 
ENDROOT
BRANCH   1   8
ATOM      8  C1  UNL d   1       5.987   0.870   4.735  0.00  0.00     0.053 C 
ATOM      9  C   UNL d   1       5.936   1.831   5.912  0.00  0.00     0.018 C 
ENDBRANCH   1   8
TORSDOF 1
ENDMDL
