MODEL 1
REMARK minimizedAffinity 8.38288975
REMARK minimizedRMSD -1
REMARK  1 active torsions:
REMARK  status: ('A' for Active; 'I' for Inactive)
REMARK    1  A    between atoms: C1_2  and  C2_3 
ROOT
ATOM      1  C2  UNL d   1      -0.962  -5.134  -3.810  0.00  0.00    -0.073 A 
ATOM      2  C3  UNL d   1      -1.856  -4.410  -4.606  0.00  0.00    -0.002 A 
ATOM      3  C4  UNL d   1      -1.384  -3.616  -5.652  0.00  0.00     0.004 A 
ATOM      4  C5  UNL d   1      -0.016  -3.544  -5.917  0.00  0.00    -0.004 A 
ATOM      5  C6  UNL d   1       0.892  -4.269  -5.140  0.00  0.00    -0.075 A 
ATOM      6  C7  UNL d   1       2.366  -4.200  -5.410  0.00  0.00     0.076 C 
ATOM      7  C8  UNL d   1       0.411  -5.062  -4.089  0.00  0.00     0.001 A 
ENDROOT
BRANCH   1   8
ATOM      8  C1  UNL d   1      -1.467  -5.998  -2.683  0.00  0.00     0.053 C 
ATOM      9  C   UNL d   1      -0.521  -5.992  -1.492  0.00  0.00     0.018 C 
ENDBRANCH   1   8
TORSDOF 1
ENDMDL
