MODEL 1
REMARK minimizedAffinity -6.46452856
REMARK minimizedRMSD -1
REMARK  3 active torsions:
REMARK  status: ('A' for Active; 'I' for Inactive)
REMARK    1  A    between atoms: C3'_2  and  C2'_3 
REMARK    2  A    between atoms: C2'_3  and  C1'_4 
REMARK    3  A    between atoms: C1'_4  and  C1_5 
ROOT
ATOM      1  C1  N4B d   1       0.791  -0.617   0.636  0.00  0.00    -0.075 A 
ATOM      2  C2  N4B d   1       0.904  -0.605   2.043  0.00  0.00     0.002 A 
ATOM      3  C3  N4B d   1       1.967  -1.226   2.652  0.00  0.00     0.002 A 
ATOM      4  C4  N4B d   1       2.915  -1.878   1.878  0.00  0.00    -0.004 A 
ATOM      5  C5  N4B d   1       2.813  -1.863   0.518  0.00  0.00     0.002 A 
ATOM      6  C6  N4B d   1       1.752  -1.239  -0.107  0.00  0.00     0.002 A 
ENDROOT
BRANCH   1   7
ATOM      7  C1' N4B d   1      -0.398  -0.026  -0.070  0.00  0.00     0.057 C 
BRANCH   7   8
ATOM      8  C2' N4B d   1      -0.005   0.332  -1.500  0.00  0.00     0.009 C 
BRANCH   8   9
ATOM      9  C3' N4B d   1      -0.744   1.560  -2.003  0.00  0.00     0.004 C 
ATOM     10  C4' N4B d   1       0.172   2.585  -2.603  0.00  0.00     0.003 C 
ENDBRANCH   8   9
ENDBRANCH   7   8
ENDBRANCH   1   7
TORSDOF 3
ENDMDL
