MODEL 1
REMARK minimizedAffinity -6.51164913
REMARK minimizedRMSD -1
REMARK  3 active torsions:
REMARK  status: ('A' for Active; 'I' for Inactive)
REMARK    1  A    between atoms: C3'_2  and  C2'_3 
REMARK    2  A    between atoms: C2'_3  and  C1'_4 
REMARK    3  A    between atoms: C1'_4  and  C1_5 
ROOT
ATOM      1  C1  N4B d   1      -0.313  -0.301   0.056  0.00  0.00    -0.075 A 
ATOM      2  C2  N4B d   1       0.817  -0.587   0.853  0.00  0.00     0.002 A 
ATOM      3  C3  N4B d   1       0.698  -0.639   2.220  0.00  0.00     0.002 A 
ATOM      4  C4  N4B d   1      -0.531  -0.389   2.812  0.00  0.00    -0.004 A 
ATOM      5  C5  N4B d   1      -1.623  -0.138   2.034  0.00  0.00     0.002 A 
ATOM      6  C6  N4B d   1      -1.520  -0.088   0.658  0.00  0.00     0.002 A 
ENDROOT
BRANCH   1   7
ATOM      7  C1' N4B d   1      -0.215  -0.150  -1.437  0.00  0.00     0.057 C 
BRANCH   7   8
ATOM      8  C2' N4B d   1      -1.143   0.974  -1.889  0.00  0.00     0.009 C 
BRANCH   8   9
ATOM      9  C3' N4B d   1      -0.373   2.226  -2.275  0.00  0.00     0.004 C 
ATOM     10  C4' N4B d   1      -1.024   3.483  -1.781  0.00  0.00     0.003 C 
ENDBRANCH   8   9
ENDBRANCH   7   8
ENDBRANCH   1   7
TORSDOF 3
ENDMDL
