MODEL 1
REMARK minimizedAffinity -3.36685348
REMARK minimizedRMSD -1
REMARK  3 active torsions:
REMARK  status: ('A' for Active; 'I' for Inactive)
REMARK    1  A    between atoms: C3'_2  and  C2'_3 
REMARK    2  A    between atoms: C2'_3  and  C1'_4 
REMARK    3  A    between atoms: C1'_4  and  C1_5 
ROOT
ATOM      1  C1  N4B d   1      -0.302   0.112  -0.556  0.00  0.00    -0.075 A 
ATOM      2  C2  N4B d   1      -1.618   0.245  -0.061  0.00  0.00     0.002 A 
ATOM      3  C3  N4B d   1      -1.894  -0.069   1.247  0.00  0.00     0.002 A 
ATOM      4  C4  N4B d   1      -0.879  -0.532   2.071  0.00  0.00    -0.004 A 
ATOM      5  C5  N4B d   1       0.395  -0.633   1.592  0.00  0.00     0.002 A 
ATOM      6  C6  N4B d   1       0.688  -0.318   0.280  0.00  0.00     0.002 A 
ENDROOT
BRANCH   1   7
ATOM      7  C1' N4B d   1       0.032   0.360  -2.002  0.00  0.00     0.057 C 
BRANCH   7   8
ATOM      8  C2' N4B d   1      -1.043   1.251  -2.618  0.00  0.00     0.009 C 
BRANCH   8   9
ATOM      9  C3' N4B d   1      -0.500   2.619  -2.995  0.00  0.00     0.004 C 
ATOM     10  C4' N4B d   1      -1.428   3.735  -2.619  0.00  0.00     0.003 C 
ENDBRANCH   8   9
ENDBRANCH   7   8
ENDBRANCH   1   7
TORSDOF 3
ENDMDL
