MODEL 1
REMARK minimizedAffinity -6.55318785
REMARK minimizedRMSD -1
REMARK  3 active torsions:
REMARK  status: ('A' for Active; 'I' for Inactive)
REMARK    1  A    between atoms: C3'_2  and  C2'_3 
REMARK    2  A    between atoms: C2'_3  and  C1'_4 
REMARK    3  A    between atoms: C1'_4  and  C1_5 
ROOT
ATOM      1  C1  N4B d   1       0.863  -0.580  -0.049  0.00  0.00    -0.075 A 
ATOM      2  C2  N4B d   1       0.296  -0.141   1.167  0.00  0.00     0.002 A 
ATOM      3  C3  N4B d   1       0.806  -0.586   2.362  0.00  0.00     0.002 A 
ATOM      4  C4  N4B d   1       1.865  -1.481   2.365  0.00  0.00    -0.004 A 
ATOM      5  C5  N4B d   1       2.424  -1.880   1.186  0.00  0.00     0.002 A 
ATOM      6  C6  N4B d   1       1.924  -1.438  -0.022  0.00  0.00     0.002 A 
ENDROOT
BRANCH   1   7
ATOM      7  C1' N4B d   1       0.285  -0.188  -1.382  0.00  0.00     0.057 C 
BRANCH   7   8
ATOM      8  C2' N4B d   1      -0.884   0.766  -1.160  0.00  0.00     0.009 C 
BRANCH   8   9
ATOM      9  C3' N4B d   1      -0.887   1.905  -2.165  0.00  0.00     0.004 C 
ATOM     10  C4' N4B d   1      -1.898   2.964  -1.840  0.00  0.00     0.003 C 
ENDBRANCH   8   9
ENDBRANCH   7   8
ENDBRANCH   1   7
TORSDOF 3
ENDMDL
