MODEL 1
REMARK minimizedAffinity 6.75578928
REMARK minimizedRMSD -1
REMARK  0 active torsions:
REMARK  status: ('A' for Active; 'I' for Inactive)
ROOT
ATOM      1  C1  DEN d   1      -3.406   1.980  -0.691  0.00  0.00     0.130 A 
ATOM      2  C2  DEN d   1      -2.571   1.243   0.254  0.00  0.00    -0.031 A 
ATOM      3  C3  DEN d   1      -2.113   2.188   1.292  0.00  0.00     0.027 A 
ATOM      4  C4  DEN d   1      -2.617   4.707   1.529  0.00  0.00     0.027 A 
ATOM      5  C5  DEN d   1      -3.269   5.779   0.962  0.00  0.00    -0.003 A 
ATOM      6  C6  DEN d   1      -3.979   5.669  -0.205  0.00  0.00     0.001 A 
ATOM      7  C7  DEN d   1      -4.091   4.449  -0.818  0.00  0.00     0.017 A 
ATOM      8  C8  DEN d   1      -3.430   3.365  -0.257  0.00  0.00    -0.094 A 
ATOM      9  C9  DEN d   1      -2.727   3.494   0.930  0.00  0.00    -0.072 A 
ENDROOT
TORSDOF 0
ENDMDL
