MODEL 1
REMARK minimizedAffinity 24.3580647
REMARK minimizedRMSD -1
REMARK  0 active torsions:
REMARK  status: ('A' for Active; 'I' for Inactive)
ROOT
ATOM      1  C1  DEN d   1       4.853   0.505  -6.000  0.00  0.00     0.130 A 
ATOM      2  C2  DEN d   1       5.098   1.517  -4.976  0.00  0.00    -0.031 A 
ATOM      3  C3  DEN d   1       4.623   0.983  -3.683  0.00  0.00     0.027 A 
ATOM      4  C4  DEN d   1       3.540  -1.301  -3.171  0.00  0.00     0.027 A 
ATOM      5  C5  DEN d   1       3.115  -2.490  -3.721  0.00  0.00    -0.003 A 
ATOM      6  C6  DEN d   1       3.208  -2.749  -5.062  0.00  0.00     0.001 A 
ATOM      7  C7  DEN d   1       3.779  -1.823  -5.894  0.00  0.00     0.017 A 
ATOM      8  C8  DEN d   1       4.203  -0.618  -5.349  0.00  0.00    -0.094 A 
ATOM      9  C9  DEN d   1       4.112  -0.381  -3.988  0.00  0.00    -0.072 A 
ENDROOT
TORSDOF 0
ENDMDL
