MODEL 1
REMARK minimizedAffinity 15.1772184
REMARK minimizedRMSD -1
REMARK  0 active torsions:
REMARK  status: ('A' for Active; 'I' for Inactive)
ROOT
ATOM      1  C1  DEN d   1       5.998  -3.790  -1.439  0.00  0.00     0.130 A 
ATOM      2  C2  DEN d   1       5.999  -2.491  -0.772  0.00  0.00    -0.031 A 
ATOM      3  C3  DEN d   1       5.024  -1.623  -1.462  0.00  0.00     0.027 A 
ATOM      4  C4  DEN d   1       3.517  -2.164  -3.485  0.00  0.00     0.027 A 
ATOM      5  C5  DEN d   1       3.173  -3.134  -4.400  0.00  0.00    -0.003 A 
ATOM      6  C6  DEN d   1       3.765  -4.368  -4.414  0.00  0.00     0.001 A 
ATOM      7  C7  DEN d   1       4.703  -4.682  -3.466  0.00  0.00     0.017 A 
ATOM      8  C8  DEN d   1       5.061  -3.707  -2.544  0.00  0.00    -0.094 A 
ATOM      9  C9  DEN d   1       4.441  -2.469  -2.539  0.00  0.00    -0.072 A 
ENDROOT
TORSDOF 0
ENDMDL
