MODEL 1
REMARK minimizedAffinity 14.5355978
REMARK minimizedRMSD -1
REMARK  0 active torsions:
REMARK  status: ('A' for Active; 'I' for Inactive)
ROOT
ATOM      1  C1  DEN d   1       3.700   5.370  -2.623  0.00  0.00     0.130 A 
ATOM      2  C2  DEN d   1       4.886   5.714  -1.843  0.00  0.00    -0.031 A 
ATOM      3  C3  DEN d   1       5.997   4.855  -2.298  0.00  0.00     0.027 A 
ATOM      4  C4  DEN d   1       6.000   3.040  -4.131  0.00  0.00     0.027 A 
ATOM      5  C5  DEN d   1       5.225   2.383  -5.061  0.00  0.00    -0.003 A 
ATOM      6  C6  DEN d   1       3.890   2.649  -5.219  0.00  0.00     0.001 A 
ATOM      7  C7  DEN d   1       3.300   3.629  -4.466  0.00  0.00     0.017 A 
ATOM      8  C8  DEN d   1       4.073   4.291  -3.521  0.00  0.00    -0.094 A 
ATOM      9  C9  DEN d   1       5.423   4.016  -3.385  0.00  0.00    -0.072 A 
ENDROOT
TORSDOF 0
ENDMDL
