MODEL 1
REMARK minimizedAffinity 10.1202335
REMARK minimizedRMSD -1
REMARK  0 active torsions:
REMARK  status: ('A' for Active; 'I' for Inactive)
ROOT
ATOM      1  C1  DEN d   1      -2.321   2.355  -0.560  0.00  0.00     0.130 A 
ATOM      2  C2  DEN d   1      -1.311   2.256   0.491  0.00  0.00    -0.031 A 
ATOM      3  C3  DEN d   1      -1.412   3.463   1.337  0.00  0.00     0.027 A 
ATOM      4  C4  DEN d   1      -3.029   5.461   1.125  0.00  0.00     0.027 A 
ATOM      5  C5  DEN d   1      -4.057   6.000   0.384  0.00  0.00    -0.003 A 
ATOM      6  C6  DEN d   1      -4.552   5.383  -0.734  0.00  0.00     0.001 A 
ATOM      7  C7  DEN d   1      -4.049   4.168  -1.118  0.00  0.00     0.017 A 
ATOM      8  C8  DEN d   1      -3.007   3.622  -0.380  0.00  0.00    -0.094 A 
ATOM      9  C9  DEN d   1      -2.529   4.255   0.755  0.00  0.00    -0.072 A 
ENDROOT
TORSDOF 0
ENDMDL
