MODEL 1
REMARK minimizedAffinity 17.5191402
REMARK minimizedRMSD -1
REMARK  0 active torsions:
REMARK  status: ('A' for Active; 'I' for Inactive)
ROOT
ATOM      1  C1  DEN d   1       5.159   0.358  -6.000  0.00  0.00     0.130 A 
ATOM      2  C2  DEN d   1       6.000   1.293  -5.256  0.00  0.00    -0.031 A 
ATOM      3  C3  DEN d   1       5.995   0.881  -3.838  0.00  0.00     0.027 A 
ATOM      4  C4  DEN d   1       4.778  -1.104  -2.728  0.00  0.00     0.027 A 
ATOM      5  C5  DEN d   1       3.936  -2.171  -2.952  0.00  0.00    -0.003 A 
ATOM      6  C6  DEN d   1       3.420  -2.448  -4.190  0.00  0.00     0.001 A 
ATOM      7  C7  DEN d   1       3.777  -1.673  -5.262  0.00  0.00     0.017 A 
ATOM      8  C8  DEN d   1       4.620  -0.592  -5.044  0.00  0.00    -0.094 A 
ATOM      9  C9  DEN d   1       5.141  -0.336  -3.787  0.00  0.00    -0.072 A 
ENDROOT
TORSDOF 0
ENDMDL
