MODEL 1
REMARK minimizedAffinity 15.8948498
REMARK minimizedRMSD -1
REMARK  0 active torsions:
REMARK  status: ('A' for Active; 'I' for Inactive)
ROOT
ATOM      1  C1  DEN d   1       5.960  -4.943   5.999  0.00  0.00     0.130 A 
ATOM      2  C2  DEN d   1       4.908  -5.937   5.802  0.00  0.00    -0.031 A 
ATOM      3  C3  DEN d   1       3.696  -5.234   5.336  0.00  0.00     0.027 A 
ATOM      4  C4  DEN d   1       3.349  -2.716   4.899  0.00  0.00     0.027 A 
ATOM      5  C5  DEN d   1       3.950  -1.477   4.936  0.00  0.00    -0.003 A 
ATOM      6  C6  DEN d   1       5.241  -1.304   5.359  0.00  0.00     0.001 A 
ATOM      7  C7  DEN d   1       5.989  -2.393   5.720  0.00  0.00     0.017 A 
ATOM      8  C8  DEN d   1       5.388  -3.645   5.692  0.00  0.00    -0.094 A 
ATOM      9  C9  DEN d   1       4.086  -3.801   5.249  0.00  0.00    -0.072 A 
ENDROOT
TORSDOF 0
ENDMDL
