MODEL 1
REMARK minimizedAffinity 18.9738159
REMARK minimizedRMSD -1
REMARK  0 active torsions:
REMARK  status: ('A' for Active; 'I' for Inactive)
ROOT
ATOM      1  C1  DEN d   1       4.623   5.998  -2.644  0.00  0.00     0.130 A 
ATOM      2  C2  DEN d   1       5.997   5.736  -2.225  0.00  0.00    -0.031 A 
ATOM      3  C3  DEN d   1       5.963   5.223  -0.841  0.00  0.00     0.027 A 
ATOM      4  C4  DEN d   1       3.925   4.805   0.684  0.00  0.00     0.027 A 
ATOM      5  C5  DEN d   1       2.554   4.889   0.773  0.00  0.00    -0.003 A 
ATOM      6  C6  DEN d   1       1.784   5.376  -0.250  0.00  0.00     0.001 A 
ATOM      7  C7  DEN d   1       2.378   5.756  -1.425  0.00  0.00     0.017 A 
ATOM      8  C8  DEN d   1       3.762   5.682  -1.519  0.00  0.00    -0.094 A 
ATOM      9  C9  DEN d   1       4.521   5.175  -0.478  0.00  0.00    -0.072 A 
ENDROOT
TORSDOF 0
ENDMDL
