MODEL 1
REMARK minimizedAffinity 18.5996914
REMARK minimizedRMSD -1
REMARK  0 active torsions:
REMARK  status: ('A' for Active; 'I' for Inactive)
ROOT
ATOM      1  C1  DEN d   1       1.924   5.681  -1.353  0.00  0.00     0.130 A 
ATOM      2  C2  DEN d   1       1.389   5.181  -0.090  0.00  0.00    -0.031 A 
ATOM      3  C3  DEN d   1       2.528   4.851   0.790  0.00  0.00     0.027 A 
ATOM      4  C4  DEN d   1       5.055   5.069   0.322  0.00  0.00     0.027 A 
ATOM      5  C5  DEN d   1       5.996   5.434  -0.616  0.00  0.00    -0.003 A 
ATOM      6  C6  DEN d   1       5.649   5.872  -1.866  0.00  0.00     0.001 A 
ATOM      7  C7  DEN d   1       4.325   5.998  -2.198  0.00  0.00     0.017 A 
ATOM      8  C8  DEN d   1       3.371   5.624  -1.261  0.00  0.00    -0.094 A 
ATOM      9  C9  DEN d   1       3.743   5.196   0.002  0.00  0.00    -0.072 A 
ENDROOT
TORSDOF 0
ENDMDL
