MODEL 1
REMARK minimizedAffinity 15.1314554
REMARK minimizedRMSD -1
REMARK  0 active torsions:
REMARK  status: ('A' for Active; 'I' for Inactive)
ROOT
ATOM      1  C1  DEN d   1      -2.654  -2.153   5.937  0.00  0.00     0.130 A 
ATOM      2  C2  DEN d   1      -1.399  -1.410   5.869  0.00  0.00    -0.031 A 
ATOM      3  C3  DEN d   1      -1.722   0.031   5.858  0.00  0.00     0.027 A 
ATOM      4  C4  DEN d   1      -4.031   1.177   5.944  0.00  0.00     0.027 A 
ATOM      5  C5  DEN d   1      -5.390   0.960   5.996  0.00  0.00    -0.003 A 
ATOM      6  C6  DEN d   1      -5.930  -0.299   5.998  0.00  0.00     0.001 A 
ATOM      7  C7  DEN d   1      -5.103  -1.391   5.992  0.00  0.00     0.017 A 
ATOM      8  C8  DEN d   1      -3.732  -1.181   5.932  0.00  0.00    -0.094 A 
ATOM      9  C9  DEN d   1      -3.206   0.100   5.943  0.00  0.00    -0.072 A 
ENDROOT
TORSDOF 0
ENDMDL
