MODEL 1
REMARK minimizedAffinity 18.8427181
REMARK minimizedRMSD -1
REMARK  0 active torsions:
REMARK  status: ('A' for Active; 'I' for Inactive)
ROOT
ATOM      1  C1  DEN d   1      -0.787  -2.476   0.943  0.00  0.00     0.130 A 
ATOM      2  C2  DEN d   1       0.597  -2.449   0.477  0.00  0.00    -0.031 A 
ATOM      3  C3  DEN d   1       0.581  -2.333  -0.995  0.00  0.00     0.027 A 
ATOM      4  C4  DEN d   1      -1.441  -2.188  -2.589  0.00  0.00     0.027 A 
ATOM      5  C5  DEN d   1      -2.817  -2.184  -2.660  0.00  0.00    -0.003 A 
ATOM      6  C6  DEN d   1      -3.606  -2.310  -1.547  0.00  0.00     0.001 A 
ATOM      7  C7  DEN d   1      -3.024  -2.400  -0.310  0.00  0.00     0.017 A 
ATOM      8  C8  DEN d   1      -1.638  -2.413  -0.231  0.00  0.00    -0.094 A 
ATOM      9  C9  DEN d   1      -0.858  -2.272  -1.366  0.00  0.00    -0.072 A 
ENDROOT
TORSDOF 0
ENDMDL
