MODEL 1
REMARK minimizedAffinity 22.2741222
REMARK minimizedRMSD -1
REMARK  0 active torsions:
REMARK  status: ('A' for Active; 'I' for Inactive)
ROOT
ATOM      1  C1  DEN d   1      -3.364  -1.533  -0.579  0.00  0.00     0.130 A 
ATOM      2  C2  DEN d   1      -3.790  -2.081   0.706  0.00  0.00    -0.031 A 
ATOM      3  C3  DEN d   1      -2.615  -2.702   1.349  0.00  0.00     0.027 A 
ATOM      4  C4  DEN d   1      -0.190  -2.866   0.486  0.00  0.00     0.027 A 
ATOM      5  C5  DEN d   1       0.653  -2.558  -0.559  0.00  0.00    -0.003 A 
ATOM      6  C6  DEN d   1       0.212  -1.923  -1.689  0.00  0.00     0.001 A 
ATOM      7  C7  DEN d   1      -1.098  -1.534  -1.783  0.00  0.00     0.017 A 
ATOM      8  C8  DEN d   1      -1.955  -1.847  -0.736  0.00  0.00    -0.094 A 
ATOM      9  C9  DEN d   1      -1.488  -2.479   0.404  0.00  0.00    -0.072 A 
ENDROOT
TORSDOF 0
ENDMDL
