MODEL 1
REMARK minimizedAffinity 14.4777107
REMARK minimizedRMSD -1
REMARK  0 active torsions:
REMARK  status: ('A' for Active; 'I' for Inactive)
ROOT
ATOM      1  C1  DEN d   1      -3.309  -2.832  -3.400  0.00  0.00     0.130 A 
ATOM      2  C2  DEN d   1      -1.961  -2.448  -3.811  0.00  0.00    -0.031 A 
ATOM      3  C3  DEN d   1      -1.542  -3.348  -4.904  0.00  0.00     0.027 A 
ATOM      4  C4  DEN d   1      -2.846  -5.286  -5.999  0.00  0.00     0.027 A 
ATOM      5  C5  DEN d   1      -4.024  -5.998  -5.980  0.00  0.00    -0.003 A 
ATOM      6  C6  DEN d   1      -5.025  -5.729  -5.084  0.00  0.00     0.001 A 
ATOM      7  C7  DEN d   1      -4.885  -4.693  -4.200  0.00  0.00     0.017 A 
ATOM      8  C8  DEN d   1      -3.696  -3.975  -4.208  0.00  0.00    -0.094 A 
ATOM      9  C9  DEN d   1      -2.701  -4.254  -5.129  0.00  0.00    -0.072 A 
ENDROOT
TORSDOF 0
ENDMDL
