MODEL 1
REMARK minimizedAffinity 27.9899063
REMARK minimizedRMSD -1
REMARK  0 active torsions:
REMARK  status: ('A' for Active; 'I' for Inactive)
ROOT
ATOM      1  C1  DEN d   1       5.107   2.820  -4.374  0.00  0.00     0.130 A 
ATOM      2  C2  DEN d   1       4.609   1.465  -4.157  0.00  0.00    -0.031 A 
ATOM      3  C3  DEN d   1       3.206   1.561  -3.705  0.00  0.00     0.027 A 
ATOM      4  C4  DEN d   1       1.764   3.666  -3.328  0.00  0.00     0.027 A 
ATOM      5  C5  DEN d   1       1.755   5.043  -3.370  0.00  0.00    -0.003 A 
ATOM      6  C6  DEN d   1       2.864   5.770  -3.715  0.00  0.00     0.001 A 
ATOM      7  C7  DEN d   1       4.016   5.123  -4.074  0.00  0.00     0.017 A 
ATOM      8  C8  DEN d   1       4.035   3.735  -4.027  0.00  0.00    -0.094 A 
ATOM      9  C9  DEN d   1       2.900   3.017  -3.688  0.00  0.00    -0.072 A 
ENDROOT
TORSDOF 0
ENDMDL
