MODEL 1
REMARK minimizedAffinity 11.7896166
REMARK minimizedRMSD -1
REMARK  0 active torsions:
REMARK  status: ('A' for Active; 'I' for Inactive)
ROOT
ATOM      1  C1  DEN d   1       0.689  -2.425  -0.069  0.00  0.00     0.130 A 
ATOM      2  C2  DEN d   1      -0.710  -2.025  -0.186  0.00  0.00    -0.031 A 
ATOM      3  C3  DEN d   1      -0.879  -1.326  -1.476  0.00  0.00     0.027 A 
ATOM      4  C4  DEN d   1       0.880  -0.831  -3.296  0.00  0.00     0.027 A 
ATOM      5  C5  DEN d   1       2.207  -0.965  -3.641  0.00  0.00    -0.003 A 
ATOM      6  C6  DEN d   1       3.120  -1.560  -2.811  0.00  0.00     0.001 A 
ATOM      7  C7  DEN d   1       2.709  -2.084  -1.614  0.00  0.00     0.017 A 
ATOM      8  C8  DEN d   1       1.375  -1.946  -1.256  0.00  0.00    -0.094 A 
ATOM      9  C9  DEN d   1       0.464  -1.352  -2.114  0.00  0.00    -0.072 A 
ENDROOT
TORSDOF 0
ENDMDL
