MODEL 1
REMARK minimizedAffinity 20.1858521
REMARK minimizedRMSD -1
REMARK  0 active torsions:
REMARK  status: ('A' for Active; 'I' for Inactive)
ROOT
ATOM      1  C1  DEN d   1       0.005  -1.243  -0.634  0.00  0.00     0.130 A 
ATOM      2  C2  DEN d   1      -0.703  -1.556  -1.873  0.00  0.00    -0.031 A 
ATOM      3  C3  DEN d   1       0.303  -1.758  -2.935  0.00  0.00     0.027 A 
ATOM      4  C4  DEN d   1       2.874  -1.625  -2.781  0.00  0.00     0.027 A 
ATOM      5  C5  DEN d   1       3.937  -1.379  -1.940  0.00  0.00    -0.003 A 
ATOM      6  C6  DEN d   1       3.764  -1.039  -0.624  0.00  0.00     0.001 A 
ATOM      7  C7  DEN d   1       2.500  -0.981  -0.099  0.00  0.00     0.017 A 
ATOM      8  C8  DEN d   1       1.423  -1.221  -0.942  0.00  0.00    -0.094 A 
ATOM      9  C9  DEN d   1       1.620  -1.575  -2.266  0.00  0.00    -0.072 A 
ENDROOT
TORSDOF 0
ENDMDL
