MODEL 1
REMARK minimizedAffinity 22.0644855
REMARK minimizedRMSD -1
REMARK  0 active torsions:
REMARK  status: ('A' for Active; 'I' for Inactive)
ROOT
ATOM      1  C1  DEN d   1       4.381   6.000  -4.443  0.00  0.00     0.130 A 
ATOM      2  C2  DEN d   1       2.925   5.996  -4.564  0.00  0.00    -0.031 A 
ATOM      3  C3  DEN d   1       2.361   5.554  -3.273  0.00  0.00     0.027 A 
ATOM      4  C4  DEN d   1       3.592   4.883  -1.108  0.00  0.00     0.027 A 
ATOM      5  C5  DEN d   1       4.829   4.717  -0.526  0.00  0.00    -0.003 A 
ATOM      6  C6  DEN d   1       5.994   4.932  -1.213  0.00  0.00     0.001 A 
ATOM      7  C7  DEN d   1       5.947   5.370  -2.510  0.00  0.00     0.017 A 
ATOM      8  C8  DEN d   1       4.703   5.532  -3.107  0.00  0.00    -0.094 A 
ATOM      9  C9  DEN d   1       3.536   5.322  -2.391  0.00  0.00    -0.072 A 
ENDROOT
TORSDOF 0
ENDMDL
