MODEL 1
REMARK minimizedAffinity 12.5485411
REMARK minimizedRMSD -1
REMARK  0 active torsions:
REMARK  status: ('A' for Active; 'I' for Inactive)
ROOT
ATOM      1  C1  DEN d   1       0.286  -2.410  -2.577  0.00  0.00     0.130 A 
ATOM      2  C2  DEN d   1       0.118  -1.776  -1.272  0.00  0.00    -0.031 A 
ATOM      3  C3  DEN d   1       1.444  -1.313  -0.816  0.00  0.00     0.027 A 
ATOM      4  C4  DEN d   1       3.728  -1.511  -1.998  0.00  0.00     0.027 A 
ATOM      5  C5  DEN d   1       4.374  -1.981  -3.120  0.00  0.00    -0.003 A 
ATOM      6  C6  DEN d   1       3.714  -2.652  -4.115  0.00  0.00     0.001 A 
ATOM      7  C7  DEN d   1       2.359  -2.831  -4.030  0.00  0.00     0.017 A 
ATOM      8  C8  DEN d   1       1.702  -2.367  -2.898  0.00  0.00    -0.094 A 
ATOM      9  C9  DEN d   1       2.384  -1.680  -1.909  0.00  0.00    -0.072 A 
ENDROOT
TORSDOF 0
ENDMDL
