MODEL 1
REMARK minimizedAffinity 6.90672922
REMARK minimizedRMSD -1
REMARK  0 active torsions:
REMARK  status: ('A' for Active; 'I' for Inactive)
ROOT
ATOM      1  C1  DEN d   1       6.000  -4.833  -5.309  0.00  0.00     0.130 A 
ATOM      2  C2  DEN d   1       6.000  -5.711  -4.142  0.00  0.00    -0.031 A 
ATOM      3  C3  DEN d   1       5.906  -4.867  -2.934  0.00  0.00     0.027 A 
ATOM      4  C4  DEN d   1       5.758  -2.298  -2.758  0.00  0.00     0.027 A 
ATOM      5  C5  DEN d   1       5.735  -1.123  -3.477  0.00  0.00    -0.003 A 
ATOM      6  C6  DEN d   1       5.833  -1.100  -4.843  0.00  0.00     0.001 A 
ATOM      7  C7  DEN d   1       5.912  -2.279  -5.537  0.00  0.00     0.017 A 
ATOM      8  C8  DEN d   1       5.943  -3.467  -4.819  0.00  0.00    -0.094 A 
ATOM      9  C9  DEN d   1       5.831  -3.469  -3.439  0.00  0.00    -0.072 A 
ENDROOT
TORSDOF 0
ENDMDL
