MODEL 1
REMARK minimizedAffinity 0.557094753
REMARK minimizedRMSD -1
REMARK  1 active torsions:
REMARK  status: ('A' for Active; 'I' for Inactive)
REMARK    1  A    between atoms: N_2  and  C1_3 
ROOT
ATOM      1  C1  UNL d   1       1.134  -2.111   4.770  0.00  0.00     0.143 A 
ATOM      2  C2  UNL d   1       1.922  -2.938   3.962  0.00  0.00    -0.057 A 
ATOM      3  C3  UNL d   1       2.386  -2.503   2.714  0.00  0.00     0.033 A 
ATOM      4  C4  UNL d   1       2.045  -1.241   2.239  0.00  0.00    -0.042 A 
ATOM      5  C5  UNL d   1       1.242  -0.412   3.015  0.00  0.00     0.033 A 
ATOM      6  C6  UNL d   1       0.787  -0.849   4.263  0.00  0.00    -0.057 A 
ENDROOT
BRANCH   1   7
ATOM      7  N   UNL d   1       0.560  -2.522   5.976  0.00  0.00    -0.732 N 
ATOM      8  C   UNL d   1      -0.466  -3.542   5.994  0.00  0.00     0.284 C 
ATOM      9  H3  UNL d   1       1.245  -2.607   6.723  0.00  0.00     0.395 HD
ENDBRANCH   1   7
TORSDOF 1
ENDMDL
