MODEL 1
REMARK minimizedAffinity 2.32352662
REMARK minimizedRMSD -1
REMARK  1 active torsions:
REMARK  status: ('A' for Active; 'I' for Inactive)
REMARK    1  A    between atoms: N_2  and  C1_3 
ROOT
ATOM      1  C1  UNL d   1      -5.659   2.901  -3.352  0.00  0.00     0.143 A 
ATOM      2  C2  UNL d   1      -5.652   3.865  -4.366  0.00  0.00    -0.057 A 
ATOM      3  C3  UNL d   1      -5.204   3.558  -5.656  0.00  0.00     0.033 A 
ATOM      4  C4  UNL d   1      -4.726   2.285  -5.948  0.00  0.00    -0.042 A 
ATOM      5  C5  UNL d   1      -4.700   1.318  -4.950  0.00  0.00     0.033 A 
ATOM      6  C6  UNL d   1      -5.155   1.629  -3.665  0.00  0.00    -0.057 A 
ENDROOT
BRANCH   1   7
ATOM      7  N   UNL d   1      -6.000   3.171  -2.024  0.00  0.00    -0.732 N 
ATOM      8  C   UNL d   1      -5.626   4.426  -1.408  0.00  0.00     0.284 C 
ATOM      9  H3  UNL d   1      -6.940   2.859  -1.793  0.00  0.00     0.395 HD
ENDBRANCH   1   7
TORSDOF 1
ENDMDL
