MODEL 1
REMARK minimizedAffinity 4.07015276
REMARK minimizedRMSD -1
REMARK  1 active torsions:
REMARK  status: ('A' for Active; 'I' for Inactive)
REMARK    1  A    between atoms: N_2  and  C1_3 
ROOT
ATOM      1  C1  UNL d   1       1.558  -1.443   3.561  0.00  0.00     0.143 A 
ATOM      2  C2  UNL d   1       2.334  -2.607   3.589  0.00  0.00    -0.057 A 
ATOM      3  C3  UNL d   1       2.611  -3.266   4.793  0.00  0.00     0.033 A 
ATOM      4  C4  UNL d   1       2.139  -2.755   5.997  0.00  0.00    -0.042 A 
ATOM      5  C5  UNL d   1       1.388  -1.586   5.997  0.00  0.00     0.033 A 
ATOM      6  C6  UNL d   1       1.109  -0.935   4.791  0.00  0.00    -0.057 A 
ENDROOT
BRANCH   1   7
ATOM      7  N   UNL d   1       1.331  -0.687   2.409  0.00  0.00    -0.732 N 
ATOM      8  C   UNL d   1       0.327  -1.091   1.449  0.00  0.00     0.284 C 
ATOM      9  H3  UNL d   1       1.354   0.314   2.590  0.00  0.00     0.395 HD
ENDBRANCH   1   7
TORSDOF 1
ENDMDL
