MODEL 1
REMARK minimizedAffinity 2.54597163
REMARK minimizedRMSD -1
REMARK  1 active torsions:
REMARK  status: ('A' for Active; 'I' for Inactive)
REMARK    1  A    between atoms: N_2  and  C1_3 
ROOT
ATOM      1  C1  UNL d   1       1.944  -3.182   2.997  0.00  0.00     0.143 A 
ATOM      2  C2  UNL d   1       1.421  -2.505   4.104  0.00  0.00    -0.057 A 
ATOM      3  C3  UNL d   1       0.891  -1.215   3.982  0.00  0.00     0.033 A 
ATOM      4  C4  UNL d   1       0.903  -0.565   2.752  0.00  0.00    -0.042 A 
ATOM      5  C5  UNL d   1       1.441  -1.209   1.643  0.00  0.00     0.033 A 
ATOM      6  C6  UNL d   1       1.962  -2.500   1.770  0.00  0.00    -0.057 A 
ENDROOT
BRANCH   1   7
ATOM      7  N   UNL d   1       2.574  -4.427   3.073  0.00  0.00    -0.732 N 
ATOM      8  C   UNL d   1       1.807  -5.649   2.964  0.00  0.00     0.284 C 
ATOM      9  H3  UNL d   1       3.459  -4.445   2.572  0.00  0.00     0.395 HD
ENDBRANCH   1   7
TORSDOF 1
ENDMDL
