MODEL 1
REMARK minimizedAffinity -2.84801197
REMARK minimizedRMSD -1
REMARK  1 active torsions:
REMARK  status: ('A' for Active; 'I' for Inactive)
REMARK    1  A    between atoms: N_2  and  C1_3 
ROOT
ATOM      1  C1  UNL d   1       0.088   0.013  -0.066  0.00  0.00     0.143 A 
ATOM      2  C2  UNL d   1      -1.127  -0.419   0.477  0.00  0.00    -0.057 A 
ATOM      3  C3  UNL d   1      -1.645   0.154   1.645  0.00  0.00     0.033 A 
ATOM      4  C4  UNL d   1      -0.941   1.153   2.308  0.00  0.00    -0.042 A 
ATOM      5  C5  UNL d   1       0.281   1.581   1.801  0.00  0.00     0.033 A 
ATOM      6  C6  UNL d   1       0.790   1.009   0.631  0.00  0.00    -0.057 A 
ENDROOT
BRANCH   1   7
ATOM      7  N   UNL d   1       0.703  -0.585  -1.168  0.00  0.00    -0.732 N 
ATOM      8  C   UNL d   1       0.578  -0.004  -2.487  0.00  0.00     0.284 C 
ATOM      9  H3  UNL d   1       1.636  -0.930  -0.953  0.00  0.00     0.395 HD
ENDBRANCH   1   7
TORSDOF 1
ENDMDL
