MODEL 1
REMARK minimizedAffinity -4.34201002
REMARK minimizedRMSD -1
REMARK  1 active torsions:
REMARK  status: ('A' for Active; 'I' for Inactive)
REMARK    1  A    between atoms: N_2  and  C1_3 
ROOT
ATOM      1  C1  UNL d   1       0.120   0.169   0.117  0.00  0.00     0.143 A 
ATOM      2  C2  UNL d   1      -1.259   0.236   0.345  0.00  0.00    -0.057 A 
ATOM      3  C3  UNL d   1      -1.770   0.627   1.588  0.00  0.00     0.033 A 
ATOM      4  C4  UNL d   1      -0.909   0.931   2.637  0.00  0.00    -0.042 A 
ATOM      5  C5  UNL d   1       0.465   0.847   2.441  0.00  0.00     0.033 A 
ATOM      6  C6  UNL d   1       0.970   0.462   1.195  0.00  0.00    -0.057 A 
ENDROOT
BRANCH   1   7
ATOM      7  N   UNL d   1       0.690  -0.307  -1.067  0.00  0.00    -0.732 N 
ATOM      8  C   UNL d   1       0.372   0.308  -2.338  0.00  0.00     0.284 C 
ATOM      9  H3  UNL d   1       1.672  -0.548  -0.955  0.00  0.00     0.395 HD
ENDBRANCH   1   7
TORSDOF 1
ENDMDL
