MODEL 1
REMARK minimizedAffinity -3.89483953
REMARK minimizedRMSD -1
REMARK  1 active torsions:
REMARK  status: ('A' for Active; 'I' for Inactive)
REMARK    1  A    between atoms: N_2  and  C1_3 
ROOT
ATOM      1  C1  UNL d   1       0.224  -0.462   0.436  0.00  0.00     0.143 A 
ATOM      2  C2  UNL d   1      -1.040   0.134   0.368  0.00  0.00    -0.057 A 
ATOM      3  C3  UNL d   1      -1.744   0.478   1.529  0.00  0.00     0.033 A 
ATOM      4  C4  UNL d   1      -1.206   0.205   2.782  0.00  0.00    -0.042 A 
ATOM      5  C5  UNL d   1       0.038  -0.410   2.874  0.00  0.00     0.033 A 
ATOM      6  C6  UNL d   1       0.738  -0.745   1.711  0.00  0.00    -0.057 A 
ENDROOT
BRANCH   1   7
ATOM      7  N   UNL d   1       0.930  -0.917  -0.680  0.00  0.00    -0.732 N 
ATOM      8  C   UNL d   1       0.655  -0.380  -1.996  0.00  0.00     0.284 C 
ATOM      9  H3  UNL d   1       1.919  -1.053  -0.485  0.00  0.00     0.395 HD
ENDBRANCH   1   7
TORSDOF 1
ENDMDL
