MODEL 1
REMARK minimizedAffinity -4.56761408
REMARK minimizedRMSD -1
REMARK  1 active torsions:
REMARK  status: ('A' for Active; 'I' for Inactive)
REMARK    1  A    between atoms: N_2  and  C1_3 
ROOT
ATOM      1  C1  UNL d   1      -0.168   0.184   0.334  0.00  0.00     0.143 A 
ATOM      2  C2  UNL d   1       0.372   1.401   0.762  0.00  0.00    -0.057 A 
ATOM      3  C3  UNL d   1      -0.223   2.138   1.794  0.00  0.00     0.033 A 
ATOM      4  C4  UNL d   1      -1.390   1.682   2.398  0.00  0.00    -0.042 A 
ATOM      5  C5  UNL d   1      -1.959   0.487   1.971  0.00  0.00     0.033 A 
ATOM      6  C6  UNL d   1      -1.356  -0.247   0.946  0.00  0.00    -0.057 A 
ENDROOT
BRANCH   1   7
ATOM      7  N   UNL d   1       0.321  -0.545  -0.752  0.00  0.00    -0.732 N 
ATOM      8  C   UNL d   1       0.600   0.108  -2.013  0.00  0.00     0.284 C 
ATOM      9  H3  UNL d   1       1.019  -1.232  -0.476  0.00  0.00     0.395 HD
ENDBRANCH   1   7
TORSDOF 1
ENDMDL
