MODEL 1
REMARK minimizedAffinity -4.9006834
REMARK minimizedRMSD -1
REMARK  1 active torsions:
REMARK  status: ('A' for Active; 'I' for Inactive)
REMARK    1  A    between atoms: N_2  and  C1_3 
ROOT
ATOM      1  C1  UNL d   1      -0.025  -0.407   0.121  0.00  0.00     0.143 A 
ATOM      2  C2  UNL d   1      -1.394  -0.203   0.324  0.00  0.00    -0.057 A 
ATOM      3  C3  UNL d   1      -1.860   0.617   1.359  0.00  0.00     0.033 A 
ATOM      4  C4  UNL d   1      -0.963   1.227   2.229  0.00  0.00    -0.042 A 
ATOM      5  C5  UNL d   1       0.402   1.018   2.062  0.00  0.00     0.033 A 
ATOM      6  C6  UNL d   1       0.861   0.203   1.022  0.00  0.00    -0.057 A 
ENDROOT
BRANCH   1   7
ATOM      7  N   UNL d   1       0.497  -1.289  -0.828  0.00  0.00    -0.732 N 
ATOM      8  C   UNL d   1       0.683  -0.869  -2.201  0.00  0.00     0.284 C 
ATOM      9  H3  UNL d   1       1.260  -1.850  -0.458  0.00  0.00     0.395 HD
ENDBRANCH   1   7
TORSDOF 1
ENDMDL
