MODEL 1
REMARK minimizedAffinity 13.8719683
REMARK minimizedRMSD -1
REMARK  0 active torsions:
REMARK  status: ('A' for Active; 'I' for Inactive)
ROOT
ATOM      1  C2' OXE d   1       1.887  -4.856   5.999  0.00  0.00     0.078 C 
ATOM      2  C1' OXE d   1      -0.912  -4.634   6.000  0.00  0.00     0.078 C 
ATOM      3  C1  OXE d   1      -0.135  -3.733   5.072  0.00  0.00    -0.078 A 
ATOM      4  C2  OXE d   1       1.236  -3.816   5.112  0.00  0.00    -0.078 A 
ATOM      5  C3  OXE d   1       1.999  -3.046   4.239  0.00  0.00     0.003 A 
ATOM      6  C4  OXE d   1       1.390  -2.080   3.429  0.00  0.00    -0.002 A 
ATOM      7  C5  OXE d   1      -0.003  -1.952   3.402  0.00  0.00    -0.002 A 
ATOM      8  C6  OXE d   1      -0.781  -2.798   4.184  0.00  0.00     0.003 A 
ENDROOT
TORSDOF 0
ENDMDL
