MODEL 1
REMARK minimizedAffinity 13.7616682
REMARK minimizedRMSD -1
REMARK  0 active torsions:
REMARK  status: ('A' for Active; 'I' for Inactive)
ROOT
ATOM      1  C2' OXE d   1      -5.917   5.933   3.081  0.00  0.00     0.078 C 
ATOM      2  C1' OXE d   1      -5.542   5.996   5.863  0.00  0.00     0.078 C 
ATOM      3  C1  OXE d   1      -5.325   4.683   5.153  0.00  0.00    -0.078 A 
ATOM      4  C2  OXE d   1      -5.556   4.650   3.799  0.00  0.00    -0.078 A 
ATOM      5  C3  OXE d   1      -5.317   3.478   3.087  0.00  0.00     0.003 A 
ATOM      6  C4  OXE d   1      -4.993   2.294   3.759  0.00  0.00    -0.002 A 
ATOM      7  C5  OXE d   1      -4.791   2.296   5.143  0.00  0.00    -0.002 A 
ATOM      8  C6  OXE d   1      -4.912   3.489   5.848  0.00  0.00     0.003 A 
ENDROOT
TORSDOF 0
ENDMDL
