MODEL 1
REMARK minimizedAffinity 2.01030707
REMARK minimizedRMSD -1
REMARK  0 active torsions:
REMARK  status: ('A' for Active; 'I' for Inactive)
ROOT
ATOM      1  C2' OXE d   1      -0.004  -1.814  -0.299  0.00  0.00     0.078 C 
ATOM      2  C1' OXE d   1       2.353  -2.836  -1.430  0.00  0.00     0.078 C 
ATOM      3  C1  OXE d   1       2.324  -1.372  -1.066  0.00  0.00    -0.078 A 
ATOM      4  C2  OXE d   1       1.151  -0.870  -0.556  0.00  0.00    -0.078 A 
ATOM      5  C3  OXE d   1       1.088   0.460  -0.154  0.00  0.00     0.003 A 
ATOM      6  C4  OXE d   1       2.157   1.329  -0.405  0.00  0.00    -0.002 A 
ATOM      7  C5  OXE d   1       3.347   0.847  -0.960  0.00  0.00    -0.002 A 
ATOM      8  C6  OXE d   1       3.462  -0.507  -1.256  0.00  0.00     0.003 A 
ENDROOT
TORSDOF 0
ENDMDL
