MODEL 1
REMARK minimizedAffinity -3.35871816
REMARK minimizedRMSD -1
REMARK  0 active torsions:
REMARK  status: ('A' for Active; 'I' for Inactive)
ROOT
ATOM      1  C2' OXE d   1      -1.473  -2.355  -2.778  0.00  0.00     0.078 C 
ATOM      2  C1' OXE d   1       0.207  -3.097  -0.655  0.00  0.00     0.078 C 
ATOM      3  C1  OXE d   1      -0.020  -1.625  -0.891  0.00  0.00    -0.078 A 
ATOM      4  C2  OXE d   1      -0.806  -1.270  -1.960  0.00  0.00    -0.078 A 
ATOM      5  C3  OXE d   1      -1.093   0.073  -2.190  0.00  0.00     0.003 A 
ATOM      6  C4  OXE d   1      -0.464   1.071  -1.435  0.00  0.00    -0.002 A 
ATOM      7  C5  OXE d   1       0.372   0.732  -0.366  0.00  0.00    -0.002 A 
ATOM      8  C6  OXE d   1       0.570  -0.609  -0.054  0.00  0.00     0.003 A 
ENDROOT
TORSDOF 0
ENDMDL
