MODEL 1
REMARK minimizedAffinity 6.65918255
REMARK minimizedRMSD -1
REMARK  0 active torsions:
REMARK  status: ('A' for Active; 'I' for Inactive)
ROOT
ATOM      1  C2' OXE d   1      -5.806   3.098   1.053  0.00  0.00     0.078 C 
ATOM      2  C1' OXE d   1      -5.883   5.904   1.021  0.00  0.00     0.078 C 
ATOM      3  C1  OXE d   1      -5.888   5.216   2.363  0.00  0.00    -0.078 A 
ATOM      4  C2  OXE d   1      -5.898   3.842   2.368  0.00  0.00    -0.078 A 
ATOM      5  C3  OXE d   1      -5.847   3.157   3.579  0.00  0.00     0.003 A 
ATOM      6  C4  OXE d   1      -5.942   3.851   4.791  0.00  0.00    -0.002 A 
ATOM      7  C5  OXE d   1      -5.974   5.250   4.807  0.00  0.00    -0.002 A 
ATOM      8  C6  OXE d   1      -5.904   5.947   3.606  0.00  0.00     0.003 A 
ENDROOT
TORSDOF 0
ENDMDL
