MODEL 1
REMARK minimizedAffinity 9.86354923
REMARK minimizedRMSD -1
REMARK  0 active torsions:
REMARK  status: ('A' for Active; 'I' for Inactive)
ROOT
ATOM      1  C2' OXE d   1       2.800  -1.347  -3.082  0.00  0.00     0.078 C 
ATOM      2  C1' OXE d   1       3.620   0.938  -1.672  0.00  0.00     0.078 C 
ATOM      3  C1  OXE d   1       3.375  -0.325  -0.884  0.00  0.00    -0.078 A 
ATOM      4  C2  OXE d   1       2.929  -1.425  -1.576  0.00  0.00    -0.078 A 
ATOM      5  C3  OXE d   1       2.740  -2.631  -0.906  0.00  0.00     0.003 A 
ATOM      6  C4  OXE d   1       2.853  -2.692   0.488  0.00  0.00    -0.002 A 
ATOM      7  C5  OXE d   1       3.267  -1.572   1.217  0.00  0.00    -0.002 A 
ATOM      8  C6  OXE d   1       3.573  -0.395   0.543  0.00  0.00     0.003 A 
ENDROOT
TORSDOF 0
ENDMDL
