MODEL 1
REMARK minimizedAffinity 12.2341604
REMARK minimizedRMSD -1
REMARK  0 active torsions:
REMARK  status: ('A' for Active; 'I' for Inactive)
ROOT
ATOM      1  C2' OXE d   1       4.788   3.851  -0.117  0.00  0.00     0.078 C 
ATOM      2  C1' OXE d   1       4.678   2.223   2.168  0.00  0.00     0.078 C 
ATOM      3  C1  OXE d   1       4.128   1.665   0.879  0.00  0.00    -0.078 A 
ATOM      4  C2  OXE d   1       4.143   2.486  -0.223  0.00  0.00    -0.078 A 
ATOM      5  C3  OXE d   1       3.698   2.002  -1.450  0.00  0.00     0.003 A 
ATOM      6  C4  OXE d   1       3.094   0.742  -1.538  0.00  0.00    -0.002 A 
ATOM      7  C5  OXE d   1       3.032  -0.095  -0.418  0.00  0.00    -0.002 A 
ATOM      8  C6  OXE d   1       3.581   0.334   0.785  0.00  0.00     0.003 A 
ENDROOT
TORSDOF 0
ENDMDL
