MODEL 1
REMARK minimizedAffinity 5.43515348
REMARK minimizedRMSD -1
REMARK  0 active torsions:
REMARK  status: ('A' for Active; 'I' for Inactive)
ROOT
ATOM      1  C2' OXE d   1       5.269   3.302  -1.331  0.00  0.00     0.078 C 
ATOM      2  C1' OXE d   1       4.917   2.703   1.388  0.00  0.00     0.078 C 
ATOM      3  C1  OXE d   1       4.266   1.792   0.377  0.00  0.00    -0.078 A 
ATOM      4  C2  OXE d   1       4.405   2.120  -0.950  0.00  0.00    -0.078 A 
ATOM      5  C3  OXE d   1       3.871   1.283  -1.926  0.00  0.00     0.003 A 
ATOM      6  C4  OXE d   1       3.064   0.197  -1.565  0.00  0.00    -0.002 A 
ATOM      7  C5  OXE d   1       2.878  -0.132  -0.218  0.00  0.00    -0.002 A 
ATOM      8  C6  OXE d   1       3.505   0.629   0.763  0.00  0.00     0.003 A 
ENDROOT
TORSDOF 0
ENDMDL
