MODEL 1
REMARK minimizedAffinity 6.81557894
REMARK minimizedRMSD -1
REMARK  0 active torsions:
REMARK  status: ('A' for Active; 'I' for Inactive)
ROOT
ATOM      1  C2' OXE d   1       4.726   3.093  -1.246  0.00  0.00     0.078 C 
ATOM      2  C1' OXE d   1       4.567   2.630   1.518  0.00  0.00     0.078 C 
ATOM      3  C1  OXE d   1       3.878   1.651   0.600  0.00  0.00    -0.078 A 
ATOM      4  C2  OXE d   1       3.922   1.912  -0.749  0.00  0.00    -0.078 A 
ATOM      5  C3  OXE d   1       3.350   1.012  -1.643  0.00  0.00     0.003 A 
ATOM      6  C4  OXE d   1       2.599  -0.074  -1.175  0.00  0.00    -0.002 A 
ATOM      7  C5  OXE d   1       2.509  -0.335   0.197  0.00  0.00    -0.002 A 
ATOM      8  C6  OXE d   1       3.177   0.492   1.093  0.00  0.00     0.003 A 
ENDROOT
TORSDOF 0
ENDMDL
