MODEL 1
REMARK minimizedAffinity -0.0896505192
REMARK minimizedRMSD -1
REMARK  0 active torsions:
REMARK  status: ('A' for Active; 'I' for Inactive)
ROOT
ATOM      1  C   UNL d   1      -5.461   3.805  -3.278  0.00  0.00     0.020 A 
ATOM      2  C1  UNL d   1      -4.226   4.452  -3.245  0.00  0.00     0.020 A 
ATOM      3  C2  UNL d   1      -3.046   3.709  -3.324  0.00  0.00     0.034 A 
ATOM      4  C3  UNL d   1      -3.099   2.315  -3.437  0.00  0.00     0.017 A 
ATOM      5  C4  UNL d   1      -4.339   1.667  -3.470  0.00  0.00     0.017 A 
ATOM      6  C5  UNL d   1      -5.517   2.416  -3.391  0.00  0.00     0.034 A 
ATOM      7 Cl   UNL d   1      -4.484  -0.050  -3.608  0.00  0.00    -0.070 Cl
ATOM      8 Cl1  UNL d   1      -1.601   1.459  -3.530  0.00  0.00    -0.070 Cl
ENDROOT
TORSDOF 0
ENDMDL
