MODEL 1
REMARK minimizedAffinity 4.07123566
REMARK minimizedRMSD -1
REMARK  0 active torsions:
REMARK  status: ('A' for Active; 'I' for Inactive)
ROOT
ATOM      1  C   UNL d   1       3.747  -3.519   1.093  0.00  0.00     0.020 A 
ATOM      2  C1  UNL d   1       3.564  -4.870   1.387  0.00  0.00     0.020 A 
ATOM      3  C2  UNL d   1       2.621  -5.617   0.679  0.00  0.00     0.034 A 
ATOM      4  C3  UNL d   1       1.858  -5.015  -0.328  0.00  0.00     0.017 A 
ATOM      5  C4  UNL d   1       2.043  -3.659  -0.624  0.00  0.00     0.017 A 
ATOM      6  C5  UNL d   1       2.989  -2.916   0.089  0.00  0.00     0.034 A 
ATOM      7 Cl   UNL d   1       1.139  -2.847  -1.852  0.00  0.00    -0.070 Cl
ATOM      8 Cl1  UNL d   1       0.711  -6.000  -1.165  0.00  0.00    -0.070 Cl
ENDROOT
TORSDOF 0
ENDMDL
