MODEL 1
REMARK minimizedAffinity 5.31809664
REMARK minimizedRMSD -1
REMARK  0 active torsions:
REMARK  status: ('A' for Active; 'I' for Inactive)
ROOT
ATOM      1  C   UNL d   1       5.531  -5.839  -5.485  0.00  0.00     0.020 A 
ATOM      2  C1  UNL d   1       4.308  -5.971  -4.829  0.00  0.00     0.020 A 
ATOM      3  C2  UNL d   1       3.553  -4.837  -4.525  0.00  0.00     0.034 A 
ATOM      4  C3  UNL d   1       4.020  -3.565  -4.876  0.00  0.00     0.017 A 
ATOM      5  C4  UNL d   1       5.248  -3.433  -5.534  0.00  0.00     0.017 A 
ATOM      6  C5  UNL d   1       6.000  -4.573  -5.837  0.00  0.00     0.034 A 
ATOM      7 Cl   UNL d   1       5.890  -1.897  -6.000  0.00  0.00    -0.070 Cl
ATOM      8 Cl1  UNL d   1       3.034  -2.206  -4.468  0.00  0.00    -0.070 Cl
ENDROOT
TORSDOF 0
ENDMDL
