MODEL 1
REMARK minimizedAffinity 11.4528131
REMARK minimizedRMSD -1
REMARK  0 active torsions:
REMARK  status: ('A' for Active; 'I' for Inactive)
ROOT
ATOM      1  C   UNL d   1       4.288  -3.516   1.433  0.00  0.00     0.020 A 
ATOM      2  C1  UNL d   1       4.497  -4.187   2.637  0.00  0.00     0.020 A 
ATOM      3  C2  UNL d   1       3.779  -3.817   3.776  0.00  0.00     0.034 A 
ATOM      4  C3  UNL d   1       2.849  -2.773   3.714  0.00  0.00     0.017 A 
ATOM      5  C4  UNL d   1       2.639  -2.100   2.505  0.00  0.00     0.017 A 
ATOM      6  C5  UNL d   1       3.361  -2.475   1.367  0.00  0.00     0.034 A 
ATOM      7 Cl   UNL d   1       1.509  -0.802   2.350  0.00  0.00    -0.070 Cl
ATOM      8 Cl1  UNL d   1       1.996  -2.369   5.161  0.00  0.00    -0.070 Cl
ENDROOT
TORSDOF 0
ENDMDL
