MODEL 1
REMARK minimizedAffinity 8.88126755
REMARK minimizedRMSD -1
REMARK  0 active torsions:
REMARK  status: ('A' for Active; 'I' for Inactive)
ROOT
ATOM      1  C   UNL d   1      -1.910  -0.129  -2.178  0.00  0.00     0.020 A 
ATOM      2  C1  UNL d   1      -1.880   1.177  -1.691  0.00  0.00     0.020 A 
ATOM      3  C2  UNL d   1      -2.925   2.056  -1.985  0.00  0.00     0.034 A 
ATOM      4  C3  UNL d   1      -4.004   1.630  -2.768  0.00  0.00     0.017 A 
ATOM      5  C4  UNL d   1      -4.033   0.319  -3.256  0.00  0.00     0.017 A 
ATOM      6  C5  UNL d   1      -2.984  -0.557  -2.959  0.00  0.00     0.034 A 
ATOM      7 Cl   UNL d   1      -5.331  -0.280  -4.229  0.00  0.00    -0.070 Cl
ATOM      8 Cl1  UNL d   1      -5.261   2.770  -3.092  0.00  0.00    -0.070 Cl
ENDROOT
TORSDOF 0
ENDMDL
