MODEL 1
REMARK minimizedAffinity 2.81717992
REMARK minimizedRMSD -1
REMARK  0 active torsions:
REMARK  status: ('A' for Active; 'I' for Inactive)
ROOT
ATOM      1  C   UNL d   1      -2.624  -4.391   0.953  0.00  0.00     0.020 A 
ATOM      2  C1  UNL d   1      -2.477  -3.022   0.734  0.00  0.00     0.020 A 
ATOM      3  C2  UNL d   1      -1.442  -2.551  -0.076  0.00  0.00     0.034 A 
ATOM      4  C3  UNL d   1      -0.550  -3.451  -0.672  0.00  0.00     0.017 A 
ATOM      5  C4  UNL d   1      -0.699  -4.825  -0.452  0.00  0.00     0.017 A 
ATOM      6  C5  UNL d   1      -1.737  -5.291   0.361  0.00  0.00     0.034 A 
ATOM      7 Cl   UNL d   1       0.363  -5.996  -1.152  0.00  0.00    -0.070 Cl
ATOM      8 Cl1  UNL d   1       0.707  -2.799  -1.663  0.00  0.00    -0.070 Cl
ENDROOT
TORSDOF 0
ENDMDL
