MODEL 1
REMARK minimizedAffinity -5.09173965
REMARK minimizedRMSD -1
REMARK  0 active torsions:
REMARK  status: ('A' for Active; 'I' for Inactive)
ROOT
ATOM      1  C   UNL d   1       3.101  -0.569   1.693  0.00  0.00     0.020 A 
ATOM      2  C1  UNL d   1       2.196  -1.628   1.632  0.00  0.00     0.020 A 
ATOM      3  C2  UNL d   1       0.991  -1.477   0.944  0.00  0.00     0.034 A 
ATOM      4  C3  UNL d   1       0.687  -0.265   0.313  0.00  0.00     0.017 A 
ATOM      5  C4  UNL d   1       1.596   0.798   0.375  0.00  0.00     0.017 A 
ATOM      6  C5  UNL d   1       2.801   0.641   1.066  0.00  0.00     0.034 A 
ATOM      7 Cl   UNL d   1       1.291   2.323  -0.378  0.00  0.00    -0.070 Cl
ATOM      8 Cl1  UNL d   1      -0.822  -0.149  -0.521  0.00  0.00    -0.070 Cl
ENDROOT
TORSDOF 0
ENDMDL
