MODEL 1
REMARK minimizedAffinity 2.08583426
REMARK minimizedRMSD -1
REMARK  1 active torsions:
REMARK  status: ('A' for Active; 'I' for Inactive)
REMARK    1  A    between atoms: N_2  and  C1_3 
ROOT
ATOM      1  C1  UNL d   1       5.237   4.154   0.472  0.00  0.00     0.143 A 
ATOM      2  C2  UNL d   1       3.860   4.061   0.242  0.00  0.00    -0.057 A 
ATOM      3  C3  UNL d   1       3.258   2.840  -0.084  0.00  0.00     0.033 A 
ATOM      4  C4  UNL d   1       4.031   1.690  -0.216  0.00  0.00    -0.042 A 
ATOM      5  C5  UNL d   1       5.405   1.764  -0.017  0.00  0.00     0.033 A 
ATOM      6  C6  UNL d   1       5.999   2.985   0.316  0.00  0.00    -0.057 A 
ENDROOT
BRANCH   1   7
ATOM      7  N   UNL d   1       5.908   5.357   0.703  0.00  0.00    -0.732 N 
ATOM      8  C   UNL d   1       5.847   5.998   1.999  0.00  0.00     0.284 C 
ATOM      9  H3  UNL d   1       6.830   5.376   0.272  0.00  0.00     0.395 HD
ENDBRANCH   1   7
TORSDOF 1
ENDMDL
