MODEL 1
REMARK minimizedAffinity -3.75659609
REMARK minimizedRMSD -1
REMARK  1 active torsions:
REMARK  status: ('A' for Active; 'I' for Inactive)
REMARK    1  A    between atoms: N_2  and  C1_3 
ROOT
ATOM      1  C1  UNL d   1       1.494  -0.313  -0.924  0.00  0.00     0.143 A 
ATOM      2  C2  UNL d   1       1.730   1.053  -1.107  0.00  0.00    -0.057 A 
ATOM      3  C3  UNL d   1       0.829   2.015  -0.634  0.00  0.00     0.033 A 
ATOM      4  C4  UNL d   1      -0.342   1.625   0.008  0.00  0.00    -0.042 A 
ATOM      5  C5  UNL d   1      -0.609   0.271   0.179  0.00  0.00     0.033 A 
ATOM      6  C6  UNL d   1       0.298  -0.685  -0.290  0.00  0.00    -0.057 A 
ENDROOT
BRANCH   1   7
ATOM      7  N   UNL d   1       2.302  -1.320  -1.458  0.00  0.00    -0.732 N 
ATOM      8  C   UNL d   1       1.731  -2.364  -2.283  0.00  0.00     0.284 C 
ATOM      9  H3  UNL d   1       3.194  -0.965  -1.795  0.00  0.00     0.395 HD
ENDBRANCH   1   7
TORSDOF 1
ENDMDL
