MODEL 1
REMARK minimizedAffinity -5.05704689
REMARK minimizedRMSD -1
REMARK  1 active torsions:
REMARK  status: ('A' for Active; 'I' for Inactive)
REMARK    1  A    between atoms: N_2  and  C1_3 
ROOT
ATOM      1  C1  UNL d   1       0.411  -0.219  -0.071  0.00  0.00     0.143 A 
ATOM      2  C2  UNL d   1       0.935  -1.516  -0.057  0.00  0.00    -0.057 A 
ATOM      3  C3  UNL d   1       2.189  -1.799  -0.612  0.00  0.00     0.033 A 
ATOM      4  C4  UNL d   1       2.930  -0.791  -1.220  0.00  0.00    -0.042 A 
ATOM      5  C5  UNL d   1       2.418   0.501  -1.269  0.00  0.00     0.033 A 
ATOM      6  C6  UNL d   1       1.168   0.778  -0.706  0.00  0.00    -0.057 A 
ENDROOT
BRANCH   1   7
ATOM      7  N   UNL d   1      -0.872   0.106   0.376  0.00  0.00    -0.732 N 
ATOM      8  C   UNL d   1      -1.058   0.848   1.605  0.00  0.00     0.284 C 
ATOM      9  H3  UNL d   1      -1.486   0.396  -0.381  0.00  0.00     0.395 HD
ENDBRANCH   1   7
TORSDOF 1
ENDMDL
