MODEL 1
REMARK minimizedAffinity 1.04511189
REMARK minimizedRMSD -1
REMARK  1 active torsions:
REMARK  status: ('A' for Active; 'I' for Inactive)
REMARK    1  A    between atoms: N_2  and  C1_3 
ROOT
ATOM      1  C1  UNL d   1      -0.221  -0.170   1.694  0.00  0.00     0.143 A 
ATOM      2  C2  UNL d   1       0.962   0.479   1.323  0.00  0.00    -0.057 A 
ATOM      3  C3  UNL d   1       1.385   0.511  -0.011  0.00  0.00     0.033 A 
ATOM      4  C4  UNL d   1       0.645  -0.134  -0.997  0.00  0.00    -0.042 A 
ATOM      5  C5  UNL d   1      -0.521  -0.806  -0.648  0.00  0.00     0.033 A 
ATOM      6  C6  UNL d   1      -0.941  -0.828   0.686  0.00  0.00    -0.057 A 
ENDROOT
BRANCH   1   7
ATOM      7  N   UNL d   1      -0.643  -0.320   3.017  0.00  0.00    -0.732 N 
ATOM      8  C   UNL d   1      -1.426   0.712   3.663  0.00  0.00     0.284 C 
ATOM      9  H3  UNL d   1      -0.956  -1.267   3.220  0.00  0.00     0.395 HD
ENDBRANCH   1   7
TORSDOF 1
ENDMDL
