MODEL 1
REMARK minimizedAffinity -4.38767624
REMARK minimizedRMSD -1
REMARK  1 active torsions:
REMARK  status: ('A' for Active; 'I' for Inactive)
REMARK    1  A    between atoms: N_2  and  C1_3 
ROOT
ATOM      1  C1  UNL d   1       0.439   0.024  -0.500  0.00  0.00     0.143 A 
ATOM      2  C2  UNL d   1       0.470  -1.352  -0.749  0.00  0.00    -0.057 A 
ATOM      3  C3  UNL d   1       1.573  -1.954  -1.367  0.00  0.00     0.033 A 
ATOM      4  C4  UNL d   1       2.656  -1.182  -1.775  0.00  0.00    -0.042 A 
ATOM      5  C5  UNL d   1       2.636   0.192  -1.561  0.00  0.00     0.033 A 
ATOM      6  C6  UNL d   1       1.535   0.786  -0.937  0.00  0.00    -0.057 A 
ENDROOT
BRANCH   1   7
ATOM      7  N   UNL d   1      -0.669   0.695   0.021  0.00  0.00    -0.732 N 
ATOM      8  C   UNL d   1      -1.090   0.473   1.388  0.00  0.00     0.284 C 
ATOM      9  H3  UNL d   1      -0.707   1.669  -0.272  0.00  0.00     0.395 HD
ENDBRANCH   1   7
TORSDOF 1
ENDMDL
