MODEL 1
REMARK minimizedAffinity -5.56658983
REMARK minimizedRMSD -1
REMARK  1 active torsions:
REMARK  status: ('A' for Active; 'I' for Inactive)
REMARK    1  A    between atoms: N_2  and  C1_3 
ROOT
ATOM      1  C1  UNL d   1       0.306   0.362  -0.592  0.00  0.00     0.143 A 
ATOM      2  C2  UNL d   1       1.303  -0.602  -0.405  0.00  0.00    -0.057 A 
ATOM      3  C3  UNL d   1       2.485  -0.578  -1.155  0.00  0.00     0.033 A 
ATOM      4  C4  UNL d   1       2.680   0.397  -2.128  0.00  0.00    -0.042 A 
ATOM      5  C5  UNL d   1       1.692   1.350  -2.347  0.00  0.00     0.033 A 
ATOM      6  C6  UNL d   1       0.516   1.325  -1.591  0.00  0.00    -0.057 A 
ENDROOT
BRANCH   1   7
ATOM      7  N   UNL d   1      -0.933   0.334   0.052  0.00  0.00    -0.732 N 
ATOM      8  C   UNL d   1      -1.015   0.396   1.496  0.00  0.00     0.284 C 
ATOM      9  H3  UNL d   1      -1.634   0.894  -0.429  0.00  0.00     0.395 HD
ENDBRANCH   1   7
TORSDOF 1
ENDMDL
