MODEL 1
REMARK minimizedAffinity -4.89662409
REMARK minimizedRMSD -1
REMARK  1 active torsions:
REMARK  status: ('A' for Active; 'I' for Inactive)
REMARK    1  A    between atoms: N_2  and  C1_3 
ROOT
ATOM      1  C1  UNL d   1       0.062   0.758  -0.480  0.00  0.00     0.143 A 
ATOM      2  C2  UNL d   1       1.112  -0.148  -0.294  0.00  0.00    -0.057 A 
ATOM      3  C3  UNL d   1       2.300  -0.043  -1.027  0.00  0.00     0.033 A 
ATOM      4  C4  UNL d   1       2.449   0.956  -1.983  0.00  0.00    -0.042 A 
ATOM      5  C5  UNL d   1       1.409   1.853  -2.202  0.00  0.00     0.033 A 
ATOM      6  C6  UNL d   1       0.227   1.746  -1.463  0.00  0.00    -0.057 A 
ENDROOT
BRANCH   1   7
ATOM      7  N   UNL d   1      -1.181   0.647   0.147  0.00  0.00    -0.732 N 
ATOM      8  C   UNL d   1      -1.349   1.049   1.527  0.00  0.00     0.284 C 
ATOM      9  H3  UNL d   1      -1.949   0.920  -0.462  0.00  0.00     0.395 HD
ENDBRANCH   1   7
TORSDOF 1
ENDMDL
