MODEL 1
REMARK minimizedAffinity -4.53202534
REMARK minimizedRMSD -1
REMARK  1 active torsions:
REMARK  status: ('A' for Active; 'I' for Inactive)
REMARK    1  A    between atoms: N_2  and  C1_3 
ROOT
ATOM      1  C1  UNL d   1       0.996  -0.088  -0.674  0.00  0.00     0.143 A 
ATOM      2  C2  UNL d   1       2.186  -0.779  -0.927  0.00  0.00    -0.057 A 
ATOM      3  C3  UNL d   1       3.160  -0.257  -1.787  0.00  0.00     0.033 A 
ATOM      4  C4  UNL d   1       2.946   0.956  -2.434  0.00  0.00    -0.042 A 
ATOM      5  C5  UNL d   1       1.760   1.647  -2.218  0.00  0.00     0.033 A 
ATOM      6  C6  UNL d   1       0.794   1.124  -1.352  0.00  0.00    -0.057 A 
ENDROOT
BRANCH   1   7
ATOM      7  N   UNL d   1      -0.053  -0.601   0.094  0.00  0.00    -0.732 N 
ATOM      8  C   UNL d   1      -1.194   0.224   0.427  0.00  0.00     0.284 C 
ATOM      9  H3  UNL d   1      -0.291  -1.556  -0.163  0.00  0.00     0.395 HD
ENDBRANCH   1   7
TORSDOF 1
ENDMDL
