MODEL 1
REMARK minimizedAffinity 2.22709942
REMARK minimizedRMSD -1
REMARK  1 active torsions:
REMARK  status: ('A' for Active; 'I' for Inactive)
REMARK    1  A    between atoms: N_2  and  C1_3 
ROOT
ATOM      1  C1  UNL d   1      -2.982  -1.068   3.499  0.00  0.00     0.143 A 
ATOM      2  C2  UNL d   1      -2.508  -0.807   2.209  0.00  0.00    -0.057 A 
ATOM      3  C3  UNL d   1      -2.058   0.468   1.846  0.00  0.00     0.033 A 
ATOM      4  C4  UNL d   1      -2.102   1.515   2.760  0.00  0.00    -0.042 A 
ATOM      5  C5  UNL d   1      -2.593   1.284   4.041  0.00  0.00     0.033 A 
ATOM      6  C6  UNL d   1      -3.035   0.007   4.400  0.00  0.00    -0.057 A 
ENDROOT
BRANCH   1   7
ATOM      7  N   UNL d   1      -3.535  -2.290   3.892  0.00  0.00    -0.732 N 
ATOM      8  C   UNL d   1      -4.955  -2.410   4.143  0.00  0.00     0.284 C 
ATOM      9  H3  UNL d   1      -3.134  -3.077   3.389  0.00  0.00     0.395 HD
ENDBRANCH   1   7
TORSDOF 1
ENDMDL
