MODEL 1
REMARK minimizedAffinity -4.40773392
REMARK minimizedRMSD -1
REMARK  1 active torsions:
REMARK  status: ('A' for Active; 'I' for Inactive)
REMARK    1  A    between atoms: N_2  and  C1_3 
ROOT
ATOM      1  C1  UNL d   1      -0.011  -0.517  -0.029  0.00  0.00     0.143 A 
ATOM      2  C2  UNL d   1       0.351  -1.662  -0.747  0.00  0.00    -0.057 A 
ATOM      3  C3  UNL d   1       1.438  -1.652  -1.630  0.00  0.00     0.033 A 
ATOM      4  C4  UNL d   1       2.166  -0.485  -1.833  0.00  0.00    -0.042 A 
ATOM      5  C5  UNL d   1       1.809   0.672  -1.149  0.00  0.00     0.033 A 
ATOM      6  C6  UNL d   1       0.727   0.654  -0.263  0.00  0.00    -0.057 A 
ENDROOT
BRANCH   1   7
ATOM      7  N   UNL d   1      -1.141  -0.436   0.788  0.00  0.00    -0.732 N 
ATOM      8  C   UNL d   1      -1.499   0.811   1.429  0.00  0.00     0.284 C 
ATOM      9  H3  UNL d   1      -1.932  -0.952   0.409  0.00  0.00     0.395 HD
ENDBRANCH   1   7
TORSDOF 1
ENDMDL
