MODEL 1
REMARK minimizedAffinity -4.7023263
REMARK minimizedRMSD -1
REMARK  1 active torsions:
REMARK  status: ('A' for Active; 'I' for Inactive)
REMARK    1  A    between atoms: N_2  and  C1_3 
ROOT
ATOM      1  C1  UNL d   1       0.360  -0.684  -0.120  0.00  0.00     0.143 A 
ATOM      2  C2  UNL d   1       0.701  -1.668  -1.054  0.00  0.00    -0.057 A 
ATOM      3  C3  UNL d   1       2.015  -1.807  -1.516  0.00  0.00     0.033 A 
ATOM      4  C4  UNL d   1       3.010  -0.942  -1.072  0.00  0.00    -0.042 A 
ATOM      5  C5  UNL d   1       2.689   0.060  -0.163  0.00  0.00     0.033 A 
ATOM      6  C6  UNL d   1       1.376   0.189   0.300  0.00  0.00    -0.057 A 
ENDROOT
BRANCH   1   7
ATOM      7  N   UNL d   1      -0.947  -0.432   0.303  0.00  0.00    -0.732 N 
ATOM      8  C   UNL d   1      -1.198   0.268   1.545  0.00  0.00     0.284 C 
ATOM      9  H3  UNL d   1      -1.556  -0.151  -0.462  0.00  0.00     0.395 HD
ENDBRANCH   1   7
TORSDOF 1
ENDMDL
