MODEL 1
REMARK minimizedAffinity -6.13538265
REMARK minimizedRMSD -1
REMARK  2 active torsions:
REMARK  status: ('A' for Active; 'I' for Inactive)
REMARK    1  A    between atoms: C2'_3  and  C1'_4 
REMARK    2  A    between atoms: C1'_4  and  C1_5 
ROOT
ATOM      1  C1  I4B d   1      -0.600  -0.517   0.089  0.00  0.00    -0.075 A 
ATOM      2  C2  I4B d   1       0.299  -1.293  -0.599  0.00  0.00     0.003 A 
ATOM      3  C3  I4B d   1      -0.140  -2.444  -1.297  0.00  0.00     0.002 A 
ATOM      4  C4  I4B d   1      -1.469  -2.808  -1.239  0.00  0.00    -0.004 A 
ATOM      5  C5  I4B d   1      -2.384  -2.008  -0.560  0.00  0.00     0.002 A 
ATOM      6  C6  I4B d   1      -1.949  -0.848   0.098  0.00  0.00     0.003 A 
ENDROOT
BRANCH   1   7
ATOM      7  C1' I4B d   1      -0.097   0.673   0.842  0.00  0.00     0.060 C 
BRANCH   7   8
ATOM      8  C2' I4B d   1      -0.422   0.470   2.308  0.00  0.00    -0.013 C 
ATOM      9  C4' I4B d   1       0.776  -0.034   3.067  0.00  0.00     0.013 C 
ATOM     10  C3' I4B d   1      -0.903   1.778   2.861  0.00  0.00     0.013 C 
ENDBRANCH   7   8
ENDBRANCH   1   7
TORSDOF 2
ENDMDL
