MODEL 1
REMARK minimizedAffinity 0.0458138622
REMARK minimizedRMSD -1
REMARK  2 active torsions:
REMARK  status: ('A' for Active; 'I' for Inactive)
REMARK    1  A    between atoms: C2'_3  and  C1'_4 
REMARK    2  A    between atoms: C1'_4  and  C1_5 
ROOT
ATOM      1  C1  I4B d   1      -1.236  -0.710   0.153  0.00  0.00    -0.075 A 
ATOM      2  C2  I4B d   1      -0.023  -0.069   0.132  0.00  0.00     0.003 A 
ATOM      3  C3  I4B d   1       0.369   0.752   1.216  0.00  0.00     0.002 A 
ATOM      4  C4  I4B d   1      -0.500   0.944   2.272  0.00  0.00    -0.004 A 
ATOM      5  C5  I4B d   1      -1.720   0.275   2.302  0.00  0.00     0.002 A 
ATOM      6  C6  I4B d   1      -2.086  -0.567   1.242  0.00  0.00     0.003 A 
ENDROOT
BRANCH   1   7
ATOM      7  C1' I4B d   1      -1.631  -1.545  -1.024  0.00  0.00     0.060 C 
BRANCH   7   8
ATOM      8  C2' I4B d   1      -2.484  -2.691  -0.518  0.00  0.00    -0.013 C 
ATOM      9  C4' I4B d   1      -3.926  -2.512  -0.912  0.00  0.00     0.013 C 
ATOM     10  C3' I4B d   1      -1.924  -3.965  -1.077  0.00  0.00     0.013 C 
ENDBRANCH   7   8
ENDBRANCH   1   7
TORSDOF 2
ENDMDL
