MODEL 1
REMARK minimizedAffinity -3.07091999
REMARK minimizedRMSD -1
REMARK  2 active torsions:
REMARK  status: ('A' for Active; 'I' for Inactive)
REMARK    1  A    between atoms: C2'_3  and  C1'_4 
REMARK    2  A    between atoms: C1'_4  and  C1_5 
ROOT
ATOM      1  C1  I4B d   1       0.614  -0.492  -1.203  0.00  0.00    -0.075 A 
ATOM      2  C2  I4B d   1       1.081   0.480  -2.052  0.00  0.00     0.003 A 
ATOM      3  C3  I4B d   1       1.139   0.241  -3.447  0.00  0.00     0.002 A 
ATOM      4  C4  I4B d   1       0.771  -0.995  -3.940  0.00  0.00    -0.004 A 
ATOM      5  C5  I4B d   1       0.277  -1.971  -3.080  0.00  0.00     0.002 A 
ATOM      6  C6  I4B d   1       0.186  -1.714  -1.704  0.00  0.00     0.003 A 
ENDROOT
BRANCH   1   7
ATOM      7  C1' I4B d   1       0.597  -0.216   0.267  0.00  0.00     0.060 C 
BRANCH   7   8
ATOM      8  C2' I4B d   1      -0.564   0.714   0.554  0.00  0.00    -0.013 C 
ATOM      9  C4' I4B d   1      -1.773  -0.050   1.025  0.00  0.00     0.013 C 
ATOM     10  C3' I4B d   1      -0.117   1.708   1.585  0.00  0.00     0.013 C 
ENDBRANCH   7   8
ENDBRANCH   1   7
TORSDOF 2
ENDMDL
