MODEL 1
REMARK minimizedAffinity 1.49813437
REMARK minimizedRMSD -1
REMARK  2 active torsions:
REMARK  status: ('A' for Active; 'I' for Inactive)
REMARK    1  A    between atoms: C2'_3  and  C1'_4 
REMARK    2  A    between atoms: C1'_4  and  C1_5 
ROOT
ATOM      1  C1  I4B d   1       0.321   0.171  -2.146  0.00  0.00    -0.075 A 
ATOM      2  C2  I4B d   1       1.337   1.091  -2.226  0.00  0.00     0.003 A 
ATOM      3  C3  I4B d   1       1.936   1.384  -3.475  0.00  0.00     0.002 A 
ATOM      4  C4  I4B d   1       1.525   0.703  -4.602  0.00  0.00    -0.004 A 
ATOM      5  C5  I4B d   1       0.479  -0.212  -4.523  0.00  0.00     0.002 A 
ATOM      6  C6  I4B d   1      -0.135  -0.471  -3.289  0.00  0.00     0.003 A 
ENDROOT
BRANCH   1   7
ATOM      7  C1' I4B d   1      -0.267  -0.139  -0.806  0.00  0.00     0.060 C 
BRANCH   7   8
ATOM      8  C2' I4B d   1       0.773   0.188   0.247  0.00  0.00    -0.013 C 
ATOM      9  C4' I4B d   1       0.137   0.786   1.474  0.00  0.00     0.013 C 
ATOM     10  C3' I4B d   1       1.509  -1.075   0.579  0.00  0.00     0.013 C 
ENDBRANCH   7   8
ENDBRANCH   1   7
TORSDOF 2
ENDMDL
