MODEL 1
REMARK minimizedAffinity -0.350607753
REMARK minimizedRMSD -1
REMARK  2 active torsions:
REMARK  status: ('A' for Active; 'I' for Inactive)
REMARK    1  A    between atoms: C2'_3  and  C1'_4 
REMARK    2  A    between atoms: C1'_4  and  C1_5 
ROOT
ATOM      1  C1  I4B d   1      -0.063  -0.301  -0.183  0.00  0.00    -0.075 A 
ATOM      2  C2  I4B d   1      -0.114   1.044  -0.453  0.00  0.00     0.003 A 
ATOM      3  C3  I4B d   1       0.336   1.981   0.509  0.00  0.00     0.002 A 
ATOM      4  C4  I4B d   1       0.778   1.535   1.738  0.00  0.00    -0.004 A 
ATOM      5  C5  I4B d   1       0.850   0.170   2.000  0.00  0.00     0.002 A 
ATOM      6  C6  I4B d   1       0.439  -0.755   1.029  0.00  0.00     0.003 A 
ENDROOT
BRANCH   1   7
ATOM      7  C1' I4B d   1      -0.577  -1.261  -1.209  0.00  0.00     0.060 C 
BRANCH   7   8
ATOM      8  C2' I4B d   1      -1.836  -1.900  -0.661  0.00  0.00    -0.013 C 
ATOM      9  C4' I4B d   1      -2.866  -0.859  -0.306  0.00  0.00     0.013 C 
ATOM     10  C3' I4B d   1      -2.361  -2.851  -1.695  0.00  0.00     0.013 C 
ENDBRANCH   7   8
ENDBRANCH   1   7
TORSDOF 2
ENDMDL
