MODEL 1
REMARK minimizedAffinity -1.18725359
REMARK minimizedRMSD -1
REMARK  2 active torsions:
REMARK  status: ('A' for Active; 'I' for Inactive)
REMARK    1  A    between atoms: C2'_3  and  C1'_4 
REMARK    2  A    between atoms: C1'_4  and  C1_5 
ROOT
ATOM      1  C1  I4B d   1       0.311  -0.880   0.151  0.00  0.00    -0.075 A 
ATOM      2  C2  I4B d   1       0.012  -1.251   1.438  0.00  0.00     0.003 A 
ATOM      3  C3  I4B d   1      -0.022  -0.282   2.470  0.00  0.00     0.002 A 
ATOM      4  C4  I4B d   1       0.298   1.029   2.181  0.00  0.00    -0.004 A 
ATOM      5  C5  I4B d   1       0.578   1.407   0.871  0.00  0.00     0.002 A 
ATOM      6  C6  I4B d   1       0.573   0.449  -0.153  0.00  0.00     0.003 A 
ENDROOT
BRANCH   1   7
ATOM      7  C1' I4B d   1       0.369  -1.935  -0.908  0.00  0.00     0.060 C 
BRANCH   7   8
ATOM      8  C2' I4B d   1      -0.781  -1.700  -1.866  0.00  0.00    -0.013 C 
ATOM      9  C4' I4B d   1      -0.346  -1.881  -3.296  0.00  0.00     0.013 C 
ATOM     10  C3' I4B d   1      -1.882  -2.654  -1.510  0.00  0.00     0.013 C 
ENDBRANCH   7   8
ENDBRANCH   1   7
TORSDOF 2
ENDMDL
