MODEL 1
REMARK minimizedAffinity -1.62194574
REMARK minimizedRMSD -1
REMARK  1 active torsions:
REMARK  status: ('A' for Active; 'I' for Inactive)
REMARK    1  A    between atoms: C1_2  and  C2_3 
ROOT
ATOM      1  C2  UNL d   1      -0.326  -1.522   0.028  0.00  0.00    -0.081 A 
ATOM      2  C3  UNL d   1      -1.548  -0.848   0.144  0.00  0.00     0.006 A 
ATOM      3  C4  UNL d   1      -1.579   0.516   0.444  0.00  0.00     0.002 A 
ATOM      4  C5  UNL d   1      -0.389   1.230   0.624  0.00  0.00    -0.080 A 
ATOM      5  C6  UNL d   1      -0.407   2.702   0.916  0.00  0.00     0.076 C 
ATOM      6  C7  UNL d   1       0.831   0.554   0.524  0.00  0.00     0.002 A 
ATOM      7  C8  UNL d   1       0.863  -0.810   0.226  0.00  0.00     0.006 A 
ENDROOT
BRANCH   1   8
ATOM      8  C1  UNL d   1      -0.288  -2.978  -0.359  0.00  0.00     0.054 C 
ATOM      9  C   UNL d   1      -0.083  -3.148  -1.858  0.00  0.00     0.018 C 
ENDBRANCH   1   8
TORSDOF 1
ENDMDL
