MODEL 1
REMARK minimizedAffinity -4.22870159
REMARK minimizedRMSD -1
REMARK  1 active torsions:
REMARK  status: ('A' for Active; 'I' for Inactive)
REMARK    1  A    between atoms: C1_2  and  C2_3 
ROOT
ATOM      1  C2  UNL d   1      -0.148  -0.628   0.082  0.00  0.00    -0.081 A 
ATOM      2  C3  UNL d   1      -1.205   0.241   0.382  0.00  0.00     0.006 A 
ATOM      3  C4  UNL d   1      -1.007   1.624   0.379  0.00  0.00     0.002 A 
ATOM      4  C5  UNL d   1       0.247   2.161   0.071  0.00  0.00    -0.080 A 
ATOM      5  C6  UNL d   1       0.465   3.645   0.035  0.00  0.00     0.076 C 
ATOM      6  C7  UNL d   1       1.307   1.293  -0.211  0.00  0.00     0.002 A 
ATOM      7  C8  UNL d   1       1.111  -0.090  -0.209  0.00  0.00     0.006 A 
ENDROOT
BRANCH   1   8
ATOM      8  C1  UNL d   1      -0.373  -2.117   0.020  0.00  0.00     0.054 C 
ATOM      9  C   UNL d   1      -0.458  -2.604  -1.419  0.00  0.00     0.018 C 
ENDBRANCH   1   8
TORSDOF 1
ENDMDL
