MODEL 1
REMARK minimizedAffinity -1.73855972
REMARK minimizedRMSD -1
REMARK  1 active torsions:
REMARK  status: ('A' for Active; 'I' for Inactive)
REMARK    1  A    between atoms: C1_2  and  C2_3 
ROOT
ATOM      1  C2  UNL d   1       0.162  -0.872  -0.328  0.00  0.00    -0.081 A 
ATOM      2  C3  UNL d   1       1.474  -0.383  -0.293  0.00  0.00     0.006 A 
ATOM      3  C4  UNL d   1       1.714   0.990  -0.202  0.00  0.00     0.002 A 
ATOM      4  C5  UNL d   1       0.649   1.895  -0.136  0.00  0.00    -0.080 A 
ATOM      5  C6  UNL d   1       0.894   3.369  -0.008  0.00  0.00     0.076 C 
ATOM      6  C7  UNL d   1      -0.661   1.407  -0.189  0.00  0.00     0.002 A 
ATOM      7  C8  UNL d   1      -0.902   0.034  -0.280  0.00  0.00     0.006 A 
ENDROOT
BRANCH   1   8
ATOM      8  C1  UNL d   1      -0.101  -2.356  -0.361  0.00  0.00     0.054 C 
ATOM      9  C   UNL d   1      -0.394  -2.835  -1.775  0.00  0.00     0.018 C 
ENDBRANCH   1   8
TORSDOF 1
ENDMDL
