MODEL 1
REMARK minimizedAffinity -3.49508667
REMARK minimizedRMSD -1
REMARK  1 active torsions:
REMARK  status: ('A' for Active; 'I' for Inactive)
REMARK    1  A    between atoms: C1_2  and  C2_3 
ROOT
ATOM      1  C2  UNL d   1       0.919   1.053  -0.033  0.00  0.00    -0.081 A 
ATOM      2  C3  UNL d   1       0.311   2.307   0.113  0.00  0.00     0.006 A 
ATOM      3  C4  UNL d   1      -1.055   2.404   0.388  0.00  0.00     0.002 A 
ATOM      4  C5  UNL d   1      -1.834   1.251   0.529  0.00  0.00    -0.080 A 
ATOM      5  C6  UNL d   1      -3.296   1.341   0.854  0.00  0.00     0.076 C 
ATOM      6  C7  UNL d   1      -1.231  -0.001   0.366  0.00  0.00     0.002 A 
ATOM      7  C8  UNL d   1       0.134  -0.099   0.091  0.00  0.00     0.006 A 
ENDROOT
BRANCH   1   8
ATOM      8  C1  UNL d   1       2.404   0.944  -0.265  0.00  0.00     0.054 C 
ATOM      9  C   UNL d   1       3.005  -0.206   0.531  0.00  0.00     0.018 C 
ENDBRANCH   1   8
TORSDOF 1
ENDMDL
