MODEL 1
REMARK minimizedAffinity -5.4889102
REMARK minimizedRMSD -1
REMARK  1 active torsions:
REMARK  status: ('A' for Active; 'I' for Inactive)
REMARK    1  A    between atoms: C1_2  and  C2_3 
ROOT
ATOM      1  C2  UNL d   1       0.089  -0.632   0.171  0.00  0.00    -0.081 A 
ATOM      2  C3  UNL d   1      -1.055   0.170   0.258  0.00  0.00     0.006 A 
ATOM      3  C4  UNL d   1      -0.951   1.562   0.199  0.00  0.00     0.002 A 
ATOM      4  C5  UNL d   1       0.297   2.174   0.045  0.00  0.00    -0.080 A 
ATOM      5  C6  UNL d   1       0.420   3.666  -0.050  0.00  0.00     0.076 C 
ATOM      6  C7  UNL d   1       1.443   1.374  -0.025  0.00  0.00     0.002 A 
ATOM      7  C8  UNL d   1       1.339  -0.018   0.034  0.00  0.00     0.006 A 
ENDROOT
BRANCH   1   8
ATOM      8  C1  UNL d   1      -0.026  -2.135   0.169  0.00  0.00     0.054 C 
ATOM      9  C   UNL d   1      -0.434  -2.656  -1.202  0.00  0.00     0.018 C 
ENDBRANCH   1   8
TORSDOF 1
ENDMDL
