MODEL 1
REMARK minimizedAffinity -4.81226158
REMARK minimizedRMSD -1
REMARK  1 active torsions:
REMARK  status: ('A' for Active; 'I' for Inactive)
REMARK    1  A    between atoms: C1_2  and  C2_3 
ROOT
ATOM      1  C2  UNL d   1      -0.118  -0.907  -0.128  0.00  0.00    -0.081 A 
ATOM      2  C3  UNL d   1       0.874   0.006  -0.508  0.00  0.00     0.006 A 
ATOM      3  C4  UNL d   1       0.739   1.364  -0.210  0.00  0.00     0.002 A 
ATOM      4  C5  UNL d   1      -0.385   1.831   0.480  0.00  0.00    -0.080 A 
ATOM      5  C6  UNL d   1      -0.528   3.281   0.833  0.00  0.00     0.076 C 
ATOM      6  C7  UNL d   1      -1.385   0.922   0.844  0.00  0.00     0.002 A 
ATOM      7  C8  UNL d   1      -1.251  -0.436   0.546  0.00  0.00     0.006 A 
ENDROOT
BRANCH   1   8
ATOM      8  C1  UNL d   1       0.055  -2.381  -0.391  0.00  0.00     0.054 C 
ATOM      9  C   UNL d   1      -0.032  -2.691  -1.879  0.00  0.00     0.018 C 
ENDBRANCH   1   8
TORSDOF 1
ENDMDL
