MODEL 1
REMARK minimizedAffinity -3.54911542
REMARK minimizedRMSD -1
REMARK  1 active torsions:
REMARK  status: ('A' for Active; 'I' for Inactive)
REMARK    1  A    between atoms: C1_2  and  C2_3 
ROOT
ATOM      1  C2  UNL d   1       0.180  -0.054   0.480  0.00  0.00    -0.081 A 
ATOM      2  C3  UNL d   1      -0.828   0.893   0.702  0.00  0.00     0.006 A 
ATOM      3  C4  UNL d   1      -0.605   2.243   0.425  0.00  0.00     0.002 A 
ATOM      4  C5  UNL d   1       0.626   2.669  -0.086  0.00  0.00    -0.080 A 
ATOM      5  C6  UNL d   1       0.869   4.112  -0.416  0.00  0.00     0.076 C 
ATOM      6  C7  UNL d   1       1.639   1.726  -0.291  0.00  0.00     0.002 A 
ATOM      7  C8  UNL d   1       1.417   0.376  -0.014  0.00  0.00     0.006 A 
ENDROOT
BRANCH   1   8
ATOM      8  C1  UNL d   1      -0.080  -1.520   0.717  0.00  0.00     0.054 C 
ATOM      9  C   UNL d   1      -0.135  -2.290  -0.595  0.00  0.00     0.018 C 
ENDBRANCH   1   8
TORSDOF 1
ENDMDL
