MODEL 1
REMARK minimizedAffinity -1.32013607
REMARK minimizedRMSD -1
REMARK  1 active torsions:
REMARK  status: ('A' for Active; 'I' for Inactive)
REMARK    1  A    between atoms: C1_2  and  C2_3 
ROOT
ATOM      1  C2  UNL d   1       0.463   1.625  -0.205  0.00  0.00    -0.081 A 
ATOM      2  C3  UNL d   1      -0.207   2.393   0.755  0.00  0.00     0.006 A 
ATOM      3  C4  UNL d   1      -1.367   1.910   1.366  0.00  0.00     0.002 A 
ATOM      4  C5  UNL d   1      -1.871   0.648   1.033  0.00  0.00    -0.080 A 
ATOM      5  C6  UNL d   1      -3.097   0.105   1.704  0.00  0.00     0.076 C 
ATOM      6  C7  UNL d   1      -1.211  -0.113   0.062  0.00  0.00     0.002 A 
ATOM      7  C8  UNL d   1      -0.052   0.370  -0.550  0.00  0.00     0.006 A 
ENDROOT
BRANCH   1   8
ATOM      8  C1  UNL d   1       1.749   2.116  -0.819  0.00  0.00     0.054 C 
ATOM      9  C   UNL d   1       2.863   1.091  -0.663  0.00  0.00     0.018 C 
ENDBRANCH   1   8
TORSDOF 1
ENDMDL
