MODEL 1
REMARK minimizedAffinity -2.94282079
REMARK minimizedRMSD -1
REMARK  1 active torsions:
REMARK  status: ('A' for Active; 'I' for Inactive)
REMARK    1  A    between atoms: C1_2  and  C2_3 
ROOT
ATOM      1  C2  UNL d   1       0.309  -0.447   0.451  0.00  0.00    -0.081 A 
ATOM      2  C3  UNL d   1      -0.801   0.323   0.820  0.00  0.00     0.006 A 
ATOM      3  C4  UNL d   1      -0.749   1.717   0.752  0.00  0.00     0.002 A 
ATOM      4  C5  UNL d   1       0.409   2.364   0.308  0.00  0.00    -0.080 A 
ATOM      5  C6  UNL d   1       0.467   3.859   0.203  0.00  0.00     0.076 C 
ATOM      6  C7  UNL d   1       1.524   1.596  -0.043  0.00  0.00     0.002 A 
ATOM      7  C8  UNL d   1       1.473   0.202   0.025  0.00  0.00     0.006 A 
ENDROOT
BRANCH   1   8
ATOM      8  C1  UNL d   1       0.235  -1.953   0.461  0.00  0.00     0.054 C 
ATOM      9  C   UNL d   1      -0.334  -2.487  -0.845  0.00  0.00     0.018 C 
ENDBRANCH   1   8
TORSDOF 1
ENDMDL
