MODEL 1
REMARK minimizedAffinity -2.00841308
REMARK minimizedRMSD -1
REMARK  0 active torsions:
REMARK  status: ('A' for Active; 'I' for Inactive)
ROOT
ATOM      1  C1  DEN d   1       0.533  -1.567   0.473  0.00  0.00     0.130 A 
ATOM      2  C2  DEN d   1       0.691  -2.032  -0.902  0.00  0.00    -0.031 A 
ATOM      3  C3  DEN d   1       0.498  -0.876  -1.800  0.00  0.00     0.027 A 
ATOM      4  C4  DEN d   1      -0.021   1.577  -1.197  0.00  0.00     0.027 A 
ATOM      5  C5  DEN d   1      -0.258   2.453  -0.160  0.00  0.00    -0.003 A 
ATOM      6  C6  DEN d   1      -0.280   2.046   1.148  0.00  0.00     0.001 A 
ATOM      7  C7  DEN d   1      -0.018   0.738   1.456  0.00  0.00     0.017 A 
ATOM      8  C8  DEN d   1       0.214  -0.152   0.416  0.00  0.00    -0.094 A 
ATOM      9  C9  DEN d   1       0.244   0.280  -0.899  0.00  0.00    -0.072 A 
ENDROOT
TORSDOF 0
ENDMDL
