MODEL 1
REMARK minimizedAffinity -1.49481452
REMARK minimizedRMSD -1
REMARK  0 active torsions:
REMARK  status: ('A' for Active; 'I' for Inactive)
ROOT
ATOM      1  C1  DEN d   1       1.224  -0.378   2.300  0.00  0.00     0.130 A 
ATOM      2  C2  DEN d   1       0.695   0.823   2.941  0.00  0.00    -0.031 A 
ATOM      3  C3  DEN d   1      -0.182   1.509   1.971  0.00  0.00     0.027 A 
ATOM      4  C4  DEN d   1      -0.773   0.830  -0.446  0.00  0.00     0.027 A 
ATOM      5  C5  DEN d   1      -0.557  -0.106  -1.434  0.00  0.00    -0.003 A 
ATOM      6  C6  DEN d   1       0.288  -1.170  -1.259  0.00  0.00     0.001 A 
ATOM      7  C7  DEN d   1       0.913  -1.350  -0.054  0.00  0.00     0.017 A 
ATOM      8  C8  DEN d   1       0.706  -0.407   0.944  0.00  0.00    -0.094 A 
ATOM      9  C9  DEN d   1      -0.161   0.655   0.753  0.00  0.00    -0.072 A 
ENDROOT
TORSDOF 0
ENDMDL
