MODEL 1
REMARK minimizedAffinity -1.16252387
REMARK minimizedRMSD -1
REMARK  0 active torsions:
REMARK  status: ('A' for Active; 'I' for Inactive)
ROOT
ATOM      1  C1  DEN d   1      -0.023   1.893  -1.874  0.00  0.00     0.130 A 
ATOM      2  C2  DEN d   1      -0.222   3.293  -1.510  0.00  0.00    -0.031 A 
ATOM      3  C3  DEN d   1      -0.324   3.372  -0.039  0.00  0.00     0.027 A 
ATOM      4  C4  DEN d   1      -0.189   1.473   1.701  0.00  0.00     0.027 A 
ATOM      5  C5  DEN d   1      -0.040   0.114   1.870  0.00  0.00    -0.003 A 
ATOM      6  C6  DEN d   1       0.090  -0.744   0.811  0.00  0.00     0.001 A 
ATOM      7  C7  DEN d   1       0.119  -0.247  -0.465  0.00  0.00     0.017 A 
ATOM      8  C8  DEN d   1      -0.038   1.121  -0.645  0.00  0.00    -0.094 A 
ATOM      9  C9  DEN d   1      -0.156   1.973   0.440  0.00  0.00    -0.072 A 
ENDROOT
TORSDOF 0
ENDMDL
