MODEL 1
REMARK minimizedAffinity -4.67066431
REMARK minimizedRMSD -1
REMARK  0 active torsions:
REMARK  status: ('A' for Active; 'I' for Inactive)
ROOT
ATOM      1  C1  DEN d   1       0.221   2.450  -1.386  0.00  0.00     0.130 A 
ATOM      2  C2  DEN d   1      -0.141   3.717  -0.755  0.00  0.00    -0.031 A 
ATOM      3  C3  DEN d   1      -0.319   3.473   0.690  0.00  0.00     0.027 A 
ATOM      4  C4  DEN d   1      -0.066   1.269   2.007  0.00  0.00     0.027 A 
ATOM      5  C5  DEN d   1       0.218  -0.075   1.903  0.00  0.00    -0.003 A 
ATOM      6  C6  DEN d   1       0.487  -0.673   0.700  0.00  0.00     0.001 A 
ATOM      7  C7  DEN d   1       0.523   0.084  -0.441  0.00  0.00     0.017 A 
ATOM      8  C8  DEN d   1       0.230   1.438  -0.345  0.00  0.00    -0.094 A 
ATOM      9  C9  DEN d   1      -0.028   2.026   0.881  0.00  0.00    -0.072 A 
ENDROOT
TORSDOF 0
ENDMDL
