MODEL 1
REMARK minimizedAffinity -3.17919779
REMARK minimizedRMSD -1
REMARK  1 active torsions:
REMARK  status: ('A' for Active; 'I' for Inactive)
REMARK    1  A    between atoms: C1_2  and  C2_3 
ROOT
ATOM      1  C2  UNL d   1       4.516  -2.098  -5.461  0.00  0.00    -0.081 A 
ATOM      2  C3  UNL d   1       5.577  -2.205  -4.554  0.00  0.00     0.006 A 
ATOM      3  C4  UNL d   1       6.000  -3.458  -4.103  0.00  0.00     0.002 A 
ATOM      4  C5  UNL d   1       5.374  -4.624  -4.558  0.00  0.00    -0.080 A 
ATOM      5  C6  UNL d   1       5.838  -5.977  -4.106  0.00  0.00     0.076 C 
ATOM      6  C7  UNL d   1       4.303  -4.516  -5.451  0.00  0.00     0.002 A 
ATOM      7  C8  UNL d   1       3.879  -3.264  -5.901  0.00  0.00     0.006 A 
ENDROOT
BRANCH   1   8
ATOM      8  C1  UNL d   1       4.099  -0.753  -5.998  0.00  0.00     0.054 C 
ATOM      9  C   UNL d   1       5.263   0.229  -5.994  0.00  0.00     0.018 C 
ENDBRANCH   1   8
TORSDOF 1
ENDMDL
