MODEL 1
REMARK minimizedAffinity 2.02297187
REMARK minimizedRMSD -1
REMARK  1 active torsions:
REMARK  status: ('A' for Active; 'I' for Inactive)
REMARK    1  A    between atoms: C1_2  and  C2_3 
ROOT
ATOM      1  C2  UNL d   1       5.110  -4.401  -4.857  0.00  0.00    -0.081 A 
ATOM      2  C3  UNL d   1       5.732  -4.150  -3.628  0.00  0.00     0.006 A 
ATOM      3  C4  UNL d   1       6.000  -2.840  -3.224  0.00  0.00     0.002 A 
ATOM      4  C5  UNL d   1       5.643  -1.759  -4.038  0.00  0.00    -0.080 A 
ATOM      5  C6  UNL d   1       5.897  -0.347  -3.602  0.00  0.00     0.076 C 
ATOM      6  C7  UNL d   1       5.036  -2.010  -5.273  0.00  0.00     0.002 A 
ATOM      7  C8  UNL d   1       4.769  -3.320  -5.678  0.00  0.00     0.006 A 
ENDROOT
BRANCH   1   8
ATOM      8  C1  UNL d   1       4.761  -5.809  -5.266  0.00  0.00     0.054 C 
ATOM      9  C   UNL d   1       3.299  -5.921  -5.673  0.00  0.00     0.018 C 
ENDBRANCH   1   8
TORSDOF 1
ENDMDL
