MODEL 1
REMARK minimizedAffinity -3.11452031
REMARK minimizedRMSD -1
REMARK  1 active torsions:
REMARK  status: ('A' for Active; 'I' for Inactive)
REMARK    1  A    between atoms: C1_2  and  C2_3 
ROOT
ATOM      1  C2  UNL d   1       5.482  -2.115  -5.373  0.00  0.00    -0.081 A 
ATOM      2  C3  UNL d   1       4.730  -2.241  -4.199  0.00  0.00     0.006 A 
ATOM      3  C4  UNL d   1       4.509  -3.498  -3.631  0.00  0.00     0.002 A 
ATOM      4  C5  UNL d   1       5.043  -4.648  -4.222  0.00  0.00    -0.080 A 
ATOM      5  C6  UNL d   1       4.840  -6.000  -3.606  0.00  0.00     0.076 C 
ATOM      6  C7  UNL d   1       5.780  -4.523  -5.405  0.00  0.00     0.002 A 
ATOM      7  C8  UNL d   1       6.000  -3.267  -5.974  0.00  0.00     0.006 A 
ENDROOT
BRANCH   1   8
ATOM      8  C1  UNL d   1       5.775  -0.754  -5.952  0.00  0.00     0.054 C 
ATOM      9  C   UNL d   1       4.532   0.123  -5.963  0.00  0.00     0.018 C 
ENDBRANCH   1   8
TORSDOF 1
ENDMDL
