MODEL 1
REMARK minimizedAffinity -3.90015602
REMARK minimizedRMSD -1
REMARK  1 active torsions:
REMARK  status: ('A' for Active; 'I' for Inactive)
REMARK    1  A    between atoms: C1_2  and  C2_3 
ROOT
ATOM      1  C2  UNL d   1       4.626  -3.930  -5.478  0.00  0.00    -0.081 A 
ATOM      2  C3  UNL d   1       3.489  -3.143  -5.261  0.00  0.00     0.006 A 
ATOM      3  C4  UNL d   1       3.548  -1.756  -5.417  0.00  0.00     0.002 A 
ATOM      4  C5  UNL d   1       4.741  -1.134  -5.800  0.00  0.00    -0.080 A 
ATOM      5  C6  UNL d   1       4.810   0.350  -6.000  0.00  0.00     0.076 C 
ATOM      6  C7  UNL d   1       5.882  -1.919  -6.000  0.00  0.00     0.002 A 
ATOM      7  C8  UNL d   1       5.824  -3.306  -5.844  0.00  0.00     0.006 A 
ENDROOT
BRANCH   1   8
ATOM      8  C1  UNL d   1       4.549  -5.432  -5.374  0.00  0.00     0.054 C 
ATOM      9  C   UNL d   1       5.765  -6.000  -4.656  0.00  0.00     0.018 C 
ENDBRANCH   1   8
TORSDOF 1
ENDMDL
