MODEL 1
REMARK minimizedAffinity -3.75345588
REMARK minimizedRMSD -1
REMARK  1 active torsions:
REMARK  status: ('A' for Active; 'I' for Inactive)
REMARK    1  A    between atoms: C1_2  and  C2_3 
ROOT
ATOM      1  C2  UNL d   1       4.693  -4.114  -4.852  0.00  0.00    -0.081 A 
ATOM      2  C3  UNL d   1       3.707  -3.174  -4.528  0.00  0.00     0.006 A 
ATOM      3  C4  UNL d   1       3.865  -1.832  -4.881  0.00  0.00     0.002 A 
ATOM      4  C5  UNL d   1       5.006  -1.408  -5.570  0.00  0.00    -0.080 A 
ATOM      5  C6  UNL d   1       5.174   0.024  -5.981  0.00  0.00     0.076 C 
ATOM      6  C7  UNL d   1       6.000  -2.344  -5.878  0.00  0.00     0.002 A 
ATOM      7  C8  UNL d   1       5.843  -3.686  -5.524  0.00  0.00     0.006 A 
ENDROOT
BRANCH   1   8
ATOM      8  C1  UNL d   1       4.496  -5.573  -4.530  0.00  0.00     0.054 C 
ATOM      9  C   UNL d   1       5.306  -5.984  -3.309  0.00  0.00     0.018 C 
ENDBRANCH   1   8
TORSDOF 1
ENDMDL
