MODEL 1
REMARK minimizedAffinity 7.38525248
REMARK minimizedRMSD -1
REMARK  0 active torsions:
REMARK  status: ('A' for Active; 'I' for Inactive)
ROOT
ATOM      1  C   UNL d   1       1.181   0.367  -2.250  0.00  0.00    -0.002 A 
ATOM      2  C1  UNL d   1       0.954   0.575  -3.603  0.00  0.00     0.010 A 
ATOM      3  C2  UNL d   1       1.393   1.746  -4.224  0.00  0.00     0.041 A 
ATOM      4  C3  UNL d   1       2.070   2.713  -3.456  0.00  0.00    -0.075 A 
ATOM      5  S   UNL d   1       2.699   4.222  -4.003  0.00  0.00     0.015 SA
ATOM      6  C4  UNL d   1       3.283   4.625  -2.454  0.00  0.00     0.022 A 
ATOM      7  C5  UNL d   1       3.014   3.644  -1.529  0.00  0.00     0.026 A 
ATOM      8  C6  UNL d   1       2.311   2.525  -2.092  0.00  0.00    -0.082 A 
ATOM      9  C7  UNL d   1       1.853   1.328  -1.491  0.00  0.00     0.045 A 
ENDROOT
TORSDOF 0
ENDMDL
