MODEL 1
REMARK minimizedAffinity 8.10775757
REMARK minimizedRMSD -1
REMARK  0 active torsions:
REMARK  status: ('A' for Active; 'I' for Inactive)
ROOT
ATOM      1  C   UNL d   1       1.962   2.050  -4.299  0.00  0.00    -0.002 A 
ATOM      2  C1  UNL d   1       0.900   1.498  -5.001  0.00  0.00     0.010 A 
ATOM      3  C2  UNL d   1       0.296   0.317  -4.563  0.00  0.00     0.041 A 
ATOM      4  C3  UNL d   1       0.782  -0.304  -3.396  0.00  0.00    -0.075 A 
ATOM      5  S   UNL d   1       0.198  -1.756  -2.671  0.00  0.00     0.015 SA
ATOM      6  C4  UNL d   1       1.344  -1.676  -1.412  0.00  0.00     0.022 A 
ATOM      7  C5  UNL d   1       2.160  -0.576  -1.527  0.00  0.00     0.026 A 
ATOM      8  C6  UNL d   1       1.849   0.233  -2.671  0.00  0.00    -0.082 A 
ATOM      9  C7  UNL d   1       2.441   1.431  -3.141  0.00  0.00     0.045 A 
ENDROOT
TORSDOF 0
ENDMDL
