MODEL 1
REMARK minimizedAffinity 15.9221134
REMARK minimizedRMSD -1
REMARK  0 active torsions:
REMARK  status: ('A' for Active; 'I' for Inactive)
ROOT
ATOM      1  C   UNL d   1      -2.667   4.891   5.102  0.00  0.00    -0.002 A 
ATOM      2  C1  UNL d   1      -4.051   4.886   4.998  0.00  0.00     0.010 A 
ATOM      3  C2  UNL d   1      -4.711   3.832   4.364  0.00  0.00     0.041 A 
ATOM      4  C3  UNL d   1      -3.950   2.772   3.833  0.00  0.00    -0.075 A 
ATOM      5  S   UNL d   1      -4.543   1.375   3.015  0.00  0.00     0.015 SA
ATOM      6  C4  UNL d   1      -2.974   0.751   2.785  0.00  0.00     0.022 A 
ATOM      7  C5  UNL d   1      -2.009   1.576   3.313  0.00  0.00     0.026 A 
ATOM      8  C6  UNL d   1      -2.556   2.754   3.926  0.00  0.00    -0.082 A 
ATOM      9  C7  UNL d   1      -1.915   3.838   4.574  0.00  0.00     0.045 A 
ENDROOT
TORSDOF 0
ENDMDL
