MODEL 1
REMARK minimizedAffinity 15.1004524
REMARK minimizedRMSD -1
REMARK  0 active torsions:
REMARK  status: ('A' for Active; 'I' for Inactive)
ROOT
ATOM      1  C   UNL d   1      -4.581   3.056   2.285  0.00  0.00    -0.002 A 
ATOM      2  C1  UNL d   1      -5.758   3.609   2.768  0.00  0.00     0.010 A 
ATOM      3  C2  UNL d   1      -5.752   4.404   3.916  0.00  0.00     0.041 A 
ATOM      4  C3  UNL d   1      -4.529   4.637   4.576  0.00  0.00    -0.075 A 
ATOM      5  S   UNL d   1      -4.279   5.579   5.999  0.00  0.00     0.015 SA
ATOM      6  C4  UNL d   1      -2.603   5.270   5.999  0.00  0.00     0.022 A 
ATOM      7  C5  UNL d   1      -2.226   4.469   4.946  0.00  0.00     0.026 A 
ATOM      8  C6  UNL d   1      -3.330   4.092   4.109  0.00  0.00    -0.082 A 
ATOM      9  C7  UNL d   1      -3.370   3.290   2.943  0.00  0.00     0.045 A 
ENDROOT
TORSDOF 0
ENDMDL
