MODEL 1
REMARK minimizedAffinity 16.9199944
REMARK minimizedRMSD -1
REMARK  0 active torsions:
REMARK  status: ('A' for Active; 'I' for Inactive)
ROOT
ATOM      1  C   UNL d   1       1.315  -5.567   1.159  0.00  0.00    -0.002 A 
ATOM      2  C1  UNL d   1      -0.006  -5.466   0.748  0.00  0.00     0.010 A 
ATOM      3  C2  UNL d   1      -0.360  -4.613  -0.300  0.00  0.00     0.041 A 
ATOM      4  C3  UNL d   1       0.646  -3.859  -0.934  0.00  0.00    -0.075 A 
ATOM      5  S   UNL d   1       0.447  -2.750  -2.240  0.00  0.00     0.015 SA
ATOM      6  C4  UNL d   1       2.111  -2.386  -2.282  0.00  0.00     0.022 A 
ATOM      7  C5  UNL d   1       2.816  -3.084  -1.330  0.00  0.00     0.026 A 
ATOM      8  C6  UNL d   1       1.984  -3.944  -0.538  0.00  0.00    -0.082 A 
ATOM      9  C7  UNL d   1       2.310  -4.817   0.528  0.00  0.00     0.045 A 
ENDROOT
TORSDOF 0
ENDMDL
