MODEL 1
REMARK minimizedAffinity 11.624239
REMARK minimizedRMSD -1
REMARK  0 active torsions:
REMARK  status: ('A' for Active; 'I' for Inactive)
ROOT
ATOM      1  C   UNL d   1       2.486   1.046  -5.821  0.00  0.00    -0.002 A 
ATOM      2  C1  UNL d   1       1.117   1.265  -5.765  0.00  0.00     0.010 A 
ATOM      3  C2  UNL d   1       0.432   1.171  -4.552  0.00  0.00     0.041 A 
ATOM      4  C3  UNL d   1       1.154   0.852  -3.384  0.00  0.00    -0.075 A 
ATOM      5  S   UNL d   1       0.527   0.684  -1.788  0.00  0.00     0.015 SA
ATOM      6  C4  UNL d   1       2.061   0.319  -1.143  0.00  0.00     0.022 A 
ATOM      7  C5  UNL d   1       3.040   0.321  -2.108  0.00  0.00     0.026 A 
ATOM      8  C6  UNL d   1       2.534   0.629  -3.416  0.00  0.00    -0.082 A 
ATOM      9  C7  UNL d   1       3.199   0.731  -4.661  0.00  0.00     0.045 A 
ENDROOT
TORSDOF 0
ENDMDL
