MODEL 1
REMARK minimizedAffinity 12.5781126
REMARK minimizedRMSD -1
REMARK  0 active torsions:
REMARK  status: ('A' for Active; 'I' for Inactive)
ROOT
ATOM      1  C   UNL d   1      -0.005   2.366  -5.983  0.00  0.00    -0.002 A 
ATOM      2  C1  UNL d   1      -0.054   0.979  -5.997  0.00  0.00     0.010 A 
ATOM      3  C2  UNL d   1       0.183   0.248  -4.832  0.00  0.00     0.041 A 
ATOM      4  C3  UNL d   1       0.470   0.940  -3.639  0.00  0.00    -0.075 A 
ATOM      5  S   UNL d   1       0.793   0.254  -2.091  0.00  0.00     0.015 SA
ATOM      6  C4  UNL d   1       1.002   1.786  -1.373  0.00  0.00     0.022 A 
ATOM      7  C5  UNL d   1       0.834   2.807  -2.278  0.00  0.00     0.026 A 
ATOM      8  C6  UNL d   1       0.524   2.336  -3.599  0.00  0.00    -0.082 A 
ATOM      9  C7  UNL d   1       0.280   3.049  -4.798  0.00  0.00     0.045 A 
ENDROOT
TORSDOF 0
ENDMDL
