MODEL 1
REMARK minimizedAffinity 12.4333067
REMARK minimizedRMSD -1
REMARK  0 active torsions:
REMARK  status: ('A' for Active; 'I' for Inactive)
ROOT
ATOM      1  C   UNL d   1       3.823  -0.195  -0.981  0.00  0.00    -0.002 A 
ATOM      2  C1  UNL d   1       3.556   0.326  -2.239  0.00  0.00     0.010 A 
ATOM      3  C2  UNL d   1       2.677  -0.325  -3.106  0.00  0.00     0.041 A 
ATOM      4  C3  UNL d   1       2.062  -1.520  -2.682  0.00  0.00    -0.075 A 
ATOM      5  S   UNL d   1       0.950  -2.489  -3.574  0.00  0.00     0.015 SA
ATOM      6  C4  UNL d   1       0.802  -3.618  -2.306  0.00  0.00     0.022 A 
ATOM      7  C5  UNL d   1       1.575  -3.279  -1.221  0.00  0.00     0.026 A 
ATOM      8  C6  UNL d   1       2.314  -2.064  -1.420  0.00  0.00    -0.082 A 
ATOM      9  C7  UNL d   1       3.212  -1.381  -0.564  0.00  0.00     0.045 A 
ENDROOT
TORSDOF 0
ENDMDL
