MODEL 1
REMARK minimizedAffinity 13.526041
REMARK minimizedRMSD -1
REMARK  0 active torsions:
REMARK  status: ('A' for Active; 'I' for Inactive)
ROOT
ATOM      1  C   UNL d   1      -4.501   3.595   2.120  0.00  0.00    -0.002 A 
ATOM      2  C1  UNL d   1      -5.778   3.786   2.628  0.00  0.00     0.010 A 
ATOM      3  C2  UNL d   1      -5.970   4.476   3.826  0.00  0.00     0.041 A 
ATOM      4  C3  UNL d   1      -4.846   4.977   4.512  0.00  0.00    -0.075 A 
ATOM      5  S   UNL d   1      -4.840   5.853   5.997  0.00  0.00     0.015 SA
ATOM      6  C4  UNL d   1      -3.141   5.995   5.992  0.00  0.00     0.022 A 
ATOM      7  C5  UNL d   1      -2.577   5.395   4.891  0.00  0.00     0.026 A 
ATOM      8  C6  UNL d   1      -3.550   4.798   4.020  0.00  0.00    -0.082 A 
ATOM      9  C7  UNL d   1      -3.388   4.094   2.803  0.00  0.00     0.045 A 
ENDROOT
TORSDOF 0
ENDMDL
