MODEL 1
REMARK minimizedAffinity 13.920042
REMARK minimizedRMSD -1
REMARK  0 active torsions:
REMARK  status: ('A' for Active; 'I' for Inactive)
ROOT
ATOM      1  C   UNL d   1       1.129   0.716  -2.224  0.00  0.00    -0.002 A 
ATOM      2  C1  UNL d   1       0.129   1.591  -2.624  0.00  0.00     0.010 A 
ATOM      3  C2  UNL d   1      -1.198   1.372  -2.251  0.00  0.00     0.041 A 
ATOM      4  C3  UNL d   1      -1.507   0.248  -1.459  0.00  0.00    -0.075 A 
ATOM      5  S   UNL d   1      -3.063  -0.220  -0.881  0.00  0.00     0.015 SA
ATOM      6  C4  UNL d   1      -2.437  -1.593  -0.089  0.00  0.00     0.022 A 
ATOM      7  C5  UNL d   1      -1.076  -1.707  -0.251  0.00  0.00     0.026 A 
ATOM      8  C6  UNL d   1      -0.518  -0.647  -1.043  0.00  0.00    -0.082 A 
ATOM      9  C7  UNL d   1       0.818  -0.398  -1.439  0.00  0.00     0.045 A 
ENDROOT
TORSDOF 0
ENDMDL
