MODEL 1
REMARK minimizedAffinity 11.8360567
REMARK minimizedRMSD -1
REMARK  2 active torsions:
REMARK  status: ('A' for Active; 'I' for Inactive)
REMARK    1  A    between atoms: C1_2  and  C2_3 
REMARK    2  A    between atoms: C2_3  and  C3_4 
ROOT
ATOM      1  C3  UNL d   1      -2.031   2.921   0.688  0.00  0.00    -0.075 A 
ATOM      2  C4  UNL d   1      -1.338   2.330   1.754  0.00  0.00     0.002 A 
ATOM      3  C5  UNL d   1      -0.047   1.835   1.572  0.00  0.00     0.002 A 
ATOM      4  C6  UNL d   1       0.563   1.913   0.322  0.00  0.00    -0.004 A 
ATOM      5  C7  UNL d   1      -0.123   2.483  -0.749  0.00  0.00     0.002 A 
ATOM      6  C8  UNL d   1      -1.413   2.983  -0.569  0.00  0.00     0.002 A 
ENDROOT
BRANCH   1   7
ATOM      7  C2  UNL d   1      -3.418   3.486   0.885  0.00  0.00     0.056 C 
BRANCH   7   8
ATOM      8  C1  UNL d   1      -3.536   4.977   0.555  0.00  0.00     0.007 C 
ATOM      9  C   UNL d   1      -4.640   5.679   1.335  0.00  0.00     0.009 C 
ENDBRANCH   7   8
ENDBRANCH   1   7
TORSDOF 2
ENDMDL
