MODEL 1
REMARK minimizedAffinity 17.9430199
REMARK minimizedRMSD -1
REMARK  2 active torsions:
REMARK  status: ('A' for Active; 'I' for Inactive)
REMARK    1  A    between atoms: C1_2  and  C2_3 
REMARK    2  A    between atoms: C2_3  and  C3_4 
ROOT
ATOM      1  C3  UNL d   1      -2.482   3.580   0.794  0.00  0.00    -0.075 A 
ATOM      2  C4  UNL d   1      -3.819   3.513   1.213  0.00  0.00     0.002 A 
ATOM      3  C5  UNL d   1      -4.579   4.675   1.347  0.00  0.00     0.002 A 
ATOM      4  C6  UNL d   1      -4.011   5.918   1.074  0.00  0.00    -0.004 A 
ATOM      5  C7  UNL d   1      -2.679   5.998   0.673  0.00  0.00     0.002 A 
ATOM      6  C8  UNL d   1      -1.917   4.836   0.534  0.00  0.00     0.002 A 
ENDROOT
BRANCH   1   7
ATOM      7  C2  UNL d   1      -1.663   2.324   0.619  0.00  0.00     0.056 C 
BRANCH   7   8
ATOM      8  C1  UNL d   1      -0.202   2.465   1.060  0.00  0.00     0.007 C 
ATOM      9  C   UNL d   1       0.006   2.186   2.543  0.00  0.00     0.009 C 
ENDBRANCH   7   8
ENDBRANCH   1   7
TORSDOF 2
ENDMDL
