MODEL 1
REMARK minimizedAffinity 5.43074989
REMARK minimizedRMSD -1
REMARK  2 active torsions:
REMARK  status: ('A' for Active; 'I' for Inactive)
REMARK    1  A    between atoms: C1_2  and  C2_3 
REMARK    2  A    between atoms: C2_3  and  C3_4 
ROOT
ATOM      1  C3  UNL d   1      -3.312  -3.328   5.267  0.00  0.00    -0.075 A 
ATOM      2  C4  UNL d   1      -4.279  -2.625   6.000  0.00  0.00     0.002 A 
ATOM      3  C5  UNL d   1      -5.611  -3.038   5.993  0.00  0.00     0.002 A 
ATOM      4  C6  UNL d   1      -5.995  -4.150   5.247  0.00  0.00    -0.004 A 
ATOM      5  C7  UNL d   1      -5.046  -4.846   4.501  0.00  0.00     0.002 A 
ATOM      6  C8  UNL d   1      -3.711  -4.437   4.510  0.00  0.00     0.002 A 
ENDROOT
BRANCH   1   7
ATOM      7  C2  UNL d   1      -1.863  -2.904   5.293  0.00  0.00     0.056 C 
BRANCH   7   8
ATOM      8  C1  UNL d   1      -0.877  -4.031   4.969  0.00  0.00     0.007 C 
ATOM      9  C   UNL d   1       0.250  -4.155   5.986  0.00  0.00     0.009 C 
ENDBRANCH   7   8
ENDBRANCH   1   7
TORSDOF 2
ENDMDL
