MODEL 1
REMARK minimizedAffinity 22.7329044
REMARK minimizedRMSD -1
REMARK  2 active torsions:
REMARK  status: ('A' for Active; 'I' for Inactive)
REMARK    1  A    between atoms: C1_2  and  C2_3 
REMARK    2  A    between atoms: C2_3  and  C3_4 
ROOT
ATOM      1  C3  UNL d   1       3.400  -5.169  -1.096  0.00  0.00    -0.075 A 
ATOM      2  C4  UNL d   1       2.424  -6.000  -1.665  0.00  0.00     0.002 A 
ATOM      3  C5  UNL d   1       1.145  -5.510  -1.933  0.00  0.00     0.002 A 
ATOM      4  C6  UNL d   1       0.824  -4.189  -1.627  0.00  0.00    -0.004 A 
ATOM      5  C7  UNL d   1       1.780  -3.360  -1.045  0.00  0.00     0.002 A 
ATOM      6  C8  UNL d   1       3.062  -3.847  -0.780  0.00  0.00     0.002 A 
ENDROOT
BRANCH   1   7
ATOM      7  C2  UNL d   1       4.794  -5.685  -0.830  0.00  0.00     0.056 C 
BRANCH   7   8
ATOM      8  C1  UNL d   1       5.655  -4.746   0.020  0.00  0.00     0.007 C 
ATOM      9  C   UNL d   1       5.998  -5.319   1.389  0.00  0.00     0.009 C 
ENDBRANCH   7   8
ENDBRANCH   1   7
TORSDOF 2
ENDMDL
