MODEL 1
REMARK minimizedAffinity 8.36299229
REMARK minimizedRMSD -1
REMARK  2 active torsions:
REMARK  status: ('A' for Active; 'I' for Inactive)
REMARK    1  A    between atoms: C1_2  and  C2_3 
REMARK    2  A    between atoms: C2_3  and  C3_4 
ROOT
ATOM      1  C3  UNL d   1      -3.093   3.328  -4.637  0.00  0.00    -0.075 A 
ATOM      2  C4  UNL d   1      -2.138   3.865  -3.761  0.00  0.00     0.002 A 
ATOM      3  C5  UNL d   1      -1.734   5.194  -3.883  0.00  0.00     0.002 A 
ATOM      4  C6  UNL d   1      -2.270   6.000  -4.885  0.00  0.00    -0.004 A 
ATOM      5  C7  UNL d   1      -3.206   5.472  -5.772  0.00  0.00     0.002 A 
ATOM      6  C8  UNL d   1      -3.616   4.143  -5.650  0.00  0.00     0.002 A 
ENDROOT
BRANCH   1   7
ATOM      7  C2  UNL d   1      -3.557   1.898  -4.493  0.00  0.00     0.056 C 
BRANCH   7   8
ATOM      8  C1  UNL d   1      -5.026   1.758  -4.081  0.00  0.00     0.007 C 
ATOM      9  C   UNL d   1      -5.888   1.095  -5.147  0.00  0.00     0.009 C 
ENDBRANCH   7   8
ENDBRANCH   1   7
TORSDOF 2
ENDMDL
