MODEL 1
REMARK minimizedAffinity 4.93851709
REMARK minimizedRMSD -1
REMARK  2 active torsions:
REMARK  status: ('A' for Active; 'I' for Inactive)
REMARK    1  A    between atoms: C1_2  and  C2_3 
REMARK    2  A    between atoms: C2_3  and  C3_4 
ROOT
ATOM      1  C3  UNL d   1      -3.508  -3.057   5.045  0.00  0.00    -0.075 A 
ATOM      2  C4  UNL d   1      -4.492  -2.755   5.998  0.00  0.00     0.002 A 
ATOM      3  C5  UNL d   1      -5.727  -3.403   5.971  0.00  0.00     0.002 A 
ATOM      4  C6  UNL d   1      -5.998  -4.351   4.987  0.00  0.00    -0.004 A 
ATOM      5  C7  UNL d   1      -5.035  -4.646   4.025  0.00  0.00     0.002 A 
ATOM      6  C8  UNL d   1      -3.796  -4.003   4.053  0.00  0.00     0.002 A 
ENDROOT
BRANCH   1   7
ATOM      7  C2  UNL d   1      -2.159  -2.381   5.087  0.00  0.00     0.056 C 
BRANCH   7   8
ATOM      8  C1  UNL d   1      -0.984  -3.312   4.768  0.00  0.00     0.007 C 
ATOM      9  C   UNL d   1      -0.418  -4.007   5.999  0.00  0.00     0.009 C 
ENDBRANCH   7   8
ENDBRANCH   1   7
TORSDOF 2
ENDMDL
