MODEL 1
REMARK minimizedAffinity 3.30648875
REMARK minimizedRMSD -1
REMARK  2 active torsions:
REMARK  status: ('A' for Active; 'I' for Inactive)
REMARK    1  A    between atoms: C1_2  and  C2_3 
REMARK    2  A    between atoms: C2_3  and  C3_4 
ROOT
ATOM      1  C3  UNL d   1      -2.803   3.582  -4.255  0.00  0.00    -0.075 A 
ATOM      2  C4  UNL d   1      -1.816   3.565  -5.251  0.00  0.00     0.002 A 
ATOM      3  C5  UNL d   1      -1.374   4.755  -5.831  0.00  0.00     0.002 A 
ATOM      4  C6  UNL d   1      -1.920   5.973  -5.431  0.00  0.00    -0.004 A 
ATOM      5  C7  UNL d   1      -2.913   6.000  -4.455  0.00  0.00     0.002 A 
ATOM      6  C8  UNL d   1      -3.354   4.811  -3.869  0.00  0.00     0.002 A 
ENDROOT
BRANCH   1   7
ATOM      7  C2  UNL d   1      -3.264   2.301  -3.602  0.00  0.00     0.056 C 
BRANCH   7   8
ATOM      8  C1  UNL d   1      -4.488   1.665  -4.271  0.00  0.00     0.007 C 
ATOM      9  C   UNL d   1      -4.775   2.229  -5.656  0.00  0.00     0.009 C 
ENDBRANCH   7   8
ENDBRANCH   1   7
TORSDOF 2
ENDMDL
