MODEL 1
REMARK minimizedAffinity 0.273800373
REMARK minimizedRMSD -1
REMARK  2 active torsions:
REMARK  status: ('A' for Active; 'I' for Inactive)
REMARK    1  A    between atoms: C1_2  and  C2_3 
REMARK    2  A    between atoms: C2_3  and  C3_4 
ROOT
ATOM      1  C3  UNL d   1      -0.571   2.696  -1.081  0.00  0.00    -0.075 A 
ATOM      2  C4  UNL d   1      -0.753   1.813  -0.007  0.00  0.00     0.002 A 
ATOM      3  C5  UNL d   1      -0.407   2.194   1.290  0.00  0.00     0.002 A 
ATOM      4  C6  UNL d   1       0.132   3.457   1.528  0.00  0.00    -0.004 A 
ATOM      5  C7  UNL d   1       0.332   4.336   0.466  0.00  0.00     0.002 A 
ATOM      6  C8  UNL d   1      -0.017   3.958  -0.832  0.00  0.00     0.002 A 
ENDROOT
BRANCH   1   7
ATOM      7  C2  UNL d   1      -0.970   2.300  -2.482  0.00  0.00     0.056 C 
BRANCH   7   8
ATOM      8  C1  UNL d   1      -2.473   2.054  -2.657  0.00  0.00     0.007 C 
ATOM      9  C   UNL d   1      -2.853   0.582  -2.585  0.00  0.00     0.009 C 
ENDBRANCH   7   8
ENDBRANCH   1   7
TORSDOF 2
ENDMDL
