MODEL 1
REMARK minimizedAffinity 21.4840679
REMARK minimizedRMSD -1
REMARK  2 active torsions:
REMARK  status: ('A' for Active; 'I' for Inactive)
REMARK    1  A    between atoms: C1_2  and  C2_3 
REMARK    2  A    between atoms: C2_3  and  C3_4 
ROOT
ATOM      1  C3  UNL d   1      -4.618   5.183  -1.517  0.00  0.00    -0.075 A 
ATOM      2  C4  UNL d   1      -5.862   5.585  -1.009  0.00  0.00     0.002 A 
ATOM      3  C5  UNL d   1      -5.995   5.953   0.331  0.00  0.00     0.002 A 
ATOM      4  C6  UNL d   1      -4.891   5.914   1.180  0.00  0.00    -0.004 A 
ATOM      5  C7  UNL d   1      -3.654   5.500   0.690  0.00  0.00     0.002 A 
ATOM      6  C8  UNL d   1      -3.518   5.136  -0.651  0.00  0.00     0.002 A 
ENDROOT
BRANCH   1   7
ATOM      7  C2  UNL d   1      -4.462   4.811  -2.972  0.00  0.00     0.056 C 
BRANCH   7   8
ATOM      8  C1  UNL d   1      -3.397   3.740  -3.231  0.00  0.00     0.007 C 
ATOM      9  C   UNL d   1      -3.924   2.548  -4.018  0.00  0.00     0.009 C 
ENDBRANCH   7   8
ENDBRANCH   1   7
TORSDOF 2
ENDMDL
