MODEL 1
REMARK minimizedAffinity 12.7696905
REMARK minimizedRMSD -1
REMARK  2 active torsions:
REMARK  status: ('A' for Active; 'I' for Inactive)
REMARK    1  A    between atoms: C1_2  and  C2_3 
REMARK    2  A    between atoms: C2_3  and  C3_4 
ROOT
ATOM      1  C3  UNL d   1      -0.718   1.674   2.497  0.00  0.00    -0.075 A 
ATOM      2  C4  UNL d   1      -1.581   2.281   1.574  0.00  0.00     0.002 A 
ATOM      3  C5  UNL d   1      -2.936   1.949   1.546  0.00  0.00     0.002 A 
ATOM      4  C6  UNL d   1      -3.442   1.000   2.432  0.00  0.00    -0.004 A 
ATOM      5  C7  UNL d   1      -2.590   0.378   3.342  0.00  0.00     0.002 A 
ATOM      6  C8  UNL d   1      -1.235   0.712   3.375  0.00  0.00     0.002 A 
ENDROOT
BRANCH   1   7
ATOM      7  C2  UNL d   1       0.744   2.051   2.552  0.00  0.00     0.056 C 
BRANCH   7   8
ATOM      8  C1  UNL d   1       0.994   3.548   2.761  0.00  0.00     0.007 C 
ATOM      9  C   UNL d   1       1.638   4.223   1.556  0.00  0.00     0.009 C 
ENDBRANCH   7   8
ENDBRANCH   1   7
TORSDOF 2
ENDMDL
