MODEL 1
REMARK minimizedAffinity 15.7190027
REMARK minimizedRMSD -1
REMARK  2 active torsions:
REMARK  status: ('A' for Active; 'I' for Inactive)
REMARK    1  A    between atoms: C1_2  and  C2_3 
REMARK    2  A    between atoms: C2_3  and  C3_4 
ROOT
ATOM      1  C3  UNL d   1      -1.146   3.844  -1.986  0.00  0.00    -0.075 A 
ATOM      2  C4  UNL d   1       0.241   3.756  -1.799  0.00  0.00     0.002 A 
ATOM      3  C5  UNL d   1       0.765   3.191  -0.636  0.00  0.00     0.002 A 
ATOM      4  C6  UNL d   1      -0.090   2.717   0.358  0.00  0.00    -0.004 A 
ATOM      5  C7  UNL d   1      -1.469   2.815   0.190  0.00  0.00     0.002 A 
ATOM      6  C8  UNL d   1      -1.996   3.376  -0.975  0.00  0.00     0.002 A 
ENDROOT
BRANCH   1   7
ATOM      7  C2  UNL d   1      -1.719   4.427  -3.256  0.00  0.00     0.056 C 
BRANCH   7   8
ATOM      8  C1  UNL d   1      -0.991   5.682  -3.749  0.00  0.00     0.007 C 
ATOM      9  C   UNL d   1      -1.268   6.000  -5.213  0.00  0.00     0.009 C 
ENDBRANCH   7   8
ENDBRANCH   1   7
TORSDOF 2
ENDMDL
