MODEL 1
REMARK minimizedAffinity 8.63893795
REMARK minimizedRMSD -1
REMARK  0 active torsions:
REMARK  status: ('A' for Active; 'I' for Inactive)
ROOT
ATOM      1  C1  DEN d   1      -1.013  -2.138   0.209  0.00  0.00     0.130 A 
ATOM      2  C2  DEN d   1      -1.748  -2.673   1.351  0.00  0.00    -0.031 A 
ATOM      3  C3  DEN d   1      -2.985  -3.301   0.844  0.00  0.00     0.027 A 
ATOM      4  C4  DEN d   1      -3.826  -3.499  -1.586  0.00  0.00     0.027 A 
ATOM      5  C5  DEN d   1      -3.549  -3.186  -2.898  0.00  0.00    -0.003 A 
ATOM      6  C6  DEN d   1      -2.434  -2.478  -3.261  0.00  0.00     0.001 A 
ATOM      7  C7  DEN d   1      -1.530  -2.098  -2.304  0.00  0.00     0.017 A 
ATOM      8  C8  DEN d   1      -1.806  -2.403  -0.978  0.00  0.00    -0.094 A 
ATOM      9  C9  DEN d   1      -2.933  -3.131  -0.633  0.00  0.00    -0.072 A 
ENDROOT
TORSDOF 0
ENDMDL
