MODEL 1
REMARK minimizedAffinity 6.57546473
REMARK minimizedRMSD -1
REMARK  0 active torsions:
REMARK  status: ('A' for Active; 'I' for Inactive)
ROOT
ATOM      1  C1  DEN d   1       5.999   2.763   1.821  0.00  0.00     0.130 A 
ATOM      2  C2  DEN d   1       5.273   3.472   0.771  0.00  0.00    -0.031 A 
ATOM      3  C3  DEN d   1       4.396   2.501   0.086  0.00  0.00     0.027 A 
ATOM      4  C4  DEN d   1       4.090  -0.017   0.551  0.00  0.00     0.027 A 
ATOM      5  C5  DEN d   1       4.499  -1.072   1.336  0.00  0.00    -0.003 A 
ATOM      6  C6  DEN d   1       5.455  -0.931   2.307  0.00  0.00     0.001 A 
ATOM      7  C7  DEN d   1       6.000   0.303   2.549  0.00  0.00     0.017 A 
ATOM      8  C8  DEN d   1       5.597   1.369   1.757  0.00  0.00    -0.094 A 
ATOM      9  C9  DEN d   1       4.621   1.209   0.788  0.00  0.00    -0.072 A 
ENDROOT
TORSDOF 0
ENDMDL
