MODEL 1
REMARK minimizedAffinity 3.89097023
REMARK minimizedRMSD -1
REMARK  0 active torsions:
REMARK  status: ('A' for Active; 'I' for Inactive)
ROOT
ATOM      1  C1  DEN d   1       3.088   2.662  -3.314  0.00  0.00     0.130 A 
ATOM      2  C2  DEN d   1       4.488   2.248  -3.294  0.00  0.00    -0.031 A 
ATOM      3  C3  DEN d   1       5.257   3.195  -4.126  0.00  0.00     0.027 A 
ATOM      4  C4  DEN d   1       4.420   5.255  -5.434  0.00  0.00     0.027 A 
ATOM      5  C5  DEN d   1       3.309   6.000  -5.763  0.00  0.00    -0.003 A 
ATOM      6  C6  DEN d   1       2.053   5.668  -5.331  0.00  0.00     0.001 A 
ATOM      7  C7  DEN d   1       1.882   4.587  -4.507  0.00  0.00     0.017 A 
ATOM      8  C8  DEN d   1       2.996   3.826  -4.176  0.00  0.00    -0.094 A 
ATOM      9  C9  DEN d   1       4.259   4.185  -4.613  0.00  0.00    -0.072 A 
ENDROOT
TORSDOF 0
ENDMDL
