MODEL 1
REMARK minimizedAffinity 14.4259195
REMARK minimizedRMSD -1
REMARK  0 active torsions:
REMARK  status: ('A' for Active; 'I' for Inactive)
ROOT
ATOM      1  C1  DEN d   1       3.768   2.631  -1.798  0.00  0.00     0.130 A 
ATOM      2  C2  DEN d   1       4.842   1.745  -2.239  0.00  0.00    -0.031 A 
ATOM      3  C3  DEN d   1       4.889   0.591  -1.318  0.00  0.00     0.027 A 
ATOM      4  C4  DEN d   1       3.407   0.091   0.733  0.00  0.00     0.027 A 
ATOM      5  C5  DEN d   1       2.367   0.557   1.507  0.00  0.00    -0.003 A 
ATOM      6  C6  DEN d   1       1.750   1.754   1.257  0.00  0.00     0.001 A 
ATOM      7  C7  DEN d   1       2.136   2.504   0.178  0.00  0.00     0.017 A 
ATOM      8  C8  DEN d   1       3.188   2.044  -0.603  0.00  0.00    -0.094 A 
ATOM      9  C9  DEN d   1       3.792   0.826  -0.341  0.00  0.00    -0.072 A 
ENDROOT
TORSDOF 0
ENDMDL
