MODEL 1
REMARK minimizedAffinity 8.41114998
REMARK minimizedRMSD -1
REMARK  0 active torsions:
REMARK  status: ('A' for Active; 'I' for Inactive)
ROOT
ATOM      1  C1  DEN d   1       1.141   0.930   3.228  0.00  0.00     0.130 A 
ATOM      2  C2  DEN d   1       0.211   1.886   2.633  0.00  0.00    -0.031 A 
ATOM      3  C3  DEN d   1       0.734   2.266   1.305  0.00  0.00     0.027 A 
ATOM      4  C4  DEN d   1       2.879   1.466   0.117  0.00  0.00     0.027 A 
ATOM      5  C5  DEN d   1       3.994   0.665   0.231  0.00  0.00    -0.003 A 
ATOM      6  C6  DEN d   1       4.251  -0.071   1.357  0.00  0.00     0.001 A 
ATOM      7  C7  DEN d   1       3.359  -0.057   2.396  0.00  0.00     0.017 A 
ATOM      8  C8  DEN d   1       2.236   0.754   2.291  0.00  0.00    -0.094 A 
ATOM      9  C9  DEN d   1       1.987   1.482   1.140  0.00  0.00    -0.072 A 
ENDROOT
TORSDOF 0
ENDMDL
