MODEL 1
REMARK minimizedAffinity 11.2313175
REMARK minimizedRMSD -1
REMARK  0 active torsions:
REMARK  status: ('A' for Active; 'I' for Inactive)
ROOT
ATOM      1  C1  DEN d   1       5.047   3.737   2.235  0.00  0.00     0.130 A 
ATOM      2  C2  DEN d   1       4.132   4.663   1.574  0.00  0.00    -0.031 A 
ATOM      3  C3  DEN d   1       3.767   5.715   2.544  0.00  0.00     0.027 A 
ATOM      4  C4  DEN d   1       4.528   6.000   4.992  0.00  0.00     0.027 A 
ATOM      5  C5  DEN d   1       5.293   5.456   6.000  0.00  0.00    -0.003 A 
ATOM      6  C6  DEN d   1       5.997   4.292   5.836  0.00  0.00     0.001 A 
ATOM      7  C7  DEN d   1       5.986   3.658   4.622  0.00  0.00     0.017 A 
ATOM      8  C8  DEN d   1       5.211   4.196   3.603  0.00  0.00    -0.094 A 
ATOM      9  C9  DEN d   1       4.517   5.380   3.784  0.00  0.00    -0.072 A 
ENDROOT
TORSDOF 0
ENDMDL
