MODEL 1
REMARK minimizedAffinity 21.2393761
REMARK minimizedRMSD -1
REMARK  0 active torsions:
REMARK  status: ('A' for Active; 'I' for Inactive)
ROOT
ATOM      1  C1  DEN d   1      -1.766  -1.119  -2.755  0.00  0.00     0.130 A 
ATOM      2  C2  DEN d   1      -1.844  -1.937  -1.548  0.00  0.00    -0.031 A 
ATOM      3  C3  DEN d   1      -1.410  -3.306  -1.895  0.00  0.00     0.027 A 
ATOM      4  C4  DEN d   1      -0.625  -4.231  -4.171  0.00  0.00     0.027 A 
ATOM      5  C5  DEN d   1      -0.402  -3.918  -5.493  0.00  0.00    -0.003 A 
ATOM      6  C6  DEN d   1      -0.648  -2.669  -6.000  0.00  0.00     0.001 A 
ATOM      7  C7  DEN d   1      -1.090  -1.674  -5.167  0.00  0.00     0.017 A 
ATOM      8  C8  DEN d   1      -1.324  -1.984  -3.834  0.00  0.00    -0.094 A 
ATOM      9  C9  DEN d   1      -1.057  -3.250  -3.339  0.00  0.00    -0.072 A 
ENDROOT
TORSDOF 0
ENDMDL
