MODEL 1
REMARK minimizedAffinity 17.7515564
REMARK minimizedRMSD -1
REMARK  0 active torsions:
REMARK  status: ('A' for Active; 'I' for Inactive)
ROOT
ATOM      1  C1  DEN d   1      -3.764  -0.139   2.649  0.00  0.00     0.130 A 
ATOM      2  C2  DEN d   1      -3.546   1.227   3.116  0.00  0.00    -0.031 A 
ATOM      3  C3  DEN d   1      -4.056   1.324   4.499  0.00  0.00     0.027 A 
ATOM      4  C4  DEN d   1      -5.151  -0.501   5.956  0.00  0.00     0.027 A 
ATOM      5  C5  DEN d   1      -5.560  -1.815   5.989  0.00  0.00    -0.003 A 
ATOM      6  C6  DEN d   1      -5.432  -2.647   4.908  0.00  0.00     0.001 A 
ATOM      7  C7  DEN d   1      -4.839  -2.186   3.763  0.00  0.00     0.017 A 
ATOM      8  C8  DEN d   1      -4.430  -0.859   3.720  0.00  0.00    -0.094 A 
ATOM      9  C9  DEN d   1      -4.558  -0.038   4.827  0.00  0.00    -0.072 A 
ENDROOT
TORSDOF 0
ENDMDL
