MODEL 1
REMARK minimizedAffinity 6.7386632
REMARK minimizedRMSD -1
REMARK  0 active torsions:
REMARK  status: ('A' for Active; 'I' for Inactive)
ROOT
ATOM      1  C1  DEN d   1       1.851   4.440  -4.145  0.00  0.00     0.130 A 
ATOM      2  C2  DEN d   1       1.865   5.276  -5.342  0.00  0.00    -0.031 A 
ATOM      3  C3  DEN d   1       3.177   5.110  -5.999  0.00  0.00     0.027 A 
ATOM      4  C4  DEN d   1       5.175   3.644  -5.286  0.00  0.00     0.027 A 
ATOM      5  C5  DEN d   1       5.638   2.764  -4.333  0.00  0.00    -0.003 A 
ATOM      6  C6  DEN d   1       4.891   2.411  -3.241  0.00  0.00     0.001 A 
ATOM      7  C7  DEN d   1       3.621   2.905  -3.099  0.00  0.00     0.017 A 
ATOM      8  C8  DEN d   1       3.150   3.798  -4.052  0.00  0.00    -0.094 A 
ATOM      9  C9  DEN d   1       3.916   4.133  -5.156  0.00  0.00    -0.072 A 
ENDROOT
TORSDOF 0
ENDMDL
