MODEL 1
REMARK minimizedAffinity -3.84445691
REMARK minimizedRMSD -1
REMARK  0 active torsions:
REMARK  status: ('A' for Active; 'I' for Inactive)
ROOT
ATOM      1  C1  DEN d   1       2.365   4.604  -5.085  0.00  0.00     0.130 A 
ATOM      2  C2  DEN d   1       2.817   5.649  -6.000  0.00  0.00    -0.031 A 
ATOM      3  C3  DEN d   1       4.294   5.652  -5.995  0.00  0.00     0.027 A 
ATOM      4  C4  DEN d   1       5.915   4.144  -4.671  0.00  0.00     0.027 A 
ATOM      5  C5  DEN d   1       6.000   3.119  -3.756  0.00  0.00    -0.003 A 
ATOM      6  C6  DEN d   1       4.889   2.544  -3.199  0.00  0.00     0.001 A 
ATOM      7  C7  DEN d   1       3.642   2.961  -3.585  0.00  0.00     0.017 A 
ATOM      8  C8  DEN d   1       3.549   3.999  -4.502  0.00  0.00    -0.094 A 
ATOM      9  C9  DEN d   1       4.684   4.559  -5.063  0.00  0.00    -0.072 A 
ENDROOT
TORSDOF 0
ENDMDL
