MODEL 1
REMARK minimizedAffinity 7.63415623
REMARK minimizedRMSD -1
REMARK  0 active torsions:
REMARK  status: ('A' for Active; 'I' for Inactive)
ROOT
ATOM      1  C1  DEN d   1       3.000   1.878  -2.774  0.00  0.00     0.130 A 
ATOM      2  C2  DEN d   1       1.793   2.593  -3.178  0.00  0.00    -0.031 A 
ATOM      3  C3  DEN d   1       0.853   2.584  -2.039  0.00  0.00     0.027 A 
ATOM      4  C4  DEN d   1       1.150   1.540   0.300  0.00  0.00     0.027 A 
ATOM      5  C5  DEN d   1       2.001   0.818   1.108  0.00  0.00    -0.003 A 
ATOM      6  C6  DEN d   1       3.221   0.374   0.671  0.00  0.00     0.001 A 
ATOM      7  C7  DEN d   1       3.643   0.686  -0.595  0.00  0.00     0.017 A 
ATOM      8  C8  DEN d   1       2.787   1.406  -1.417  0.00  0.00    -0.094 A 
ATOM      9  C9  DEN d   1       1.563   1.857  -0.953  0.00  0.00    -0.072 A 
ENDROOT
TORSDOF 0
ENDMDL
