MODEL 1
REMARK minimizedAffinity 10.2298737
REMARK minimizedRMSD -1
REMARK  0 active torsions:
REMARK  status: ('A' for Active; 'I' for Inactive)
ROOT
ATOM      1  C1  DEN d   1      -4.789   2.566   2.554  0.00  0.00     0.130 A 
ATOM      2  C2  DEN d   1      -3.823   1.841   3.375  0.00  0.00    -0.031 A 
ATOM      3  C3  DEN d   1      -3.525   2.665   4.564  0.00  0.00     0.027 A 
ATOM      4  C4  DEN d   1      -4.464   4.979   5.211  0.00  0.00     0.027 A 
ATOM      5  C5  DEN d   1      -5.304   5.998   4.821  0.00  0.00    -0.003 A 
ATOM      6  C6  DEN d   1      -6.000   5.961   3.641  0.00  0.00     0.001 A 
ATOM      7  C7  DEN d   1      -5.902   4.861   2.831  0.00  0.00     0.017 A 
ATOM      8  C8  DEN d   1      -5.052   3.832   3.213  0.00  0.00    -0.094 A 
ATOM      9  C9  DEN d   1      -4.366   3.883   4.415  0.00  0.00    -0.072 A 
ENDROOT
TORSDOF 0
ENDMDL
