MODEL 1
REMARK minimizedAffinity 9.74654198
REMARK minimizedRMSD -1
REMARK  0 active torsions:
REMARK  status: ('A' for Active; 'I' for Inactive)
ROOT
ATOM      1  C1  DEN d   1       3.430  -0.086   0.279  0.00  0.00     0.130 A 
ATOM      2  C2  DEN d   1       3.813   0.778  -0.834  0.00  0.00    -0.031 A 
ATOM      3  C3  DEN d   1       3.045   2.035  -0.722  0.00  0.00     0.027 A 
ATOM      4  C4  DEN d   1       1.313   2.724   1.061  0.00  0.00     0.027 A 
ATOM      5  C5  DEN d   1       0.649   2.317   2.197  0.00  0.00    -0.003 A 
ATOM      6  C6  DEN d   1       0.839   1.078   2.750  0.00  0.00     0.001 A 
ATOM      7  C7  DEN d   1       1.748   0.218   2.192  0.00  0.00     0.017 A 
ATOM      8  C8  DEN d   1       2.415   0.618   1.042  0.00  0.00    -0.094 A 
ATOM      9  C9  DEN d   1       2.219   1.879   0.506  0.00  0.00    -0.072 A 
ENDROOT
TORSDOF 0
ENDMDL
