MODEL 1
REMARK minimizedAffinity 10.6163416
REMARK minimizedRMSD -1
REMARK  0 active torsions:
REMARK  status: ('A' for Active; 'I' for Inactive)
ROOT
ATOM      1  C1  DEN d   1       2.319   3.393  -4.821  0.00  0.00     0.130 A 
ATOM      2  C2  DEN d   1       2.737   4.227  -5.945  0.00  0.00    -0.031 A 
ATOM      3  C3  DEN d   1       4.213   4.213  -6.000  0.00  0.00     0.027 A 
ATOM      4  C4  DEN d   1       5.881   2.983  -4.465  0.00  0.00     0.027 A 
ATOM      5  C5  DEN d   1       6.000   2.161  -3.366  0.00  0.00    -0.003 A 
ATOM      6  C6  DEN d   1       4.911   1.724  -2.661  0.00  0.00     0.001 A 
ATOM      7  C7  DEN d   1       3.651   2.069  -3.073  0.00  0.00     0.017 A 
ATOM      8  C8  DEN d   1       3.524   2.904  -4.176  0.00  0.00    -0.094 A 
ATOM      9  C9  DEN d   1       4.637   3.325  -4.884  0.00  0.00    -0.072 A 
ENDROOT
TORSDOF 0
ENDMDL
