MODEL 1
REMARK minimizedAffinity -2.00852227
REMARK minimizedRMSD -1
REMARK  0 active torsions:
REMARK  status: ('A' for Active; 'I' for Inactive)
ROOT
ATOM      1  C1  DEN d   1       3.377   2.040  -3.988  0.00  0.00     0.130 A 
ATOM      2  C2  DEN d   1       4.662   1.956  -3.299  0.00  0.00    -0.031 A 
ATOM      3  C3  DEN d   1       5.311   3.279  -3.382  0.00  0.00     0.027 A 
ATOM      4  C4  DEN d   1       4.454   5.441  -4.498  0.00  0.00     0.027 A 
ATOM      5  C5  DEN d   1       3.421   5.999  -5.218  0.00  0.00    -0.003 A 
ATOM      6  C6  DEN d   1       2.326   5.273  -5.605  0.00  0.00     0.001 A 
ATOM      7  C7  DEN d   1       2.216   3.959  -5.234  0.00  0.00     0.017 A 
ATOM      8  C8  DEN d   1       3.257   3.388  -4.514  0.00  0.00    -0.094 A 
ATOM      9  C9  DEN d   1       4.351   4.141  -4.122  0.00  0.00    -0.072 A 
ENDROOT
TORSDOF 0
ENDMDL
