MODEL 1
REMARK minimizedAffinity 6.52560663
REMARK minimizedRMSD -1
REMARK  1 active torsions:
REMARK  status: ('A' for Active; 'I' for Inactive)
REMARK    1  A    between atoms: C1_2  and  C2_3 
ROOT
ATOM      1  C2  UNL d   1       3.941  -4.906   0.870  0.00  0.00    -0.076 A 
ATOM      2  C3  UNL d   1       2.614  -5.319   1.087  0.00  0.00     0.004 A 
ATOM      3  C4  UNL d   1       1.667  -4.442   1.612  0.00  0.00    -0.003 A 
ATOM      4  C5  UNL d   1       2.030  -3.138   1.929  0.00  0.00     0.000 A 
ATOM      5  C6  UNL d   1       3.337  -2.706   1.704  0.00  0.00     0.000 A 
ATOM      6  C7  UNL d   1       4.300  -3.573   1.160  0.00  0.00    -0.073 A 
ATOM      7  C8  UNL d   1       5.696  -3.056   0.944  0.00  0.00     0.078 C 
ENDROOT
BRANCH   1   8
ATOM      8  C1  UNL d   1       4.931  -5.909   0.324  0.00  0.00     0.053 C 
ATOM      9  C   UNL d   1       5.014  -5.879  -1.195  0.00  0.00     0.018 C 
ENDBRANCH   1   8
TORSDOF 1
ENDMDL
