MODEL 1
REMARK minimizedAffinity 1.21494687
REMARK minimizedRMSD -1
REMARK  1 active torsions:
REMARK  status: ('A' for Active; 'I' for Inactive)
REMARK    1  A    between atoms: C1_2  and  C2_3 
ROOT
ATOM      1  C2  UNL d   1       3.143  -4.180   2.987  0.00  0.00    -0.076 A 
ATOM      2  C3  UNL d   1       2.005  -3.720   3.672  0.00  0.00     0.004 A 
ATOM      3  C4  UNL d   1       1.024  -2.978   3.017  0.00  0.00    -0.003 A 
ATOM      4  C5  UNL d   1       1.166  -2.683   1.665  0.00  0.00     0.000 A 
ATOM      5  C6  UNL d   1       2.280  -3.145   0.966  0.00  0.00     0.000 A 
ATOM      6  C7  UNL d   1       3.270  -3.909   1.608  0.00  0.00    -0.073 A 
ATOM      7  C8  UNL d   1       4.454  -4.377   0.806  0.00  0.00     0.078 C 
ENDROOT
BRANCH   1   8
ATOM      8  C1  UNL d   1       4.187  -4.957   3.757  0.00  0.00     0.053 C 
ATOM      9  C   UNL d   1       3.868  -5.049   5.241  0.00  0.00     0.018 C 
ENDBRANCH   1   8
TORSDOF 1
ENDMDL
