MODEL 1
REMARK minimizedAffinity 12.5864067
REMARK minimizedRMSD -1
REMARK  1 active torsions:
REMARK  status: ('A' for Active; 'I' for Inactive)
REMARK    1  A    between atoms: C1_2  and  C2_3 
ROOT
ATOM      1  C2  UNL d   1       1.210  -0.632   0.626  0.00  0.00    -0.076 A 
ATOM      2  C3  UNL d   1       0.241  -1.115  -0.270  0.00  0.00     0.004 A 
ATOM      3  C4  UNL d   1      -0.003  -0.467  -1.480  0.00  0.00    -0.003 A 
ATOM      4  C5  UNL d   1       0.719   0.673  -1.814  0.00  0.00     0.000 A 
ATOM      5  C6  UNL d   1       1.697   1.156  -0.944  0.00  0.00     0.000 A 
ATOM      6  C7  UNL d   1       1.966   0.506   0.272  0.00  0.00    -0.073 A 
ATOM      7  C8  UNL d   1       3.027   1.073   1.175  0.00  0.00     0.078 C 
ENDROOT
BRANCH   1   8
ATOM      8  C1  UNL d   1       1.412  -1.361   1.936  0.00  0.00     0.053 C 
ATOM      9  C   UNL d   1       1.436  -2.872   1.764  0.00  0.00     0.018 C 
ENDBRANCH   1   8
TORSDOF 1
ENDMDL
