MODEL 1
REMARK minimizedAffinity 14.8242254
REMARK minimizedRMSD -1
REMARK  1 active torsions:
REMARK  status: ('A' for Active; 'I' for Inactive)
REMARK    1  A    between atoms: C1_2  and  C2_3 
ROOT
ATOM      1  C2  UNL d   1      -3.564  -1.256  -2.094  0.00  0.00    -0.076 A 
ATOM      2  C3  UNL d   1      -3.714  -2.109  -3.201  0.00  0.00     0.004 A 
ATOM      3  C4  UNL d   1      -4.696  -1.872  -4.162  0.00  0.00    -0.003 A 
ATOM      4  C5  UNL d   1      -5.544  -0.779  -4.030  0.00  0.00     0.000 A 
ATOM      5  C6  UNL d   1      -5.399   0.088  -2.948  0.00  0.00     0.000 A 
ATOM      6  C7  UNL d   1      -4.403  -0.127  -1.979  0.00  0.00    -0.073 A 
ATOM      7  C8  UNL d   1      -4.295   0.836  -0.829  0.00  0.00     0.078 C 
ENDROOT
BRANCH   1   8
ATOM      8  C1  UNL d   1      -2.499  -1.578  -1.070  0.00  0.00     0.053 C 
ATOM      9  C   UNL d   1      -1.178  -0.885  -1.366  0.00  0.00     0.018 C 
ENDBRANCH   1   8
TORSDOF 1
ENDMDL
