MODEL 1
REMARK minimizedAffinity -4.33636284
REMARK minimizedRMSD -1
REMARK  1 active torsions:
REMARK  status: ('A' for Active; 'I' for Inactive)
REMARK    1  A    between atoms: C1_2  and  C2_3 
ROOT
ATOM      1  C2  UNL d   1       4.372  -4.359   4.231  0.00  0.00    -0.076 A 
ATOM      2  C3  UNL d   1       4.680  -4.704   2.904  0.00  0.00     0.004 A 
ATOM      3  C4  UNL d   1       4.920  -3.721   1.945  0.00  0.00    -0.003 A 
ATOM      4  C5  UNL d   1       4.856  -2.378   2.297  0.00  0.00     0.000 A 
ATOM      5  C6  UNL d   1       4.569  -2.018   3.613  0.00  0.00     0.000 A 
ATOM      6  C7  UNL d   1       4.341  -2.996   4.597  0.00  0.00    -0.073 A 
ATOM      7  C8  UNL d   1       4.030  -2.551   5.999  0.00  0.00     0.078 C 
ENDROOT
BRANCH   1   8
ATOM      8  C1  UNL d   1       4.095  -5.467   5.222  0.00  0.00     0.053 C 
ATOM      9  C   UNL d   1       5.363  -6.000   5.870  0.00  0.00     0.018 C 
ENDBRANCH   1   8
TORSDOF 1
ENDMDL
