MODEL 1
REMARK minimizedAffinity 15.8316221
REMARK minimizedRMSD -1
REMARK  1 active torsions:
REMARK  status: ('A' for Active; 'I' for Inactive)
REMARK    1  A    between atoms: C1_2  and  C2_3 
ROOT
ATOM      1  C2  UNL d   1      -3.733  -1.629  -1.742  0.00  0.00    -0.076 A 
ATOM      2  C3  UNL d   1      -3.904  -2.680  -2.660  0.00  0.00     0.004 A 
ATOM      3  C4  UNL d   1      -4.817  -2.576  -3.708  0.00  0.00    -0.003 A 
ATOM      4  C5  UNL d   1      -5.574  -1.418  -3.856  0.00  0.00     0.000 A 
ATOM      5  C6  UNL d   1      -5.404  -0.359  -2.965  0.00  0.00     0.000 A 
ATOM      6  C7  UNL d   1      -4.476  -0.441  -1.913  0.00  0.00    -0.073 A 
ATOM      7  C8  UNL d   1      -4.339   0.729  -0.978  0.00  0.00     0.078 C 
ENDROOT
BRANCH   1   8
ATOM      8  C1  UNL d   1      -2.748  -1.810  -0.610  0.00  0.00     0.053 C 
ATOM      9  C   UNL d   1      -1.338  -1.388  -0.991  0.00  0.00     0.018 C 
ENDBRANCH   1   8
TORSDOF 1
ENDMDL
