MODEL 1
REMARK minimizedAffinity -1.39549136
REMARK minimizedRMSD -1
REMARK  1 active torsions:
REMARK  status: ('A' for Active; 'I' for Inactive)
REMARK    1  A    between atoms: C1_2  and  C2_3 
ROOT
ATOM      1  C2  UNL d   1       3.378  -4.179   3.962  0.00  0.00    -0.076 A 
ATOM      2  C3  UNL d   1       4.032  -5.290   3.402  0.00  0.00     0.004 A 
ATOM      3  C4  UNL d   1       4.988  -6.000   4.126  0.00  0.00    -0.003 A 
ATOM      4  C5  UNL d   1       5.306  -5.610   5.423  0.00  0.00     0.000 A 
ATOM      5  C6  UNL d   1       4.655  -4.520   6.000  0.00  0.00     0.000 A 
ATOM      6  C7  UNL d   1       3.677  -3.804   5.289  0.00  0.00    -0.073 A 
ATOM      7  C8  UNL d   1       3.010  -2.633   5.958  0.00  0.00     0.078 C 
ENDROOT
BRANCH   1   8
ATOM      8  C1  UNL d   1       2.370  -3.431   3.119  0.00  0.00     0.053 C 
ATOM      9  C   UNL d   1       2.509  -3.738   1.635  0.00  0.00     0.018 C 
ENDBRANCH   1   8
TORSDOF 1
ENDMDL
