MODEL 1
REMARK minimizedAffinity -3.29511619
REMARK minimizedRMSD -1
REMARK  0 active torsions:
REMARK  status: ('A' for Active; 'I' for Inactive)
ROOT
ATOM      1  N1  IND d   1       0.309  -3.296  -1.488  0.00  0.00    -0.196 N 
ATOM      2  C2  IND d   1      -0.605  -3.546  -2.473  0.00  0.00     0.054 A 
ATOM      3  C3  IND d   1      -1.518  -2.550  -2.531  0.00  0.00    -0.031 A 
ATOM      4  C4  IND d   1      -1.645  -0.367  -1.173  0.00  0.00     0.051 A 
ATOM      5  C5  IND d   1      -1.052   0.290  -0.131  0.00  0.00    -0.031 A 
ATOM      6  C6  IND d   1       0.049  -0.225   0.523  0.00  0.00     0.015 A 
ATOM      7  C7  IND d   1       0.607  -1.415   0.151  0.00  0.00    -0.016 A 
ATOM      8  C8  IND d   1       0.004  -2.088  -0.902  0.00  0.00    -0.047 A 
ATOM      9  C9  IND d   1      -1.139  -1.591  -1.542  0.00  0.00    -0.096 A 
ATOM     10  HN1 IND d   1       0.965  -3.809  -1.270  0.00  0.00     0.298 HD
ENDROOT
TORSDOF 0
ENDMDL
