MODEL 1
REMARK minimizedAffinity -3.72123623
REMARK minimizedRMSD -1
REMARK  0 active torsions:
REMARK  status: ('A' for Active; 'I' for Inactive)
ROOT
ATOM      1  N1  IND d   1       0.333  -1.681   0.355  0.00  0.00    -0.196 N 
ATOM      2  C2  IND d   1      -0.547  -2.483  -0.316  0.00  0.00     0.054 A 
ATOM      3  C3  IND d   1      -1.669  -1.796  -0.624  0.00  0.00    -0.031 A 
ATOM      4  C4  IND d   1      -2.235   0.681  -0.213  0.00  0.00     0.051 A 
ATOM      5  C5  IND d   1      -1.760   1.808   0.397  0.00  0.00    -0.031 A 
ATOM      6  C6  IND d   1      -0.536   1.830   1.036  0.00  0.00     0.015 A 
ATOM      7  C7  IND d   1       0.265   0.725   1.078  0.00  0.00    -0.016 A 
ATOM      8  C8  IND d   1      -0.217  -0.423   0.465  0.00  0.00    -0.047 A 
ATOM      9  C9  IND d   1      -1.476  -0.463  -0.148  0.00  0.00    -0.096 A 
ATOM     10  HN1 IND d   1       1.101  -1.922   0.659  0.00  0.00     0.298 HD
ENDROOT
TORSDOF 0
ENDMDL
