MODEL 1
REMARK minimizedAffinity 0.545304239
REMARK minimizedRMSD -1
REMARK  0 active torsions:
REMARK  status: ('A' for Active; 'I' for Inactive)
ROOT
ATOM      1  N1  IND d   1       0.775  -0.163   0.037  0.00  0.00    -0.196 N 
ATOM      2  C2  IND d   1      -0.221   0.090   0.938  0.00  0.00     0.054 A 
ATOM      3  C3  IND d   1      -1.286  -0.706   0.698  0.00  0.00    -0.031 A 
ATOM      4  C4  IND d   1      -1.575  -2.567  -1.058  0.00  0.00     0.051 A 
ATOM      5  C5  IND d   1      -0.952  -3.143  -2.129  0.00  0.00    -0.031 A 
ATOM      6  C6  IND d   1       0.305  -2.749  -2.540  0.00  0.00     0.015 A 
ATOM      7  C7  IND d   1       0.994  -1.768  -1.885  0.00  0.00    -0.016 A 
ATOM      8  C8  IND d   1       0.362  -1.176  -0.801  0.00  0.00    -0.047 A 
ATOM      9  C9  IND d   1      -0.931  -1.542  -0.405  0.00  0.00    -0.096 A 
ATOM     10  HN1 IND d   1       1.533   0.242  -0.001  0.00  0.00     0.298 HD
ENDROOT
TORSDOF 0
ENDMDL
