MODEL 1
REMARK minimizedAffinity -2.26940465
REMARK minimizedRMSD -1
REMARK  0 active torsions:
REMARK  status: ('A' for Active; 'I' for Inactive)
ROOT
ATOM      1  N1  IND d   1       1.025  -0.842  -0.150  0.00  0.00    -0.196 N 
ATOM      2  C2  IND d   1      -0.291  -1.155  -0.346  0.00  0.00     0.054 A 
ATOM      3  C3  IND d   1      -1.069  -0.069  -0.139  0.00  0.00    -0.031 A 
ATOM      4  C4  IND d   1      -0.387   2.348   0.427  0.00  0.00     0.051 A 
ATOM      5  C5  IND d   1       0.700   3.115   0.740  0.00  0.00    -0.031 A 
ATOM      6  C6  IND d   1       1.977   2.593   0.770  0.00  0.00     0.015 A 
ATOM      7  C7  IND d   1       2.217   1.280   0.476  0.00  0.00    -0.016 A 
ATOM      8  C8  IND d   1       1.114   0.497   0.165  0.00  0.00    -0.047 A 
ATOM      9  C9  IND d   1      -0.188   1.011   0.174  0.00  0.00    -0.096 A 
ATOM     10  HN1 IND d   1       1.685  -1.388  -0.213  0.00  0.00     0.298 HD
ENDROOT
TORSDOF 0
ENDMDL
