MODEL 1
REMARK minimizedAffinity -0.832340598
REMARK minimizedRMSD -1
REMARK  0 active torsions:
REMARK  status: ('A' for Active; 'I' for Inactive)
ROOT
ATOM      1  N1  IND d   1      -1.916  -2.077  -2.190  0.00  0.00    -0.196 N 
ATOM      2  C2  IND d   1      -1.254  -3.176  -2.661  0.00  0.00     0.054 A 
ATOM      3  C3  IND d   1      -0.017  -3.249  -2.121  0.00  0.00    -0.031 A 
ATOM      4  C4  IND d   1       1.092  -1.727  -0.365  0.00  0.00     0.051 A 
ATOM      5  C5  IND d   1       0.894  -0.572   0.338  0.00  0.00    -0.031 A 
ATOM      6  C6  IND d   1      -0.275   0.154   0.234  0.00  0.00     0.015 A 
ATOM      7  C7  IND d   1      -1.299  -0.256  -0.571  0.00  0.00    -0.016 A 
ATOM      8  C8  IND d   1      -1.099  -1.425  -1.292  0.00  0.00    -0.047 A 
ATOM      9  C9  IND d   1       0.102  -2.143  -1.224  0.00  0.00    -0.096 A 
ATOM     10  HN1 IND d   1      -2.708  -1.833  -2.417  0.00  0.00     0.298 HD
ENDROOT
TORSDOF 0
ENDMDL
