MODEL 1
REMARK minimizedAffinity -5.09601212
REMARK minimizedRMSD -1
REMARK  0 active torsions:
REMARK  status: ('A' for Active; 'I' for Inactive)
ROOT
ATOM      1  N1  IND d   1       1.946  -0.608   0.468  0.00  0.00    -0.196 N 
ATOM      2  C2  IND d   1       3.034   0.210   0.340  0.00  0.00     0.054 A 
ATOM      3  C3  IND d   1       2.643   1.499   0.225  0.00  0.00    -0.031 A 
ATOM      4  C4  IND d   1       0.275   2.505   0.326  0.00  0.00     0.051 A 
ATOM      5  C5  IND d   1      -1.044   2.151   0.394  0.00  0.00    -0.031 A 
ATOM      6  C6  IND d   1      -1.441   0.834   0.496  0.00  0.00     0.015 A 
ATOM      7  C7  IND d   1      -0.530  -0.183   0.545  0.00  0.00    -0.016 A 
ATOM      8  C8  IND d   1       0.810   0.171   0.468  0.00  0.00    -0.047 A 
ATOM      9  C9  IND d   1       1.217   1.504   0.322  0.00  0.00    -0.096 A 
ATOM     10  HN1 IND d   1       1.968  -1.464   0.538  0.00  0.00     0.298 HD
ENDROOT
TORSDOF 0
ENDMDL
