MODEL 1
REMARK minimizedAffinity -4.42118406
REMARK minimizedRMSD -1
REMARK  0 active torsions:
REMARK  status: ('A' for Active; 'I' for Inactive)
ROOT
ATOM      1  N1  IND d   1       1.985   0.356   0.561  0.00  0.00    -0.196 N 
ATOM      2  C2  IND d   1       1.945  -1.006   0.660  0.00  0.00     0.054 A 
ATOM      3  C3  IND d   1       0.679  -1.425   0.882  0.00  0.00    -0.031 A 
ATOM      4  C4  IND d   1      -1.497  -0.056   1.016  0.00  0.00     0.051 A 
ATOM      5  C5  IND d   1      -1.962   1.229   1.022  0.00  0.00    -0.031 A 
ATOM      6  C6  IND d   1      -1.119   2.311   0.868  0.00  0.00     0.015 A 
ATOM      7  C7  IND d   1       0.226   2.146   0.691  0.00  0.00    -0.016 A 
ATOM      8  C8  IND d   1       0.703   0.843   0.692  0.00  0.00    -0.047 A 
ATOM      9  C9  IND d   1      -0.143  -0.256   0.890  0.00  0.00    -0.096 A 
ATOM     10  HN1 IND d   1       2.692   0.830   0.437  0.00  0.00     0.298 HD
ENDROOT
TORSDOF 0
ENDMDL
