MODEL 1
REMARK minimizedAffinity -4.37101412
REMARK minimizedRMSD -1
REMARK  0 active torsions:
REMARK  status: ('A' for Active; 'I' for Inactive)
ROOT
ATOM      1  N1  IND d   1       1.378  -0.454  -0.793  0.00  0.00    -0.196 N 
ATOM      2  C2  IND d   1       0.736   0.214   0.213  0.00  0.00     0.054 A 
ATOM      3  C3  IND d   1      -0.338  -0.491   0.634  0.00  0.00    -0.031 A 
ATOM      4  C4  IND d   1      -1.171  -2.808  -0.115  0.00  0.00     0.051 A 
ATOM      5  C5  IND d   1      -0.933  -3.794  -1.032  0.00  0.00    -0.031 A 
ATOM      6  C6  IND d   1       0.110  -3.716  -1.933  0.00  0.00     0.015 A 
ATOM      7  C7  IND d   1       0.964  -2.650  -1.942  0.00  0.00    -0.016 A 
ATOM      8  C8  IND d   1       0.722  -1.644  -1.017  0.00  0.00    -0.047 A 
ATOM      9  C9  IND d   1      -0.360  -1.698  -0.129  0.00  0.00    -0.096 A 
ATOM     10  HN1 IND d   1       2.074  -0.176  -1.215  0.00  0.00     0.298 HD
ENDROOT
TORSDOF 0
ENDMDL
