MODEL 1
REMARK minimizedAffinity -1.42421997
REMARK minimizedRMSD -1
REMARK  0 active torsions:
REMARK  status: ('A' for Active; 'I' for Inactive)
ROOT
ATOM      1  N1  IND d   1       0.434   0.199  -0.270  0.00  0.00    -0.196 N 
ATOM      2  C2  IND d   1      -0.484   0.507   0.696  0.00  0.00     0.054 A 
ATOM      3  C3  IND d   1      -1.368  -0.505   0.844  0.00  0.00    -0.031 A 
ATOM      4  C4  IND d   1      -1.439  -2.800  -0.320  0.00  0.00     0.051 A 
ATOM      5  C5  IND d   1      -0.831  -3.527  -1.305  0.00  0.00    -0.031 A 
ATOM      6  C6  IND d   1       0.253  -3.041  -2.007  0.00  0.00     0.015 A 
ATOM      7  C7  IND d   1       0.779  -1.809  -1.741  0.00  0.00    -0.016 A 
ATOM      8  C8  IND d   1       0.160  -1.064  -0.747  0.00  0.00    -0.047 A 
ATOM      9  C9  IND d   1      -0.967  -1.535  -0.061  0.00  0.00    -0.096 A 
ATOM     10  HN1 IND d   1       1.074   0.708  -0.534  0.00  0.00     0.298 HD
ENDROOT
TORSDOF 0
ENDMDL
