MODEL 1
REMARK minimizedAffinity -1.52183592
REMARK minimizedRMSD -1
REMARK  0 active torsions:
REMARK  status: ('A' for Active; 'I' for Inactive)
ROOT
ATOM      1  N1  IND d   1       1.127  -0.474   0.035  0.00  0.00    -0.196 N 
ATOM      2  C2  IND d   1      -0.214  -0.635  -0.176  0.00  0.00     0.054 A 
ATOM      3  C3  IND d   1      -0.892   0.450   0.262  0.00  0.00    -0.031 A 
ATOM      4  C4  IND d   1       0.005   2.646   1.262  0.00  0.00     0.051 A 
ATOM      5  C5  IND d   1       1.159   3.246   1.682  0.00  0.00    -0.031 A 
ATOM      6  C6  IND d   1       2.386   2.625   1.570  0.00  0.00     0.015 A 
ATOM      7  C7  IND d   1       2.507   1.380   1.021  0.00  0.00    -0.016 A 
ATOM      8  C8  IND d   1       1.337   0.765   0.599  0.00  0.00    -0.047 A 
ATOM      9  C9  IND d   1       0.084   1.372   0.749  0.00  0.00    -0.096 A 
ATOM     10  HN1 IND d   1       1.737  -1.050  -0.154  0.00  0.00     0.298 HD
ENDROOT
TORSDOF 0
ENDMDL
