MODEL 1
REMARK minimizedAffinity -2.46149921
REMARK minimizedRMSD -1
REMARK  0 active torsions:
REMARK  status: ('A' for Active; 'I' for Inactive)
ROOT
ATOM      1  N1  IND d   1       0.255  -0.703   0.208  0.00  0.00    -0.196 N 
ATOM      2  C2  IND d   1      -1.098  -0.510   0.181  0.00  0.00     0.054 A 
ATOM      3  C3  IND d   1      -1.402   0.748   0.573  0.00  0.00    -0.031 A 
ATOM      4  C4  IND d   1       0.169   2.688   1.205  0.00  0.00     0.051 A 
ATOM      5  C5  IND d   1       1.487   2.983   1.412  0.00  0.00    -0.031 A 
ATOM      6  C6  IND d   1       2.482   2.046   1.222  0.00  0.00     0.015 A 
ATOM      7  C7  IND d   1       2.196   0.777   0.805  0.00  0.00    -0.016 A 
ATOM      8  C8  IND d   1       0.858   0.472   0.600  0.00  0.00    -0.047 A 
ATOM      9  C9  IND d   1      -0.160   1.406   0.832  0.00  0.00    -0.096 A 
ATOM     10  HN1 IND d   1       0.661  -1.435   0.012  0.00  0.00     0.298 HD
ENDROOT
TORSDOF 0
ENDMDL
