MODEL 1
REMARK minimizedAffinity -4.1336503
REMARK minimizedRMSD -1
REMARK  0 active torsions:
REMARK  status: ('A' for Active; 'I' for Inactive)
ROOT
ATOM      1  N1  IND d   1       0.498  -0.823   0.083  0.00  0.00    -0.196 N 
ATOM      2  C2  IND d   1      -0.822  -1.000  -0.226  0.00  0.00     0.054 A 
ATOM      3  C3  IND d   1      -1.496   0.165  -0.096  0.00  0.00    -0.031 A 
ATOM      4  C4  IND d   1      -0.613   2.506   0.513  0.00  0.00     0.051 A 
ATOM      5  C5  IND d   1       0.518   3.160   0.916  0.00  0.00    -0.031 A 
ATOM      6  C6  IND d   1       1.725   2.507   1.062  0.00  0.00     0.015 A 
ATOM      7  C7  IND d   1       1.849   1.172   0.799  0.00  0.00    -0.016 A 
ATOM      8  C8  IND d   1       0.701   0.503   0.396  0.00  0.00    -0.047 A 
ATOM      9  C9  IND d   1      -0.536   1.152   0.287  0.00  0.00    -0.096 A 
ATOM     10  HN1 IND d   1       1.100  -1.437   0.082  0.00  0.00     0.298 HD
ENDROOT
TORSDOF 0
ENDMDL
