MODEL 1
REMARK minimizedAffinity -2.14684653
REMARK minimizedRMSD -1
REMARK  0 active torsions:
REMARK  status: ('A' for Active; 'I' for Inactive)
ROOT
ATOM      1  N1  IND d   1       0.776  -0.347   0.082  0.00  0.00    -0.196 N 
ATOM      2  C2  IND d   1      -0.538  -0.632  -0.165  0.00  0.00     0.054 A 
ATOM      3  C3  IND d   1      -1.312   0.442   0.110  0.00  0.00    -0.031 A 
ATOM      4  C4  IND d   1      -0.623   2.801   0.877  0.00  0.00     0.051 A 
ATOM      5  C5  IND d   1       0.462   3.531   1.272  0.00  0.00    -0.031 A 
ATOM      6  C6  IND d   1       1.734   2.996   1.288  0.00  0.00     0.015 A 
ATOM      7  C7  IND d   1       1.970   1.708   0.897  0.00  0.00    -0.016 A 
ATOM      8  C8  IND d   1       0.869   0.962   0.503  0.00  0.00    -0.047 A 
ATOM      9  C9  IND d   1      -0.430   1.486   0.525  0.00  0.00    -0.096 A 
ATOM     10  HN1 IND d   1       1.433  -0.893  -0.009  0.00  0.00     0.298 HD
ENDROOT
TORSDOF 0
ENDMDL
