MODEL 1
REMARK minimizedAffinity -4.32312059
REMARK minimizedRMSD -1
REMARK  0 active torsions:
REMARK  status: ('A' for Active; 'I' for Inactive)
ROOT
ATOM      1  N1  IND d   1       0.422  -2.337  -3.297  0.00  0.00    -0.196 N 
ATOM      2  C2  IND d   1      -0.733  -3.067  -3.257  0.00  0.00     0.054 A 
ATOM      3  C3  IND d   1      -1.390  -2.845  -2.097  0.00  0.00    -0.031 A 
ATOM      4  C4  IND d   1      -0.805  -1.246  -0.166  0.00  0.00     0.051 A 
ATOM      5  C5  IND d   1       0.172  -0.395   0.269  0.00  0.00    -0.031 A 
ATOM      6  C6  IND d   1       1.303  -0.140  -0.479  0.00  0.00     0.015 A 
ATOM      7  C7  IND d   1       1.496  -0.721  -1.700  0.00  0.00    -0.016 A 
ATOM      8  C8  IND d   1       0.509  -1.592  -2.142  0.00  0.00    -0.047 A 
ATOM      9  C9  IND d   1      -0.621  -1.887  -1.369  0.00  0.00    -0.096 A 
ATOM     10  HN1 IND d   1       0.997  -2.342  -3.937  0.00  0.00     0.298 HD
ENDROOT
TORSDOF 0
ENDMDL
