MODEL 1
REMARK minimizedAffinity -0.235880703
REMARK minimizedRMSD -1
REMARK  0 active torsions:
REMARK  status: ('A' for Active; 'I' for Inactive)
ROOT
ATOM      1  N1  IND d   1      -0.208   1.642  -0.702  0.00  0.00    -0.196 N 
ATOM      2  C2  IND d   1      -1.048   2.598  -0.203  0.00  0.00     0.054 A 
ATOM      3  C3  IND d   1      -1.774   2.097   0.822  0.00  0.00    -0.031 A 
ATOM      4  C4  IND d   1      -1.673  -0.232   1.914  0.00  0.00     0.051 A 
ATOM      5  C5  IND d   1      -1.085  -1.459   1.782  0.00  0.00    -0.031 A 
ATOM      6  C6  IND d   1      -0.155  -1.719   0.797  0.00  0.00     0.015 A 
ATOM      7  C7  IND d   1       0.233  -0.755  -0.089  0.00  0.00    -0.016 A 
ATOM      8  C8  IND d   1      -0.366   0.490   0.037  0.00  0.00    -0.047 A 
ATOM      9  C9  IND d   1      -1.343   0.748   1.008  0.00  0.00    -0.096 A 
ATOM     10  HN1 IND d   1       0.329   1.743  -1.366  0.00  0.00     0.298 HD
ENDROOT
TORSDOF 0
ENDMDL
