MODEL 1
REMARK minimizedAffinity -1.58571053
REMARK minimizedRMSD -1
REMARK  1 active torsions:
REMARK  status: ('A' for Active; 'I' for Inactive)
REMARK    1  A    between atoms: C1_2  and  C2_3 
ROOT
ATOM      1  C2  UNL d   1       3.857  -1.106  -1.745  0.00  0.00    -0.081 A 
ATOM      2  C3  UNL d   1       3.298   0.006  -2.387  0.00  0.00     0.006 A 
ATOM      3  C4  UNL d   1       1.977   0.381  -2.132  0.00  0.00     0.002 A 
ATOM      4  C5  UNL d   1       1.196  -0.343  -1.225  0.00  0.00    -0.080 A 
ATOM      5  C6  UNL d   1      -0.214   0.067  -0.918  0.00  0.00     0.076 C 
ATOM      6  C7  UNL d   1       1.749  -1.464  -0.596  0.00  0.00     0.002 A 
ATOM      7  C8  UNL d   1       3.069  -1.840  -0.852  0.00  0.00     0.006 A 
ENDROOT
BRANCH   1   8
ATOM      8  C1  UNL d   1       5.301  -1.475  -1.970  0.00  0.00     0.054 C 
ATOM      9  C   UNL d   1       6.000  -1.799  -0.657  0.00  0.00     0.018 C 
ENDBRANCH   1   8
TORSDOF 1
ENDMDL
