MODEL 1
REMARK minimizedAffinity 6.60134459
REMARK minimizedRMSD -1
REMARK  1 active torsions:
REMARK  status: ('A' for Active; 'I' for Inactive)
REMARK    1  A    between atoms: C1_2  and  C2_3 
ROOT
ATOM      1  C2  UNL d   1       2.045   1.118  -1.692  0.00  0.00    -0.081 A 
ATOM      2  C3  UNL d   1       2.376   0.965  -0.340  0.00  0.00     0.006 A 
ATOM      3  C4  UNL d   1       2.260   2.041   0.543  0.00  0.00     0.002 A 
ATOM      4  C5  UNL d   1       1.804   3.284   0.092  0.00  0.00    -0.080 A 
ATOM      5  C6  UNL d   1       1.646   4.439   1.036  0.00  0.00     0.076 C 
ATOM      6  C7  UNL d   1       1.489   3.442  -1.262  0.00  0.00     0.002 A 
ATOM      7  C8  UNL d   1       1.606   2.366  -2.146  0.00  0.00     0.006 A 
ENDROOT
BRANCH   1   8
ATOM      8  C1  UNL d   1       2.107  -0.058  -2.634  0.00  0.00     0.054 C 
ATOM      9  C   UNL d   1       1.197   0.148  -3.836  0.00  0.00     0.018 C 
ENDBRANCH   1   8
TORSDOF 1
ENDMDL
