MODEL 1
REMARK minimizedAffinity 7.65981197
REMARK minimizedRMSD -1
REMARK  1 active torsions:
REMARK  status: ('A' for Active; 'I' for Inactive)
REMARK    1  A    between atoms: C1_2  and  C2_3 
ROOT
ATOM      1  C2  UNL d   1      -0.764  -1.718   0.468  0.00  0.00    -0.081 A 
ATOM      2  C3  UNL d   1      -0.325  -0.682   1.301  0.00  0.00     0.006 A 
ATOM      3  C4  UNL d   1      -1.244   0.184   1.898  0.00  0.00     0.002 A 
ATOM      4  C5  UNL d   1      -2.617   0.024   1.678  0.00  0.00    -0.080 A 
ATOM      5  C6  UNL d   1      -3.616   0.928   2.337  0.00  0.00     0.076 C 
ATOM      6  C7  UNL d   1      -3.054  -1.000   0.832  0.00  0.00     0.002 A 
ATOM      7  C8  UNL d   1      -2.135  -1.866   0.234  0.00  0.00     0.006 A 
ENDROOT
BRANCH   1   8
ATOM      8  C1  UNL d   1       0.221  -2.693  -0.126  0.00  0.00     0.054 C 
ATOM      9  C   UNL d   1       0.618  -2.288  -1.538  0.00  0.00     0.018 C 
ENDBRANCH   1   8
TORSDOF 1
ENDMDL
