MODEL 1
REMARK minimizedAffinity 21.6570263
REMARK minimizedRMSD -1
REMARK  1 active torsions:
REMARK  status: ('A' for Active; 'I' for Inactive)
REMARK    1  A    between atoms: C1_2  and  C2_3 
ROOT
ATOM      1  C2  UNL d   1       1.755   3.508  -1.093  0.00  0.00    -0.081 A 
ATOM      2  C3  UNL d   1       1.332   2.727  -2.176  0.00  0.00     0.006 A 
ATOM      3  C4  UNL d   1       1.448   1.335  -2.133  0.00  0.00     0.002 A 
ATOM      4  C5  UNL d   1       1.981   0.702  -1.005  0.00  0.00    -0.080 A 
ATOM      5  C6  UNL d   1       2.083  -0.793  -0.934  0.00  0.00     0.076 C 
ATOM      6  C7  UNL d   1       2.419   1.483   0.070  0.00  0.00     0.002 A 
ATOM      7  C8  UNL d   1       2.304   2.874   0.027  0.00  0.00     0.006 A 
ENDROOT
BRANCH   1   8
ATOM      8  C1  UNL d   1       1.571   5.004  -1.110  0.00  0.00     0.054 C 
ATOM      9  C   UNL d   1       1.120   5.521   0.248  0.00  0.00     0.018 C 
ENDBRANCH   1   8
TORSDOF 1
ENDMDL
