MODEL 1
REMARK minimizedAffinity 14.1415415
REMARK minimizedRMSD -1
REMARK  1 active torsions:
REMARK  status: ('A' for Active; 'I' for Inactive)
REMARK    1  A    between atoms: C1_2  and  C2_3 
ROOT
ATOM      1  C2  UNL d   1       0.214  -2.670  -1.819  0.00  0.00    -0.081 A 
ATOM      2  C3  UNL d   1       1.053  -2.107  -2.788  0.00  0.00     0.006 A 
ATOM      3  C4  UNL d   1       1.826  -0.982  -2.488  0.00  0.00     0.002 A 
ATOM      4  C5  UNL d   1       1.778  -0.407  -1.213  0.00  0.00    -0.080 A 
ATOM      5  C6  UNL d   1       2.625   0.782  -0.869  0.00  0.00     0.076 C 
ATOM      6  C7  UNL d   1       0.927  -0.960  -0.250  0.00  0.00     0.002 A 
ATOM      7  C8  UNL d   1       0.154  -2.084  -0.550  0.00  0.00     0.006 A 
ENDROOT
BRANCH   1   8
ATOM      8  C1  UNL d   1      -0.571  -3.921  -2.119  0.00  0.00     0.054 C 
ATOM      9  C   UNL d   1      -0.687  -4.155  -3.618  0.00  0.00     0.018 C 
ENDBRANCH   1   8
TORSDOF 1
ENDMDL
