MODEL 1
REMARK minimizedAffinity 11.3237553
REMARK minimizedRMSD -1
REMARK  1 active torsions:
REMARK  status: ('A' for Active; 'I' for Inactive)
REMARK    1  A    between atoms: C1_2  and  C2_3 
ROOT
ATOM      1  C2  UNL d   1       1.186   1.346   4.457  0.00  0.00    -0.081 A 
ATOM      2  C3  UNL d   1       2.423   1.918   4.135  0.00  0.00     0.006 A 
ATOM      3  C4  UNL d   1       2.925   1.833   2.835  0.00  0.00     0.002 A 
ATOM      4  C5  UNL d   1       2.197   1.183   1.833  0.00  0.00    -0.080 A 
ATOM      5  C6  UNL d   1       2.711   1.111   0.426  0.00  0.00     0.076 C 
ATOM      6  C7  UNL d   1       0.969   0.596   2.159  0.00  0.00     0.002 A 
ATOM      7  C8  UNL d   1       0.466   0.680   3.459  0.00  0.00     0.006 A 
ENDROOT
BRANCH   1   8
ATOM      8  C1  UNL d   1       0.611   1.492   5.843  0.00  0.00     0.054 C 
ATOM      9  C   UNL d   1      -0.146   2.804   5.993  0.00  0.00     0.018 C 
ENDBRANCH   1   8
TORSDOF 1
ENDMDL
