MODEL 1
REMARK minimizedAffinity 16.8225079
REMARK minimizedRMSD -1
REMARK  1 active torsions:
REMARK  status: ('A' for Active; 'I' for Inactive)
REMARK    1  A    between atoms: C1_2  and  C2_3 
ROOT
ATOM      1  C2  UNL d   1       2.113   2.429  -0.908  0.00  0.00    -0.081 A 
ATOM      2  C3  UNL d   1       1.303   2.272  -2.040  0.00  0.00     0.006 A 
ATOM      3  C4  UNL d   1       1.257   1.049  -2.713  0.00  0.00     0.002 A 
ATOM      4  C5  UNL d   1       2.013  -0.039  -2.263  0.00  0.00    -0.080 A 
ATOM      5  C6  UNL d   1       1.950  -1.366  -2.959  0.00  0.00     0.076 C 
ATOM      6  C7  UNL d   1       2.836   0.124  -1.142  0.00  0.00     0.002 A 
ATOM      7  C8  UNL d   1       2.883   1.346  -0.469  0.00  0.00     0.006 A 
ENDROOT
BRANCH   1   8
ATOM      8  C1  UNL d   1       2.115   3.727  -0.142  0.00  0.00     0.054 C 
ATOM      9  C   UNL d   1       1.083   4.699  -0.696  0.00  0.00     0.018 C 
ENDBRANCH   1   8
TORSDOF 1
ENDMDL
