MODEL 1
REMARK minimizedAffinity 4.4434433
REMARK minimizedRMSD -1
REMARK  1 active torsions:
REMARK  status: ('A' for Active; 'I' for Inactive)
REMARK    1  A    between atoms: C1_2  and  C2_3 
ROOT
ATOM      1  C2  UNL d   1      -0.956  -3.042  -1.291  0.00  0.00    -0.081 A 
ATOM      2  C3  UNL d   1      -0.248  -1.840  -1.163  0.00  0.00     0.006 A 
ATOM      3  C4  UNL d   1       0.054  -1.328   0.101  0.00  0.00     0.002 A 
ATOM      4  C5  UNL d   1      -0.339  -2.011   1.256  0.00  0.00    -0.080 A 
ATOM      5  C6  UNL d   1       0.006  -1.487   2.619  0.00  0.00     0.076 C 
ATOM      6  C7  UNL d   1      -1.061  -3.203   1.128  0.00  0.00     0.002 A 
ATOM      7  C8  UNL d   1      -1.364  -3.715  -0.135  0.00  0.00     0.006 A 
ENDROOT
BRANCH   1   8
ATOM      8  C1  UNL d   1      -1.227  -3.630  -2.652  0.00  0.00     0.054 C 
ATOM      9  C   UNL d   1      -0.744  -5.071  -2.739  0.00  0.00     0.018 C 
ENDBRANCH   1   8
TORSDOF 1
ENDMDL
