MODEL 1
REMARK minimizedAffinity 25.4904671
REMARK minimizedRMSD -1
REMARK  1 active torsions:
REMARK  status: ('A' for Active; 'I' for Inactive)
REMARK    1  A    between atoms: C1_2  and  C2_3 
ROOT
ATOM      1  C2  UNL d   1      -0.844   0.753   2.933  0.00  0.00    -0.081 A 
ATOM      2  C3  UNL d   1      -0.348   0.950   4.227  0.00  0.00     0.006 A 
ATOM      3  C4  UNL d   1      -1.160   1.505   5.219  0.00  0.00     0.002 A 
ATOM      4  C5  UNL d   1      -2.482   1.865   4.936  0.00  0.00    -0.080 A 
ATOM      5  C6  UNL d   1      -3.373   2.433   6.000  0.00  0.00     0.076 C 
ATOM      6  C7  UNL d   1      -2.972   1.684   3.638  0.00  0.00     0.002 A 
ATOM      7  C8  UNL d   1      -2.161   1.129   2.646  0.00  0.00     0.006 A 
ENDROOT
BRANCH   1   8
ATOM      8  C1  UNL d   1       0.008   0.095   1.878  0.00  0.00     0.054 C 
ATOM      9  C   UNL d   1      -0.027  -1.422   2.004  0.00  0.00     0.018 C 
ENDBRANCH   1   8
TORSDOF 1
ENDMDL
