MODEL 1
REMARK minimizedAffinity 9.53190422
REMARK minimizedRMSD -1
REMARK  1 active torsions:
REMARK  status: ('A' for Active; 'I' for Inactive)
REMARK    1  A    between atoms: C1_2  and  C2_3 
ROOT
ATOM      1  C2  UNL d   1       1.513   2.600  -1.152  0.00  0.00    -0.081 A 
ATOM      2  C3  UNL d   1       1.965   2.466   0.166  0.00  0.00     0.006 A 
ATOM      3  C4  UNL d   1       1.976   3.567   1.026  0.00  0.00     0.002 A 
ATOM      4  C5  UNL d   1       1.528   4.817   0.585  0.00  0.00    -0.080 A 
ATOM      5  C6  UNL d   1       1.506   6.000   1.507  0.00  0.00     0.076 C 
ATOM      6  C7  UNL d   1       1.092   4.954  -0.738  0.00  0.00     0.002 A 
ATOM      7  C8  UNL d   1       1.082   3.854  -1.598  0.00  0.00     0.006 A 
ENDROOT
BRANCH   1   8
ATOM      8  C1  UNL d   1       1.439   1.400  -2.062  0.00  0.00     0.054 C 
ATOM      9  C   UNL d   1       1.954   0.147  -1.369  0.00  0.00     0.018 C 
ENDBRANCH   1   8
TORSDOF 1
ENDMDL
