MODEL 1
REMARK minimizedAffinity 21.5142097
REMARK minimizedRMSD -1
REMARK  1 active torsions:
REMARK  status: ('A' for Active; 'I' for Inactive)
REMARK    1  A    between atoms: C1_2  and  C2_3 
ROOT
ATOM      1  C2  UNL d   1       1.299  -0.538  -1.320  0.00  0.00    -0.081 A 
ATOM      2  C3  UNL d   1       0.325  -1.498  -1.620  0.00  0.00     0.006 A 
ATOM      3  C4  UNL d   1      -0.347  -2.169  -0.596  0.00  0.00     0.002 A 
ATOM      4  C5  UNL d   1      -0.063  -1.885   0.744  0.00  0.00    -0.080 A 
ATOM      5  C6  UNL d   1      -0.799  -2.576   1.854  0.00  0.00     0.076 C 
ATOM      6  C7  UNL d   1       0.922  -0.938   1.044  0.00  0.00     0.002 A 
ATOM      7  C8  UNL d   1       1.595  -0.268   0.020  0.00  0.00     0.006 A 
ENDROOT
BRANCH   1   8
ATOM      8  C1  UNL d   1       1.979   0.234  -2.422  0.00  0.00     0.054 C 
ATOM      9  C   UNL d   1       1.678   1.722  -2.323  0.00  0.00     0.018 C 
ENDBRANCH   1   8
TORSDOF 1
ENDMDL
