MODEL 1
REMARK minimizedAffinity -4.45216513
REMARK minimizedRMSD -1
REMARK  1 active torsions:
REMARK  status: ('A' for Active; 'I' for Inactive)
REMARK    1  A    between atoms: C1_2  and  C2_3 
ROOT
ATOM      1  C2  UNL d   1      -1.133  -0.132   1.257  0.00  0.00    -0.081 A 
ATOM      2  C3  UNL d   1      -0.199  -1.171   1.182  0.00  0.00     0.006 A 
ATOM      3  C4  UNL d   1       0.802  -1.155   0.207  0.00  0.00     0.002 A 
ATOM      4  C5  UNL d   1       0.889  -0.095  -0.702  0.00  0.00    -0.080 A 
ATOM      5  C6  UNL d   1       1.977  -0.050  -1.734  0.00  0.00     0.076 C 
ATOM      6  C7  UNL d   1      -0.055   0.935  -0.638  0.00  0.00     0.002 A 
ATOM      7  C8  UNL d   1      -1.056   0.918   0.336  0.00  0.00     0.006 A 
ENDROOT
BRANCH   1   8
ATOM      8  C1  UNL d   1      -2.174  -0.114   2.348  0.00  0.00     0.054 C 
ATOM      9  C   UNL d   1      -2.856   1.244   2.440  0.00  0.00     0.018 C 
ENDBRANCH   1   8
TORSDOF 1
ENDMDL
