MODEL 1
REMARK minimizedAffinity -2.90813446
REMARK minimizedRMSD -1
REMARK  1 active torsions:
REMARK  status: ('A' for Active; 'I' for Inactive)
REMARK    1  A    between atoms: C1_2  and  C2_3 
ROOT
ATOM      1  C2  UNL d   1       1.995   1.058  -1.439  0.00  0.00    -0.081 A 
ATOM      2  C3  UNL d   1       1.048   0.917  -0.417  0.00  0.00     0.006 A 
ATOM      3  C4  UNL d   1       0.105  -0.112  -0.463  0.00  0.00     0.002 A 
ATOM      4  C5  UNL d   1       0.097  -1.022  -1.525  0.00  0.00    -0.080 A 
ATOM      5  C6  UNL d   1      -0.891  -2.149  -1.571  0.00  0.00     0.076 C 
ATOM      6  C7  UNL d   1       1.032  -0.871  -2.555  0.00  0.00     0.002 A 
ATOM      7  C8  UNL d   1       1.975   0.158  -2.511  0.00  0.00     0.006 A 
ENDROOT
BRANCH   1   8
ATOM      8  C1  UNL d   1       3.054   2.127  -1.361  0.00  0.00     0.054 C 
ATOM      9  C   UNL d   1       4.439   1.522  -1.177  0.00  0.00     0.018 C 
ENDBRANCH   1   8
TORSDOF 1
ENDMDL
