MODEL 1
REMARK minimizedAffinity 1.04124653
REMARK minimizedRMSD -1
REMARK  1 active torsions:
REMARK  status: ('A' for Active; 'I' for Inactive)
REMARK    1  A    between atoms: C1_2  and  C2_3 
ROOT
ATOM      1  C2  UNL d   1      -4.561   3.609  -5.654  0.00  0.00    -0.081 A 
ATOM      2  C3  UNL d   1      -5.813   3.058  -5.954  0.00  0.00     0.006 A 
ATOM      3  C4  UNL d   1      -5.998   1.673  -5.947  0.00  0.00     0.002 A 
ATOM      4  C5  UNL d   1      -4.937   0.817  -5.633  0.00  0.00    -0.080 A 
ATOM      5  C6  UNL d   1      -5.129  -0.670  -5.593  0.00  0.00     0.076 C 
ATOM      6  C7  UNL d   1      -3.681   1.367  -5.351  0.00  0.00     0.002 A 
ATOM      7  C8  UNL d   1      -3.496   2.751  -5.358  0.00  0.00     0.006 A 
ENDROOT
BRANCH   1   8
ATOM      8  C1  UNL d   1      -4.375   5.103  -5.598  0.00  0.00     0.054 C 
ATOM      9  C   UNL d   1      -5.705   5.832  -5.732  0.00  0.00     0.018 C 
ENDBRANCH   1   8
TORSDOF 1
ENDMDL
