MODEL 1
REMARK minimizedAffinity 0.252968639
REMARK minimizedRMSD -1
REMARK  1 active torsions:
REMARK  status: ('A' for Active; 'I' for Inactive)
REMARK    1  A    between atoms: C1_2  and  C2_3 
ROOT
ATOM      1  C2  UNL d   1       0.909  -1.758  -1.067  0.00  0.00    -0.081 A 
ATOM      2  C3  UNL d   1       1.319  -2.930  -1.714  0.00  0.00     0.006 A 
ATOM      3  C4  UNL d   1       2.012  -2.866  -2.925  0.00  0.00     0.002 A 
ATOM      4  C5  UNL d   1       2.314  -1.630  -3.505  0.00  0.00    -0.080 A 
ATOM      5  C6  UNL d   1       3.083  -1.546  -4.790  0.00  0.00     0.076 C 
ATOM      6  C7  UNL d   1       1.889  -0.459  -2.869  0.00  0.00     0.002 A 
ATOM      7  C8  UNL d   1       1.196  -0.522  -1.658  0.00  0.00     0.006 A 
ENDROOT
BRANCH   1   8
ATOM      8  C1  UNL d   1       0.219  -1.822   0.271  0.00  0.00     0.054 C 
ATOM      9  C   UNL d   1       0.460  -0.555   1.079  0.00  0.00     0.018 C 
ENDBRANCH   1   8
TORSDOF 1
ENDMDL
