MODEL 1
REMARK minimizedAffinity 6.79919481
REMARK minimizedRMSD -1
REMARK  0 active torsions:
REMARK  status: ('A' for Active; 'I' for Inactive)
ROOT
ATOM      1  C   UNL d   1       1.875   1.198   0.394  0.00  0.00     0.172 C 
ATOM      2  N   UNL d   1       1.235   1.724   1.577  0.00  0.00    -0.070 N 
ATOM      3  C1  UNL d   1      -0.021   1.398   2.017  0.00  0.00    -0.004 A 
ATOM      4  C2  UNL d   1      -0.260   2.109   3.173  0.00  0.00    -0.047 A 
ATOM      5  C3  UNL d   1       0.891   2.889   3.437  0.00  0.00    -0.047 A 
ATOM      6  C4  UNL d   1       1.800   2.631   2.433  0.00  0.00    -0.004 A 
ENDROOT
TORSDOF 0
ENDMDL
