MODEL 1
REMARK minimizedAffinity -0.18478182
REMARK minimizedRMSD -1
REMARK  0 active torsions:
REMARK  status: ('A' for Active; 'I' for Inactive)
ROOT
ATOM      1  C   UNL d   1       1.152   1.042   0.105  0.00  0.00     0.172 C 
ATOM      2  N   UNL d   1       0.576  -0.135  -0.500  0.00  0.00    -0.070 N 
ATOM      3  C1  UNL d   1      -0.620  -0.188  -1.165  0.00  0.00    -0.004 A 
ATOM      4  C2  UNL d   1      -0.810  -1.485  -1.590  0.00  0.00    -0.047 A 
ATOM      5  C3  UNL d   1       0.310  -2.238  -1.165  0.00  0.00    -0.047 A 
ATOM      6  C4  UNL d   1       1.152  -1.378  -0.493  0.00  0.00    -0.004 A 
ENDROOT
TORSDOF 0
ENDMDL
