MODEL 1
REMARK minimizedAffinity 1.2659173
REMARK minimizedRMSD -1
REMARK  0 active torsions:
REMARK  status: ('A' for Active; 'I' for Inactive)
ROOT
ATOM      1  C   UNL d   1      -0.791  -0.750  -1.601  0.00  0.00     0.172 C 
ATOM      2  N   UNL d   1       0.316  -1.450  -0.994  0.00  0.00    -0.070 N 
ATOM      3  C1  UNL d   1       0.301  -2.751  -0.568  0.00  0.00    -0.004 A 
ATOM      4  C2  UNL d   1       1.546  -3.041  -0.051  0.00  0.00    -0.047 A 
ATOM      5  C3  UNL d   1       2.335  -1.872  -0.169  0.00  0.00    -0.047 A 
ATOM      6  C4  UNL d   1       1.549  -0.903  -0.756  0.00  0.00    -0.004 A 
ENDROOT
TORSDOF 0
ENDMDL
