MODEL 1
REMARK minimizedAffinity -0.433273971
REMARK minimizedRMSD -1
REMARK  0 active torsions:
REMARK  status: ('A' for Active; 'I' for Inactive)
ROOT
ATOM      1  C   UNL d   1       1.974   1.407   0.033  0.00  0.00     0.172 C 
ATOM      2  N   UNL d   1       3.284   1.675  -0.513  0.00  0.00    -0.070 N 
ATOM      3  C1  UNL d   1       4.010   2.820  -0.320  0.00  0.00    -0.004 A 
ATOM      4  C2  UNL d   1       5.199   2.685  -1.003  0.00  0.00    -0.047 A 
ATOM      5  C3  UNL d   1       5.186   1.417  -1.630  0.00  0.00    -0.047 A 
ATOM      6  C4  UNL d   1       3.989   0.812  -1.310  0.00  0.00    -0.004 A 
ENDROOT
TORSDOF 0
ENDMDL
