MODEL 1
REMARK minimizedAffinity 1.58311391
REMARK minimizedRMSD -1
REMARK  0 active torsions:
REMARK  status: ('A' for Active; 'I' for Inactive)
ROOT
ATOM      1  C   UNL d   1       3.692   1.484  -0.639  0.00  0.00     0.172 C 
ATOM      2  N   UNL d   1       2.666   0.468  -0.603  0.00  0.00    -0.070 N 
ATOM      3  C1  UNL d   1       1.318   0.697  -0.535  0.00  0.00    -0.004 A 
ATOM      4  C2  UNL d   1       0.683  -0.526  -0.522  0.00  0.00    -0.047 A 
ATOM      5  C3  UNL d   1       1.684  -1.524  -0.583  0.00  0.00    -0.047 A 
ATOM      6  C4  UNL d   1       2.902  -0.881  -0.632  0.00  0.00    -0.004 A 
ENDROOT
TORSDOF 0
ENDMDL
