MODEL 1
REMARK minimizedAffinity 1.12877584
REMARK minimizedRMSD -1
REMARK  0 active torsions:
REMARK  status: ('A' for Active; 'I' for Inactive)
ROOT
ATOM      1  C   UNL d   1       1.413   1.058   0.071  0.00  0.00     0.172 C 
ATOM      2  N   UNL d   1       2.732   1.468  -0.351  0.00  0.00    -0.070 N 
ATOM      3  C1  UNL d   1       3.584   0.734  -1.132  0.00  0.00    -0.004 A 
ATOM      4  C2  UNL d   1       4.735   1.471  -1.308  0.00  0.00    -0.047 A 
ATOM      5  C3  UNL d   1       4.570   2.689  -0.608  0.00  0.00    -0.047 A 
ATOM      6  C4  UNL d   1       3.320   2.661  -0.024  0.00  0.00    -0.004 A 
ENDROOT
TORSDOF 0
ENDMDL
