MODEL 1
REMARK minimizedAffinity -1.93909168
REMARK minimizedRMSD -1
REMARK  0 active torsions:
REMARK  status: ('A' for Active; 'I' for Inactive)
ROOT
ATOM      1  C   UNL d   1       3.348   1.430  -0.578  0.00  0.00     0.172 C 
ATOM      2  N   UNL d   1       2.389   0.357  -0.457  0.00  0.00    -0.070 N 
ATOM      3  C1  UNL d   1       2.678  -0.981  -0.501  0.00  0.00    -0.004 A 
ATOM      4  C2  UNL d   1       1.497  -1.674  -0.350  0.00  0.00    -0.047 A 
ATOM      5  C3  UNL d   1       0.461  -0.719  -0.211  0.00  0.00    -0.047 A 
ATOM      6  C4  UNL d   1       1.041   0.530  -0.281  0.00  0.00    -0.004 A 
ENDROOT
TORSDOF 0
ENDMDL
