MODEL 1
REMARK minimizedAffinity -3.65738535
REMARK minimizedRMSD -1
REMARK  0 active torsions:
REMARK  status: ('A' for Active; 'I' for Inactive)
ROOT
ATOM      1  C   UNL d   1       3.923   1.921   0.122  0.00  0.00     0.172 C 
ATOM      2  N   UNL d   1       3.123   0.721   0.046  0.00  0.00    -0.070 N 
ATOM      3  C1  UNL d   1       1.764   0.656   0.202  0.00  0.00    -0.004 A 
ATOM      4  C2  UNL d   1       1.385  -0.661   0.058  0.00  0.00    -0.047 A 
ATOM      5  C3  UNL d   1       2.557  -1.414  -0.193  0.00  0.00    -0.047 A 
ATOM      6  C4  UNL d   1       3.618  -0.534  -0.194  0.00  0.00    -0.004 A 
ENDROOT
TORSDOF 0
ENDMDL
