MODEL 1
REMARK minimizedAffinity -0.400544554
REMARK minimizedRMSD -1
REMARK  0 active torsions:
REMARK  status: ('A' for Active; 'I' for Inactive)
ROOT
ATOM      1  C   UNL d   1       2.612  -2.156  -0.504  0.00  0.00     0.172 C 
ATOM      2  N   UNL d   1       3.513  -1.361  -1.305  0.00  0.00    -0.070 N 
ATOM      3  C1  UNL d   1       4.183  -0.244  -0.883  0.00  0.00    -0.004 A 
ATOM      4  C2  UNL d   1       4.937   0.220  -1.940  0.00  0.00    -0.047 A 
ATOM      5  C3  UNL d   1       4.711  -0.647  -3.035  0.00  0.00    -0.047 A 
ATOM      6  C4  UNL d   1       3.825  -1.617  -2.615  0.00  0.00    -0.004 A 
ENDROOT
TORSDOF 0
ENDMDL
