MODEL 1
REMARK minimizedAffinity 1.92277217
REMARK minimizedRMSD -1
REMARK  0 active torsions:
REMARK  status: ('A' for Active; 'I' for Inactive)
ROOT
ATOM      1  C   UNL d   1       1.908   0.928  -0.322  0.00  0.00     0.172 C 
ATOM      2  N   UNL d   1       3.205   1.461  -0.667  0.00  0.00    -0.070 N 
ATOM      3  C1  UNL d   1       3.718   2.655  -0.237  0.00  0.00    -0.004 A 
ATOM      4  C2  UNL d   1       4.975   2.797  -0.785  0.00  0.00    -0.047 A 
ATOM      5  C3  UNL d   1       5.225   1.648  -1.573  0.00  0.00    -0.047 A 
ATOM      6  C4  UNL d   1       4.113   0.838  -1.482  0.00  0.00    -0.004 A 
ENDROOT
TORSDOF 0
ENDMDL
