MODEL 1
REMARK minimizedAffinity 4.5080452
REMARK minimizedRMSD -1
REMARK  0 active torsions:
REMARK  status: ('A' for Active; 'I' for Inactive)
ROOT
ATOM      1  C   UNL d   1       2.539  -2.076  -0.821  0.00  0.00     0.172 C 
ATOM      2  N   UNL d   1       1.216  -1.524  -0.990  0.00  0.00    -0.070 N 
ATOM      3  C1  UNL d   1       0.851  -0.230  -0.731  0.00  0.00    -0.004 A 
ATOM      4  C2  UNL d   1      -0.490  -0.103  -1.020  0.00  0.00    -0.047 A 
ATOM      5  C3  UNL d   1      -0.948  -1.366  -1.467  0.00  0.00    -0.047 A 
ATOM      6  C4  UNL d   1       0.129  -2.227  -1.439  0.00  0.00    -0.004 A 
ENDROOT
TORSDOF 0
ENDMDL
