MODEL 1
REMARK minimizedAffinity 0.966676474
REMARK minimizedRMSD -1
REMARK  0 active torsions:
REMARK  status: ('A' for Active; 'I' for Inactive)
ROOT
ATOM      1  C   UNL d   1       2.898  -2.110  -2.462  0.00  0.00     0.172 C 
ATOM      2  N   UNL d   1       1.724  -2.001  -1.629  0.00  0.00    -0.070 N 
ATOM      3  C1  UNL d   1       1.350  -2.889  -0.655  0.00  0.00    -0.004 A 
ATOM      4  C2  UNL d   1       0.179  -2.430  -0.093  0.00  0.00    -0.047 A 
ATOM      5  C3  UNL d   1      -0.165  -1.226  -0.752  0.00  0.00    -0.047 A 
ATOM      6  C4  UNL d   1       0.809  -0.984  -1.699  0.00  0.00    -0.004 A 
ENDROOT
TORSDOF 0
ENDMDL
