MODEL 1
REMARK minimizedAffinity -0.30884096
REMARK minimizedRMSD -1
REMARK  0 active torsions:
REMARK  status: ('A' for Active; 'I' for Inactive)
ROOT
ATOM      1  C   UNL d   1       1.047   0.729  -0.555  0.00  0.00     0.172 C 
ATOM      2  N   UNL d   1       0.474  -0.584  -0.736  0.00  0.00    -0.070 N 
ATOM      3  C1  UNL d   1       1.061  -1.768  -0.375  0.00  0.00    -0.004 A 
ATOM      4  C2  UNL d   1       0.198  -2.788  -0.713  0.00  0.00    -0.047 A 
ATOM      5  C3  UNL d   1      -0.947  -2.197  -1.299  0.00  0.00    -0.047 A 
ATOM      6  C4  UNL d   1      -0.749  -0.832  -1.300  0.00  0.00    -0.004 A 
ENDROOT
TORSDOF 0
ENDMDL
