MODEL 1
REMARK minimizedAffinity 2.11431026
REMARK minimizedRMSD -1
REMARK  1 active torsions:
REMARK  status: ('A' for Active; 'I' for Inactive)
REMARK    1  A    between atoms: C3_4  and  O_7 
ROOT
ATOM      1  C   UNL d   1      -4.563   0.089  -2.226  0.00  0.00    -0.033 A 
ATOM      2  C1  UNL d   1      -5.187  -1.072  -1.765  0.00  0.00     0.039 A 
ATOM      3  C2  UNL d   1      -4.462  -2.012  -1.030  0.00  0.00    -0.080 A 
ATOM      4  C3  UNL d   1      -3.116  -1.778  -0.761  0.00  0.00     0.150 A 
ATOM      5  C4  UNL d   1      -2.489  -0.622  -1.213  0.00  0.00    -0.007 A 
ATOM      6  C5  UNL d   1      -3.214   0.315  -1.949  0.00  0.00     0.039 A 
ENDROOT
BRANCH   4   7
ATOM      7  O   UNL d   1      -2.366  -2.669  -0.051  0.00  0.00    -0.526 OA
ATOM      8  H5  UNL d   1      -2.924  -3.433   0.171  0.00  0.00     0.418 HD
ENDBRANCH   4   7
TORSDOF 1
ENDMDL
