MODEL 1
REMARK minimizedAffinity 6.99766636
REMARK minimizedRMSD -1
REMARK  1 active torsions:
REMARK  status: ('A' for Active; 'I' for Inactive)
REMARK    1  A    between atoms: C3_4  and  O_7 
ROOT
ATOM      1  C   UNL d   1      -2.515  -2.722   0.627  0.00  0.00    -0.033 A 
ATOM      2  C1  UNL d   1      -2.009  -3.164  -0.597  0.00  0.00     0.039 A 
ATOM      3  C2  UNL d   1      -0.974  -4.101  -0.629  0.00  0.00    -0.080 A 
ATOM      4  C3  UNL d   1      -0.456  -4.588   0.568  0.00  0.00     0.150 A 
ATOM      5  C4  UNL d   1      -0.959  -4.155   1.791  0.00  0.00    -0.007 A 
ATOM      6  C5  UNL d   1      -1.991  -3.219   1.821  0.00  0.00     0.039 A 
ENDROOT
BRANCH   4   7
ATOM      7  O   UNL d   1       0.557  -5.499   0.587  0.00  0.00    -0.526 OA
ATOM      8  H5  UNL d   1       0.822  -5.684  -0.329  0.00  0.00     0.418 HD
ENDBRANCH   4   7
TORSDOF 1
ENDMDL
