MODEL 1
REMARK minimizedAffinity -3.92088675
REMARK minimizedRMSD -1
REMARK  1 active torsions:
REMARK  status: ('A' for Active; 'I' for Inactive)
REMARK    1  A    between atoms: C3_4  and  O_7 
ROOT
ATOM      1  C   UNL d   1      -0.665  -2.879   0.753  0.00  0.00    -0.033 A 
ATOM      2  C1  UNL d   1      -1.561  -2.277  -0.132  0.00  0.00     0.039 A 
ATOM      3  C2  UNL d   1      -1.186  -1.131  -0.837  0.00  0.00    -0.080 A 
ATOM      4  C3  UNL d   1       0.086  -0.599  -0.648  0.00  0.00     0.150 A 
ATOM      5  C4  UNL d   1       0.985  -1.195   0.230  0.00  0.00    -0.007 A 
ATOM      6  C5  UNL d   1       0.609  -2.339   0.933  0.00  0.00     0.039 A 
ENDROOT
BRANCH   4   7
ATOM      7  O   UNL d   1       0.495   0.521  -1.309  0.00  0.00    -0.526 OA
ATOM      8  H5  UNL d   1      -0.240   0.840  -1.859  0.00  0.00     0.418 HD
ENDBRANCH   4   7
TORSDOF 1
ENDMDL
