MODEL 1
REMARK minimizedAffinity 5.62308025
REMARK minimizedRMSD -1
REMARK  1 active torsions:
REMARK  status: ('A' for Active; 'I' for Inactive)
REMARK    1  A    between atoms: C3_4  and  O_7 
ROOT
ATOM      1  C   UNL d   1      -1.788  -2.976  -0.115  0.00  0.00    -0.033 A 
ATOM      2  C1  UNL d   1      -2.016  -3.900   0.907  0.00  0.00     0.039 A 
ATOM      3  C2  UNL d   1      -1.088  -4.912   1.156  0.00  0.00    -0.080 A 
ATOM      4  C3  UNL d   1       0.064  -4.989   0.378  0.00  0.00     0.150 A 
ATOM      5  C4  UNL d   1       0.301  -4.070  -0.639  0.00  0.00    -0.007 A 
ATOM      6  C5  UNL d   1      -0.628  -3.060  -0.887  0.00  0.00     0.039 A 
ENDROOT
BRANCH   4   7
ATOM      7  O   UNL d   1       0.997  -5.962   0.581  0.00  0.00    -0.526 OA
ATOM      8  H5  UNL d   1       0.687  -6.542   1.297  0.00  0.00     0.418 HD
ENDBRANCH   4   7
TORSDOF 1
ENDMDL
