MODEL 1
REMARK minimizedAffinity 5.4873662
REMARK minimizedRMSD -1
REMARK  1 active torsions:
REMARK  status: ('A' for Active; 'I' for Inactive)
REMARK    1  A    between atoms: C3_4  and  O_7 
ROOT
ATOM      1  C   UNL d   1       0.193  -4.536   0.043  0.00  0.00    -0.033 A 
ATOM      2  C1  UNL d   1      -0.872  -5.209   0.646  0.00  0.00     0.039 A 
ATOM      3  C2  UNL d   1      -2.127  -4.603   0.727  0.00  0.00    -0.080 A 
ATOM      4  C3  UNL d   1      -2.305  -3.327   0.201  0.00  0.00     0.150 A 
ATOM      5  C4  UNL d   1      -1.250  -2.652  -0.404  0.00  0.00    -0.007 A 
ATOM      6  C5  UNL d   1       0.003  -3.258  -0.483  0.00  0.00     0.039 A 
ENDROOT
BRANCH   4   7
ATOM      7  O   UNL d   1      -3.510  -2.693   0.261  0.00  0.00    -0.526 OA
ATOM      8  H5  UNL d   1      -4.137  -3.267   0.732  0.00  0.00     0.418 HD
ENDBRANCH   4   7
TORSDOF 1
ENDMDL
