MODEL 1
REMARK minimizedAffinity 2.30302691
REMARK minimizedRMSD -1
REMARK  1 active torsions:
REMARK  status: ('A' for Active; 'I' for Inactive)
REMARK    1  A    between atoms: C3_4  and  O_7 
ROOT
ATOM      1  C   UNL d   1      -3.389   0.159  -1.414  0.00  0.00    -0.033 A 
ATOM      2  C1  UNL d   1      -2.068  -0.200  -1.687  0.00  0.00     0.039 A 
ATOM      3  C2  UNL d   1      -1.519  -1.344  -1.103  0.00  0.00    -0.080 A 
ATOM      4  C3  UNL d   1      -2.300  -2.118  -0.250  0.00  0.00     0.150 A 
ATOM      5  C4  UNL d   1      -3.619  -1.768   0.023  0.00  0.00    -0.007 A 
ATOM      6  C5  UNL d   1      -4.165  -0.626  -0.560  0.00  0.00     0.039 A 
ENDROOT
BRANCH   4   7
ATOM      7  O   UNL d   1      -1.807  -3.240   0.347  0.00  0.00    -0.526 OA
ATOM      8  H5  UNL d   1      -0.875  -3.342   0.088  0.00  0.00     0.418 HD
ENDBRANCH   4   7
TORSDOF 1
ENDMDL
