MODEL 1
REMARK minimizedAffinity -0.639800191
REMARK minimizedRMSD -1
REMARK  1 active torsions:
REMARK  status: ('A' for Active; 'I' for Inactive)
REMARK    1  A    between atoms: C3_4  and  O_7 
ROOT
ATOM      1  C   UNL d   1      -2.800  -2.115   0.449  0.00  0.00    -0.033 A 
ATOM      2  C1  UNL d   1      -1.785  -2.143   1.408  0.00  0.00     0.039 A 
ATOM      3  C2  UNL d   1      -0.686  -2.988   1.239  0.00  0.00    -0.080 A 
ATOM      4  C3  UNL d   1      -0.615  -3.799   0.110  0.00  0.00     0.150 A 
ATOM      5  C4  UNL d   1      -1.620  -3.774  -0.850  0.00  0.00    -0.007 A 
ATOM      6  C5  UNL d   1      -2.717  -2.930  -0.680  0.00  0.00     0.039 A 
ENDROOT
BRANCH   4   7
ATOM      7  O   UNL d   1       0.436  -4.643  -0.095  0.00  0.00    -0.526 OA
ATOM      8  H5  UNL d   1       1.039  -4.575   0.664  0.00  0.00     0.418 HD
ENDBRANCH   4   7
TORSDOF 1
ENDMDL
