MODEL 1
REMARK minimizedAffinity 5.2589879
REMARK minimizedRMSD -1
REMARK  1 active torsions:
REMARK  status: ('A' for Active; 'I' for Inactive)
REMARK    1  A    between atoms: C3_4  and  O_7 
ROOT
ATOM      1  C   UNL d   1       4.215  -2.342   3.225  0.00  0.00    -0.033 A 
ATOM      2  C1  UNL d   1       4.126  -2.825   4.532  0.00  0.00     0.039 A 
ATOM      3  C2  UNL d   1       2.940  -2.674   5.254  0.00  0.00    -0.080 A 
ATOM      4  C3  UNL d   1       1.853  -2.041   4.659  0.00  0.00     0.150 A 
ATOM      5  C4  UNL d   1       1.934  -1.561   3.356  0.00  0.00    -0.007 A 
ATOM      6  C5  UNL d   1       3.118  -1.711   2.636  0.00  0.00     0.039 A 
ENDROOT
BRANCH   4   7
ATOM      7  O   UNL d   1       0.677  -1.866   5.326  0.00  0.00    -0.526 OA
ATOM      8  H5  UNL d   1       0.777  -2.222   6.225  0.00  0.00     0.418 HD
ENDBRANCH   4   7
TORSDOF 1
ENDMDL
