MODEL 1
REMARK minimizedAffinity 13.7101946
REMARK minimizedRMSD -1
REMARK  1 active torsions:
REMARK  status: ('A' for Active; 'I' for Inactive)
REMARK    1  A    between atoms: C3_4  and  O_7 
ROOT
ATOM      1  C   UNL d   1       0.556  -4.343   0.153  0.00  0.00    -0.033 A 
ATOM      2  C1  UNL d   1       0.123  -3.397   1.084  0.00  0.00     0.039 A 
ATOM      3  C2  UNL d   1      -1.119  -2.779   0.927  0.00  0.00    -0.080 A 
ATOM      4  C3  UNL d   1      -1.918  -3.116  -0.162  0.00  0.00     0.150 A 
ATOM      5  C4  UNL d   1      -1.494  -4.060  -1.091  0.00  0.00    -0.007 A 
ATOM      6  C5  UNL d   1      -0.253  -4.676  -0.934  0.00  0.00     0.039 A 
ENDROOT
BRANCH   4   7
ATOM      7  O   UNL d   1      -3.135  -2.536  -0.359  0.00  0.00    -0.526 OA
ATOM      8  H5  UNL d   1      -3.283  -1.883   0.345  0.00  0.00     0.418 HD
ENDBRANCH   4   7
TORSDOF 1
ENDMDL
