MODEL 1
REMARK minimizedAffinity -2.74953103
REMARK minimizedRMSD -1
REMARK  1 active torsions:
REMARK  status: ('A' for Active; 'I' for Inactive)
REMARK    1  A    between atoms: C3_4  and  O_7 
ROOT
ATOM      1  C   UNL d   1      -0.250   1.529  -0.453  0.00  0.00    -0.033 A 
ATOM      2  C1  UNL d   1       0.611   0.457  -0.700  0.00  0.00     0.039 A 
ATOM      3  C2  UNL d   1       1.145  -0.270   0.365  0.00  0.00    -0.080 A 
ATOM      4  C3  UNL d   1       0.811   0.083   1.670  0.00  0.00     0.150 A 
ATOM      5  C4  UNL d   1      -0.049   1.146   1.923  0.00  0.00    -0.007 A 
ATOM      6  C5  UNL d   1      -0.581   1.873   0.858  0.00  0.00     0.039 A 
ENDROOT
BRANCH   4   7
ATOM      7  O   UNL d   1       1.312  -0.595   2.742  0.00  0.00    -0.526 OA
ATOM      8  H5  UNL d   1       1.913  -1.285   2.416  0.00  0.00     0.418 HD
ENDBRANCH   4   7
TORSDOF 1
ENDMDL
