MODEL 1
REMARK minimizedAffinity 2.93171167
REMARK minimizedRMSD -1
REMARK  1 active torsions:
REMARK  status: ('A' for Active; 'I' for Inactive)
REMARK    1  A    between atoms: C3_4  and  O_7 
ROOT
ATOM      1  C   UNL d   1       0.252   2.613  -0.867  0.00  0.00    -0.033 A 
ATOM      2  C1  UNL d   1      -0.880   1.796  -0.861  0.00  0.00     0.039 A 
ATOM      3  C2  UNL d   1      -2.129   2.327  -1.186  0.00  0.00    -0.080 A 
ATOM      4  C3  UNL d   1      -2.232   3.676  -1.517  0.00  0.00     0.150 A 
ATOM      5  C4  UNL d   1      -1.108   4.495  -1.529  0.00  0.00    -0.007 A 
ATOM      6  C5  UNL d   1       0.138   3.962  -1.202  0.00  0.00     0.039 A 
ENDROOT
BRANCH   4   7
ATOM      7  O   UNL d   1      -3.431   4.241  -1.837  0.00  0.00    -0.526 OA
ATOM      8  H5  UNL d   1      -4.122   3.562  -1.759  0.00  0.00     0.418 HD
ENDBRANCH   4   7
TORSDOF 1
ENDMDL
