MODEL 1
REMARK minimizedAffinity 3.23830199
REMARK minimizedRMSD -1
REMARK  1 active torsions:
REMARK  status: ('A' for Active; 'I' for Inactive)
REMARK    1  A    between atoms: C3_4  and  O_7 
ROOT
ATOM      1  C   UNL d   1       1.018   0.426   3.057  0.00  0.00    -0.033 A 
ATOM      2  C1  UNL d   1       1.039  -0.394   1.928  0.00  0.00     0.039 A 
ATOM      3  C2  UNL d   1       0.705   0.129   0.677  0.00  0.00    -0.080 A 
ATOM      4  C3  UNL d   1       0.354   1.472   0.569  0.00  0.00     0.150 A 
ATOM      5  C4  UNL d   1       0.336   2.296   1.690  0.00  0.00    -0.007 A 
ATOM      6  C5  UNL d   1       0.668   1.772   2.938  0.00  0.00     0.039 A 
ENDROOT
BRANCH   4   7
ATOM      7  O   UNL d   1       0.016   2.026  -0.630  0.00  0.00    -0.526 OA
ATOM      8  H5  UNL d   1       0.045   1.332  -1.309  0.00  0.00     0.418 HD
ENDBRANCH   4   7
TORSDOF 1
ENDMDL
