MODEL 1
REMARK minimizedAffinity 11.4607735
REMARK minimizedRMSD -1
REMARK  0 active torsions:
REMARK  status: ('A' for Active; 'I' for Inactive)
ROOT
ATOM      1  C   UNL d   1      -3.057  -0.469  -3.826  0.00  0.00     0.124 A 
ATOM      2  C1  UNL d   1      -2.745   0.328  -2.734  0.00  0.00     0.062 A 
ATOM      3  C2  UNL d   1      -3.092   1.676  -2.729  0.00  0.00     0.162 A 
ATOM      4  C3  UNL d   1      -3.756   2.235  -3.821  0.00  0.00    -0.034 A 
ATOM      5  C4  UNL d   1      -4.065   1.427  -4.917  0.00  0.00     0.162 A 
ATOM      6  C5  UNL d   1      -3.716   0.080  -4.916  0.00  0.00     0.062 A 
ATOM      7  F   UNL d   1      -4.018  -0.689  -5.973  0.00  0.00    -0.097 F 
ATOM      8  F1  UNL d   1      -4.703   1.932  -5.983  0.00  0.00    -0.096 F 
ATOM      9  I   UNL d   1      -4.277   4.250  -3.819  0.00  0.00    -0.060 I 
ATOM     10  F2  UNL d   1      -2.779   2.423  -1.660  0.00  0.00    -0.096 F 
ATOM     11  F3  UNL d   1      -2.107  -0.200  -1.680  0.00  0.00    -0.097 F 
ATOM     12  F4  UNL d   1      -2.721  -1.766  -3.828  0.00  0.00    -0.092 F 
ENDROOT
TORSDOF 0
ENDMDL
