MODEL 1
REMARK minimizedAffinity 6.60070848
REMARK minimizedRMSD -1
REMARK  0 active torsions:
REMARK  status: ('A' for Active; 'I' for Inactive)
ROOT
ATOM      1  C   UNL d   1       3.694  -4.283   0.166  0.00  0.00     0.124 A 
ATOM      2  C1  UNL d   1       4.686  -5.073   0.731  0.00  0.00     0.062 A 
ATOM      3  C2  UNL d   1       5.036  -4.907   2.067  0.00  0.00     0.162 A 
ATOM      4  C3  UNL d   1       4.394  -3.947   2.849  0.00  0.00    -0.034 A 
ATOM      5  C4  UNL d   1       3.399  -3.155   2.274  0.00  0.00     0.162 A 
ATOM      6  C5  UNL d   1       3.052  -3.325   0.937  0.00  0.00     0.062 A 
ATOM      7  F   UNL d   1       2.094  -2.560   0.393  0.00  0.00    -0.097 F 
ATOM      8  F1  UNL d   1       2.762  -2.222   2.997  0.00  0.00    -0.096 F 
ATOM      9  I   UNL d   1       4.916  -3.695   4.848  0.00  0.00    -0.060 I 
ATOM     10  F2  UNL d   1       5.998  -5.685   2.587  0.00  0.00    -0.096 F 
ATOM     11  F3  UNL d   1       5.308  -5.999  -0.013  0.00  0.00    -0.097 F 
ATOM     12  F4  UNL d   1       3.360  -4.444  -1.121  0.00  0.00    -0.092 F 
ENDROOT
TORSDOF 0
ENDMDL
