MODEL 1
REMARK minimizedAffinity 25.4120998
REMARK minimizedRMSD -1
REMARK  0 active torsions:
REMARK  status: ('A' for Active; 'I' for Inactive)
ROOT
ATOM      1  C   UNL d   1       3.380  -3.982   0.882  0.00  0.00     0.124 A 
ATOM      2  C1  UNL d   1       4.638  -3.403   0.788  0.00  0.00     0.062 A 
ATOM      3  C2  UNL d   1       4.772  -2.083   0.369  0.00  0.00     0.162 A 
ATOM      4  C3  UNL d   1       3.643  -1.331   0.042  0.00  0.00    -0.034 A 
ATOM      5  C4  UNL d   1       2.382  -1.920   0.138  0.00  0.00     0.162 A 
ATOM      6  C5  UNL d   1       2.253  -3.240   0.557  0.00  0.00     0.062 A 
ATOM      7  F   UNL d   1       1.037  -3.797   0.647  0.00  0.00    -0.097 F 
ATOM      8  F1  UNL d   1       1.276  -1.225  -0.169  0.00  0.00    -0.096 F 
ATOM      9  I   UNL d   1       3.839   0.644  -0.585  0.00  0.00    -0.060 I 
ATOM     10  F2  UNL d   1       6.000  -1.549   0.287  0.00  0.00    -0.096 F 
ATOM     11  F3  UNL d   1       5.729  -4.118   1.100  0.00  0.00    -0.097 F 
ATOM     12  F4  UNL d   1       3.255  -5.253   1.284  0.00  0.00    -0.092 F 
ENDROOT
TORSDOF 0
ENDMDL
