MODEL 1
REMARK minimizedAffinity 7.91124249
REMARK minimizedRMSD -1
REMARK  0 active torsions:
REMARK  status: ('A' for Active; 'I' for Inactive)
ROOT
ATOM      1  C   UNL d   1      -3.324  -0.332  -2.535  0.00  0.00     0.124 A 
ATOM      2  C1  UNL d   1      -2.928  -0.518  -3.852  0.00  0.00     0.062 A 
ATOM      3  C2  UNL d   1      -2.792   0.575  -4.703  0.00  0.00     0.162 A 
ATOM      4  C3  UNL d   1      -3.052   1.865  -4.240  0.00  0.00    -0.034 A 
ATOM      5  C4  UNL d   1      -3.451   2.044  -2.914  0.00  0.00     0.162 A 
ATOM      6  C5  UNL d   1      -3.585   0.948  -2.067  0.00  0.00     0.062 A 
ATOM      7  F   UNL d   1      -3.967   1.130  -0.795  0.00  0.00    -0.097 F 
ATOM      8  F1  UNL d   1      -3.709   3.270  -2.435  0.00  0.00    -0.096 F 
ATOM      9  I   UNL d   1      -2.851   3.502  -5.509  0.00  0.00    -0.060 I 
ATOM     10  F2  UNL d   1      -2.408   0.366  -5.971  0.00  0.00    -0.096 F 
ATOM     11  F3  UNL d   1      -2.676  -1.754  -4.307  0.00  0.00    -0.097 F 
ATOM     12  F4  UNL d   1      -3.454  -1.385  -1.719  0.00  0.00    -0.092 F 
ENDROOT
TORSDOF 0
ENDMDL
