MODEL 1
REMARK minimizedAffinity 22.2962513
REMARK minimizedRMSD -1
REMARK  0 active torsions:
REMARK  status: ('A' for Active; 'I' for Inactive)
ROOT
ATOM      1  C   UNL d   1      -2.563  -0.655  -5.247  0.00  0.00     0.124 A 
ATOM      2  C1  UNL d   1      -3.892  -0.771  -4.861  0.00  0.00     0.062 A 
ATOM      3  C2  UNL d   1      -4.719   0.348  -4.854  0.00  0.00     0.162 A 
ATOM      4  C3  UNL d   1      -4.221   1.594  -5.235  0.00  0.00    -0.034 A 
ATOM      5  C4  UNL d   1      -2.884   1.704  -5.621  0.00  0.00     0.162 A 
ATOM      6  C5  UNL d   1      -2.061   0.582  -5.626  0.00  0.00     0.062 A 
ATOM      7  F   UNL d   1      -0.778   0.697  -5.998  0.00  0.00    -0.097 F 
ATOM      8  F1  UNL d   1      -2.373   2.886  -5.993  0.00  0.00    -0.096 F 
ATOM      9  I   UNL d   1      -5.456   3.269  -5.226  0.00  0.00    -0.060 I 
ATOM     10  F2  UNL d   1      -5.999   0.205  -4.477  0.00  0.00    -0.096 F 
ATOM     11  F3  UNL d   1      -4.379  -1.965  -4.494  0.00  0.00    -0.097 F 
ATOM     12  F4  UNL d   1      -1.769  -1.733  -5.252  0.00  0.00    -0.092 F 
ENDROOT
TORSDOF 0
ENDMDL
