MODEL 1
REMARK minimizedAffinity 11.027029
REMARK minimizedRMSD -1
REMARK  0 active torsions:
REMARK  status: ('A' for Active; 'I' for Inactive)
ROOT
ATOM      1  C   UNL d   1      -4.848  -0.403  -4.510  0.00  0.00     0.124 A 
ATOM      2  C1  UNL d   1      -3.655  -1.100  -4.381  0.00  0.00     0.062 A 
ATOM      3  C2  UNL d   1      -2.459  -0.524  -4.798  0.00  0.00     0.162 A 
ATOM      4  C3  UNL d   1      -2.449   0.758  -5.348  0.00  0.00    -0.034 A 
ATOM      5  C4  UNL d   1      -3.654   1.453  -5.475  0.00  0.00     0.162 A 
ATOM      6  C5  UNL d   1      -4.847   0.873  -5.057  0.00  0.00     0.062 A 
ATOM      7  F   UNL d   1      -5.998   1.548  -5.182  0.00  0.00    -0.097 F 
ATOM      8  F1  UNL d   1      -3.680   2.688  -5.998  0.00  0.00    -0.096 F 
ATOM      9  I   UNL d   1      -0.663   1.624  -5.972  0.00  0.00    -0.060 I 
ATOM     10  F2  UNL d   1      -1.321  -1.221  -4.662  0.00  0.00    -0.096 F 
ATOM     11  F3  UNL d   1      -3.655  -2.333  -3.855  0.00  0.00    -0.097 F 
ATOM     12  F4  UNL d   1      -5.998  -0.960  -4.109  0.00  0.00    -0.092 F 
ENDROOT
TORSDOF 0
ENDMDL
