MODEL 1
REMARK minimizedAffinity 9.09021854
REMARK minimizedRMSD -1
REMARK  2 active torsions:
REMARK  status: ('A' for Active; 'I' for Inactive)
REMARK    1  A    between atoms: C1_2  and  C2_3 
REMARK    2  A    between atoms: C2_3  and  C3_4 
ROOT
ATOM      1  C3  UNL d   1      -3.330  -3.275  -5.748  0.00  0.00    -0.075 A 
ATOM      2  C4  UNL d   1      -2.361  -4.238  -5.432  0.00  0.00     0.002 A 
ATOM      3  C5  UNL d   1      -2.696  -5.592  -5.390  0.00  0.00     0.002 A 
ATOM      4  C6  UNL d   1      -4.003  -5.998  -5.653  0.00  0.00    -0.004 A 
ATOM      5  C7  UNL d   1      -4.977  -5.048  -5.951  0.00  0.00     0.002 A 
ATOM      6  C8  UNL d   1      -4.644  -3.693  -5.998  0.00  0.00     0.002 A 
ENDROOT
BRANCH   1   7
ATOM      7  C2  UNL d   1      -2.968  -1.811  -5.824  0.00  0.00     0.056 C 
BRANCH   7   8
ATOM      8  C1  UNL d   1      -1.466  -1.547  -5.973  0.00  0.00     0.007 C 
ATOM      9  C   UNL d   1      -0.959  -0.431  -5.069  0.00  0.00     0.009 C 
ENDBRANCH   7   8
ENDBRANCH   1   7
TORSDOF 2
ENDMDL
