MODEL 1
REMARK minimizedAffinity 6.03415585
REMARK minimizedRMSD -1
REMARK  2 active torsions:
REMARK  status: ('A' for Active; 'I' for Inactive)
REMARK    1  A    between atoms: C1_2  and  C2_3 
REMARK    2  A    between atoms: C2_3  and  C3_4 
ROOT
ATOM      1  C3  UNL d   1      -1.727   1.860  -0.732  0.00  0.00    -0.075 A 
ATOM      2  C4  UNL d   1      -2.329   0.602  -0.582  0.00  0.00     0.002 A 
ATOM      3  C5  UNL d   1      -2.022  -0.438  -1.459  0.00  0.00     0.002 A 
ATOM      4  C6  UNL d   1      -1.120  -0.233  -2.500  0.00  0.00    -0.004 A 
ATOM      5  C7  UNL d   1      -0.528   1.017  -2.668  0.00  0.00     0.002 A 
ATOM      6  C8  UNL d   1      -0.830   2.059  -1.790  0.00  0.00     0.002 A 
ENDROOT
BRANCH   1   7
ATOM      7  C2  UNL d   1      -2.032   2.982   0.232  0.00  0.00     0.056 C 
BRANCH   7   8
ATOM      8  C1  UNL d   1      -1.730   2.646   1.696  0.00  0.00     0.007 C 
ATOM      9  C   UNL d   1      -0.246   2.450   1.974  0.00  0.00     0.009 C 
ENDBRANCH   7   8
ENDBRANCH   1   7
TORSDOF 2
ENDMDL
