MODEL 1
REMARK minimizedAffinity 0.81324172
REMARK minimizedRMSD -1
REMARK  2 active torsions:
REMARK  status: ('A' for Active; 'I' for Inactive)
REMARK    1  A    between atoms: C1_2  and  C2_3 
REMARK    2  A    between atoms: C2_3  and  C3_4 
ROOT
ATOM      1  C3  UNL d   1      -0.313   1.290  -0.382  0.00  0.00    -0.075 A 
ATOM      2  C4  UNL d   1      -0.623   2.132   0.696  0.00  0.00     0.002 A 
ATOM      3  C5  UNL d   1       0.200   2.176   1.821  0.00  0.00     0.002 A 
ATOM      4  C6  UNL d   1       1.336   1.372   1.888  0.00  0.00    -0.004 A 
ATOM      5  C7  UNL d   1       1.645   0.519   0.831  0.00  0.00     0.002 A 
ATOM      6  C8  UNL d   1       0.826   0.477  -0.298  0.00  0.00     0.002 A 
ENDROOT
BRANCH   1   7
ATOM      7  C2  UNL d   1      -1.183   1.260  -1.615  0.00  0.00     0.056 C 
BRANCH   7   8
ATOM      8  C1  UNL d   1      -0.629   2.073  -2.790  0.00  0.00     0.007 C 
ATOM      9  C   UNL d   1      -1.166   3.497  -2.841  0.00  0.00     0.009 C 
ENDBRANCH   7   8
ENDBRANCH   1   7
TORSDOF 2
ENDMDL
