MODEL 1
REMARK minimizedAffinity 2.40364194
REMARK minimizedRMSD -1
REMARK  2 active torsions:
REMARK  status: ('A' for Active; 'I' for Inactive)
REMARK    1  A    between atoms: C1_2  and  C2_3 
REMARK    2  A    between atoms: C2_3  and  C3_4 
ROOT
ATOM      1  C3  UNL d   1      -0.515   2.089   0.334  0.00  0.00    -0.075 A 
ATOM      2  C4  UNL d   1      -0.965   3.096  -0.532  0.00  0.00     0.002 A 
ATOM      3  C5  UNL d   1      -1.002   2.880  -1.910  0.00  0.00     0.002 A 
ATOM      4  C6  UNL d   1      -0.581   1.662  -2.439  0.00  0.00    -0.004 A 
ATOM      5  C7  UNL d   1      -0.116   0.661  -1.589  0.00  0.00     0.002 A 
ATOM      6  C8  UNL d   1      -0.082   0.872  -0.209  0.00  0.00     0.002 A 
ENDROOT
BRANCH   1   7
ATOM      7  C2  UNL d   1      -0.500   2.306   1.829  0.00  0.00     0.056 C 
BRANCH   7   8
ATOM      8  C1  UNL d   1      -1.143   1.170   2.630  0.00  0.00     0.007 C 
ATOM      9  C   UNL d   1      -0.129   0.311   3.373  0.00  0.00     0.009 C 
ENDBRANCH   7   8
ENDBRANCH   1   7
TORSDOF 2
ENDMDL
