MODEL 1
REMARK minimizedAffinity 7.02918148
REMARK minimizedRMSD -1
REMARK  2 active torsions:
REMARK  status: ('A' for Active; 'I' for Inactive)
REMARK    1  A    between atoms: C1_2  and  C2_3 
REMARK    2  A    between atoms: C2_3  and  C3_4 
ROOT
ATOM      1  C3  UNL d   1      -0.771   1.325  -0.432  0.00  0.00    -0.075 A 
ATOM      2  C4  UNL d   1      -1.919   0.523  -0.365  0.00  0.00     0.002 A 
ATOM      3  C5  UNL d   1      -2.278  -0.290  -1.440  0.00  0.00     0.002 A 
ATOM      4  C6  UNL d   1      -1.502  -0.305  -2.596  0.00  0.00    -0.004 A 
ATOM      5  C7  UNL d   1      -0.368   0.500  -2.680  0.00  0.00     0.002 A 
ATOM      6  C8  UNL d   1      -0.004   1.312  -1.604  0.00  0.00     0.002 A 
ENDROOT
BRANCH   1   7
ATOM      7  C2  UNL d   1      -0.360   2.186   0.739  0.00  0.00     0.056 C 
BRANCH   7   8
ATOM      8  C1  UNL d   1      -1.338   2.143   1.918  0.00  0.00     0.007 C 
ATOM      9  C   UNL d   1      -0.662   1.841   3.248  0.00  0.00     0.009 C 
ENDBRANCH   7   8
ENDBRANCH   1   7
TORSDOF 2
ENDMDL
