MODEL 1
REMARK minimizedAffinity 6.45587635
REMARK minimizedRMSD -1
REMARK  2 active torsions:
REMARK  status: ('A' for Active; 'I' for Inactive)
REMARK    1  A    between atoms: C1_2  and  C2_3 
REMARK    2  A    between atoms: C2_3  and  C3_4 
ROOT
ATOM      1  C3  UNL d   1      -1.091   1.328  -0.767  0.00  0.00    -0.075 A 
ATOM      2  C4  UNL d   1      -2.336   0.736  -0.509  0.00  0.00     0.002 A 
ATOM      3  C5  UNL d   1      -2.717  -0.430  -1.173  0.00  0.00     0.002 A 
ATOM      4  C6  UNL d   1      -1.866  -1.013  -2.109  0.00  0.00    -0.004 A 
ATOM      5  C7  UNL d   1      -0.633  -0.425  -2.385  0.00  0.00     0.002 A 
ATOM      6  C8  UNL d   1      -0.247   0.740  -1.719  0.00  0.00     0.002 A 
ENDROOT
BRANCH   1   7
ATOM      7  C2  UNL d   1      -0.660   2.573  -0.031  0.00  0.00     0.056 C 
BRANCH   7   8
ATOM      8  C1  UNL d   1       0.176   2.299   1.223  0.00  0.00     0.007 C 
ATOM      9  C   UNL d   1      -0.661   2.177   2.489  0.00  0.00     0.009 C 
ENDBRANCH   7   8
ENDBRANCH   1   7
TORSDOF 2
ENDMDL
