MODEL 1
REMARK minimizedAffinity -0.601362944
REMARK minimizedRMSD -1
REMARK  1 active torsions:
REMARK  status: ('A' for Active; 'I' for Inactive)
REMARK    1  A    between atoms: C1_2  and  C2_3 
ROOT
ATOM      1  C2  UNL d   1      -0.001   1.651  -0.319  0.00  0.00    -0.076 A 
ATOM      2  C3  UNL d   1      -0.104   2.433   0.845  0.00  0.00     0.004 A 
ATOM      3  C4  UNL d   1       0.067   1.868   2.107  0.00  0.00    -0.003 A 
ATOM      4  C5  UNL d   1       0.344   0.510   2.227  0.00  0.00     0.000 A 
ATOM      5  C6  UNL d   1       0.467  -0.277   1.083  0.00  0.00     0.000 A 
ATOM      6  C7  UNL d   1       0.314   0.281  -0.198  0.00  0.00    -0.073 A 
ATOM      7  C8  UNL d   1       0.452  -0.617  -1.398  0.00  0.00     0.078 C 
ENDROOT
BRANCH   1   8
ATOM      8  C1  UNL d   1      -0.223   2.314  -1.659  0.00  0.00     0.053 C 
ATOM      9  C   UNL d   1      -0.176   3.832  -1.574  0.00  0.00     0.018 C 
ENDBRANCH   1   8
TORSDOF 1
ENDMDL
