MODEL 1
REMARK minimizedAffinity -4.75168562
REMARK minimizedRMSD -1
REMARK  1 active torsions:
REMARK  status: ('A' for Active; 'I' for Inactive)
REMARK    1  A    between atoms: C1_2  and  C2_3 
ROOT
ATOM      1  C2  UNL d   1      -0.167   0.048   0.097  0.00  0.00    -0.076 A 
ATOM      2  C3  UNL d   1      -0.099  -0.399   1.428  0.00  0.00     0.004 A 
ATOM      3  C4  UNL d   1      -0.386   0.459   2.488  0.00  0.00    -0.003 A 
ATOM      4  C5  UNL d   1      -0.747   1.777   2.235  0.00  0.00     0.000 A 
ATOM      5  C6  UNL d   1      -0.837   2.233   0.920  0.00  0.00     0.000 A 
ATOM      6  C7  UNL d   1      -0.566   1.377  -0.161  0.00  0.00    -0.073 A 
ATOM      7  C8  UNL d   1      -0.673   1.923  -1.559  0.00  0.00     0.078 C 
ENDROOT
BRANCH   1   8
ATOM      8  C1  UNL d   1       0.182  -0.920  -1.011  0.00  0.00     0.053 C 
ATOM      9  C   UNL d   1      -0.994  -1.798  -1.410  0.00  0.00     0.018 C 
ENDBRANCH   1   8
TORSDOF 1
ENDMDL
