MODEL 1
REMARK minimizedAffinity -4.00634432
REMARK minimizedRMSD -1
REMARK  1 active torsions:
REMARK  status: ('A' for Active; 'I' for Inactive)
REMARK    1  A    between atoms: C1_2  and  C2_3 
ROOT
ATOM      1  C2  UNL d   1       0.126   0.297   0.200  0.00  0.00    -0.076 A 
ATOM      2  C3  UNL d   1       0.086  -0.037   1.565  0.00  0.00     0.004 A 
ATOM      3  C4  UNL d   1      -0.564   0.783   2.485  0.00  0.00    -0.003 A 
ATOM      4  C5  UNL d   1      -1.186   1.950   2.056  0.00  0.00     0.000 A 
ATOM      5  C6  UNL d   1      -1.172   2.288   0.703  0.00  0.00     0.000 A 
ATOM      6  C7  UNL d   1      -0.535   1.463  -0.241  0.00  0.00    -0.073 A 
ATOM      7  C8  UNL d   1      -0.546   1.879  -1.686  0.00  0.00     0.078 C 
ENDROOT
BRANCH   1   8
ATOM      8  C1  UNL d   1       0.869  -0.617  -0.748  0.00  0.00     0.053 C 
ATOM      9  C   UNL d   1       0.115  -1.909  -1.023  0.00  0.00     0.018 C 
ENDBRANCH   1   8
TORSDOF 1
ENDMDL
