MODEL 1
REMARK minimizedAffinity 1.20478463
REMARK minimizedRMSD -1
REMARK  1 active torsions:
REMARK  status: ('A' for Active; 'I' for Inactive)
REMARK    1  A    between atoms: C1_2  and  C2_3 
ROOT
ATOM      1  C2  UNL d   1       0.143   1.297  -0.346  0.00  0.00    -0.076 A 
ATOM      2  C3  UNL d   1       0.460  -0.039  -0.046  0.00  0.00     0.004 A 
ATOM      3  C4  UNL d   1       0.771  -0.428   1.256  0.00  0.00    -0.003 A 
ATOM      4  C5  UNL d   1       0.769   0.513   2.279  0.00  0.00     0.000 A 
ATOM      5  C6  UNL d   1       0.440   1.840   2.003  0.00  0.00     0.000 A 
ATOM      6  C7  UNL d   1       0.108   2.245   0.698  0.00  0.00    -0.073 A 
ATOM      7  C8  UNL d   1      -0.233   3.690   0.456  0.00  0.00     0.078 C 
ENDROOT
BRANCH   1   8
ATOM      8  C1  UNL d   1      -0.159   1.665  -1.781  0.00  0.00     0.053 C 
ATOM      9  C   UNL d   1       0.621   0.819  -2.776  0.00  0.00     0.018 C 
ENDBRANCH   1   8
TORSDOF 1
ENDMDL
