MODEL 1
REMARK minimizedAffinity 1.31231022
REMARK minimizedRMSD -1
REMARK  1 active torsions:
REMARK  status: ('A' for Active; 'I' for Inactive)
REMARK    1  A    between atoms: C1_2  and  C2_3 
ROOT
ATOM      1  C2  UNL d   1       0.454  -0.748  -0.061  0.00  0.00    -0.076 A 
ATOM      2  C3  UNL d   1       0.588  -1.227   1.254  0.00  0.00     0.004 A 
ATOM      3  C4  UNL d   1       0.299  -0.412   2.347  0.00  0.00    -0.003 A 
ATOM      4  C5  UNL d   1      -0.130   0.895   2.144  0.00  0.00     0.000 A 
ATOM      5  C6  UNL d   1      -0.286   1.381   0.847  0.00  0.00     0.000 A 
ATOM      6  C7  UNL d   1      -0.015   0.568  -0.267  0.00  0.00    -0.073 A 
ATOM      7  C8  UNL d   1      -0.194   1.146  -1.644  0.00  0.00     0.078 C 
ENDROOT
BRANCH   1   8
ATOM      8  C1  UNL d   1       0.808  -1.668  -1.207  0.00  0.00     0.053 C 
ATOM      9  C   UNL d   1       0.899  -3.124  -0.778  0.00  0.00     0.018 C 
ENDBRANCH   1   8
TORSDOF 1
ENDMDL
