MODEL 1
REMARK minimizedAffinity 10.8074274
REMARK minimizedRMSD -1
REMARK  1 active torsions:
REMARK  status: ('A' for Active; 'I' for Inactive)
REMARK    1  A    between atoms: C1_2  and  C2_3 
ROOT
ATOM      1  C2  UNL d   1       0.395   2.428   0.886  0.00  0.00    -0.076 A 
ATOM      2  C3  UNL d   1       0.685   2.704   2.234  0.00  0.00     0.004 A 
ATOM      3  C4  UNL d   1       0.735   1.682   3.181  0.00  0.00    -0.003 A 
ATOM      4  C5  UNL d   1       0.497   0.368   2.795  0.00  0.00     0.000 A 
ATOM      5  C6  UNL d   1       0.225   0.073   1.460  0.00  0.00     0.000 A 
ATOM      6  C7  UNL d   1       0.187   1.089   0.489  0.00  0.00    -0.073 A 
ATOM      7  C8  UNL d   1      -0.117   0.716  -0.936  0.00  0.00     0.078 C 
ENDROOT
BRANCH   1   8
ATOM      8  C1  UNL d   1       0.328   3.580  -0.091  0.00  0.00     0.053 C 
ATOM      9  C   UNL d   1       0.518   4.929   0.585  0.00  0.00     0.018 C 
ENDBRANCH   1   8
TORSDOF 1
ENDMDL
