MODEL 1
REMARK minimizedAffinity 0.889535725
REMARK minimizedRMSD -1
REMARK  0 active torsions:
REMARK  status: ('A' for Active; 'I' for Inactive)
ROOT
ATOM      1  C1  BNZ d   1       0.139   0.927   0.123  0.00  0.00     0.000 A 
ATOM      2  C2  BNZ d   1       0.616   1.262  -1.116  0.00  0.00     0.000 A 
ATOM      3  C3  BNZ d   1       1.950   1.481  -1.317  0.00  0.00     0.000 A 
ATOM      4  C4  BNZ d   1       2.799   1.405  -0.272  0.00  0.00     0.000 A 
ATOM      5  C5  BNZ d   1       2.332   1.078   0.986  0.00  0.00     0.000 A 
ATOM      6  C6  BNZ d   1       0.994   0.820   1.176  0.00  0.00     0.000 A 
ENDROOT
TORSDOF 0
ENDMDL
