MODEL 1
REMARK minimizedAffinity -3.31151581
REMARK minimizedRMSD -1
REMARK  0 active torsions:
REMARK  status: ('A' for Active; 'I' for Inactive)
ROOT
ATOM      1  C1  BNZ d   1      -1.790   0.402  -0.405  0.00  0.00     0.000 A 
ATOM      2  C2  BNZ d   1      -0.821   1.017  -1.151  0.00  0.00     0.000 A 
ATOM      3  C3  BNZ d   1       0.426   1.237  -0.635  0.00  0.00     0.000 A 
ATOM      4  C4  BNZ d   1       0.689   0.878   0.638  0.00  0.00     0.000 A 
ATOM      5  C5  BNZ d   1      -0.281   0.266   1.407  0.00  0.00     0.000 A 
ATOM      6  C6  BNZ d   1      -1.522   0.011   0.871  0.00  0.00     0.000 A 
ENDROOT
TORSDOF 0
ENDMDL
