MODEL 1
REMARK minimizedAffinity -2.43178201
REMARK minimizedRMSD -1
REMARK  0 active torsions:
REMARK  status: ('A' for Active; 'I' for Inactive)
ROOT
ATOM      1  C1  BNZ d   1      -1.612   0.403   1.798  0.00  0.00     0.000 A 
ATOM      2  C2  BNZ d   1      -0.982   0.944   0.709  0.00  0.00     0.000 A 
ATOM      3  C3  BNZ d   1      -0.223   0.165  -0.119  0.00  0.00     0.000 A 
ATOM      4  C4  BNZ d   1      -0.064  -1.144   0.164  0.00  0.00     0.000 A 
ATOM      5  C5  BNZ d   1      -0.686  -1.702   1.263  0.00  0.00     0.000 A 
ATOM      6  C6  BNZ d   1      -1.480  -0.923   2.073  0.00  0.00     0.000 A 
ENDROOT
TORSDOF 0
ENDMDL
