MODEL 1
REMARK minimizedAffinity -4.57576275
REMARK minimizedRMSD -1
REMARK  0 active torsions:
REMARK  status: ('A' for Active; 'I' for Inactive)
ROOT
ATOM      1  C1  BNZ d   1       1.753   1.150  -1.981  0.00  0.00     0.000 A 
ATOM      2  C2  BNZ d   1       1.006   1.520  -0.894  0.00  0.00     0.000 A 
ATOM      3  C3  BNZ d   1       0.321   0.588  -0.167  0.00  0.00     0.000 A 
ATOM      4  C4  BNZ d   1       0.350  -0.705  -0.550  0.00  0.00     0.000 A 
ATOM      5  C5  BNZ d   1       1.091  -1.092  -1.648  0.00  0.00     0.000 A 
ATOM      6  C6  BNZ d   1       1.811  -0.157  -2.355  0.00  0.00     0.000 A 
ENDROOT
TORSDOF 0
ENDMDL
