MODEL 1
REMARK minimizedAffinity -4.67377996
REMARK minimizedRMSD -1
REMARK  0 active torsions:
REMARK  status: ('A' for Active; 'I' for Inactive)
ROOT
ATOM      1  C1  BNZ d   1       0.105  -0.673  -0.028  0.00  0.00     0.000 A 
ATOM      2  C2  BNZ d   1       0.716  -1.184  -1.141  0.00  0.00     0.000 A 
ATOM      3  C3  BNZ d   1       1.566  -0.417  -1.888  0.00  0.00     0.000 A 
ATOM      4  C4  BNZ d   1       1.772   0.870  -1.544  0.00  0.00     0.000 A 
ATOM      5  C5  BNZ d   1       1.156   1.404  -0.430  0.00  0.00     0.000 A 
ATOM      6  C6  BNZ d   1       0.332   0.617   0.342  0.00  0.00     0.000 A 
ENDROOT
TORSDOF 0
ENDMDL
