MODEL 1
REMARK minimizedAffinity -0.952231646
REMARK minimizedRMSD -1
REMARK  0 active torsions:
REMARK  status: ('A' for Active; 'I' for Inactive)
ROOT
ATOM      1  C1  BNZ d   1      -0.162  -0.045   1.095  0.00  0.00     0.000 A 
ATOM      2  C2  BNZ d   1       0.376   1.103   0.577  0.00  0.00     0.000 A 
ATOM      3  C3  BNZ d   1       1.149   1.067  -0.550  0.00  0.00     0.000 A 
ATOM      4  C4  BNZ d   1       1.415  -0.120  -1.133  0.00  0.00     0.000 A 
ATOM      5  C5  BNZ d   1       0.887  -1.287  -0.617  0.00  0.00     0.000 A 
ATOM      6  C6  BNZ d   1       0.078  -1.242   0.494  0.00  0.00     0.000 A 
ENDROOT
TORSDOF 0
ENDMDL
