MODEL 1
REMARK minimizedAffinity -4.69031143
REMARK minimizedRMSD -1
REMARK  0 active torsions:
REMARK  status: ('A' for Active; 'I' for Inactive)
ROOT
ATOM      1  C1  BNZ d   1       1.310  -2.194  -2.490  0.00  0.00     0.000 A 
ATOM      2  C2  BNZ d   1       0.594  -2.191  -1.323  0.00  0.00     0.000 A 
ATOM      3  C3  BNZ d   1       0.365  -1.027  -0.645  0.00  0.00     0.000 A 
ATOM      4  C4  BNZ d   1       0.884   0.127  -1.114  0.00  0.00     0.000 A 
ATOM      5  C5  BNZ d   1       1.615   0.139  -2.285  0.00  0.00     0.000 A 
ATOM      6  C6  BNZ d   1       1.812  -1.029  -2.985  0.00  0.00     0.000 A 
ENDROOT
TORSDOF 0
ENDMDL
