MODEL 1
REMARK minimizedAffinity -2.20758677
REMARK minimizedRMSD -1
REMARK  0 active torsions:
REMARK  status: ('A' for Active; 'I' for Inactive)
ROOT
ATOM      1  C1  BNZ d   1       1.872   0.667  -1.419  0.00  0.00     0.000 A 
ATOM      2  C2  BNZ d   1       0.910   1.271  -0.655  0.00  0.00     0.000 A 
ATOM      3  C3  BNZ d   1       0.031   0.527   0.081  0.00  0.00     0.000 A 
ATOM      4  C4  BNZ d   1       0.090  -0.819   0.021  0.00  0.00     0.000 A 
ATOM      5  C5  BNZ d   1       1.048  -1.443  -0.752  0.00  0.00     0.000 A 
ATOM      6  C6  BNZ d   1       1.956  -0.691  -1.461  0.00  0.00     0.000 A 
ENDROOT
TORSDOF 0
ENDMDL
