MODEL 1
REMARK minimizedAffinity -4.63417435
REMARK minimizedRMSD -1
REMARK  0 active torsions:
REMARK  status: ('A' for Active; 'I' for Inactive)
ROOT
ATOM      1  C1  BNZ d   1       2.014  -0.617  -2.246  0.00  0.00     0.000 A 
ATOM      2  C2  BNZ d   1       0.905  -1.342  -1.897  0.00  0.00     0.000 A 
ATOM      3  C3  BNZ d   1      -0.040  -0.816  -1.062  0.00  0.00     0.000 A 
ATOM      4  C4  BNZ d   1       0.143   0.417  -0.545  0.00  0.00     0.000 A 
ATOM      5  C5  BNZ d   1       1.260   1.156  -0.880  0.00  0.00     0.000 A 
ATOM      6  C6  BNZ d   1       2.191   0.638  -1.752  0.00  0.00     0.000 A 
ENDROOT
TORSDOF 0
ENDMDL
