MODEL 1
REMARK minimizedAffinity -2.72115707
REMARK minimizedRMSD -1
REMARK  0 active torsions:
REMARK  status: ('A' for Active; 'I' for Inactive)
ROOT
ATOM      1  C1  BNZ d   1      -1.640   0.076   0.340  0.00  0.00     0.000 A 
ATOM      2  C2  BNZ d   1      -2.772   0.457  -0.329  0.00  0.00     0.000 A 
ATOM      3  C3  BNZ d   1      -3.896   0.830   0.353  0.00  0.00     0.000 A 
ATOM      4  C4  BNZ d   1      -3.900   0.783   1.701  0.00  0.00     0.000 A 
ATOM      5  C5  BNZ d   1      -2.769   0.392   2.390  0.00  0.00     0.000 A 
ATOM      6  C6  BNZ d   1      -1.627   0.054   1.700  0.00  0.00     0.000 A 
ENDROOT
TORSDOF 0
ENDMDL
