MODEL 1
REMARK minimizedAffinity -1.398646
REMARK minimizedRMSD -1
REMARK  0 active torsions:
REMARK  status: ('A' for Active; 'I' for Inactive)
ROOT
ATOM      1  C1  BNZ d   1      -1.024  -0.137   0.105  0.00  0.00     0.000 A 
ATOM      2  C2  BNZ d   1      -0.965   0.840  -0.851  0.00  0.00     0.000 A 
ATOM      3  C3  BNZ d   1       0.189   1.540  -1.066  0.00  0.00     0.000 A 
ATOM      4  C4  BNZ d   1       1.269   1.290  -0.298  0.00  0.00     0.000 A 
ATOM      5  C5  BNZ d   1       1.222   0.314   0.677  0.00  0.00     0.000 A 
ATOM      6  C6  BNZ d   1       0.071  -0.416   0.864  0.00  0.00     0.000 A 
ENDROOT
TORSDOF 0
ENDMDL
