MODEL 1
REMARK minimizedAffinity -4.34346867
REMARK minimizedRMSD -1
REMARK  0 active torsions:
REMARK  status: ('A' for Active; 'I' for Inactive)
ROOT
ATOM      1  C1  BNZ d   1       1.487   0.878  -0.977  0.00  0.00     0.000 A 
ATOM      2  C2  BNZ d   1       1.353  -0.454  -1.263  0.00  0.00     0.000 A 
ATOM      3  C3  BNZ d   1       0.709  -1.294  -0.398  0.00  0.00     0.000 A 
ATOM      4  C4  BNZ d   1       0.238  -0.810   0.769  0.00  0.00     0.000 A 
ATOM      5  C5  BNZ d   1       0.374   0.529   1.076  0.00  0.00     0.000 A 
ATOM      6  C6  BNZ d   1       0.987   1.380   0.185  0.00  0.00     0.000 A 
ENDROOT
TORSDOF 0
ENDMDL
