MODEL 1
REMARK minimizedAffinity -4.73338366
REMARK minimizedRMSD -1
REMARK  0 active torsions:
REMARK  status: ('A' for Active; 'I' for Inactive)
ROOT
ATOM      1  C1  BNZ d   1       1.427   0.602  -0.216  0.00  0.00     0.000 A 
ATOM      2  C2  BNZ d   1       2.260   0.435  -1.290  0.00  0.00     0.000 A 
ATOM      3  C3  BNZ d   1       1.970  -0.477  -2.266  0.00  0.00     0.000 A 
ATOM      4  C4  BNZ d   1       0.870  -1.248  -2.146  0.00  0.00     0.000 A 
ATOM      5  C5  BNZ d   1       0.025  -1.098  -1.065  0.00  0.00     0.000 A 
ATOM      6  C6  BNZ d   1       0.300  -0.152  -0.104  0.00  0.00     0.000 A 
ENDROOT
TORSDOF 0
ENDMDL
