MODEL 1
REMARK minimizedAffinity -5.01819468
REMARK minimizedRMSD -1
REMARK  0 active torsions:
REMARK  status: ('A' for Active; 'I' for Inactive)
ROOT
ATOM      1  C1  BNZ d   1       2.016   0.385  -2.436  0.00  0.00     0.000 A 
ATOM      2  C2  BNZ d   1       1.122   0.843  -1.506  0.00  0.00     0.000 A 
ATOM      3  C3  BNZ d   1       0.321  -0.026  -0.818  0.00  0.00     0.000 A 
ATOM      4  C4  BNZ d   1       0.387  -1.345  -1.090  0.00  0.00     0.000 A 
ATOM      5  C5  BNZ d   1       1.277  -1.821  -2.032  0.00  0.00     0.000 A 
ATOM      6  C6  BNZ d   1       2.109  -0.948  -2.694  0.00  0.00     0.000 A 
ENDROOT
TORSDOF 0
ENDMDL
