MODEL 1
REMARK minimizedAffinity -5.18865633
REMARK minimizedRMSD -1
REMARK  0 active torsions:
REMARK  status: ('A' for Active; 'I' for Inactive)
ROOT
ATOM      1  C1  BNZ d   1       1.067  -1.463  -2.054  0.00  0.00     0.000 A 
ATOM      2  C2  BNZ d   1       1.355  -0.200  -2.498  0.00  0.00     0.000 A 
ATOM      3  C3  BNZ d   1       1.249   0.876  -1.662  0.00  0.00     0.000 A 
ATOM      4  C4  BNZ d   1       0.818   0.694  -0.397  0.00  0.00     0.000 A 
ATOM      5  C5  BNZ d   1       0.514  -0.572   0.062  0.00  0.00     0.000 A 
ATOM      6  C6  BNZ d   1       0.659  -1.658  -0.770  0.00  0.00     0.000 A 
ENDROOT
TORSDOF 0
ENDMDL
