MODEL 1
REMARK minimizedAffinity 11.2950144
REMARK minimizedRMSD -1
REMARK  1 active torsions:
REMARK  status: ('A' for Active; 'I' for Inactive)
REMARK    1  A    between atoms: C1_2  and  C2_3 
ROOT
ATOM      1  C2  UNL d   1      -0.850   1.870   2.265  0.00  0.00    -0.081 A 
ATOM      2  C3  UNL d   1      -0.583   0.503   2.118  0.00  0.00     0.006 A 
ATOM      3  C4  UNL d   1      -1.555  -0.356   1.602  0.00  0.00     0.002 A 
ATOM      4  C5  UNL d   1      -2.807   0.136   1.217  0.00  0.00    -0.080 A 
ATOM      5  C6  UNL d   1      -3.849  -0.771   0.634  0.00  0.00     0.076 C 
ATOM      6  C7  UNL d   1      -3.080   1.499   1.381  0.00  0.00     0.002 A 
ATOM      7  C8  UNL d   1      -2.108   2.359   1.898  0.00  0.00     0.006 A 
ENDROOT
BRANCH   1   8
ATOM      8  C1  UNL d   1       0.219   2.811   2.761  0.00  0.00     0.054 C 
ATOM      9  C   UNL d   1       1.442   2.785   1.855  0.00  0.00     0.018 C 
ENDBRANCH   1   8
TORSDOF 1
ENDMDL
