MODEL 1
REMARK minimizedAffinity 19.846365
REMARK minimizedRMSD -1
REMARK  1 active torsions:
REMARK  status: ('A' for Active; 'I' for Inactive)
REMARK    1  A    between atoms: C1_2  and  C2_3 
ROOT
ATOM      1  C2  UNL d   1       3.721   3.917  -3.472  0.00  0.00    -0.081 A 
ATOM      2  C3  UNL d   1       2.665   4.644  -2.910  0.00  0.00     0.006 A 
ATOM      3  C4  UNL d   1       1.871   4.081  -1.908  0.00  0.00     0.002 A 
ATOM      4  C5  UNL d   1       2.125   2.785  -1.446  0.00  0.00    -0.080 A 
ATOM      5  C6  UNL d   1       1.300   2.179  -0.350  0.00  0.00     0.076 C 
ATOM      6  C7  UNL d   1       3.169   2.052  -2.020  0.00  0.00     0.002 A 
ATOM      7  C8  UNL d   1       3.963   2.614  -3.022  0.00  0.00     0.006 A 
ENDROOT
BRANCH   1   8
ATOM      8  C1  UNL d   1       4.619   4.546  -4.507  0.00  0.00     0.054 C 
ATOM      9  C   UNL d   1       6.000   3.905  -4.504  0.00  0.00     0.018 C 
ENDBRANCH   1   8
TORSDOF 1
ENDMDL
