MODEL 1
REMARK minimizedAffinity 16.163599
REMARK minimizedRMSD -1
REMARK  1 active torsions:
REMARK  status: ('A' for Active; 'I' for Inactive)
REMARK    1  A    between atoms: C1_2  and  C2_3 
ROOT
ATOM      1  C2  UNL d   1      -4.157  -0.560   0.926  0.00  0.00    -0.081 A 
ATOM      2  C3  UNL d   1      -3.908   0.716   0.404  0.00  0.00     0.006 A 
ATOM      3  C4  UNL d   1      -2.782   1.438   0.807  0.00  0.00     0.002 A 
ATOM      4  C5  UNL d   1      -1.884   0.895   1.731  0.00  0.00    -0.080 A 
ATOM      5  C6  UNL d   1      -0.655   1.648   2.148  0.00  0.00     0.076 C 
ATOM      6  C7  UNL d   1      -2.141  -0.372   2.266  0.00  0.00     0.002 A 
ATOM      7  C8  UNL d   1      -3.267  -1.094   1.864  0.00  0.00     0.006 A 
ENDROOT
BRANCH   1   8
ATOM      8  C1  UNL d   1      -5.335  -1.368   0.445  0.00  0.00     0.054 C 
ATOM      9  C   UNL d   1      -5.191  -2.835   0.825  0.00  0.00     0.018 C 
ENDBRANCH   1   8
TORSDOF 1
ENDMDL
