MODEL 1
REMARK minimizedAffinity -0.950684607
REMARK minimizedRMSD -1
REMARK  1 active torsions:
REMARK  status: ('A' for Active; 'I' for Inactive)
REMARK    1  A    between atoms: C1_2  and  C2_3 
ROOT
ATOM      1  C2  UNL d   1      -0.715   0.172   0.855  0.00  0.00    -0.081 A 
ATOM      2  C3  UNL d   1      -1.451   0.125  -0.335  0.00  0.00     0.006 A 
ATOM      3  C4  UNL d   1      -0.806   0.224  -1.570  0.00  0.00     0.002 A 
ATOM      4  C5  UNL d   1       0.585   0.363  -1.636  0.00  0.00    -0.080 A 
ATOM      5  C6  UNL d   1       1.293   0.440  -2.956  0.00  0.00     0.076 C 
ATOM      6  C7  UNL d   1       1.318   0.428  -0.446  0.00  0.00     0.002 A 
ATOM      7  C8  UNL d   1       0.673   0.330   0.789  0.00  0.00     0.006 A 
ENDROOT
BRANCH   1   8
ATOM      8  C1  UNL d   1      -1.401   0.001   2.187  0.00  0.00     0.054 C 
ATOM      9  C   UNL d   1      -0.628   0.692   3.300  0.00  0.00     0.018 C 
ENDBRANCH   1   8
TORSDOF 1
ENDMDL
