MODEL 1
REMARK minimizedAffinity 2.23560762
REMARK minimizedRMSD -1
REMARK  1 active torsions:
REMARK  status: ('A' for Active; 'I' for Inactive)
REMARK    1  A    between atoms: C1_2  and  C2_3 
ROOT
ATOM      1  C2  UNL d   1       1.276  -0.064  -1.570  0.00  0.00    -0.081 A 
ATOM      2  C3  UNL d   1       0.135   0.551  -1.039  0.00  0.00     0.006 A 
ATOM      3  C4  UNL d   1       0.060   0.846   0.324  0.00  0.00     0.002 A 
ATOM      4  C5  UNL d   1       1.125   0.539   1.177  0.00  0.00    -0.080 A 
ATOM      5  C6  UNL d   1       1.069   0.878   2.637  0.00  0.00     0.076 C 
ATOM      6  C7  UNL d   1       2.257  -0.091   0.650  0.00  0.00     0.002 A 
ATOM      7  C8  UNL d   1       2.333  -0.387  -0.713  0.00  0.00     0.006 A 
ENDROOT
BRANCH   1   8
ATOM      8  C1  UNL d   1       1.387  -0.325  -3.050  0.00  0.00     0.054 C 
ATOM      9  C   UNL d   1       1.821  -1.757  -3.329  0.00  0.00     0.018 C 
ENDBRANCH   1   8
TORSDOF 1
ENDMDL
