MODEL 1
REMARK minimizedAffinity -5.11418056
REMARK minimizedRMSD -1
REMARK  1 active torsions:
REMARK  status: ('A' for Active; 'I' for Inactive)
REMARK    1  A    between atoms: C1_2  and  C2_3 
ROOT
ATOM      1  C2  UNL d   1       0.523   0.260  -1.089  0.00  0.00    -0.081 A 
ATOM      2  C3  UNL d   1       1.401   0.513  -0.028  0.00  0.00     0.006 A 
ATOM      3  C4  UNL d   1       0.983   0.337   1.293  0.00  0.00     0.002 A 
ATOM      4  C5  UNL d   1      -0.315  -0.103   1.575  0.00  0.00    -0.080 A 
ATOM      5  C6  UNL d   1      -0.767  -0.325   2.988  0.00  0.00     0.076 C 
ATOM      6  C7  UNL d   1      -1.197  -0.339   0.515  0.00  0.00     0.002 A 
ATOM      7  C8  UNL d   1      -0.780  -0.163  -0.806  0.00  0.00     0.006 A 
ENDROOT
BRANCH   1   8
ATOM      8  C1  UNL d   1       0.991   0.387  -2.517  0.00  0.00     0.054 C 
ATOM      9  C   UNL d   1       1.068  -0.973  -3.197  0.00  0.00     0.018 C 
ENDBRANCH   1   8
TORSDOF 1
ENDMDL
