MODEL 1
REMARK minimizedAffinity -1.0853653
REMARK minimizedRMSD -1
REMARK  1 active torsions:
REMARK  status: ('A' for Active; 'I' for Inactive)
REMARK    1  A    between atoms: C1_2  and  C2_3 
ROOT
ATOM      1  C2  UNL d   1      -0.908  -2.042  -2.081  0.00  0.00    -0.081 A 
ATOM      2  C3  UNL d   1      -0.032  -2.471  -3.086  0.00  0.00     0.006 A 
ATOM      3  C4  UNL d   1       1.120  -1.737  -3.381  0.00  0.00     0.002 A 
ATOM      4  C5  UNL d   1       1.418  -0.569  -2.672  0.00  0.00    -0.080 A 
ATOM      5  C6  UNL d   1       2.667   0.211  -2.959  0.00  0.00     0.076 C 
ATOM      6  C7  UNL d   1       0.534  -0.131  -1.681  0.00  0.00     0.002 A 
ATOM      7  C8  UNL d   1      -0.618  -0.863  -1.386  0.00  0.00     0.006 A 
ENDROOT
BRANCH   1   8
ATOM      8  C1  UNL d   1      -2.117  -2.865  -1.717  0.00  0.00     0.054 C 
ATOM      9  C   UNL d   1      -1.844  -4.353  -1.882  0.00  0.00     0.018 C 
ENDBRANCH   1   8
TORSDOF 1
ENDMDL
