MODEL 1
REMARK minimizedAffinity -4.61923933
REMARK minimizedRMSD -1
REMARK  1 active torsions:
REMARK  status: ('A' for Active; 'I' for Inactive)
REMARK    1  A    between atoms: C1_2  and  C2_3 
ROOT
ATOM      1  C2  UNL d   1      -1.499  -3.780  -2.933  0.00  0.00    -0.081 A 
ATOM      2  C3  UNL d   1      -2.258  -3.394  -1.821  0.00  0.00     0.006 A 
ATOM      3  C4  UNL d   1      -2.298  -2.056  -1.421  0.00  0.00     0.002 A 
ATOM      4  C5  UNL d   1      -1.587  -1.082  -2.130  0.00  0.00    -0.080 A 
ATOM      5  C6  UNL d   1      -1.646   0.362  -1.729  0.00  0.00     0.076 C 
ATOM      6  C7  UNL d   1      -0.816  -1.470  -3.230  0.00  0.00     0.002 A 
ATOM      7  C8  UNL d   1      -0.775  -2.807  -3.630  0.00  0.00     0.006 A 
ENDROOT
BRANCH   1   8
ATOM      8  C1  UNL d   1      -1.506  -5.211  -3.406  0.00  0.00     0.054 C 
ATOM      9  C   UNL d   1      -2.643  -5.999  -2.771  0.00  0.00     0.018 C 
ENDBRANCH   1   8
TORSDOF 1
ENDMDL
