MODEL 1
REMARK minimizedAffinity -5.22980022
REMARK minimizedRMSD -1
REMARK  1 active torsions:
REMARK  status: ('A' for Active; 'I' for Inactive)
REMARK    1  A    between atoms: C1_2  and  C2_3 
ROOT
ATOM      1  C2  UNL d   1      -0.595  -0.081   1.164  0.00  0.00    -0.081 A 
ATOM      2  C3  UNL d   1      -0.219   0.354  -0.113  0.00  0.00     0.006 A 
ATOM      3  C4  UNL d   1      -1.136   0.333  -1.167  0.00  0.00     0.002 A 
ATOM      4  C5  UNL d   1      -2.445  -0.115  -0.960  0.00  0.00    -0.080 A 
ATOM      5  C6  UNL d   1      -3.448  -0.114  -2.075  0.00  0.00     0.076 C 
ATOM      6  C7  UNL d   1      -2.816  -0.567   0.312  0.00  0.00     0.002 A 
ATOM      7  C8  UNL d   1      -1.899  -0.547   1.365  0.00  0.00     0.006 A 
ENDROOT
BRANCH   1   8
ATOM      8  C1  UNL d   1       0.372   0.001   2.317  0.00  0.00     0.054 C 
ATOM      9  C   UNL d   1      -0.260   0.681   3.523  0.00  0.00     0.018 C 
ENDBRANCH   1   8
TORSDOF 1
ENDMDL
