MODEL 1
REMARK minimizedAffinity -3.8421762
REMARK minimizedRMSD -1
REMARK  1 active torsions:
REMARK  status: ('A' for Active; 'I' for Inactive)
REMARK    1  A    between atoms: C1_2  and  C2_3 
ROOT
ATOM      1  C2  UNL d   1      -1.653  -0.117  -0.496  0.00  0.00    -0.081 A 
ATOM      2  C3  UNL d   1      -0.349   0.353  -0.695  0.00  0.00     0.006 A 
ATOM      3  C4  UNL d   1       0.442   0.730   0.393  0.00  0.00     0.002 A 
ATOM      4  C5  UNL d   1      -0.054   0.635   1.698  0.00  0.00    -0.080 A 
ATOM      5  C6  UNL d   1       0.795   1.007   2.876  0.00  0.00     0.076 C 
ATOM      6  C7  UNL d   1      -1.363   0.181   1.895  0.00  0.00     0.002 A 
ATOM      7  C8  UNL d   1      -2.154  -0.195   0.808  0.00  0.00     0.006 A 
ENDROOT
BRANCH   1   8
ATOM      8  C1  UNL d   1      -2.485  -0.585  -1.663  0.00  0.00     0.054 C 
ATOM      9  C   UNL d   1      -1.972  -1.908  -2.214  0.00  0.00     0.018 C 
ENDBRANCH   1   8
TORSDOF 1
ENDMDL
