MODEL 1
REMARK minimizedAffinity -2.67671561
REMARK minimizedRMSD -1
REMARK  1 active torsions:
REMARK  status: ('A' for Active; 'I' for Inactive)
REMARK    1  A    between atoms: C1_2  and  C2_3 
ROOT
ATOM      1  C2  UNL d   1       0.692   0.297  -0.853  0.00  0.00    -0.081 A 
ATOM      2  C3  UNL d   1       1.688   0.249   0.130  0.00  0.00     0.006 A 
ATOM      3  C4  UNL d   1       1.348   0.278   1.485  0.00  0.00     0.002 A 
ATOM      4  C5  UNL d   1       0.007   0.347   1.879  0.00  0.00    -0.080 A 
ATOM      5  C6  UNL d   1      -0.373   0.347   3.330  0.00  0.00     0.076 C 
ATOM      6  C7  UNL d   1      -0.987   0.412   0.897  0.00  0.00     0.002 A 
ATOM      7  C8  UNL d   1      -0.648   0.384  -0.458  0.00  0.00     0.006 A 
ENDROOT
BRANCH   1   8
ATOM      8  C1  UNL d   1       1.051   0.201  -2.314  0.00  0.00     0.054 C 
ATOM      9  C   UNL d   1       1.311  -1.241  -2.726  0.00  0.00     0.018 C 
ENDBRANCH   1   8
TORSDOF 1
ENDMDL
