MODEL 1
REMARK minimizedAffinity -5.65301514
REMARK minimizedRMSD -1
REMARK  1 active torsions:
REMARK  status: ('A' for Active; 'I' for Inactive)
REMARK    1  A    between atoms: C1_2  and  C2_3 
ROOT
ATOM      1  C2  UNL d   1      -0.114   0.560  -0.820  0.00  0.00    -0.081 A 
ATOM      2  C3  UNL d   1      -1.448   0.271  -0.507  0.00  0.00     0.006 A 
ATOM      3  C4  UNL d   1      -1.815  -0.045   0.803  0.00  0.00     0.002 A 
ATOM      4  C5  UNL d   1      -0.858  -0.070   1.823  0.00  0.00    -0.080 A 
ATOM      5  C6  UNL d   1      -1.244  -0.378   3.239  0.00  0.00     0.076 C 
ATOM      6  C7  UNL d   1       0.478   0.201   1.507  0.00  0.00     0.002 A 
ATOM      7  C8  UNL d   1       0.846   0.517   0.197  0.00  0.00     0.006 A 
ENDROOT
BRANCH   1   8
ATOM      8  C1  UNL d   1       0.274   0.964  -2.219  0.00  0.00     0.054 C 
ATOM      9  C   UNL d   1       1.351   0.047  -2.781  0.00  0.00     0.018 C 
ENDBRANCH   1   8
TORSDOF 1
ENDMDL
