MODEL 1
REMARK minimizedAffinity 3.73429537
REMARK minimizedRMSD -1
REMARK  0 active torsions:
REMARK  status: ('A' for Active; 'I' for Inactive)
ROOT
ATOM      1  N1  IND d   1       1.572   4.448   0.309  0.00  0.00    -0.196 N 
ATOM      2  C2  IND d   1       0.781   3.886   1.272  0.00  0.00     0.054 A 
ATOM      3  C3  IND d   1      -0.524   4.020   0.947  0.00  0.00    -0.031 A 
ATOM      4  C4  IND d   1      -1.586   5.037  -1.167  0.00  0.00     0.051 A 
ATOM      5  C5  IND d   1      -1.271   5.709  -2.314  0.00  0.00    -0.031 A 
ATOM      6  C6  IND d   1       0.034   5.999  -2.654  0.00  0.00     0.015 A 
ATOM      7  C7  IND d   1       1.079   5.616  -1.861  0.00  0.00    -0.016 A 
ATOM      8  C8  IND d   1       0.762   4.939  -0.692  0.00  0.00    -0.047 A 
ATOM      9  C9  IND d   1      -0.563   4.679  -0.320  0.00  0.00    -0.096 A 
ATOM     10  HN1 IND d   1       2.431   4.489   0.325  0.00  0.00     0.298 HD
ENDROOT
TORSDOF 0
ENDMDL
