MODEL 1
REMARK minimizedAffinity 9.65944576
REMARK minimizedRMSD -1
REMARK  0 active torsions:
REMARK  status: ('A' for Active; 'I' for Inactive)
ROOT
ATOM      1  N1  IND d   1       0.374   4.781  -1.175  0.00  0.00    -0.196 N 
ATOM      2  C2  IND d   1       0.358   6.000  -0.556  0.00  0.00     0.054 A 
ATOM      3  C3  IND d   1       0.024   5.861   0.746  0.00  0.00    -0.031 A 
ATOM      4  C4  IND d   1      -0.439   3.719   2.098  0.00  0.00     0.051 A 
ATOM      5  C5  IND d   1      -0.578   2.367   1.958  0.00  0.00    -0.031 A 
ATOM      6  C6  IND d   1      -0.400   1.737   0.744  0.00  0.00     0.015 A 
ATOM      7  C7  IND d   1      -0.064   2.438  -0.380  0.00  0.00    -0.016 A 
ATOM      8  C8  IND d   1       0.071   3.812  -0.244  0.00  0.00    -0.047 A 
ATOM      9  C9  IND d   1      -0.150   4.462   0.977  0.00  0.00    -0.096 A 
ATOM     10  HN1 IND d   1       0.545   4.642  -2.006  0.00  0.00     0.298 HD
ENDROOT
TORSDOF 0
ENDMDL
