MODEL 1
REMARK minimizedAffinity 3.30328012
REMARK minimizedRMSD -1
REMARK  0 active torsions:
REMARK  status: ('A' for Active; 'I' for Inactive)
ROOT
ATOM      1  N1  IND d   1      -0.454   4.336  -0.566  0.00  0.00    -0.196 N 
ATOM      2  C2  IND d   1       0.144   5.378  -1.219  0.00  0.00     0.054 A 
ATOM      3  C3  IND d   1       1.287   5.732  -0.590  0.00  0.00    -0.031 A 
ATOM      4  C4  IND d   1       2.419   4.674   1.466  0.00  0.00     0.051 A 
ATOM      5  C5  IND d   1       2.231   3.721   2.427  0.00  0.00    -0.031 A 
ATOM      6  C6  IND d   1       1.118   2.907   2.439  0.00  0.00     0.015 A 
ATOM      7  C7  IND d   1       0.151   3.007   1.478  0.00  0.00    -0.016 A 
ATOM      8  C8  IND d   1       0.335   3.978   0.504  0.00  0.00    -0.047 A 
ATOM      9  C9  IND d   1       1.442   4.837   0.512  0.00  0.00    -0.096 A 
ATOM     10  HN1 IND d   1      -1.199   3.967  -0.787  0.00  0.00     0.298 HD
ENDROOT
TORSDOF 0
ENDMDL
