MODEL 1
REMARK minimizedAffinity 14.5592117
REMARK minimizedRMSD -1
REMARK  0 active torsions:
REMARK  status: ('A' for Active; 'I' for Inactive)
ROOT
ATOM      1  N1  IND d   1       5.731  -3.229   5.999  0.00  0.00    -0.196 N 
ATOM      2  C2  IND d   1       5.958  -4.350   5.251  0.00  0.00     0.054 A 
ATOM      3  C3  IND d   1       4.969  -4.518   4.345  0.00  0.00    -0.031 A 
ATOM      4  C4  IND d   1       2.935  -3.021   3.847  0.00  0.00     0.051 A 
ATOM      5  C5  IND d   1       2.283  -1.906   4.294  0.00  0.00    -0.031 A 
ATOM      6  C6  IND d   1       2.758  -1.158   5.351  0.00  0.00     0.015 A 
ATOM      7  C7  IND d   1       3.915  -1.493   5.997  0.00  0.00    -0.016 A 
ATOM      8  C8  IND d   1       4.575  -2.628   5.551  0.00  0.00    -0.047 A 
ATOM      9  C9  IND d   1       4.075  -3.415   4.506  0.00  0.00    -0.096 A 
ATOM     10  HN1 IND d   1       6.228  -2.946   6.642  0.00  0.00     0.298 HD
ENDROOT
TORSDOF 0
ENDMDL
