MODEL 1
REMARK minimizedAffinity 10.0185661
REMARK minimizedRMSD -1
REMARK  0 active torsions:
REMARK  status: ('A' for Active; 'I' for Inactive)
ROOT
ATOM      1  N1  IND d   1       1.032   2.699   3.425  0.00  0.00    -0.196 N 
ATOM      2  C2  IND d   1       2.228   3.087   3.962  0.00  0.00     0.054 A 
ATOM      3  C3  IND d   1       2.856   3.953   3.135  0.00  0.00    -0.031 A 
ATOM      4  C4  IND d   1       2.060   4.948   0.898  0.00  0.00     0.051 A 
ATOM      5  C5  IND d   1       1.049   4.867  -0.018  0.00  0.00    -0.031 A 
ATOM      6  C6  IND d   1      -0.042   4.044   0.171  0.00  0.00     0.015 A 
ATOM      7  C7  IND d   1      -0.170   3.278   1.295  0.00  0.00    -0.016 A 
ATOM      8  C8  IND d   1       0.858   3.352   2.224  0.00  0.00    -0.047 A 
ATOM      9  C9  IND d   1       1.989   4.153   2.017  0.00  0.00    -0.096 A 
ATOM     10  HN1 IND d   1       0.481   2.141   3.777  0.00  0.00     0.298 HD
ENDROOT
TORSDOF 0
ENDMDL
