MODEL 1
REMARK minimizedAffinity 13.9382286
REMARK minimizedRMSD -1
REMARK  0 active torsions:
REMARK  status: ('A' for Active; 'I' for Inactive)
ROOT
ATOM      1  N1  IND d   1       0.751   4.739  -1.249  0.00  0.00    -0.196 N 
ATOM      2  C2  IND d   1       0.366   6.000  -0.887  0.00  0.00     0.054 A 
ATOM      3  C3  IND d   1      -0.116   6.000   0.376  0.00  0.00    -0.031 A 
ATOM      4  C4  IND d   1      -0.272   4.065   2.067  0.00  0.00     0.051 A 
ATOM      5  C5  IND d   1      -0.076   2.718   2.183  0.00  0.00    -0.031 A 
ATOM      6  C6  IND d   1       0.418   1.960   1.141  0.00  0.00     0.015 A 
ATOM      7  C7  IND d   1       0.747   2.527  -0.058  0.00  0.00    -0.016 A 
ATOM      8  C8  IND d   1       0.543   3.894  -0.182  0.00  0.00    -0.047 A 
ATOM      9  C9  IND d   1       0.002   4.660   0.858  0.00  0.00    -0.096 A 
ATOM     10  HN1 IND d   1       1.070   4.512  -2.015  0.00  0.00     0.298 HD
ENDROOT
TORSDOF 0
ENDMDL
