MODEL 1
REMARK minimizedAffinity 11.1063643
REMARK minimizedRMSD -1
REMARK  0 active torsions:
REMARK  status: ('A' for Active; 'I' for Inactive)
ROOT
ATOM      1  N1  IND d   1       5.999  -1.612  -2.860  0.00  0.00    -0.196 N 
ATOM      2  C2  IND d   1       5.598  -2.608  -3.705  0.00  0.00     0.054 A 
ATOM      3  C3  IND d   1       4.913  -3.555  -3.025  0.00  0.00    -0.031 A 
ATOM      4  C4  IND d   1       4.246  -3.621  -0.539  0.00  0.00     0.051 A 
ATOM      5  C5  IND d   1       4.416  -2.952   0.640  0.00  0.00    -0.031 A 
ATOM      6  C6  IND d   1       5.135  -1.776   0.714  0.00  0.00     0.015 A 
ATOM      7  C7  IND d   1       5.703  -1.218  -0.396  0.00  0.00    -0.016 A 
ATOM      8  C8  IND d   1       5.538  -1.899  -1.594  0.00  0.00    -0.047 A 
ATOM      9  C9  IND d   1       4.846  -3.114  -1.668  0.00  0.00    -0.096 A 
ATOM     10  HN1 IND d   1       6.461  -0.922  -3.082  0.00  0.00     0.298 HD
ENDROOT
TORSDOF 0
ENDMDL
