MODEL 1
REMARK minimizedAffinity 11.5149088
REMARK minimizedRMSD -1
REMARK  0 active torsions:
REMARK  status: ('A' for Active; 'I' for Inactive)
ROOT
ATOM      1  N1  IND d   1       0.537   2.378   0.800  0.00  0.00    -0.196 N 
ATOM      2  C2  IND d   1       0.348   2.315   2.153  0.00  0.00     0.054 A 
ATOM      3  C3  IND d   1      -0.255   3.440   2.597  0.00  0.00    -0.031 A 
ATOM      4  C4  IND d   1      -1.115   5.469   1.265  0.00  0.00     0.051 A 
ATOM      5  C5  IND d   1      -1.138   6.000   0.006  0.00  0.00    -0.031 A 
ATOM      6  C6  IND d   1      -0.595   5.335  -1.075  0.00  0.00     0.015 A 
ATOM      7  C7  IND d   1      -0.017   4.105  -0.938  0.00  0.00    -0.016 A 
ATOM      8  C8  IND d   1       0.015   3.566   0.340  0.00  0.00    -0.047 A 
ATOM      9  C9  IND d   1      -0.496   4.255   1.448  0.00  0.00    -0.096 A 
ATOM     10  HN1 IND d   1       0.918   1.776   0.318  0.00  0.00     0.298 HD
ENDROOT
TORSDOF 0
ENDMDL
