MODEL 1
REMARK minimizedAffinity 15.3176785
REMARK minimizedRMSD -1
REMARK  0 active torsions:
REMARK  status: ('A' for Active; 'I' for Inactive)
ROOT
ATOM      1  N1  IND d   1       0.441   4.082  -1.317  0.00  0.00    -0.196 N 
ATOM      2  C2  IND d   1       0.720   5.333  -0.843  0.00  0.00     0.054 A 
ATOM      3  C3  IND d   1       0.541   5.378   0.497  0.00  0.00    -0.031 A 
ATOM      4  C4  IND d   1      -0.106   3.492   2.125  0.00  0.00     0.051 A 
ATOM      5  C5  IND d   1      -0.496   2.183   2.157  0.00  0.00    -0.031 A 
ATOM      6  C6  IND d   1      -0.593   1.423   1.009  0.00  0.00     0.015 A 
ATOM      7  C7  IND d   1      -0.291   1.944  -0.218  0.00  0.00    -0.016 A 
ATOM      8  C8  IND d   1       0.099   3.275  -0.254  0.00  0.00    -0.047 A 
ATOM      9  C9  IND d   1       0.158   4.063   0.903  0.00  0.00    -0.096 A 
ATOM     10  HN1 IND d   1       0.474   3.839  -2.142  0.00  0.00     0.298 HD
ENDROOT
TORSDOF 0
ENDMDL
