MODEL 1
REMARK minimizedAffinity 7.37814379
REMARK minimizedRMSD -1
REMARK  0 active torsions:
REMARK  status: ('A' for Active; 'I' for Inactive)
ROOT
ATOM      1  N1  IND d   1       1.092   2.231   0.836  0.00  0.00    -0.196 N 
ATOM      2  C2  IND d   1       0.829   2.076   2.168  0.00  0.00     0.054 A 
ATOM      3  C3  IND d   1       0.264   3.196   2.670  0.00  0.00    -0.031 A 
ATOM      4  C4  IND d   1      -0.413   5.368   1.464  0.00  0.00     0.051 A 
ATOM      5  C5  IND d   1      -0.340   5.994   0.252  0.00  0.00    -0.031 A 
ATOM      6  C6  IND d   1       0.222   5.385  -0.851  0.00  0.00     0.015 A 
ATOM      7  C7  IND d   1       0.726   4.116  -0.785  0.00  0.00    -0.016 A 
ATOM      8  C8  IND d   1       0.660   3.480   0.447  0.00  0.00    -0.047 A 
ATOM      9  C9  IND d   1       0.129   4.109   1.580  0.00  0.00    -0.096 A 
ATOM     10  HN1 IND d   1       1.465   1.648   0.326  0.00  0.00     0.298 HD
ENDROOT
TORSDOF 0
ENDMDL
