MODEL 1
REMARK minimizedAffinity -4.28062153
REMARK minimizedRMSD -1
REMARK  0 active torsions:
REMARK  status: ('A' for Active; 'I' for Inactive)
ROOT
ATOM      1  C   UNL d   1       0.223   1.786  -0.005  0.00  0.00     0.078 C 
ATOM      2  C1  UNL d   1      -0.107   0.340   0.212  0.00  0.00    -0.077 A 
ATOM      3  C2  UNL d   1      -0.863  -0.070   1.317  0.00  0.00    -0.001 A 
ATOM      4  C3  UNL d   1      -1.155  -1.421   1.511  0.00  0.00     0.003 A 
ATOM      5  C4  UNL d   1      -0.693  -2.374   0.605  0.00  0.00    -0.005 A 
ATOM      6  C5  UNL d   1       0.062  -1.976  -0.496  0.00  0.00     0.003 A 
ATOM      7  C6  UNL d   1       0.355  -0.626  -0.692  0.00  0.00    -0.001 A 
ENDROOT
TORSDOF 0
ENDMDL
