MODEL 1
REMARK minimizedAffinity -4.98960066
REMARK minimizedRMSD -1
REMARK  0 active torsions:
REMARK  status: ('A' for Active; 'I' for Inactive)
ROOT
ATOM      1  C   UNL d   1      -0.228   1.252  -0.389  0.00  0.00     0.078 C 
ATOM      2  C1  UNL d   1      -0.052  -0.201  -0.067  0.00  0.00    -0.077 A 
ATOM      3  C2  UNL d   1      -0.774  -0.802   0.972  0.00  0.00    -0.001 A 
ATOM      4  C3  UNL d   1      -0.593  -2.154   1.268  0.00  0.00     0.003 A 
ATOM      5  C4  UNL d   1       0.310  -2.917   0.530  0.00  0.00    -0.005 A 
ATOM      6  C5  UNL d   1       1.035  -2.328  -0.504  0.00  0.00     0.003 A 
ATOM      7  C6  UNL d   1       0.855  -0.976  -0.801  0.00  0.00    -0.001 A 
ENDROOT
TORSDOF 0
ENDMDL
