MODEL 1
REMARK minimizedAffinity -4.28377008
REMARK minimizedRMSD -1
REMARK  0 active torsions:
REMARK  status: ('A' for Active; 'I' for Inactive)
ROOT
ATOM      1  C   UNL d   1       0.687  -3.141   0.680  0.00  0.00     0.078 C 
ATOM      2  C1  UNL d   1       0.220  -1.747   0.383  0.00  0.00    -0.077 A 
ATOM      3  C2  UNL d   1       0.853  -0.966  -0.591  0.00  0.00    -0.001 A 
ATOM      4  C3  UNL d   1       0.413   0.333  -0.849  0.00  0.00     0.003 A 
ATOM      5  C4  UNL d   1      -0.661   0.863  -0.137  0.00  0.00    -0.005 A 
ATOM      6  C5  UNL d   1      -1.296   0.094   0.836  0.00  0.00     0.003 A 
ATOM      7  C6  UNL d   1      -0.858  -1.206   1.096  0.00  0.00    -0.001 A 
ENDROOT
TORSDOF 0
ENDMDL
