MODEL 1
REMARK minimizedAffinity -5.15448952
REMARK minimizedRMSD -1
REMARK  0 active torsions:
REMARK  status: ('A' for Active; 'I' for Inactive)
ROOT
ATOM      1  C   UNL d   1       0.612   1.406   0.028  0.00  0.00     0.078 C 
ATOM      2  C1  UNL d   1       0.225  -0.016   0.302  0.00  0.00    -0.077 A 
ATOM      3  C2  UNL d   1       0.755  -1.067  -0.456  0.00  0.00    -0.001 A 
ATOM      4  C3  UNL d   1       0.378  -2.386  -0.195  0.00  0.00     0.003 A 
ATOM      5  C4  UNL d   1      -0.532  -2.665   0.822  0.00  0.00    -0.005 A 
ATOM      6  C5  UNL d   1      -1.066  -1.626   1.581  0.00  0.00     0.003 A 
ATOM      7  C6  UNL d   1      -0.691  -0.307   1.322  0.00  0.00    -0.001 A 
ENDROOT
TORSDOF 0
ENDMDL
