MODEL 1
REMARK minimizedAffinity -5.06930304
REMARK minimizedRMSD -1
REMARK  0 active torsions:
REMARK  status: ('A' for Active; 'I' for Inactive)
ROOT
ATOM      1  C   UNL d   1       0.176   1.272  -0.802  0.00  0.00     0.078 C 
ATOM      2  C1  UNL d   1       0.027  -0.130  -0.290  0.00  0.00    -0.077 A 
ATOM      3  C2  UNL d   1       0.770  -1.181  -0.840  0.00  0.00    -0.001 A 
ATOM      4  C3  UNL d   1       0.614  -2.483  -0.360  0.00  0.00     0.003 A 
ATOM      5  C4  UNL d   1      -0.286  -2.745   0.671  0.00  0.00    -0.005 A 
ATOM      6  C5  UNL d   1      -1.032  -1.705   1.223  0.00  0.00     0.003 A 
ATOM      7  C6  UNL d   1      -0.877  -0.403   0.744  0.00  0.00    -0.001 A 
ENDROOT
TORSDOF 0
ENDMDL
