MODEL 1
REMARK minimizedAffinity -5.14811134
REMARK minimizedRMSD -1
REMARK  0 active torsions:
REMARK  status: ('A' for Active; 'I' for Inactive)
ROOT
ATOM      1  C   UNL d   1       0.364  -3.001   0.366  0.00  0.00     0.078 C 
ATOM      2  C1  UNL d   1       0.298  -1.562  -0.050  0.00  0.00    -0.077 A 
ATOM      3  C2  UNL d   1      -0.136  -0.572   0.841  0.00  0.00    -0.001 A 
ATOM      4  C3  UNL d   1      -0.201   0.762   0.437  0.00  0.00     0.003 A 
ATOM      5  C4  UNL d   1       0.165   1.119  -0.859  0.00  0.00    -0.005 A 
ATOM      6  C5  UNL d   1       0.596   0.142  -1.754  0.00  0.00     0.003 A 
ATOM      7  C6  UNL d   1       0.662  -1.193  -1.352  0.00  0.00    -0.001 A 
ENDROOT
TORSDOF 0
ENDMDL
