MODEL 1
REMARK minimizedAffinity -5.33123112
REMARK minimizedRMSD -1
REMARK  0 active torsions:
REMARK  status: ('A' for Active; 'I' for Inactive)
ROOT
ATOM      1  C   UNL d   1       0.427   1.381   0.305  0.00  0.00     0.078 C 
ATOM      2  C1  UNL d   1       0.193  -0.097   0.398  0.00  0.00    -0.077 A 
ATOM      3  C2  UNL d   1      -0.325  -0.673   1.565  0.00  0.00    -0.001 A 
ATOM      4  C3  UNL d   1      -0.529  -2.052   1.641  0.00  0.00     0.003 A 
ATOM      5  C4  UNL d   1      -0.216  -2.867   0.555  0.00  0.00    -0.005 A 
ATOM      6  C5  UNL d   1       0.302  -2.303  -0.609  0.00  0.00     0.003 A 
ATOM      7  C6  UNL d   1       0.506  -0.924  -0.688  0.00  0.00    -0.001 A 
ENDROOT
TORSDOF 0
ENDMDL
