MODEL 1
REMARK minimizedAffinity -2.40414166
REMARK minimizedRMSD -1
REMARK  0 active torsions:
REMARK  status: ('A' for Active; 'I' for Inactive)
ROOT
ATOM      1  C   UNL d   1      -0.588  -2.834   0.731  0.00  0.00     0.078 C 
ATOM      2  C1  UNL d   1      -0.450  -1.372   0.424  0.00  0.00    -0.077 A 
ATOM      3  C2  UNL d   1      -1.021  -0.403   1.258  0.00  0.00    -0.001 A 
ATOM      4  C3  UNL d   1      -0.892   0.953   0.955  0.00  0.00     0.003 A 
ATOM      5  C4  UNL d   1      -0.195   1.353  -0.183  0.00  0.00    -0.005 A 
ATOM      6  C5  UNL d   1       0.374   0.396  -1.021  0.00  0.00     0.003 A 
ATOM      7  C6  UNL d   1       0.247  -0.961  -0.719  0.00  0.00    -0.001 A 
ENDROOT
TORSDOF 0
ENDMDL
