MODEL 1
REMARK minimizedAffinity -5.47250748
REMARK minimizedRMSD -1
REMARK  0 active torsions:
REMARK  status: ('A' for Active; 'I' for Inactive)
ROOT
ATOM      1  C   UNL d   1       0.248   1.395  -0.092  0.00  0.00     0.078 C 
ATOM      2  C1  UNL d   1      -0.065  -0.063   0.066  0.00  0.00    -0.077 A 
ATOM      3  C2  UNL d   1      -0.901  -0.513   1.096  0.00  0.00    -0.001 A 
ATOM      4  C3  UNL d   1      -1.177  -1.874   1.237  0.00  0.00     0.003 A 
ATOM      5  C4  UNL d   1      -0.619  -2.796   0.354  0.00  0.00    -0.005 A 
ATOM      6  C5  UNL d   1       0.216  -2.358  -0.672  0.00  0.00     0.003 A 
ATOM      7  C6  UNL d   1       0.493  -0.997  -0.815  0.00  0.00    -0.001 A 
ENDROOT
TORSDOF 0
ENDMDL
