MODEL 1
REMARK minimizedAffinity -4.94950676
REMARK minimizedRMSD -1
REMARK  0 active torsions:
REMARK  status: ('A' for Active; 'I' for Inactive)
ROOT
ATOM      1  C   UNL d   1       0.185   0.888  -0.440  0.00  0.00     0.078 C 
ATOM      2  C1  UNL d   1       0.047  -0.605  -0.425  0.00  0.00    -0.077 A 
ATOM      3  C2  UNL d   1      -0.547  -1.263   0.659  0.00  0.00    -0.001 A 
ATOM      4  C3  UNL d   1      -0.659  -2.654   0.664  0.00  0.00     0.003 A 
ATOM      5  C4  UNL d   1      -0.180  -3.399  -0.411  0.00  0.00    -0.005 A 
ATOM      6  C5  UNL d   1       0.415  -2.753  -1.493  0.00  0.00     0.003 A 
ATOM      7  C6  UNL d   1       0.528  -1.362  -1.500  0.00  0.00    -0.001 A 
ENDROOT
TORSDOF 0
ENDMDL
