MODEL 1
REMARK minimizedAffinity -3.18868828
REMARK minimizedRMSD -1
REMARK  0 active torsions:
REMARK  status: ('A' for Active; 'I' for Inactive)
ROOT
ATOM      1  C   UNL d   1      -0.238  -0.878   1.482  0.00  0.00     0.078 C 
ATOM      2  C1  UNL d   1       0.265   0.255   0.639  0.00  0.00    -0.077 A 
ATOM      3  C2  UNL d   1       0.038   0.282  -0.743  0.00  0.00    -0.001 A 
ATOM      4  C3  UNL d   1       0.520   1.339  -1.517  0.00  0.00     0.003 A 
ATOM      5  C4  UNL d   1       1.233   2.376  -0.919  0.00  0.00    -0.005 A 
ATOM      6  C5  UNL d   1       1.466   2.356   0.455  0.00  0.00     0.003 A 
ATOM      7  C6  UNL d   1       0.985   1.300   1.230  0.00  0.00    -0.001 A 
ENDROOT
TORSDOF 0
ENDMDL
