MODEL 1
REMARK minimizedAffinity -5.29786968
REMARK minimizedRMSD -1
REMARK  0 active torsions:
REMARK  status: ('A' for Active; 'I' for Inactive)
ROOT
ATOM      1  C   UNL d   1       0.045   0.605  -0.401  0.00  0.00     0.078 C 
ATOM      2  C1  UNL d   1       0.150  -0.875  -0.617  0.00  0.00    -0.077 A 
ATOM      3  C2  UNL d   1       0.582  -1.396  -1.843  0.00  0.00    -0.001 A 
ATOM      4  C3  UNL d   1       0.666  -2.776  -2.033  0.00  0.00     0.003 A 
ATOM      5  C4  UNL d   1       0.319  -3.647  -1.002  0.00  0.00    -0.005 A 
ATOM      6  C5  UNL d   1      -0.115  -3.138   0.220  0.00  0.00     0.003 A 
ATOM      7  C6  UNL d   1      -0.199  -1.758   0.412  0.00  0.00    -0.001 A 
ENDROOT
TORSDOF 0
ENDMDL
