MODEL 1
REMARK minimizedAffinity -4.36958694
REMARK minimizedRMSD -1
REMARK  0 active torsions:
REMARK  status: ('A' for Active; 'I' for Inactive)
ROOT
ATOM      1  C   UNL d   1       0.149   1.392  -0.239  0.00  0.00     0.078 C 
ATOM      2  C1  UNL d   1      -0.099  -0.062   0.034  0.00  0.00    -0.077 A 
ATOM      3  C2  UNL d   1      -1.032  -0.466   0.996  0.00  0.00    -0.001 A 
ATOM      4  C3  UNL d   1      -1.246  -1.822   1.247  0.00  0.00     0.003 A 
ATOM      5  C4  UNL d   1      -0.529  -2.785   0.540  0.00  0.00    -0.005 A 
ATOM      6  C5  UNL d   1       0.404  -2.393  -0.418  0.00  0.00     0.003 A 
ATOM      7  C6  UNL d   1       0.619  -1.037  -0.670  0.00  0.00    -0.001 A 
ENDROOT
TORSDOF 0
ENDMDL
