MODEL 1
REMARK minimizedAffinity -3.22521448
REMARK minimizedRMSD -1
REMARK  0 active torsions:
REMARK  status: ('A' for Active; 'I' for Inactive)
ROOT
ATOM      1  C   UNL d   1       0.245  -3.333   0.795  0.00  0.00     0.078 C 
ATOM      2  C1  UNL d   1       0.034  -1.856   0.650  0.00  0.00    -0.077 A 
ATOM      3  C2  UNL d   1       0.787  -1.106  -0.262  0.00  0.00    -0.001 A 
ATOM      4  C3  UNL d   1       0.586   0.271  -0.380  0.00  0.00     0.003 A 
ATOM      5  C4  UNL d   1      -0.366   0.909   0.413  0.00  0.00    -0.005 A 
ATOM      6  C5  UNL d   1      -1.118   0.172   1.324  0.00  0.00     0.003 A 
ATOM      7  C6  UNL d   1      -0.919  -1.204   1.443  0.00  0.00    -0.001 A 
ENDROOT
TORSDOF 0
ENDMDL
