MODEL 1
REMARK minimizedAffinity -1.92455888
REMARK minimizedRMSD -1
REMARK  0 active torsions:
REMARK  status: ('A' for Active; 'I' for Inactive)
ROOT
ATOM      1  C   UNL d   1      -0.991  -3.058   0.457  0.00  0.00     0.078 C 
ATOM      2  C1  UNL d   1      -0.799  -1.580   0.287  0.00  0.00    -0.077 A 
ATOM      3  C2  UNL d   1      -1.319  -0.673   1.219  0.00  0.00    -0.001 A 
ATOM      4  C3  UNL d   1      -1.141   0.700   1.043  0.00  0.00     0.003 A 
ATOM      5  C4  UNL d   1      -0.445   1.179  -0.065  0.00  0.00    -0.005 A 
ATOM      6  C5  UNL d   1       0.074   0.284  -0.999  0.00  0.00     0.003 A 
ATOM      7  C6  UNL d   1      -0.103  -1.089  -0.824  0.00  0.00    -0.001 A 
ENDROOT
TORSDOF 0
ENDMDL
