MODEL 1
REMARK minimizedAffinity -5.57719183
REMARK minimizedRMSD -1
REMARK  0 active torsions:
REMARK  status: ('A' for Active; 'I' for Inactive)
ROOT
ATOM      1  C   UNL d   1       0.221   1.259  -0.253  0.00  0.00     0.078 C 
ATOM      2  C1  UNL d   1       0.192  -0.236  -0.133  0.00  0.00    -0.077 A 
ATOM      3  C2  UNL d   1      -0.372  -0.858   0.987  0.00  0.00    -0.001 A 
ATOM      4  C3  UNL d   1      -0.384  -2.250   1.090  0.00  0.00     0.003 A 
ATOM      5  C4  UNL d   1       0.170  -3.031   0.077  0.00  0.00    -0.005 A 
ATOM      6  C5  UNL d   1       0.736  -2.421  -1.040  0.00  0.00     0.003 A 
ATOM      7  C6  UNL d   1       0.748  -1.029  -1.145  0.00  0.00    -0.001 A 
ENDROOT
TORSDOF 0
ENDMDL
