MODEL 1
REMARK minimizedAffinity -3.28454804
REMARK minimizedRMSD -1
REMARK  0 active torsions:
REMARK  status: ('A' for Active; 'I' for Inactive)
ROOT
ATOM      1  C   UNL d   1       0.027  -3.759   0.166  0.00  0.00     0.078 C 
ATOM      2  C1  UNL d   1       0.071  -2.336  -0.306  0.00  0.00    -0.077 A 
ATOM      3  C2  UNL d   1       0.633  -2.004  -1.544  0.00  0.00    -0.001 A 
ATOM      4  C3  UNL d   1       0.676  -0.674  -1.966  0.00  0.00     0.003 A 
ATOM      5  C4  UNL d   1       0.159   0.334  -1.154  0.00  0.00    -0.005 A 
ATOM      6  C5  UNL d   1      -0.400   0.014   0.081  0.00  0.00     0.003 A 
ATOM      7  C6  UNL d   1      -0.444  -1.316   0.504  0.00  0.00    -0.001 A 
ENDROOT
TORSDOF 0
ENDMDL
