MODEL 1
REMARK minimizedAffinity 5.47320271
REMARK minimizedRMSD -1
REMARK  0 active torsions:
REMARK  status: ('A' for Active; 'I' for Inactive)
ROOT
ATOM      1  C   UNL d   1       5.478   1.664  -0.013  0.00  0.00     0.020 A 
ATOM      2  C1  UNL d   1       5.974   0.367  -0.136  0.00  0.00     0.020 A 
ATOM      3  C2  UNL d   1       5.094  -0.716  -0.183  0.00  0.00     0.034 A 
ATOM      4  C3  UNL d   1       3.712  -0.504  -0.106  0.00  0.00     0.017 A 
ATOM      5  C4  UNL d   1       3.215   0.798   0.018  0.00  0.00     0.017 A 
ATOM      6  C5  UNL d   1       4.101   1.879   0.064  0.00  0.00     0.034 A 
ATOM      7 Cl   UNL d   1       1.524   1.139   0.118  0.00  0.00    -0.070 Cl
ATOM      8 Cl1  UNL d   1       2.682  -1.890  -0.170  0.00  0.00    -0.070 Cl
ENDROOT
TORSDOF 0
ENDMDL
