MODEL 1
REMARK minimizedAffinity 9.62454128
REMARK minimizedRMSD -1
REMARK  0 active torsions:
REMARK  status: ('A' for Active; 'I' for Inactive)
ROOT
ATOM      1  C   UNL d   1       0.730   0.153   0.119  0.00  0.00     0.020 A 
ATOM      2  C1  UNL d   1      -0.487   0.236  -0.557  0.00  0.00     0.020 A 
ATOM      3  C2  UNL d   1      -0.898  -0.810  -1.385  0.00  0.00     0.034 A 
ATOM      4  C3  UNL d   1      -0.092  -1.944  -1.539  0.00  0.00     0.017 A 
ATOM      5  C4  UNL d   1       1.129  -2.026  -0.861  0.00  0.00     0.017 A 
ATOM      6  C5  UNL d   1       1.536  -0.976  -0.033  0.00  0.00     0.034 A 
ATOM      7 Cl   UNL d   1       2.177  -3.393  -1.001  0.00  0.00    -0.070 Cl
ATOM      8 Cl1  UNL d   1      -0.664  -3.200  -2.579  0.00  0.00    -0.070 Cl
ENDROOT
TORSDOF 0
ENDMDL
