MODEL 1
REMARK minimizedAffinity 8.7431612
REMARK minimizedRMSD -1
REMARK  0 active torsions:
REMARK  status: ('A' for Active; 'I' for Inactive)
ROOT
ATOM      1  C   UNL d   1       1.772  -0.475   0.790  0.00  0.00     0.020 A 
ATOM      2  C1  UNL d   1       1.096  -0.252   1.989  0.00  0.00     0.020 A 
ATOM      3  C2  UNL d   1      -0.281  -0.467   2.065  0.00  0.00     0.034 A 
ATOM      4  C3  UNL d   1      -0.988  -0.907   0.939  0.00  0.00     0.017 A 
ATOM      5  C4  UNL d   1      -0.309  -1.131  -0.264  0.00  0.00     0.017 A 
ATOM      6  C5  UNL d   1       1.071  -0.914  -0.334  0.00  0.00     0.034 A 
ATOM      7 Cl   UNL d   1      -1.112  -1.674  -1.695  0.00  0.00    -0.070 Cl
ATOM      8 Cl1  UNL d   1      -2.690  -1.153   1.105  0.00  0.00    -0.070 Cl
ENDROOT
TORSDOF 0
ENDMDL
