MODEL 1
REMARK minimizedAffinity 7.98961496
REMARK minimizedRMSD -1
REMARK  0 active torsions:
REMARK  status: ('A' for Active; 'I' for Inactive)
ROOT
ATOM      1  C   UNL d   1       1.688   0.166   0.631  0.00  0.00     0.020 A 
ATOM      2  C1  UNL d   1       0.959   0.321   1.810  0.00  0.00     0.020 A 
ATOM      3  C2  UNL d   1      -0.376  -0.083   1.863  0.00  0.00     0.034 A 
ATOM      4  C3  UNL d   1      -0.987  -0.645   0.735  0.00  0.00     0.017 A 
ATOM      5  C4  UNL d   1      -0.254  -0.800  -0.447  0.00  0.00     0.017 A 
ATOM      6  C5  UNL d   1       1.083  -0.393  -0.494  0.00  0.00     0.034 A 
ATOM      7 Cl   UNL d   1      -0.939  -1.485  -1.878  0.00  0.00    -0.070 Cl
ATOM      8 Cl1  UNL d   1      -2.642  -1.123   0.873  0.00  0.00    -0.070 Cl
ENDROOT
TORSDOF 0
ENDMDL
