MODEL 1
REMARK minimizedAffinity 8.43945885
REMARK minimizedRMSD -1
REMARK  0 active torsions:
REMARK  status: ('A' for Active; 'I' for Inactive)
ROOT
ATOM      1  C   UNL d   1      -0.193   3.134   3.811  0.00  0.00     0.020 A 
ATOM      2  C1  UNL d   1      -0.535   3.841   2.659  0.00  0.00     0.020 A 
ATOM      3  C2  UNL d   1      -0.464   3.219   1.411  0.00  0.00     0.034 A 
ATOM      4  C3  UNL d   1      -0.049   1.885   1.312  0.00  0.00     0.017 A 
ATOM      5  C4  UNL d   1       0.294   1.177   2.469  0.00  0.00     0.017 A 
ATOM      6  C5  UNL d   1       0.220   1.805   3.716  0.00  0.00     0.034 A 
ATOM      7 Cl   UNL d   1       0.814  -0.471   2.426  0.00  0.00    -0.070 Cl
ATOM      8 Cl1  UNL d   1       0.015   1.179  -0.264  0.00  0.00    -0.070 Cl
ENDROOT
TORSDOF 0
ENDMDL
