MODEL 1
REMARK minimizedAffinity 8.14736843
REMARK minimizedRMSD -1
REMARK  0 active torsions:
REMARK  status: ('A' for Active; 'I' for Inactive)
ROOT
ATOM      1  C   UNL d   1      -0.486   0.212  -0.611  0.00  0.00     0.020 A 
ATOM      2  C1  UNL d   1       0.827   0.201  -0.141  0.00  0.00     0.020 A 
ATOM      3  C2  UNL d   1       1.644  -0.907  -0.378  0.00  0.00     0.034 A 
ATOM      4  C3  UNL d   1       1.148  -2.008  -1.087  0.00  0.00     0.017 A 
ATOM      5  C4  UNL d   1      -0.170  -1.996  -1.557  0.00  0.00     0.017 A 
ATOM      6  C5  UNL d   1      -0.983  -0.884  -1.317  0.00  0.00     0.034 A 
ATOM      7 Cl   UNL d   1      -0.851  -3.317  -2.439  0.00  0.00    -0.070 Cl
ATOM      8 Cl1  UNL d   1       2.214  -3.343  -1.344  0.00  0.00    -0.070 Cl
ENDROOT
TORSDOF 0
ENDMDL
