MODEL 1
REMARK minimizedAffinity 17.129097
REMARK minimizedRMSD -1
REMARK  0 active torsions:
REMARK  status: ('A' for Active; 'I' for Inactive)
ROOT
ATOM      1  C   UNL d   1       0.017  -3.148   0.273  0.00  0.00     0.020 A 
ATOM      2  C1  UNL d   1       1.351  -3.287   0.657  0.00  0.00     0.020 A 
ATOM      3  C2  UNL d   1       2.364  -3.216  -0.301  0.00  0.00     0.034 A 
ATOM      4  C3  UNL d   1       2.046  -3.006  -1.648  0.00  0.00     0.017 A 
ATOM      5  C4  UNL d   1       0.707  -2.867  -2.032  0.00  0.00     0.017 A 
ATOM      6  C5  UNL d   1      -0.303  -2.938  -1.068  0.00  0.00     0.034 A 
ATOM      7 Cl   UNL d   1       0.237  -2.606  -3.675  0.00  0.00    -0.070 Cl
ATOM      8 Cl1  UNL d   1       3.350  -2.930  -2.779  0.00  0.00    -0.070 Cl
ENDROOT
TORSDOF 0
ENDMDL
