MODEL 1
REMARK minimizedAffinity 8.97171688
REMARK minimizedRMSD -1
REMARK  0 active torsions:
REMARK  status: ('A' for Active; 'I' for Inactive)
ROOT
ATOM      1  C   UNL d   1      -0.276  -0.143   0.122  0.00  0.00     0.020 A 
ATOM      2  C1  UNL d   1       1.076  -0.137   0.463  0.00  0.00     0.020 A 
ATOM      3  C2  UNL d   1       1.957  -1.021  -0.162  0.00  0.00     0.034 A 
ATOM      4  C3  UNL d   1       1.488  -1.916  -1.130  0.00  0.00     0.017 A 
ATOM      5  C4  UNL d   1       0.131  -1.922  -1.471  0.00  0.00     0.017 A 
ATOM      6  C5  UNL d   1      -0.748  -1.034  -0.843  0.00  0.00     0.034 A 
ATOM      7 Cl   UNL d   1      -0.523  -2.996  -2.657  0.00  0.00    -0.070 Cl
ATOM      8 Cl1  UNL d   1       2.634  -2.982  -1.862  0.00  0.00    -0.070 Cl
ENDROOT
TORSDOF 0
ENDMDL
