MODEL 1
REMARK minimizedAffinity 6.41381073
REMARK minimizedRMSD -1
REMARK  0 active torsions:
REMARK  status: ('A' for Active; 'I' for Inactive)
ROOT
ATOM      1  C   UNL d   1       1.988   5.475   5.972  0.00  0.00     0.020 A 
ATOM      2  C1  UNL d   1       1.756   4.226   5.397  0.00  0.00     0.020 A 
ATOM      3  C2  UNL d   1       2.817   3.501   4.850  0.00  0.00     0.034 A 
ATOM      4  C3  UNL d   1       4.115   4.025   4.877  0.00  0.00     0.017 A 
ATOM      5  C4  UNL d   1       4.347   5.278   5.454  0.00  0.00     0.017 A 
ATOM      6  C5  UNL d   1       3.281   6.000   6.000  0.00  0.00     0.034 A 
ATOM      7 Cl   UNL d   1       5.921   5.989   5.524  0.00  0.00    -0.070 Cl
ATOM      8 Cl1  UNL d   1       5.379   3.073   4.182  0.00  0.00    -0.070 Cl
ENDROOT
TORSDOF 0
ENDMDL
