MODEL 1
REMARK minimizedAffinity 5.92322063
REMARK minimizedRMSD -1
REMARK  0 active torsions:
REMARK  status: ('A' for Active; 'I' for Inactive)
ROOT
ATOM      1  C   UNL d   1      -0.639   0.302  -0.246  0.00  0.00     0.020 A 
ATOM      2  C1  UNL d   1       0.637   0.262   0.315  0.00  0.00     0.020 A 
ATOM      3  C2  UNL d   1       1.516  -0.768  -0.024  0.00  0.00     0.034 A 
ATOM      4  C3  UNL d   1       1.121  -1.763  -0.926  0.00  0.00     0.017 A 
ATOM      5  C4  UNL d   1      -0.160  -1.722  -1.488  0.00  0.00     0.017 A 
ATOM      6  C5  UNL d   1      -1.036  -0.688  -1.145  0.00  0.00     0.034 A 
ATOM      7 Cl   UNL d   1      -0.719  -2.913  -2.609  0.00  0.00    -0.070 Cl
ATOM      8 Cl1  UNL d   1       2.261  -3.007  -1.300  0.00  0.00    -0.070 Cl
ENDROOT
TORSDOF 0
ENDMDL
