MODEL 1
REMARK minimizedAffinity 5.10580444
REMARK minimizedRMSD -1
REMARK  0 active torsions:
REMARK  status: ('A' for Active; 'I' for Inactive)
ROOT
ATOM      1  C   UNL d   1      -1.172  -1.035  -2.262  0.00  0.00     0.020 A 
ATOM      2  C1  UNL d   1      -0.283  -2.021  -1.836  0.00  0.00     0.020 A 
ATOM      3  C2  UNL d   1       0.562  -1.778  -0.751  0.00  0.00     0.034 A 
ATOM      4  C3  UNL d   1       0.519  -0.546  -0.088  0.00  0.00     0.017 A 
ATOM      5  C4  UNL d   1      -0.374   0.443  -0.516  0.00  0.00     0.017 A 
ATOM      6  C5  UNL d   1      -1.218   0.194  -1.603  0.00  0.00     0.034 A 
ATOM      7 Cl   UNL d   1      -0.485   1.987   0.252  0.00  0.00    -0.070 Cl
ATOM      8 Cl1  UNL d   1       1.592  -0.314   1.246  0.00  0.00    -0.070 Cl
ENDROOT
TORSDOF 0
ENDMDL
