MODEL 1
REMARK minimizedAffinity 2.37744164
REMARK minimizedRMSD -1
REMARK  0 active torsions:
REMARK  status: ('A' for Active; 'I' for Inactive)
ROOT
ATOM      1  C4' PXY d   1      -2.614  -3.416  -0.644  0.00  0.00     0.077 C 
ATOM      2  C1' PXY d   1       2.425  -1.039  -2.186  0.00  0.00     0.077 C 
ATOM      3  C1  PXY d   1       1.108  -1.663  -1.769  0.00  0.00    -0.082 A 
ATOM      4  C2  PXY d   1       0.352  -2.262  -2.676  0.00  0.00     0.003 A 
ATOM      5  C3  PXY d   1      -0.857  -2.804  -2.322  0.00  0.00     0.003 A 
ATOM      6  C4  PXY d   1      -1.272  -2.780  -1.017  0.00  0.00    -0.082 A 
ATOM      7  C5  PXY d   1      -0.502  -2.181  -0.085  0.00  0.00     0.003 A 
ATOM      8  C6  PXY d   1       0.703  -1.600  -0.472  0.00  0.00     0.003 A 
ENDROOT
TORSDOF 0
ENDMDL
