MODEL 1
REMARK minimizedAffinity -0.109560117
REMARK minimizedRMSD -1
REMARK  0 active torsions:
REMARK  status: ('A' for Active; 'I' for Inactive)
ROOT
ATOM      1  C4' PXY d   1       1.620  -1.669   3.225  0.00  0.00     0.077 C 
ATOM      2  C1' PXY d   1       1.588   2.493  -0.786  0.00  0.00     0.077 C 
ATOM      3  C1  PXY d   1       1.583   1.400   0.265  0.00  0.00    -0.082 A 
ATOM      4  C2  PXY d   1       2.540   1.367   1.178  0.00  0.00     0.003 A 
ATOM      5  C3  PXY d   1       2.569   0.367   2.116  0.00  0.00     0.003 A 
ATOM      6  C4  PXY d   1       1.579  -0.578   2.152  0.00  0.00    -0.082 A 
ATOM      7  C5  PXY d   1       0.594  -0.545   1.230  0.00  0.00     0.003 A 
ATOM      8  C6  PXY d   1       0.605   0.454   0.261  0.00  0.00     0.003 A 
ENDROOT
TORSDOF 0
ENDMDL
