MODEL 1
REMARK minimizedAffinity 9.97790718
REMARK minimizedRMSD -1
REMARK  0 active torsions:
REMARK  status: ('A' for Active; 'I' for Inactive)
ROOT
ATOM      1  C4' PXY d   1       1.287  -3.691   3.810  0.00  0.00     0.077 C 
ATOM      2  C1' PXY d   1       1.802   1.095   0.609  0.00  0.00     0.077 C 
ATOM      3  C1  PXY d   1       1.655  -0.162   1.443  0.00  0.00    -0.082 A 
ATOM      4  C2  PXY d   1       2.346  -0.287   2.565  0.00  0.00     0.003 A 
ATOM      5  C3  PXY d   1       2.249  -1.431   3.315  0.00  0.00     0.003 A 
ATOM      6  C4  PXY d   1       1.397  -2.435   2.941  0.00  0.00    -0.082 A 
ATOM      7  C5  PXY d   1       0.681  -2.310   1.804  0.00  0.00     0.003 A 
ATOM      8  C6  PXY d   1       0.824  -1.159   1.035  0.00  0.00     0.003 A 
ENDROOT
TORSDOF 0
ENDMDL
