MODEL 1
REMARK minimizedAffinity 10.3471956
REMARK minimizedRMSD -1
REMARK  0 active torsions:
REMARK  status: ('A' for Active; 'I' for Inactive)
ROOT
ATOM      1  C4' PXY d   1       2.511   3.749  -0.662  0.00  0.00     0.077 C 
ATOM      2  C1' PXY d   1       2.387  -0.840   2.850  0.00  0.00     0.077 C 
ATOM      3  C1  PXY d   1       2.432   0.360   1.926  0.00  0.00    -0.082 A 
ATOM      4  C2  PXY d   1       1.606   1.374   2.130  0.00  0.00     0.003 A 
ATOM      5  C3  PXY d   1       1.611   2.454   1.285  0.00  0.00     0.003 A 
ATOM      6  C4  PXY d   1       2.507   2.521   0.252  0.00  0.00    -0.082 A 
ATOM      7  C5  PXY d   1       3.360   1.495   0.044  0.00  0.00     0.003 A 
ATOM      8  C6  PXY d   1       3.311   0.390   0.888  0.00  0.00     0.003 A 
ENDROOT
TORSDOF 0
ENDMDL
