MODEL 1
REMARK minimizedAffinity -1.50306726
REMARK minimizedRMSD -1
REMARK  0 active torsions:
REMARK  status: ('A' for Active; 'I' for Inactive)
ROOT
ATOM      1  C4' PXY d   1       0.905  -0.130   1.380  0.00  0.00     0.077 C 
ATOM      2  C1' PXY d   1       1.800   4.957  -1.215  0.00  0.00     0.077 C 
ATOM      3  C1  PXY d   1       1.556   3.628  -0.527  0.00  0.00    -0.082 A 
ATOM      4  C2  PXY d   1       2.512   2.713  -0.514  0.00  0.00     0.003 A 
ATOM      5  C3  PXY d   1       2.297   1.494   0.076  0.00  0.00     0.003 A 
ATOM      6  C4  PXY d   1       1.110   1.229   0.705  0.00  0.00    -0.082 A 
ATOM      7  C5  PXY d   1       0.134   2.162   0.706  0.00  0.00     0.003 A 
ATOM      8  C6  PXY d   1       0.358   3.377   0.066  0.00  0.00     0.003 A 
ENDROOT
TORSDOF 0
ENDMDL
