MODEL 1
REMARK minimizedAffinity 8.60738373
REMARK minimizedRMSD -1
REMARK  0 active torsions:
REMARK  status: ('A' for Active; 'I' for Inactive)
ROOT
ATOM      1  C4' PXY d   1       1.904  -2.132   3.878  0.00  0.00     0.077 C 
ATOM      2  C1' PXY d   1       2.104   2.331   0.210  0.00  0.00     0.077 C 
ATOM      3  C1  PXY d   1       2.039   1.159   1.169  0.00  0.00    -0.082 A 
ATOM      4  C2  PXY d   1       2.896   1.088   2.174  0.00  0.00     0.003 A 
ATOM      5  C3  PXY d   1       2.872   0.018   3.032  0.00  0.00     0.003 A 
ATOM      6  C4  PXY d   1       1.927  -0.962   2.890  0.00  0.00    -0.082 A 
ATOM      7  C5  PXY d   1       1.042  -0.892   1.873  0.00  0.00     0.003 A 
ATOM      8  C6  PXY d   1       1.109   0.181   0.989  0.00  0.00     0.003 A 
ENDROOT
TORSDOF 0
ENDMDL
