MODEL 1
REMARK minimizedAffinity 6.63410854
REMARK minimizedRMSD -1
REMARK  0 active torsions:
REMARK  status: ('A' for Active; 'I' for Inactive)
ROOT
ATOM      1  C4' PXY d   1       2.513   3.311  -0.960  0.00  0.00     0.077 C 
ATOM      2  C1' PXY d   1       1.900  -0.926   2.925  0.00  0.00     0.077 C 
ATOM      3  C1  PXY d   1       2.047   0.186   1.904  0.00  0.00    -0.082 A 
ATOM      4  C2  PXY d   1       3.184   0.317   1.240  0.00  0.00     0.003 A 
ATOM      5  C3  PXY d   1       3.346   1.336   0.337  0.00  0.00     0.003 A 
ATOM      6  C4  PXY d   1       2.315   2.197   0.072  0.00  0.00    -0.082 A 
ATOM      7  C5  PXY d   1       1.149   2.063   0.738  0.00  0.00     0.003 A 
ATOM      8  C6  PXY d   1       1.019   1.047   1.681  0.00  0.00     0.003 A 
ENDROOT
TORSDOF 0
ENDMDL
