MODEL 1
REMARK minimizedAffinity 3.17178082
REMARK minimizedRMSD -1
REMARK  0 active torsions:
REMARK  status: ('A' for Active; 'I' for Inactive)
ROOT
ATOM      1  C4' PXY d   1       2.250  -1.056   3.399  0.00  0.00     0.077 C 
ATOM      2  C1' PXY d   1       1.772   2.917  -0.773  0.00  0.00     0.077 C 
ATOM      3  C1  PXY d   1       1.885   1.872   0.320  0.00  0.00    -0.082 A 
ATOM      4  C2  PXY d   1       2.875   1.945   1.195  0.00  0.00     0.003 A 
ATOM      5  C3  PXY d   1       3.010   0.991   2.171  0.00  0.00     0.003 A 
ATOM      6  C4  PXY d   1       2.092  -0.018   2.284  0.00  0.00    -0.082 A 
ATOM      7  C5  PXY d   1       1.073  -0.093   1.402  0.00  0.00     0.003 A 
ATOM      8  C6  PXY d   1       0.977   0.862   0.394  0.00  0.00     0.003 A 
ENDROOT
TORSDOF 0
ENDMDL
