MODEL 1
REMARK minimizedAffinity 5.99072361
REMARK minimizedRMSD -1
REMARK  0 active torsions:
REMARK  status: ('A' for Active; 'I' for Inactive)
ROOT
ATOM      1  C4' PXY d   1       1.762  -1.562   2.967  0.00  0.00     0.077 C 
ATOM      2  C1' PXY d   1       1.803   3.115  -0.430  0.00  0.00     0.077 C 
ATOM      3  C1  PXY d   1       1.779   1.889   0.462  0.00  0.00    -0.082 A 
ATOM      4  C2  PXY d   1       2.851   1.576   1.172  0.00  0.00     0.003 A 
ATOM      5  C3  PXY d   1       2.858   0.453   1.959  0.00  0.00     0.003 A 
ATOM      6  C4  PXY d   1       1.738  -0.328   2.061  0.00  0.00    -0.082 A 
ATOM      7  C5  PXY d   1       0.637  -0.010   1.348  0.00  0.00     0.003 A 
ATOM      8  C6  PXY d   1       0.664   1.111   0.523  0.00  0.00     0.003 A 
ENDROOT
TORSDOF 0
ENDMDL
