MODEL 1
REMARK minimizedAffinity 5.08728313
REMARK minimizedRMSD -1
REMARK  1 active torsions:
REMARK  status: ('A' for Active; 'I' for Inactive)
REMARK    1  A    between atoms: C1_2  and  C2_3 
ROOT
ATOM      1  C2  UNL d   1      -1.718   0.250  -0.698  0.00  0.00    -0.081 A 
ATOM      2  C3  UNL d   1      -2.499   0.382   0.457  0.00  0.00     0.006 A 
ATOM      3  C4  UNL d   1      -2.015  -0.054   1.693  0.00  0.00     0.002 A 
ATOM      4  C5  UNL d   1      -0.741  -0.623   1.796  0.00  0.00    -0.080 A 
ATOM      5  C6  UNL d   1      -0.198  -1.067   3.122  0.00  0.00     0.076 C 
ATOM      6  C7  UNL d   1       0.032  -0.771   0.640  0.00  0.00     0.002 A 
ATOM      7  C8  UNL d   1      -0.451  -0.335  -0.596  0.00  0.00     0.006 A 
ENDROOT
BRANCH   1   8
ATOM      8  C1  UNL d   1      -2.210   0.778  -2.021  0.00  0.00     0.054 C 
ATOM      9  C   UNL d   1      -2.331   2.295  -2.000  0.00  0.00     0.018 C 
ENDBRANCH   1   8
TORSDOF 1
ENDMDL
