MODEL 1
REMARK minimizedAffinity 1.80008876
REMARK minimizedRMSD -1
REMARK  1 active torsions:
REMARK  status: ('A' for Active; 'I' for Inactive)
REMARK    1  A    between atoms: C1_2  and  C2_3 
ROOT
ATOM      1  C2  UNL d   1      -0.095  -0.162   0.567  0.00  0.00    -0.081 A 
ATOM      2  C3  UNL d   1       1.303  -0.084   0.542  0.00  0.00     0.006 A 
ATOM      3  C4  UNL d   1       1.989  -0.062  -0.674  0.00  0.00     0.002 A 
ATOM      4  C5  UNL d   1       1.290  -0.109  -1.885  0.00  0.00    -0.080 A 
ATOM      5  C6  UNL d   1       2.013  -0.055  -3.198  0.00  0.00     0.076 C 
ATOM      6  C7  UNL d   1      -0.105  -0.205  -1.860  0.00  0.00     0.002 A 
ATOM      7  C8  UNL d   1      -0.792  -0.228  -0.644  0.00  0.00     0.006 A 
ENDROOT
BRANCH   1   8
ATOM      8  C1  UNL d   1      -0.841  -0.121   1.876  0.00  0.00     0.054 C 
ATOM      9  C   UNL d   1      -0.079  -0.853   2.971  0.00  0.00     0.018 C 
ENDBRANCH   1   8
TORSDOF 1
ENDMDL
