MODEL 1
REMARK minimizedAffinity -1.88072944
REMARK minimizedRMSD -1
REMARK  1 active torsions:
REMARK  status: ('A' for Active; 'I' for Inactive)
REMARK    1  A    between atoms: C1_2  and  C2_3 
ROOT
ATOM      1  C2  UNL d   1       0.633  -2.262   1.161  0.00  0.00    -0.081 A 
ATOM      2  C3  UNL d   1       1.591  -3.215   1.528  0.00  0.00     0.006 A 
ATOM      3  C4  UNL d   1       1.263  -4.246   2.412  0.00  0.00     0.002 A 
ATOM      4  C5  UNL d   1      -0.030  -4.346   2.937  0.00  0.00    -0.080 A 
ATOM      5  C6  UNL d   1      -0.405  -5.465   3.862  0.00  0.00     0.076 C 
ATOM      6  C7  UNL d   1      -0.983  -3.384   2.583  0.00  0.00     0.002 A 
ATOM      7  C8  UNL d   1      -0.655  -2.353   1.701  0.00  0.00     0.006 A 
ENDROOT
BRANCH   1   8
ATOM      8  C1  UNL d   1       0.966  -1.187   0.158  0.00  0.00     0.054 C 
ATOM      9  C   UNL d   1      -0.295  -0.551  -0.410  0.00  0.00     0.018 C 
ENDBRANCH   1   8
TORSDOF 1
ENDMDL
