MODEL 1
REMARK minimizedAffinity -1.47453725
REMARK minimizedRMSD -1
REMARK  1 active torsions:
REMARK  status: ('A' for Active; 'I' for Inactive)
REMARK    1  A    between atoms: C1_2  and  C2_3 
ROOT
ATOM      1  C2  UNL d   1       1.458  -3.173   2.547  0.00  0.00    -0.081 A 
ATOM      2  C3  UNL d   1       1.651  -2.823   1.205  0.00  0.00     0.006 A 
ATOM      3  C4  UNL d   1       0.885  -1.812   0.619  0.00  0.00     0.002 A 
ATOM      4  C5  UNL d   1      -0.080  -1.130   1.368  0.00  0.00    -0.080 A 
ATOM      5  C6  UNL d   1      -0.888  -0.022   0.760  0.00  0.00     0.076 C 
ATOM      6  C7  UNL d   1      -0.285  -1.491   2.703  0.00  0.00     0.002 A 
ATOM      7  C8  UNL d   1       0.480  -2.502   3.289  0.00  0.00     0.006 A 
ENDROOT
BRANCH   1   8
ATOM      8  C1  UNL d   1       2.327  -4.219   3.199  0.00  0.00     0.054 C 
ATOM      9  C   UNL d   1       3.243  -3.602   4.246  0.00  0.00     0.018 C 
ENDBRANCH   1   8
TORSDOF 1
ENDMDL
