MODEL 1
REMARK minimizedAffinity 5.42593002
REMARK minimizedRMSD -1
REMARK  1 active torsions:
REMARK  status: ('A' for Active; 'I' for Inactive)
REMARK    1  A    between atoms: C1_2  and  C2_3 
ROOT
ATOM      1  C2  UNL d   1      -1.470  -1.094   1.393  0.00  0.00    -0.081 A 
ATOM      2  C3  UNL d   1      -0.468  -1.276   2.354  0.00  0.00     0.006 A 
ATOM      3  C4  UNL d   1       0.749  -0.598   2.245  0.00  0.00     0.002 A 
ATOM      4  C5  UNL d   1       0.981   0.278   1.179  0.00  0.00    -0.080 A 
ATOM      5  C6  UNL d   1       2.271   1.034   1.067  0.00  0.00     0.076 C 
ATOM      6  C7  UNL d   1      -0.013   0.446   0.210  0.00  0.00     0.002 A 
ATOM      7  C8  UNL d   1      -1.230  -0.232   0.318  0.00  0.00     0.006 A 
ENDROOT
BRANCH   1   8
ATOM      8  C1  UNL d   1      -2.807  -1.773   1.542  0.00  0.00     0.054 C 
ATOM      9  C   UNL d   1      -3.795  -0.892   2.294  0.00  0.00     0.018 C 
ENDBRANCH   1   8
TORSDOF 1
ENDMDL
