MODEL 1
REMARK minimizedAffinity -1.12102127
REMARK minimizedRMSD -1
REMARK  1 active torsions:
REMARK  status: ('A' for Active; 'I' for Inactive)
REMARK    1  A    between atoms: C1_2  and  C2_3 
ROOT
ATOM      1  C2  UNL d   1       1.893  -2.932   1.843  0.00  0.00    -0.081 A 
ATOM      2  C3  UNL d   1       1.054  -2.602   2.914  0.00  0.00     0.006 A 
ATOM      3  C4  UNL d   1       0.039  -1.656   2.753  0.00  0.00     0.002 A 
ATOM      4  C5  UNL d   1      -0.159  -1.031   1.517  0.00  0.00    -0.080 A 
ATOM      5  C6  UNL d   1      -1.265  -0.036   1.323  0.00  0.00     0.076 C 
ATOM      6  C7  UNL d   1       0.690  -1.348   0.452  0.00  0.00     0.002 A 
ATOM      7  C8  UNL d   1       1.706  -2.293   0.613  0.00  0.00     0.006 A 
ENDROOT
BRANCH   1   8
ATOM      8  C1  UNL d   1       2.948  -3.999   1.996  0.00  0.00     0.054 C 
ATOM      9  C   UNL d   1       3.604  -3.935   3.367  0.00  0.00     0.018 C 
ENDBRANCH   1   8
TORSDOF 1
ENDMDL
