MODEL 1
REMARK minimizedAffinity -4.39949369
REMARK minimizedRMSD -1
REMARK  0 active torsions:
REMARK  status: ('A' for Active; 'I' for Inactive)
ROOT
ATOM      1  C   UNL d   1      -3.210  -2.642   0.908  0.00  0.00     0.023 A 
ATOM      2  C1  UNL d   1      -3.374  -1.588   0.009  0.00  0.00     0.003 A 
ATOM      3  C2  UNL d   1      -2.309  -0.725  -0.258  0.00  0.00     0.048 A 
ATOM      4  C3  UNL d   1      -1.083  -0.923   0.375  0.00  0.00     0.023 A 
ATOM      5  C4  UNL d   1      -0.914  -1.978   1.274  0.00  0.00     0.048 A 
ATOM      6  C5  UNL d   1      -1.982  -2.837   1.539  0.00  0.00     0.003 A 
ATOM      7  I   UNL d   1       0.504   0.359  -0.022  0.00  0.00    -0.146 I 
ENDROOT
TORSDOF 0
ENDMDL
