MODEL 1
REMARK minimizedAffinity -4.90938663
REMARK minimizedRMSD -1
REMARK  0 active torsions:
REMARK  status: ('A' for Active; 'I' for Inactive)
ROOT
ATOM      1  C   UNL d   1      -3.351  -1.592   0.946  0.00  0.00     0.023 A 
ATOM      2  C1  UNL d   1      -3.028  -0.924  -0.236  0.00  0.00     0.003 A 
ATOM      3  C2  UNL d   1      -1.744  -0.407  -0.419  0.00  0.00     0.048 A 
ATOM      4  C3  UNL d   1      -0.787  -0.560   0.584  0.00  0.00     0.023 A 
ATOM      5  C4  UNL d   1      -1.106  -1.228   1.768  0.00  0.00     0.048 A 
ATOM      6  C5  UNL d   1      -2.391  -1.743   1.946  0.00  0.00     0.003 A 
ATOM      7  I   UNL d   1       1.124   0.209   0.314  0.00  0.00    -0.146 I 
ENDROOT
TORSDOF 0
ENDMDL
