MODEL 1
REMARK minimizedAffinity -3.81548643
REMARK minimizedRMSD -1
REMARK  0 active torsions:
REMARK  status: ('A' for Active; 'I' for Inactive)
ROOT
ATOM      1  C   UNL d   1      -2.882  -2.104   0.023  0.00  0.00     0.023 A 
ATOM      2  C1  UNL d   1      -2.657  -1.001  -0.800  0.00  0.00     0.003 A 
ATOM      3  C2  UNL d   1      -1.474  -0.268  -0.681  0.00  0.00     0.048 A 
ATOM      4  C3  UNL d   1      -0.520  -0.645   0.264  0.00  0.00     0.023 A 
ATOM      5  C4  UNL d   1      -0.740  -1.749   1.089  0.00  0.00     0.048 A 
ATOM      6  C5  UNL d   1      -1.924  -2.478   0.966  0.00  0.00     0.003 A 
ATOM      7  I   UNL d   1       1.241   0.444   0.444  0.00  0.00    -0.146 I 
ENDROOT
TORSDOF 0
ENDMDL
