MODEL 1
REMARK minimizedAffinity -3.53950596
REMARK minimizedRMSD -1
REMARK  0 active torsions:
REMARK  status: ('A' for Active; 'I' for Inactive)
ROOT
ATOM      1  C   UNL d   1      -2.820  -2.111  -0.113  0.00  0.00     0.023 A 
ATOM      2  C1  UNL d   1      -2.599  -1.076  -1.020  0.00  0.00     0.003 A 
ATOM      3  C2  UNL d   1      -1.423  -0.326  -0.953  0.00  0.00     0.048 A 
ATOM      4  C3  UNL d   1      -0.472  -0.618   0.024  0.00  0.00     0.023 A 
ATOM      5  C4  UNL d   1      -0.688  -1.654   0.934  0.00  0.00     0.048 A 
ATOM      6  C5  UNL d   1      -1.866  -2.400   0.863  0.00  0.00     0.003 A 
ATOM      7  I   UNL d   1       1.280   0.497   0.127  0.00  0.00    -0.146 I 
ENDROOT
TORSDOF 0
ENDMDL
