MODEL 1
REMARK minimizedAffinity -4.33798885
REMARK minimizedRMSD -1
REMARK  0 active torsions:
REMARK  status: ('A' for Active; 'I' for Inactive)
ROOT
ATOM      1  C   UNL d   1      -2.889  -1.516   1.026  0.00  0.00     0.023 A 
ATOM      2  C1  UNL d   1      -2.889  -0.312   0.322  0.00  0.00     0.003 A 
ATOM      3  C2  UNL d   1      -1.684   0.339   0.049  0.00  0.00     0.048 A 
ATOM      4  C3  UNL d   1      -0.482  -0.221   0.482  0.00  0.00     0.023 A 
ATOM      5  C4  UNL d   1      -0.477  -1.427   1.185  0.00  0.00     0.048 A 
ATOM      6  C5  UNL d   1      -1.685  -2.073   1.457  0.00  0.00     0.003 A 
ATOM      7  I   UNL d   1       1.312   0.745   0.076  0.00  0.00    -0.146 I 
ENDROOT
TORSDOF 0
ENDMDL
