MODEL 1
REMARK minimizedAffinity -4.69224596
REMARK minimizedRMSD -1
REMARK  0 active torsions:
REMARK  status: ('A' for Active; 'I' for Inactive)
ROOT
ATOM      1  C   UNL d   1      -3.029  -1.732   0.483  0.00  0.00     0.023 A 
ATOM      2  C1  UNL d   1      -2.826  -0.678  -0.408  0.00  0.00     0.003 A 
ATOM      3  C2  UNL d   1      -1.561  -0.101  -0.533  0.00  0.00     0.048 A 
ATOM      4  C3  UNL d   1      -0.502  -0.583   0.237  0.00  0.00     0.023 A 
ATOM      5  C4  UNL d   1      -0.700  -1.637   1.129  0.00  0.00     0.048 A 
ATOM      6  C5  UNL d   1      -1.967  -2.211   1.251  0.00  0.00     0.003 A 
ATOM      7  I   UNL d   1       1.382   0.275   0.053  0.00  0.00    -0.146 I 
ENDROOT
TORSDOF 0
ENDMDL
