MODEL 1
REMARK minimizedAffinity -3.13717341
REMARK minimizedRMSD -1
REMARK  0 active torsions:
REMARK  status: ('A' for Active; 'I' for Inactive)
ROOT
ATOM      1  C   UNL d   1      -3.106  -2.182   1.170  0.00  0.00     0.023 A 
ATOM      2  C1  UNL d   1      -3.128  -1.361   0.042  0.00  0.00     0.003 A 
ATOM      3  C2  UNL d   1      -1.991  -0.634  -0.316  0.00  0.00     0.048 A 
ATOM      4  C3  UNL d   1      -0.834  -0.733   0.457  0.00  0.00     0.023 A 
ATOM      5  C4  UNL d   1      -0.808  -1.554   1.586  0.00  0.00     0.048 A 
ATOM      6  C5  UNL d   1      -1.947  -2.278   1.941  0.00  0.00     0.003 A 
ATOM      7  I   UNL d   1       0.859   0.348  -0.074  0.00  0.00    -0.146 I 
ENDROOT
TORSDOF 0
ENDMDL
