MODEL 1
REMARK minimizedAffinity -2.72499681
REMARK minimizedRMSD -1
REMARK  0 active torsions:
REMARK  status: ('A' for Active; 'I' for Inactive)
ROOT
ATOM      1  C   UNL d   1      -3.308  -2.011   0.083  0.00  0.00     0.023 A 
ATOM      2  C1  UNL d   1      -3.003  -1.056  -0.887  0.00  0.00     0.003 A 
ATOM      3  C2  UNL d   1      -1.777  -0.389  -0.851  0.00  0.00     0.048 A 
ATOM      4  C3  UNL d   1      -0.860  -0.682   0.158  0.00  0.00     0.023 A 
ATOM      5  C4  UNL d   1      -1.160  -1.637   1.130  0.00  0.00     0.048 A 
ATOM      6  C5  UNL d   1      -2.388  -2.301   1.090  0.00  0.00     0.003 A 
ATOM      7  I   UNL d   1       0.966   0.310   0.213  0.00  0.00    -0.146 I 
ENDROOT
TORSDOF 0
ENDMDL
