MODEL 1
REMARK minimizedAffinity -0.0153644094
REMARK minimizedRMSD -1
REMARK  0 active torsions:
REMARK  status: ('A' for Active; 'I' for Inactive)
ROOT
ATOM      1  C   UNL d   1       2.616   3.754   1.739  0.00  0.00     0.023 A 
ATOM      2  C1  UNL d   1       1.858   2.956   2.596  0.00  0.00     0.003 A 
ATOM      3  C2  UNL d   1       1.215   1.817   2.106  0.00  0.00     0.048 A 
ATOM      4  C3  UNL d   1       1.336   1.481   0.758  0.00  0.00     0.023 A 
ATOM      5  C4  UNL d   1       2.095   2.275  -0.103  0.00  0.00     0.048 A 
ATOM      6  C5  UNL d   1       2.735   3.414   0.391  0.00  0.00     0.003 A 
ATOM      7  I   UNL d   1       0.381  -0.214   0.027  0.00  0.00    -0.146 I 
ENDROOT
TORSDOF 0
ENDMDL
