MODEL 1
REMARK minimizedAffinity 0.854556501
REMARK minimizedRMSD -1
REMARK  0 active torsions:
REMARK  status: ('A' for Active; 'I' for Inactive)
ROOT
ATOM      1  C   UNL d   1      -0.369   0.833  -2.330  0.00  0.00     0.023 A 
ATOM      2  C1  UNL d   1       0.457   1.288  -1.302  0.00  0.00     0.003 A 
ATOM      3  C2  UNL d   1       0.722   0.469  -0.203  0.00  0.00     0.048 A 
ATOM      4  C3  UNL d   1       0.159  -0.805  -0.138  0.00  0.00     0.023 A 
ATOM      5  C4  UNL d   1      -0.668  -1.265  -1.164  0.00  0.00     0.048 A 
ATOM      6  C5  UNL d   1      -0.931  -0.442  -2.261  0.00  0.00     0.003 A 
ATOM      7  I   UNL d   1       0.552  -2.026   1.497  0.00  0.00    -0.146 I 
ENDROOT
TORSDOF 0
ENDMDL
