MODEL 1
REMARK minimizedAffinity 0.900644958
REMARK minimizedRMSD -1
REMARK  0 active torsions:
REMARK  status: ('A' for Active; 'I' for Inactive)
ROOT
ATOM      1  C   UNL d   1       2.827   3.687   1.276  0.00  0.00     0.023 A 
ATOM      2  C1  UNL d   1       3.049   2.961   0.105  0.00  0.00     0.003 A 
ATOM      3  C2  UNL d   1       2.326   1.793  -0.141  0.00  0.00     0.048 A 
ATOM      4  C3  UNL d   1       1.381   1.356   0.787  0.00  0.00     0.023 A 
ATOM      5  C4  UNL d   1       1.155   2.080   1.959  0.00  0.00     0.048 A 
ATOM      6  C5  UNL d   1       1.881   3.247   2.201  0.00  0.00     0.003 A 
ATOM      7  I   UNL d   1       0.303  -0.383   0.422  0.00  0.00    -0.146 I 
ENDROOT
TORSDOF 0
ENDMDL
