MODEL 1
REMARK minimizedAffinity -5.17603636
REMARK minimizedRMSD -1
REMARK  0 active torsions:
REMARK  status: ('A' for Active; 'I' for Inactive)
ROOT
ATOM      1  C   UNL d   1      -3.187  -2.319   0.825  0.00  0.00     0.023 A 
ATOM      2  C1  UNL d   1      -1.881  -2.798   0.924  0.00  0.00     0.003 A 
ATOM      3  C2  UNL d   1      -0.802  -1.934   0.724  0.00  0.00     0.048 A 
ATOM      4  C3  UNL d   1      -1.037  -0.592   0.426  0.00  0.00     0.023 A 
ATOM      5  C4  UNL d   1      -2.342  -0.109   0.326  0.00  0.00     0.048 A 
ATOM      6  C5  UNL d   1      -3.418  -0.976   0.526  0.00  0.00     0.003 A 
ATOM      7  I   UNL d   1       0.567   0.695   0.128  0.00  0.00    -0.146 I 
ENDROOT
TORSDOF 0
ENDMDL
