MODEL 1
REMARK minimizedAffinity -3.56362128
REMARK minimizedRMSD -1
REMARK  0 active torsions:
REMARK  status: ('A' for Active; 'I' for Inactive)
ROOT
ATOM      1  C   UNL d   1      -3.641  -2.175  -0.313  0.00  0.00     0.023 A 
ATOM      2  C1  UNL d   1      -2.910  -1.911  -1.472  0.00  0.00     0.003 A 
ATOM      3  C2  UNL d   1      -1.682  -1.251  -1.390  0.00  0.00     0.048 A 
ATOM      4  C3  UNL d   1      -1.191  -0.858  -0.146  0.00  0.00     0.023 A 
ATOM      5  C4  UNL d   1      -1.918  -1.120   1.016  0.00  0.00     0.048 A 
ATOM      6  C5  UNL d   1      -3.145  -1.779   0.929  0.00  0.00     0.003 A 
ATOM      7  I   UNL d   1       0.637   0.124  -0.021  0.00  0.00    -0.146 I 
ENDROOT
TORSDOF 0
ENDMDL
