MODEL 1
REMARK minimizedAffinity 7.2299614
REMARK minimizedRMSD -1
REMARK  1 active torsions:
REMARK  status: ('A' for Active; 'I' for Inactive)
REMARK    1  A    between atoms: C1_2  and  C2_3 
ROOT
ATOM      1  C2  UNL d   1       1.724  -2.930   1.567  0.00  0.00    -0.081 A 
ATOM      2  C3  UNL d   1       1.745  -1.541   1.738  0.00  0.00     0.006 A 
ATOM      3  C4  UNL d   1       0.619  -0.870   2.222  0.00  0.00     0.002 A 
ATOM      4  C5  UNL d   1      -0.543  -1.577   2.550  0.00  0.00    -0.080 A 
ATOM      5  C6  UNL d   1      -1.748  -0.873   3.099  0.00  0.00     0.076 C 
ATOM      6  C7  UNL d   1      -0.570  -2.963   2.362  0.00  0.00     0.002 A 
ATOM      7  C8  UNL d   1       0.555  -3.634   1.878  0.00  0.00     0.006 A 
ENDROOT
BRANCH   1   8
ATOM      8  C1  UNL d   1       2.957  -3.664   1.107  0.00  0.00     0.054 C 
ATOM      9  C   UNL d   1       3.954  -3.838   2.244  0.00  0.00     0.018 C 
ENDBRANCH   1   8
TORSDOF 1
ENDMDL
