MODEL 1
REMARK minimizedAffinity 3.10780287
REMARK minimizedRMSD -1
REMARK  1 active torsions:
REMARK  status: ('A' for Active; 'I' for Inactive)
REMARK    1  A    between atoms: C1_2  and  C2_3 
ROOT
ATOM      1  C2  UNL d   1      -0.735   3.914  -5.096  0.00  0.00    -0.081 A 
ATOM      2  C3  UNL d   1      -0.872   4.188  -3.729  0.00  0.00     0.006 A 
ATOM      3  C4  UNL d   1      -1.500   3.271  -2.883  0.00  0.00     0.002 A 
ATOM      4  C5  UNL d   1      -1.994   2.063  -3.386  0.00  0.00    -0.080 A 
ATOM      5  C6  UNL d   1      -2.643   1.057  -2.483  0.00  0.00     0.076 C 
ATOM      6  C7  UNL d   1      -1.873   1.797  -4.755  0.00  0.00     0.002 A 
ATOM      7  C8  UNL d   1      -1.246   2.714  -5.602  0.00  0.00     0.006 A 
ENDROOT
BRANCH   1   8
ATOM      8  C1  UNL d   1      -0.001   4.871  -6.000  0.00  0.00     0.054 C 
ATOM      9  C   UNL d   1       1.357   5.246  -5.423  0.00  0.00     0.018 C 
ENDBRANCH   1   8
TORSDOF 1
ENDMDL
