MODEL 1
REMARK minimizedAffinity 15.5636091
REMARK minimizedRMSD -1
REMARK  1 active torsions:
REMARK  status: ('A' for Active; 'I' for Inactive)
REMARK    1  A    between atoms: C1_2  and  C2_3 
ROOT
ATOM      1  C2  UNL d   1      -3.618  -0.676  -2.177  0.00  0.00    -0.081 A 
ATOM      2  C3  UNL d   1      -4.106   0.401  -2.927  0.00  0.00     0.006 A 
ATOM      3  C4  UNL d   1      -3.318   1.537  -3.129  0.00  0.00     0.002 A 
ATOM      4  C5  UNL d   1      -2.029   1.612  -2.592  0.00  0.00    -0.080 A 
ATOM      5  C6  UNL d   1      -1.162   2.813  -2.827  0.00  0.00     0.076 C 
ATOM      6  C7  UNL d   1      -1.548   0.543  -1.827  0.00  0.00     0.002 A 
ATOM      7  C8  UNL d   1      -2.335  -0.593  -1.624  0.00  0.00     0.006 A 
ENDROOT
BRANCH   1   8
ATOM      8  C1  UNL d   1      -4.440  -1.929  -2.011  0.00  0.00     0.054 C 
ATOM      9  C   UNL d   1      -5.281  -2.207  -3.249  0.00  0.00     0.018 C 
ENDBRANCH   1   8
TORSDOF 1
ENDMDL
