MODEL 1
REMARK minimizedAffinity 12.308548
REMARK minimizedRMSD -1
REMARK  1 active torsions:
REMARK  status: ('A' for Active; 'I' for Inactive)
REMARK    1  A    between atoms: C1_2  and  C2_3 
ROOT
ATOM      1  C2  UNL d   1      -2.466   1.511  -2.180  0.00  0.00    -0.081 A 
ATOM      2  C3  UNL d   1      -2.862   2.397  -3.191  0.00  0.00     0.006 A 
ATOM      3  C4  UNL d   1      -1.908   3.029  -3.991  0.00  0.00     0.002 A 
ATOM      4  C5  UNL d   1      -0.545   2.782  -3.801  0.00  0.00    -0.080 A 
ATOM      5  C6  UNL d   1       0.488   3.431  -4.674  0.00  0.00     0.076 C 
ATOM      6  C7  UNL d   1      -0.148   1.911  -2.781  0.00  0.00     0.002 A 
ATOM      7  C8  UNL d   1      -1.102   1.278  -1.979  0.00  0.00     0.006 A 
ENDROOT
BRANCH   1   8
ATOM      8  C1  UNL d   1      -3.495   0.778  -1.358  0.00  0.00     0.054 C 
ATOM      9  C   UNL d   1      -3.092  -0.672  -1.133  0.00  0.00     0.018 C 
ENDBRANCH   1   8
TORSDOF 1
ENDMDL
