MODEL 1
REMARK minimizedAffinity 5.84979534
REMARK minimizedRMSD -1
REMARK  1 active torsions:
REMARK  status: ('A' for Active; 'I' for Inactive)
REMARK    1  A    between atoms: C1_2  and  C2_3 
ROOT
ATOM      1  C2  UNL d   1       0.575   3.892  -5.237  0.00  0.00    -0.081 A 
ATOM      2  C3  UNL d   1       0.061   2.688  -5.735  0.00  0.00     0.006 A 
ATOM      3  C4  UNL d   1      -0.963   2.022  -5.058  0.00  0.00     0.002 A 
ATOM      4  C5  UNL d   1      -1.495   2.551  -3.877  0.00  0.00    -0.080 A 
ATOM      5  C6  UNL d   1      -2.615   1.861  -3.157  0.00  0.00     0.076 C 
ATOM      6  C7  UNL d   1      -0.970   3.744  -3.370  0.00  0.00     0.002 A 
ATOM      7  C8  UNL d   1       0.055   4.411  -4.046  0.00  0.00     0.006 A 
ENDROOT
BRANCH   1   8
ATOM      8  C1  UNL d   1       1.634   4.646  -5.999  0.00  0.00     0.054 C 
ATOM      9  C   UNL d   1       1.915   6.000  -5.364  0.00  0.00     0.018 C 
ENDBRANCH   1   8
TORSDOF 1
ENDMDL
