MODEL 1
REMARK minimizedAffinity 10.0852451
REMARK minimizedRMSD -1
REMARK  0 active torsions:
REMARK  status: ('A' for Active; 'I' for Inactive)
ROOT
ATOM      1  C   UNL d   1       1.782  -1.480  -1.777  0.00  0.00     0.077 C 
ATOM      2  C1  UNL d   1       1.965  -2.948  -2.024  0.00  0.00    -0.074 A 
ATOM      3  C2  UNL d   1       2.997  -3.658  -1.402  0.00  0.00    -0.005 A 
ATOM      4  C3  UNL d   1       3.150  -5.025  -1.634  0.00  0.00     0.006 A 
ATOM      5  C4  UNL d   1       2.274  -5.694  -2.489  0.00  0.00    -0.005 A 
ATOM      6  C5  UNL d   1       1.236  -5.001  -3.119  0.00  0.00    -0.074 A 
ATOM      7  C6  UNL d   1       0.279  -5.707  -4.034  0.00  0.00     0.077 C 
ATOM      8  C7  UNL d   1       1.084  -3.629  -2.876  0.00  0.00    -0.001 A 
ENDROOT
TORSDOF 0
ENDMDL
