MODEL 1
REMARK minimizedAffinity 12.063386
REMARK minimizedRMSD -1
REMARK  0 active torsions:
REMARK  status: ('A' for Active; 'I' for Inactive)
ROOT
ATOM      1  C   UNL d   1       2.469   0.724  -0.016  0.00  0.00     0.077 C 
ATOM      2  C1  UNL d   1       2.201  -0.574  -0.718  0.00  0.00    -0.074 A 
ATOM      3  C2  UNL d   1       1.425  -0.615  -1.881  0.00  0.00    -0.005 A 
ATOM      4  C3  UNL d   1       1.192  -1.829  -2.528  0.00  0.00     0.006 A 
ATOM      5  C4  UNL d   1       1.731  -3.011  -2.020  0.00  0.00    -0.005 A 
ATOM      6  C5  UNL d   1       2.510  -2.989  -0.858  0.00  0.00    -0.074 A 
ATOM      7  C6  UNL d   1       3.106  -4.249  -0.304  0.00  0.00     0.077 C 
ATOM      8  C7  UNL d   1       2.746  -1.765  -0.218  0.00  0.00    -0.001 A 
ENDROOT
TORSDOF 0
ENDMDL
