MODEL 1
REMARK minimizedAffinity 14.5013199
REMARK minimizedRMSD -1
REMARK  0 active torsions:
REMARK  status: ('A' for Active; 'I' for Inactive)
ROOT
ATOM      1  C   UNL d   1      -3.765  -3.021  -5.508  0.00  0.00     0.077 C 
ATOM      2  C1  UNL d   1      -2.900  -3.632  -4.447  0.00  0.00    -0.074 A 
ATOM      3  C2  UNL d   1      -3.405  -4.608  -3.581  0.00  0.00    -0.005 A 
ATOM      4  C3  UNL d   1      -2.585  -5.174  -2.606  0.00  0.00     0.006 A 
ATOM      5  C4  UNL d   1      -1.254  -4.773  -2.486  0.00  0.00    -0.005 A 
ATOM      6  C5  UNL d   1      -0.731  -3.799  -3.343  0.00  0.00    -0.074 A 
ATOM      7  C6  UNL d   1       0.700  -3.363  -3.235  0.00  0.00     0.077 C 
ATOM      8  C7  UNL d   1      -1.559  -3.240  -4.326  0.00  0.00    -0.001 A 
ENDROOT
TORSDOF 0
ENDMDL
