MODEL 1
REMARK minimizedAffinity 4.70962667
REMARK minimizedRMSD -1
REMARK  0 active torsions:
REMARK  status: ('A' for Active; 'I' for Inactive)
ROOT
ATOM      1  C   UNL d   1      -5.460  -1.158  -6.000  0.00  0.00     0.077 C 
ATOM      2  C1  UNL d   1      -4.461  -2.163  -5.509  0.00  0.00    -0.074 A 
ATOM      3  C2  UNL d   1      -3.467  -1.801  -4.594  0.00  0.00    -0.005 A 
ATOM      4  C3  UNL d   1      -2.551  -2.750  -4.139  0.00  0.00     0.006 A 
ATOM      5  C4  UNL d   1      -2.620  -4.067  -4.593  0.00  0.00    -0.005 A 
ATOM      6  C5  UNL d   1      -3.607  -4.448  -5.507  0.00  0.00    -0.074 A 
ATOM      7  C6  UNL d   1      -3.701  -5.862  -5.998  0.00  0.00     0.077 C 
ATOM      8  C7  UNL d   1      -4.528  -3.491  -5.954  0.00  0.00    -0.001 A 
ENDROOT
TORSDOF 0
ENDMDL
