MODEL 1
REMARK minimizedAffinity 9.08685493
REMARK minimizedRMSD -1
REMARK  0 active torsions:
REMARK  status: ('A' for Active; 'I' for Inactive)
ROOT
ATOM      1  C   UNL d   1       3.746   0.969   0.191  0.00  0.00     0.077 C 
ATOM      2  C1  UNL d   1       3.023  -0.158  -0.485  0.00  0.00    -0.074 A 
ATOM      3  C2  UNL d   1       2.062   0.092  -1.470  0.00  0.00    -0.005 A 
ATOM      4  C3  UNL d   1       1.405  -0.967  -2.097  0.00  0.00     0.006 A 
ATOM      5  C4  UNL d   1       1.701  -2.285  -1.745  0.00  0.00    -0.005 A 
ATOM      6  C5  UNL d   1       2.660  -2.554  -0.763  0.00  0.00    -0.074 A 
ATOM      7  C6  UNL d   1       2.998  -3.964  -0.381  0.00  0.00     0.077 C 
ATOM      8  C7  UNL d   1       3.321  -1.485  -0.143  0.00  0.00    -0.001 A 
ENDROOT
TORSDOF 0
ENDMDL
