MODEL 1
REMARK minimizedAffinity 0.111357689
REMARK minimizedRMSD -1
REMARK  0 active torsions:
REMARK  status: ('A' for Active; 'I' for Inactive)
ROOT
ATOM      1  C   UNL d   1       2.375   1.228  -1.144  0.00  0.00     0.077 C 
ATOM      2  C1  UNL d   1       2.620  -0.252  -1.119  0.00  0.00    -0.074 A 
ATOM      3  C2  UNL d   1       3.387  -0.836  -0.106  0.00  0.00    -0.005 A 
ATOM      4  C3  UNL d   1       3.598  -2.215  -0.091  0.00  0.00     0.006 A 
ATOM      5  C4  UNL d   1       3.046  -3.022  -1.086  0.00  0.00    -0.005 A 
ATOM      6  C5  UNL d   1       2.275  -2.455  -2.107  0.00  0.00    -0.074 A 
ATOM      7  C6  UNL d   1       1.666  -3.309  -3.179  0.00  0.00     0.077 C 
ATOM      8  C7  UNL d   1       2.062  -1.070  -2.111  0.00  0.00    -0.001 A 
ENDROOT
TORSDOF 0
ENDMDL
