MODEL 1
REMARK minimizedAffinity 11.1556492
REMARK minimizedRMSD -1
REMARK  0 active torsions:
REMARK  status: ('A' for Active; 'I' for Inactive)
ROOT
ATOM      1  C   UNL d   1       1.896   1.363  -3.312  0.00  0.00     0.077 C 
ATOM      2  C1  UNL d   1       2.456   0.741  -2.067  0.00  0.00    -0.074 A 
ATOM      3  C2  UNL d   1       3.362   1.438  -1.261  0.00  0.00    -0.005 A 
ATOM      4  C3  UNL d   1       3.867   0.850  -0.101  0.00  0.00     0.006 A 
ATOM      5  C4  UNL d   1       3.471  -0.438   0.264  0.00  0.00    -0.005 A 
ATOM      6  C5  UNL d   1       2.566  -1.149  -0.529  0.00  0.00    -0.074 A 
ATOM      7  C6  UNL d   1       2.123  -2.530  -0.146  0.00  0.00     0.077 C 
ATOM      8  C7  UNL d   1       2.057  -0.549  -1.690  0.00  0.00    -0.001 A 
ENDROOT
TORSDOF 0
ENDMDL
