MODEL 1
REMARK minimizedAffinity 8.24344063
REMARK minimizedRMSD -1
REMARK  0 active torsions:
REMARK  status: ('A' for Active; 'I' for Inactive)
ROOT
ATOM      1  C   UNL d   1       1.426  -0.070  -2.936  0.00  0.00     0.077 C 
ATOM      2  C1  UNL d   1       1.441  -1.534  -2.611  0.00  0.00    -0.074 A 
ATOM      3  C2  UNL d   1       0.672  -2.442  -3.346  0.00  0.00    -0.005 A 
ATOM      4  C3  UNL d   1       0.704  -3.802  -3.038  0.00  0.00     0.006 A 
ATOM      5  C4  UNL d   1       1.504  -4.267  -1.993  0.00  0.00    -0.005 A 
ATOM      6  C5  UNL d   1       2.280  -3.374  -1.247  0.00  0.00    -0.074 A 
ATOM      7  C6  UNL d   1       3.152  -3.859  -0.128  0.00  0.00     0.077 C 
ATOM      8  C7  UNL d   1       2.248  -2.010  -1.568  0.00  0.00    -0.001 A 
ENDROOT
TORSDOF 0
ENDMDL
