MODEL 1
REMARK minimizedAffinity 11.0974913
REMARK minimizedRMSD -1
REMARK  0 active torsions:
REMARK  status: ('A' for Active; 'I' for Inactive)
ROOT
ATOM      1  C   UNL d   1       1.994   3.897  -1.567  0.00  0.00     0.077 C 
ATOM      2  C1  UNL d   1       1.961   2.417  -1.806  0.00  0.00    -0.074 A 
ATOM      3  C2  UNL d   1       1.508   1.895  -3.022  0.00  0.00    -0.005 A 
ATOM      4  C3  UNL d   1       1.493   0.517  -3.234  0.00  0.00     0.006 A 
ATOM      5  C4  UNL d   1       1.930  -0.353  -2.234  0.00  0.00    -0.005 A 
ATOM      6  C5  UNL d   1       2.387   0.151  -1.012  0.00  0.00    -0.074 A 
ATOM      7  C6  UNL d   1       2.870  -0.769   0.070  0.00  0.00     0.077 C 
ATOM      8  C7  UNL d   1       2.406   1.538  -0.809  0.00  0.00    -0.001 A 
ENDROOT
TORSDOF 0
ENDMDL
