MODEL 1
REMARK minimizedAffinity 16.76437
REMARK minimizedRMSD -1
REMARK  0 active torsions:
REMARK  status: ('A' for Active; 'I' for Inactive)
ROOT
ATOM      1  C   UNL d   1       0.720   0.923   1.928  0.00  0.00     0.077 C 
ATOM      2  C1  UNL d   1      -0.745   0.967   2.246  0.00  0.00    -0.074 A 
ATOM      3  C2  UNL d   1      -1.442   2.179   2.254  0.00  0.00    -0.005 A 
ATOM      4  C3  UNL d   1      -2.807   2.204   2.542  0.00  0.00     0.006 A 
ATOM      5  C4  UNL d   1      -3.486   1.018   2.825  0.00  0.00    -0.005 A 
ATOM      6  C5  UNL d   1      -2.806  -0.203   2.821  0.00  0.00    -0.074 A 
ATOM      7  C6  UNL d   1      -3.523  -1.488   3.113  0.00  0.00     0.077 C 
ATOM      8  C7  UNL d   1      -1.436  -0.220   2.523  0.00  0.00    -0.001 A 
ENDROOT
TORSDOF 0
ENDMDL
