MODEL 1
REMARK minimizedAffinity 13.7111616
REMARK minimizedRMSD -1
REMARK  0 active torsions:
REMARK  status: ('A' for Active; 'I' for Inactive)
ROOT
ATOM      1  C   UNL d   1       4.541  -5.999   0.506  0.00  0.00     0.077 C 
ATOM      2  C1  UNL d   1       3.063  -5.774   0.384  0.00  0.00    -0.074 A 
ATOM      3  C2  UNL d   1       2.309  -5.344   1.481  0.00  0.00    -0.005 A 
ATOM      4  C3  UNL d   1       0.936  -5.130   1.350  0.00  0.00     0.006 A 
ATOM      5  C4  UNL d   1       0.306  -5.344   0.124  0.00  0.00    -0.005 A 
ATOM      6  C5  UNL d   1       1.044  -5.774  -0.984  0.00  0.00    -0.074 A 
ATOM      7  C6  UNL d   1       0.383  -6.000  -2.311  0.00  0.00     0.077 C 
ATOM      8  C7  UNL d   1       2.423  -5.980  -0.846  0.00  0.00    -0.001 A 
ENDROOT
TORSDOF 0
ENDMDL
