MODEL 1
REMARK minimizedAffinity 8.45731544
REMARK minimizedRMSD -1
REMARK  0 active torsions:
REMARK  status: ('A' for Active; 'I' for Inactive)
ROOT
ATOM      1  C   UNL d   1       0.824   5.274  -1.277  0.00  0.00     0.077 C 
ATOM      2  C1  UNL d   1       0.934   4.136  -2.249  0.00  0.00    -0.074 A 
ATOM      3  C2  UNL d   1       2.009   3.244  -2.192  0.00  0.00    -0.005 A 
ATOM      4  C3  UNL d   1       2.093   2.185  -3.096  0.00  0.00     0.006 A 
ATOM      5  C4  UNL d   1       1.105   2.009  -4.065  0.00  0.00    -0.005 A 
ATOM      6  C5  UNL d   1       0.022   2.891  -4.137  0.00  0.00    -0.074 A 
ATOM      7  C6  UNL d   1      -1.055   2.710  -5.166  0.00  0.00     0.077 C 
ATOM      8  C7  UNL d   1      -0.059   3.948  -3.220  0.00  0.00    -0.001 A 
ENDROOT
TORSDOF 0
ENDMDL
