MODEL 1
REMARK minimizedAffinity 16.4476337
REMARK minimizedRMSD -1
REMARK  0 active torsions:
REMARK  status: ('A' for Active; 'I' for Inactive)
ROOT
ATOM      1  C   UNL d   1       2.336   2.187  -1.866  0.00  0.00     0.077 C 
ATOM      2  C1  UNL d   1       1.893   3.522  -1.344  0.00  0.00    -0.074 A 
ATOM      3  C2  UNL d   1       2.050   4.681  -2.111  0.00  0.00    -0.005 A 
ATOM      4  C3  UNL d   1       1.624   5.914  -1.616  0.00  0.00     0.006 A 
ATOM      5  C4  UNL d   1       1.039   6.000  -0.352  0.00  0.00    -0.005 A 
ATOM      6  C5  UNL d   1       0.874   4.851   0.428  0.00  0.00    -0.074 A 
ATOM      7  C6  UNL d   1       0.238   4.925   1.785  0.00  0.00     0.077 C 
ATOM      8  C7  UNL d   1       1.297   3.615  -0.079  0.00  0.00    -0.001 A 
ENDROOT
TORSDOF 0
ENDMDL
