MODEL 1
REMARK minimizedAffinity 10.3100443
REMARK minimizedRMSD -1
REMARK  0 active torsions:
REMARK  status: ('A' for Active; 'I' for Inactive)
ROOT
ATOM      1  C   UNL d   1       3.125  -4.434  -0.160  0.00  0.00     0.077 C 
ATOM      2  C1  UNL d   1       2.517  -3.264  -0.875  0.00  0.00    -0.074 A 
ATOM      3  C2  UNL d   1       1.849  -3.433  -2.092  0.00  0.00    -0.005 A 
ATOM      4  C3  UNL d   1       1.280  -2.336  -2.740  0.00  0.00     0.006 A 
ATOM      5  C4  UNL d   1       1.374  -1.062  -2.179  0.00  0.00    -0.005 A 
ATOM      6  C5  UNL d   1       2.037  -0.874  -0.962  0.00  0.00    -0.074 A 
ATOM      7  C6  UNL d   1       2.138   0.487  -0.340  0.00  0.00     0.077 C 
ATOM      8  C7  UNL d   1       2.600  -1.982  -0.313  0.00  0.00    -0.001 A 
ENDROOT
TORSDOF 0
ENDMDL
