MODEL 1
REMARK minimizedAffinity 6.20287228
REMARK minimizedRMSD -1
REMARK  0 active torsions:
REMARK  status: ('A' for Active; 'I' for Inactive)
ROOT
ATOM      1  C   UNL d   1       5.881   3.085  -0.782  0.00  0.00     0.077 C 
ATOM      2  C1  UNL d   1       4.555   3.027  -0.083  0.00  0.00    -0.074 A 
ATOM      3  C2  UNL d   1       4.345   2.152   0.987  0.00  0.00    -0.005 A 
ATOM      4  C3  UNL d   1       3.109   2.116   1.634  0.00  0.00     0.006 A 
ATOM      5  C4  UNL d   1       2.074   2.953   1.218  0.00  0.00    -0.005 A 
ATOM      6  C5  UNL d   1       2.266   3.836   0.150  0.00  0.00    -0.074 A 
ATOM      7  C6  UNL d   1       1.167   4.750  -0.304  0.00  0.00     0.077 C 
ATOM      8  C7  UNL d   1       3.512   3.871  -0.490  0.00  0.00    -0.001 A 
ENDROOT
TORSDOF 0
ENDMDL
