MODEL 1
REMARK minimizedAffinity 7.61264944
REMARK minimizedRMSD -1
REMARK  0 active torsions:
REMARK  status: ('A' for Active; 'I' for Inactive)
ROOT
ATOM      1  C   UNL d   1      -5.169  -2.541  -5.314  0.00  0.00     0.077 C 
ATOM      2  C1  UNL d   1      -3.929  -3.356  -5.098  0.00  0.00    -0.074 A 
ATOM      3  C2  UNL d   1      -2.862  -3.295  -6.000  0.00  0.00    -0.005 A 
ATOM      4  C3  UNL d   1      -1.712  -4.052  -5.781  0.00  0.00     0.006 A 
ATOM      5  C4  UNL d   1      -1.616  -4.877  -4.659  0.00  0.00    -0.005 A 
ATOM      6  C5  UNL d   1      -2.672  -4.950  -3.746  0.00  0.00    -0.074 A 
ATOM      7  C6  UNL d   1      -2.582  -5.824  -2.530  0.00  0.00     0.077 C 
ATOM      8  C7  UNL d   1      -3.823  -4.181  -3.969  0.00  0.00    -0.001 A 
ENDROOT
TORSDOF 0
ENDMDL
