MODEL 1
REMARK minimizedAffinity 3.7016809
REMARK minimizedRMSD -1
REMARK  0 active torsions:
REMARK  status: ('A' for Active; 'I' for Inactive)
ROOT
ATOM      1  C   UNL d   1       1.144  -5.393  -3.612  0.00  0.00     0.077 C 
ATOM      2  C1  UNL d   1       1.827  -4.538  -2.587  0.00  0.00    -0.074 A 
ATOM      3  C2  UNL d   1       2.872  -5.045  -1.808  0.00  0.00    -0.005 A 
ATOM      4  C3  UNL d   1       3.504  -4.235  -0.865  0.00  0.00     0.006 A 
ATOM      5  C4  UNL d   1       3.098  -2.911  -0.692  0.00  0.00    -0.005 A 
ATOM      6  C5  UNL d   1       2.056  -2.386  -1.462  0.00  0.00    -0.074 A 
ATOM      7  C6  UNL d   1       1.614  -0.962  -1.295  0.00  0.00     0.077 C 
ATOM      8  C7  UNL d   1       1.430  -3.205  -2.412  0.00  0.00    -0.001 A 
ENDROOT
TORSDOF 0
ENDMDL
