MODEL 1
REMARK minimizedAffinity 12.3715181
REMARK minimizedRMSD -1
REMARK  0 active torsions:
REMARK  status: ('A' for Active; 'I' for Inactive)
ROOT
ATOM      1  C   UNL d   1       3.115   2.413   2.229  0.00  0.00     0.077 C 
ATOM      2  C1  UNL d   1       3.606   2.283   0.818  0.00  0.00    -0.074 A 
ATOM      3  C2  UNL d   1       4.972   2.181   0.539  0.00  0.00    -0.005 A 
ATOM      4  C3  UNL d   1       5.413   2.051  -0.778  0.00  0.00     0.006 A 
ATOM      5  C4  UNL d   1       4.494   2.022  -1.827  0.00  0.00    -0.005 A 
ATOM      6  C5  UNL d   1       3.123   2.121  -1.567  0.00  0.00    -0.074 A 
ATOM      7  C6  UNL d   1       2.121   2.081  -2.683  0.00  0.00     0.077 C 
ATOM      8  C7  UNL d   1       2.688   2.244  -0.241  0.00  0.00    -0.001 A 
ENDROOT
TORSDOF 0
ENDMDL
