MODEL 1
REMARK minimizedAffinity 18.6715221
REMARK minimizedRMSD -1
REMARK  0 active torsions:
REMARK  status: ('A' for Active; 'I' for Inactive)
ROOT
ATOM      1  C   UNL d   1       0.557   5.790   0.918  0.00  0.00     0.077 C 
ATOM      2  C1  UNL d   1       1.154   4.714   0.061  0.00  0.00    -0.074 A 
ATOM      3  C2  UNL d   1       1.040   4.758  -1.332  0.00  0.00    -0.005 A 
ATOM      4  C3  UNL d   1       1.609   3.754  -2.117  0.00  0.00     0.006 A 
ATOM      5  C4  UNL d   1       2.297   2.699  -1.517  0.00  0.00    -0.005 A 
ATOM      6  C5  UNL d   1       2.422   2.639  -0.126  0.00  0.00    -0.074 A 
ATOM      7  C6  UNL d   1       3.167   1.516   0.534  0.00  0.00     0.077 C 
ATOM      8  C7  UNL d   1       1.854   3.654   0.655  0.00  0.00    -0.001 A 
ENDROOT
TORSDOF 0
ENDMDL
