MODEL 1
REMARK minimizedAffinity -3.99221992
REMARK minimizedRMSD -1
REMARK  2 active torsions:
REMARK  status: ('A' for Active; 'I' for Inactive)
REMARK    1  A    between atoms: C2'_3  and  C1'_4 
REMARK    2  A    between atoms: C1'_4  and  C1_5 
ROOT
ATOM      1  C1  I4B d   1      -0.145   0.242   0.128  0.00  0.00    -0.075 A 
ATOM      2  C2  I4B d   1       0.780   0.757   1.001  0.00  0.00     0.003 A 
ATOM      3  C3  I4B d   1       1.936   0.012   1.336  0.00  0.00     0.002 A 
ATOM      4  C4  I4B d   1       2.101  -1.256   0.818  0.00  0.00    -0.004 A 
ATOM      5  C5  I4B d   1       1.174  -1.768  -0.084  0.00  0.00     0.002 A 
ATOM      6  C6  I4B d   1       0.049  -1.010  -0.442  0.00  0.00     0.003 A 
ENDROOT
BRANCH   1   7
ATOM      7  C1' I4B d   1      -1.372   1.042  -0.178  0.00  0.00     0.060 C 
BRANCH   7   8
ATOM      8  C2' I4B d   1      -2.404   0.742   0.890  0.00  0.00    -0.013 C 
ATOM      9  C4' I4B d   1      -2.473   1.850   1.908  0.00  0.00     0.013 C 
ATOM     10  C3' I4B d   1      -3.727   0.545   0.213  0.00  0.00     0.013 C 
ENDBRANCH   7   8
ENDBRANCH   1   7
TORSDOF 2
ENDMDL
