MODEL 1
REMARK minimizedAffinity -4.37708902
REMARK minimizedRMSD -1
REMARK  2 active torsions:
REMARK  status: ('A' for Active; 'I' for Inactive)
REMARK    1  A    between atoms: C2'_3  and  C1'_4 
REMARK    2  A    between atoms: C1'_4  and  C1_5 
ROOT
ATOM      1  C1  I4B d   1       1.455   0.292  -0.072  0.00  0.00    -0.075 A 
ATOM      2  C2  I4B d   1       2.617   1.017  -0.155  0.00  0.00     0.003 A 
ATOM      3  C3  I4B d   1       3.871   0.367  -0.051  0.00  0.00     0.002 A 
ATOM      4  C4  I4B d   1       3.915  -0.992   0.184  0.00  0.00    -0.004 A 
ATOM      5  C5  I4B d   1       2.736  -1.729   0.244  0.00  0.00     0.002 A 
ATOM      6  C6  I4B d   1       1.498  -1.085   0.103  0.00  0.00     0.003 A 
ENDROOT
BRANCH   1   7
ATOM      7  C1' I4B d   1       0.147   1.014  -0.153  0.00  0.00     0.060 C 
BRANCH   7   8
ATOM      8  C2' I4B d   1      -0.961  -0.016  -0.068  0.00  0.00    -0.013 C 
ATOM      9  C4' I4B d   1      -2.314   0.644  -0.005  0.00  0.00     0.013 C 
ATOM     10  C3' I4B d   1      -0.852  -0.914  -1.264  0.00  0.00     0.013 C 
ENDBRANCH   7   8
ENDBRANCH   1   7
TORSDOF 2
ENDMDL
