MODEL 1
REMARK minimizedAffinity -4.02401686
REMARK minimizedRMSD -1
REMARK  2 active torsions:
REMARK  status: ('A' for Active; 'I' for Inactive)
REMARK    1  A    between atoms: C2'_3  and  C1'_4 
REMARK    2  A    between atoms: C1'_4  and  C1_5 
ROOT
ATOM      1  C1  I4B d   1      -0.516   0.306  -0.032  0.00  0.00    -0.075 A 
ATOM      2  C2  I4B d   1      -0.368  -0.825  -0.794  0.00  0.00     0.003 A 
ATOM      3  C3  I4B d   1       0.797  -1.621  -0.671  0.00  0.00     0.002 A 
ATOM      4  C4  I4B d   1       1.804  -1.223   0.184  0.00  0.00    -0.004 A 
ATOM      5  C5  I4B d   1       1.643  -0.087   0.973  0.00  0.00     0.002 A 
ATOM      6  C6  I4B d   1       0.470   0.676   0.874  0.00  0.00     0.003 A 
ENDROOT
BRANCH   1   7
ATOM      7  C1' I4B d   1      -1.744   1.141  -0.211  0.00  0.00     0.060 C 
BRANCH   7   8
ATOM      8  C2' I4B d   1      -2.820   0.591   0.704  0.00  0.00    -0.013 C 
ATOM      9  C4' I4B d   1      -2.903   1.379   1.984  0.00  0.00     0.013 C 
ATOM     10  C3' I4B d   1      -4.122   0.627  -0.039  0.00  0.00     0.013 C 
ENDBRANCH   7   8
ENDBRANCH   1   7
TORSDOF 2
ENDMDL
