MODEL 1
REMARK minimizedAffinity 7.15769672
REMARK minimizedRMSD -1
REMARK  0 active torsions:
REMARK  status: ('A' for Active; 'I' for Inactive)
ROOT
ATOM      1  C   UNL d   1      -2.619  -1.194  -3.187  0.00  0.00     0.172 C 
ATOM      2  N   UNL d   1      -3.320  -0.172  -2.446  0.00  0.00    -0.070 N 
ATOM      3  C1  UNL d   1      -2.882   1.110  -2.243  0.00  0.00    -0.004 A 
ATOM      4  C2  UNL d   1      -3.831   1.767  -1.492  0.00  0.00    -0.047 A 
ATOM      5  C3  UNL d   1      -4.876   0.848  -1.232  0.00  0.00    -0.047 A 
ATOM      6  C4  UNL d   1      -4.533  -0.344  -1.834  0.00  0.00    -0.004 A 
ENDROOT
TORSDOF 0
ENDMDL
