MODEL 1
REMARK minimizedAffinity -1.67401075
REMARK minimizedRMSD -1
REMARK  0 active torsions:
REMARK  status: ('A' for Active; 'I' for Inactive)
ROOT
ATOM      1  C   UNL d   1       0.385  -0.368  -2.600  0.00  0.00     0.172 C 
ATOM      2  N   UNL d   1      -0.029  -1.750  -2.673  0.00  0.00    -0.070 N 
ATOM      3  C1  UNL d   1      -0.801  -2.300  -3.660  0.00  0.00    -0.004 A 
ATOM      4  C2  UNL d   1      -0.971  -3.636  -3.367  0.00  0.00    -0.047 A 
ATOM      5  C3  UNL d   1      -0.277  -3.897  -2.162  0.00  0.00    -0.047 A 
ATOM      6  C4  UNL d   1       0.297  -2.712  -1.754  0.00  0.00    -0.004 A 
ENDROOT
TORSDOF 0
ENDMDL
