MODEL 1
REMARK minimizedAffinity -1.62839103
REMARK minimizedRMSD -1
REMARK  0 active torsions:
REMARK  status: ('A' for Active; 'I' for Inactive)
ROOT
ATOM      1  C   UNL d   1       1.351  -2.658  -5.604  0.00  0.00     0.172 C 
ATOM      2  N   UNL d   1       0.134  -1.949  -5.287  0.00  0.00    -0.070 N 
ATOM      3  C1  UNL d   1       0.059  -0.700  -4.731  0.00  0.00    -0.004 A 
ATOM      4  C2  UNL d   1      -1.274  -0.380  -4.588  0.00  0.00    -0.047 A 
ATOM      5  C3  UNL d   1      -2.026  -1.476  -5.074  0.00  0.00    -0.047 A 
ATOM      6  C4  UNL d   1      -1.130  -2.433  -5.500  0.00  0.00    -0.004 A 
ENDROOT
TORSDOF 0
ENDMDL
