MODEL 1
REMARK minimizedAffinity 2.8691349
REMARK minimizedRMSD -1
REMARK  0 active torsions:
REMARK  status: ('A' for Active; 'I' for Inactive)
ROOT
ATOM      1  C   UNL d   1       2.046   5.876  -1.611  0.00  0.00     0.172 C 
ATOM      2  N   UNL d   1       1.264   4.972  -0.802  0.00  0.00    -0.070 N 
ATOM      3  C1  UNL d   1       1.766   4.002   0.025  0.00  0.00    -0.004 A 
ATOM      4  C2  UNL d   1       0.701   3.359   0.617  0.00  0.00    -0.047 A 
ATOM      5  C3  UNL d   1      -0.483   3.961   0.128  0.00  0.00    -0.047 A 
ATOM      6  C4  UNL d   1      -0.105   4.957  -0.748  0.00  0.00    -0.004 A 
ENDROOT
TORSDOF 0
ENDMDL
