MODEL 1
REMARK minimizedAffinity 3.1028161
REMARK minimizedRMSD -1
REMARK  0 active torsions:
REMARK  status: ('A' for Active; 'I' for Inactive)
ROOT
ATOM      1  C   UNL d   1      -2.995   4.878  -3.595  0.00  0.00     0.172 C 
ATOM      2  N   UNL d   1      -4.217   4.368  -4.172  0.00  0.00    -0.070 N 
ATOM      3  C1  UNL d   1      -4.883   4.911  -5.239  0.00  0.00    -0.004 A 
ATOM      4  C2  UNL d   1      -5.996   4.136  -5.481  0.00  0.00    -0.047 A 
ATOM      5  C3  UNL d   1      -6.000   3.091  -4.526  0.00  0.00    -0.047 A 
ATOM      6  C4  UNL d   1      -4.888   3.259  -3.728  0.00  0.00    -0.004 A 
ENDROOT
TORSDOF 0
ENDMDL
