MODEL 1
REMARK minimizedAffinity 1.65021038
REMARK minimizedRMSD -1
REMARK  0 active torsions:
REMARK  status: ('A' for Active; 'I' for Inactive)
ROOT
ATOM      1  C   UNL d   1       3.146  -1.070   0.591  0.00  0.00     0.172 C 
ATOM      2  N   UNL d   1       4.082  -1.897  -0.135  0.00  0.00    -0.070 N 
ATOM      3  C1  UNL d   1       4.450  -1.727  -1.443  0.00  0.00    -0.004 A 
ATOM      4  C2  UNL d   1       5.357  -2.715  -1.758  0.00  0.00    -0.047 A 
ATOM      5  C3  UNL d   1       5.539  -3.508  -0.599  0.00  0.00    -0.047 A 
ATOM      6  C4  UNL d   1       4.738  -2.979   0.390  0.00  0.00    -0.004 A 
ENDROOT
TORSDOF 0
ENDMDL
