MODEL 1
REMARK minimizedAffinity 2.22575927
REMARK minimizedRMSD -1
REMARK  0 active torsions:
REMARK  status: ('A' for Active; 'I' for Inactive)
ROOT
ATOM      1  C   UNL d   1       1.873   5.999  -1.496  0.00  0.00     0.172 C 
ATOM      2  N   UNL d   1       1.569   4.949  -0.552  0.00  0.00    -0.070 N 
ATOM      3  C1  UNL d   1       2.054   4.859   0.725  0.00  0.00    -0.004 A 
ATOM      4  C2  UNL d   1       1.531   3.720   1.296  0.00  0.00    -0.047 A 
ATOM      5  C3  UNL d   1       0.703   3.103   0.328  0.00  0.00    -0.047 A 
ATOM      6  C4  UNL d   1       0.745   3.885  -0.806  0.00  0.00    -0.004 A 
ENDROOT
TORSDOF 0
ENDMDL
