MODEL 1
REMARK minimizedAffinity 0.413752645
REMARK minimizedRMSD -1
REMARK  0 active torsions:
REMARK  status: ('A' for Active; 'I' for Inactive)
ROOT
ATOM      1  C   UNL d   1       5.146  -5.854   0.129  0.00  0.00     0.172 C 
ATOM      2  N   UNL d   1       5.172  -4.978  -1.019  0.00  0.00    -0.070 N 
ATOM      3  C1  UNL d   1       5.593  -3.675  -1.019  0.00  0.00    -0.004 A 
ATOM      4  C2  UNL d   1       5.463  -3.189  -2.302  0.00  0.00    -0.047 A 
ATOM      5  C3  UNL d   1       4.945  -4.236  -3.101  0.00  0.00    -0.047 A 
ATOM      6  C4  UNL d   1       4.774  -5.332  -2.281  0.00  0.00    -0.004 A 
ENDROOT
TORSDOF 0
ENDMDL
