MODEL 1
REMARK minimizedAffinity 2.21488738
REMARK minimizedRMSD -1
REMARK  0 active torsions:
REMARK  status: ('A' for Active; 'I' for Inactive)
ROOT
ATOM      1  C   UNL d   1       2.076  -0.546  -0.517  0.00  0.00     0.172 C 
ATOM      2  N   UNL d   1       1.158   0.496  -0.914  0.00  0.00    -0.070 N 
ATOM      3  C1  UNL d   1       0.525   0.582  -2.126  0.00  0.00    -0.004 A 
ATOM      4  C2  UNL d   1      -0.262   1.713  -2.111  0.00  0.00    -0.047 A 
ATOM      5  C3  UNL d   1      -0.095   2.329  -0.848  0.00  0.00    -0.047 A 
ATOM      6  C4  UNL d   1       0.789   1.554  -0.127  0.00  0.00    -0.004 A 
ENDROOT
TORSDOF 0
ENDMDL
