MODEL 1
REMARK minimizedAffinity 3.44832397
REMARK minimizedRMSD -1
REMARK  0 active torsions:
REMARK  status: ('A' for Active; 'I' for Inactive)
ROOT
ATOM      1  C   UNL d   1       1.776   5.255  -1.234  0.00  0.00     0.172 C 
ATOM      2  N   UNL d   1       1.271   4.098  -0.533  0.00  0.00    -0.070 N 
ATOM      3  C1  UNL d   1       1.400   3.857   0.808  0.00  0.00    -0.004 A 
ATOM      4  C2  UNL d   1       0.785   2.655   1.083  0.00  0.00    -0.047 A 
ATOM      5  C3  UNL d   1       0.269   2.155  -0.136  0.00  0.00    -0.047 A 
ATOM      6  C4  UNL d   1       0.584   3.068  -1.120  0.00  0.00    -0.004 A 
ENDROOT
TORSDOF 0
ENDMDL
