MODEL 1
REMARK minimizedAffinity 6.52754068
REMARK minimizedRMSD -1
REMARK  1 active torsions:
REMARK  status: ('A' for Active; 'I' for Inactive)
REMARK    1  A    between atoms: N_2  and  C1_3 
ROOT
ATOM      1  C1  UNL d   1       0.636  -2.575  -4.108  0.00  0.00     0.143 A 
ATOM      2  C2  UNL d   1       1.550  -2.550  -5.167  0.00  0.00    -0.057 A 
ATOM      3  C3  UNL d   1       2.725  -1.792  -5.095  0.00  0.00     0.033 A 
ATOM      4  C4  UNL d   1       2.993  -1.019  -3.970  0.00  0.00    -0.042 A 
ATOM      5  C5  UNL d   1       2.087  -1.009  -2.916  0.00  0.00     0.033 A 
ATOM      6  C6  UNL d   1       0.919  -1.774  -2.991  0.00  0.00    -0.057 A 
ENDROOT
BRANCH   1   7
ATOM      7  N   UNL d   1      -0.596  -3.231  -4.159  0.00  0.00    -0.732 N 
ATOM      8  C   UNL d   1      -1.609  -2.823  -5.109  0.00  0.00     0.284 C 
ATOM      9  H3  UNL d   1      -0.504  -4.239  -4.056  0.00  0.00     0.395 HD
ENDBRANCH   1   7
TORSDOF 1
ENDMDL
