MODEL 1
REMARK minimizedAffinity 0.977744043
REMARK minimizedRMSD -1
REMARK  1 active torsions:
REMARK  status: ('A' for Active; 'I' for Inactive)
REMARK    1  A    between atoms: N_2  and  C1_3 
ROOT
ATOM      1  C1  UNL d   1       0.873  -5.812   4.166  0.00  0.00     0.143 A 
ATOM      2  C2  UNL d   1      -0.389  -5.882   3.567  0.00  0.00    -0.057 A 
ATOM      3  C3  UNL d   1      -0.528  -5.989   2.178  0.00  0.00     0.033 A 
ATOM      4  C4  UNL d   1       0.596  -5.999   1.359  0.00  0.00    -0.042 A 
ATOM      5  C5  UNL d   1       1.860  -5.906   1.931  0.00  0.00     0.033 A 
ATOM      6  C6  UNL d   1       1.993  -5.805   3.319  0.00  0.00    -0.057 A 
ENDROOT
BRANCH   1   7
ATOM      7  N   UNL d   1       1.075  -5.605   5.533  0.00  0.00    -0.732 N 
ATOM      8  C   UNL d   1       1.890  -4.504   5.999  0.00  0.00     0.284 C 
ATOM      9  H3  UNL d   1       0.228  -5.755   6.077  0.00  0.00     0.395 HD
ENDBRANCH   1   7
TORSDOF 1
ENDMDL
