MODEL 1
REMARK minimizedAffinity 4.34643507
REMARK minimizedRMSD -1
REMARK  1 active torsions:
REMARK  status: ('A' for Active; 'I' for Inactive)
REMARK    1  A    between atoms: N_2  and  C1_3 
ROOT
ATOM      1  C1  UNL d   1      -0.730  -2.178  -4.309  0.00  0.00     0.143 A 
ATOM      2  C2  UNL d   1      -1.292  -3.401  -4.690  0.00  0.00    -0.057 A 
ATOM      3  C3  UNL d   1      -2.464  -3.879  -4.092  0.00  0.00     0.033 A 
ATOM      4  C4  UNL d   1      -3.081  -3.153  -3.078  0.00  0.00    -0.042 A 
ATOM      5  C5  UNL d   1      -2.526  -1.947  -2.666  0.00  0.00     0.033 A 
ATOM      6  C6  UNL d   1      -1.359  -1.472  -3.272  0.00  0.00    -0.057 A 
ENDROOT
BRANCH   1   7
ATOM      7  N   UNL d   1       0.487  -1.696  -4.797  0.00  0.00    -0.732 N 
ATOM      8  C   UNL d   1       1.605  -1.479  -3.904  0.00  0.00     0.284 C 
ATOM      9  H3  UNL d   1       0.742  -2.117  -5.688  0.00  0.00     0.395 HD
ENDBRANCH   1   7
TORSDOF 1
ENDMDL
