MODEL 1
REMARK minimizedAffinity 5.08860874
REMARK minimizedRMSD -1
REMARK  1 active torsions:
REMARK  status: ('A' for Active; 'I' for Inactive)
REMARK    1  A    between atoms: N_2  and  C1_3 
ROOT
ATOM      1  C1  UNL d   1      -1.269  -2.230  -4.010  0.00  0.00     0.143 A 
ATOM      2  C2  UNL d   1      -2.420  -2.757  -3.414  0.00  0.00    -0.057 A 
ATOM      3  C3  UNL d   1      -3.200  -1.990  -2.539  0.00  0.00     0.033 A 
ATOM      4  C4  UNL d   1      -2.825  -0.689  -2.222  0.00  0.00    -0.042 A 
ATOM      5  C5  UNL d   1      -1.672  -0.153  -2.784  0.00  0.00     0.033 A 
ATOM      6  C6  UNL d   1      -0.900  -0.921  -3.661  0.00  0.00    -0.057 A 
ENDROOT
BRANCH   1   7
ATOM      7  N   UNL d   1      -0.398  -2.974  -4.810  0.00  0.00    -0.732 N 
ATOM      8  C   UNL d   1       1.021  -2.999  -4.528  0.00  0.00     0.284 C 
ATOM      9  H3  UNL d   1      -0.786  -3.877  -5.071  0.00  0.00     0.395 HD
ENDBRANCH   1   7
TORSDOF 1
ENDMDL
