MODEL 1
REMARK minimizedAffinity 6.44127226
REMARK minimizedRMSD -1
REMARK  1 active torsions:
REMARK  status: ('A' for Active; 'I' for Inactive)
REMARK    1  A    between atoms: N_2  and  C1_3 
ROOT
ATOM      1  C1  UNL d   1       0.255   0.168   1.676  0.00  0.00     0.143 A 
ATOM      2  C2  UNL d   1      -0.684   0.432   2.679  0.00  0.00    -0.057 A 
ATOM      3  C3  UNL d   1      -1.408  -0.600   3.286  0.00  0.00     0.033 A 
ATOM      4  C4  UNL d   1      -1.227  -1.918   2.879  0.00  0.00    -0.042 A 
ATOM      5  C5  UNL d   1      -0.317  -2.202   1.867  0.00  0.00     0.033 A 
ATOM      6  C6  UNL d   1       0.408  -1.167   1.269  0.00  0.00    -0.057 A 
ENDROOT
BRANCH   1   7
ATOM      7  N   UNL d   1       0.935   1.160   0.965  0.00  0.00    -0.732 N 
ATOM      8  C   UNL d   1       0.787   1.271  -0.470  0.00  0.00     0.284 C 
ATOM      9  H3  UNL d   1       0.940   2.053   1.453  0.00  0.00     0.395 HD
ENDBRANCH   1   7
TORSDOF 1
ENDMDL
