MODEL 1
REMARK minimizedAffinity 8.30310059
REMARK minimizedRMSD -1
REMARK  1 active torsions:
REMARK  status: ('A' for Active; 'I' for Inactive)
REMARK    1  A    between atoms: N_2  and  C1_3 
ROOT
ATOM      1  C1  UNL d   1      -1.503  -0.931   2.804  0.00  0.00     0.143 A 
ATOM      2  C2  UNL d   1      -1.298  -1.634   1.612  0.00  0.00    -0.057 A 
ATOM      3  C3  UNL d   1      -0.426  -1.155   0.627  0.00  0.00     0.033 A 
ATOM      4  C4  UNL d   1       0.238   0.054   0.805  0.00  0.00    -0.042 A 
ATOM      5  C5  UNL d   1       0.030   0.783   1.971  0.00  0.00     0.033 A 
ATOM      6  C6  UNL d   1      -0.837   0.296   2.954  0.00  0.00    -0.057 A 
ENDROOT
BRANCH   1   7
ATOM      7  N   UNL d   1      -2.431  -1.304   3.778  0.00  0.00    -0.732 N 
ATOM      8  C   UNL d   1      -3.805  -0.855   3.698  0.00  0.00     0.284 C 
ATOM      9  H3  UNL d   1      -2.328  -2.276   4.061  0.00  0.00     0.395 HD
ENDBRANCH   1   7
TORSDOF 1
ENDMDL
