MODEL 1
REMARK minimizedAffinity -1.80749178
REMARK minimizedRMSD -1
REMARK  1 active torsions:
REMARK  status: ('A' for Active; 'I' for Inactive)
REMARK    1  A    between atoms: N_2  and  C1_3 
ROOT
ATOM      1  C1  UNL d   1      -2.469   0.751   2.999  0.00  0.00     0.143 A 
ATOM      2  C2  UNL d   1      -2.427  -0.647   2.994  0.00  0.00    -0.057 A 
ATOM      3  C3  UNL d   1      -1.280  -1.338   2.585  0.00  0.00     0.033 A 
ATOM      4  C4  UNL d   1      -0.160  -0.640   2.145  0.00  0.00    -0.042 A 
ATOM      5  C5  UNL d   1      -0.188   0.750   2.118  0.00  0.00     0.033 A 
ATOM      6  C6  UNL d   1      -1.334   1.434   2.534  0.00  0.00    -0.057 A 
ENDROOT
BRANCH   1   7
ATOM      7  N   UNL d   1      -3.613   1.494   3.300  0.00  0.00    -0.732 N 
ATOM      8  C   UNL d   1      -4.787   0.849   3.848  0.00  0.00     0.284 C 
ATOM      9  H3  UNL d   1      -3.392   2.390   3.729  0.00  0.00     0.395 HD
ENDBRANCH   1   7
TORSDOF 1
ENDMDL
