MODEL 1
REMARK minimizedAffinity -0.970019937
REMARK minimizedRMSD -1
REMARK  1 active torsions:
REMARK  status: ('A' for Active; 'I' for Inactive)
REMARK    1  A    between atoms: N_2  and  C1_3 
ROOT
ATOM      1  C1  UNL d   1      -4.075  -0.949   3.727  0.00  0.00     0.143 A 
ATOM      2  C2  UNL d   1      -4.627  -1.855   2.815  0.00  0.00    -0.057 A 
ATOM      3  C3  UNL d   1      -3.817  -2.736   2.088  0.00  0.00     0.033 A 
ATOM      4  C4  UNL d   1      -2.435  -2.706   2.239  0.00  0.00    -0.042 A 
ATOM      5  C5  UNL d   1      -1.863  -1.797   3.121  0.00  0.00     0.033 A 
ATOM      6  C6  UNL d   1      -2.677  -0.924   3.850  0.00  0.00    -0.057 A 
ENDROOT
BRANCH   1   7
ATOM      7  N   UNL d   1      -4.818   0.019   4.407  0.00  0.00    -0.732 N 
ATOM      8  C   UNL d   1      -4.675   1.422   4.080  0.00  0.00     0.284 C 
ATOM      9  H3  UNL d   1      -5.778  -0.273   4.573  0.00  0.00     0.395 HD
ENDBRANCH   1   7
TORSDOF 1
ENDMDL
