MODEL 1
REMARK minimizedAffinity -0.517902136
REMARK minimizedRMSD -1
REMARK  1 active torsions:
REMARK  status: ('A' for Active; 'I' for Inactive)
REMARK    1  A    between atoms: N_2  and  C1_3 
ROOT
ATOM      1  C1  UNL d   1      -5.441   0.066   5.426  0.00  0.00     0.143 A 
ATOM      2  C2  UNL d   1      -4.648   0.158   4.277  0.00  0.00    -0.057 A 
ATOM      3  C3  UNL d   1      -4.362   1.396   3.689  0.00  0.00     0.033 A 
ATOM      4  C4  UNL d   1      -4.891   2.566   4.225  0.00  0.00    -0.042 A 
ATOM      5  C5  UNL d   1      -5.702   2.496   5.352  0.00  0.00     0.033 A 
ATOM      6  C6  UNL d   1      -5.978   1.257   5.939  0.00  0.00    -0.057 A 
ENDROOT
BRANCH   1   7
ATOM      7  N   UNL d   1      -5.842  -1.143   6.000  0.00  0.00    -0.732 N 
ATOM      8  C   UNL d   1      -6.000  -2.329   5.186  0.00  0.00     0.284 C 
ATOM      9  H3  UNL d   1      -5.397  -1.313   6.899  0.00  0.00     0.395 HD
ENDBRANCH   1   7
TORSDOF 1
ENDMDL
