MODEL 1
REMARK minimizedAffinity 1.8032521
REMARK minimizedRMSD -1
REMARK  1 active torsions:
REMARK  status: ('A' for Active; 'I' for Inactive)
REMARK    1  A    between atoms: N_2  and  C1_3 
ROOT
ATOM      1  C1  UNL d   1      -2.049   1.008   3.173  0.00  0.00     0.143 A 
ATOM      2  C2  UNL d   1      -2.281  -0.188   3.861  0.00  0.00    -0.057 A 
ATOM      3  C3  UNL d   1      -3.520  -0.455   4.456  0.00  0.00     0.033 A 
ATOM      4  C4  UNL d   1      -4.543   0.486   4.399  0.00  0.00    -0.042 A 
ATOM      5  C5  UNL d   1      -4.326   1.692   3.742  0.00  0.00     0.033 A 
ATOM      6  C6  UNL d   1      -3.089   1.950   3.144  0.00  0.00    -0.057 A 
ENDROOT
BRANCH   1   7
ATOM      7  N   UNL d   1      -0.808   1.373   2.645  0.00  0.00    -0.732 N 
ATOM      8  C   UNL d   1       0.113   2.180   3.416  0.00  0.00     0.284 C 
ATOM      9  H3  UNL d   1      -0.366   0.614   2.131  0.00  0.00     0.395 HD
ENDBRANCH   1   7
TORSDOF 1
ENDMDL
