MODEL 1
REMARK minimizedAffinity -4.40506029
REMARK minimizedRMSD -1
REMARK  1 active torsions:
REMARK  status: ('A' for Active; 'I' for Inactive)
REMARK    1  A    between atoms: C1_2  and  C2_3 
ROOT
ATOM      1  C2  UNL d   1      -2.656  -3.362  -1.170  0.00  0.00    -0.081 A 
ATOM      2  C3  UNL d   1      -1.937  -3.739  -2.311  0.00  0.00     0.006 A 
ATOM      3  C4  UNL d   1      -0.562  -3.505  -2.390  0.00  0.00     0.002 A 
ATOM      4  C5  UNL d   1       0.118  -2.899  -1.327  0.00  0.00    -0.080 A 
ATOM      5  C6  UNL d   1       1.599  -2.671  -1.387  0.00  0.00     0.076 C 
ATOM      6  C7  UNL d   1      -0.604  -2.508  -0.195  0.00  0.00     0.002 A 
ATOM      7  C8  UNL d   1      -1.979  -2.740  -0.115  0.00  0.00     0.006 A 
ENDROOT
BRANCH   1   8
ATOM      8  C1  UNL d   1      -4.127  -3.671  -1.055  0.00  0.00     0.054 C 
ATOM      9  C   UNL d   1      -4.607  -3.550   0.385  0.00  0.00     0.018 C 
ENDBRANCH   1   8
TORSDOF 1
ENDMDL
