MODEL 1
REMARK minimizedAffinity -4.2996769
REMARK minimizedRMSD -1
REMARK  1 active torsions:
REMARK  status: ('A' for Active; 'I' for Inactive)
REMARK    1  A    between atoms: C1_2  and  C2_3 
ROOT
ATOM      1  C2  UNL d   1      -1.433  -0.512   1.368  0.00  0.00    -0.081 A 
ATOM      2  C3  UNL d   1      -0.935   0.413   0.442  0.00  0.00     0.006 A 
ATOM      3  C4  UNL d   1      -0.272  -0.023  -0.707  0.00  0.00     0.002 A 
ATOM      4  C5  UNL d   1      -0.103  -1.389  -0.955  0.00  0.00    -0.080 A 
ATOM      5  C6  UNL d   1       0.580  -1.871  -2.200  0.00  0.00     0.076 C 
ATOM      6  C7  UNL d   1      -0.585  -2.313  -0.021  0.00  0.00     0.002 A 
ATOM      7  C8  UNL d   1      -1.247  -1.878   1.129  0.00  0.00     0.006 A 
ENDROOT
BRANCH   1   8
ATOM      8  C1  UNL d   1      -2.205  -0.047   2.577  0.00  0.00     0.054 C 
ATOM      9  C   UNL d   1      -3.346   0.879   2.181  0.00  0.00     0.018 C 
ENDBRANCH   1   8
TORSDOF 1
ENDMDL
