MODEL 1
REMARK minimizedAffinity -3.45862961
REMARK minimizedRMSD -1
REMARK  1 active torsions:
REMARK  status: ('A' for Active; 'I' for Inactive)
REMARK    1  A    between atoms: C1_2  and  C2_3 
ROOT
ATOM      1  C2  UNL d   1       0.263   1.085   0.012  0.00  0.00    -0.081 A 
ATOM      2  C3  UNL d   1      -0.381   0.431   1.070  0.00  0.00     0.006 A 
ATOM      3  C4  UNL d   1      -0.513  -0.960   1.067  0.00  0.00     0.002 A 
ATOM      4  C5  UNL d   1       0.004  -1.720   0.013  0.00  0.00    -0.080 A 
ATOM      5  C6  UNL d   1      -0.104  -3.216   0.012  0.00  0.00     0.076 C 
ATOM      6  C7  UNL d   1       0.632  -1.065  -1.052  0.00  0.00     0.002 A 
ATOM      7  C8  UNL d   1       0.763   0.325  -1.051  0.00  0.00     0.006 A 
ENDROOT
BRANCH   1   8
ATOM      8  C1  UNL d   1       0.463   2.579   0.044  0.00  0.00     0.054 C 
ATOM      9  C   UNL d   1       1.873   2.938   0.492  0.00  0.00     0.018 C 
ENDBRANCH   1   8
TORSDOF 1
ENDMDL
