MODEL 1
REMARK minimizedAffinity 1.14575863
REMARK minimizedRMSD -1
REMARK  1 active torsions:
REMARK  status: ('A' for Active; 'I' for Inactive)
REMARK    1  A    between atoms: C1_2  and  C2_3 
ROOT
ATOM      1  C2  UNL d   1      -1.009  -0.939   0.582  0.00  0.00    -0.081 A 
ATOM      2  C3  UNL d   1       0.323  -1.211   0.247  0.00  0.00     0.006 A 
ATOM      3  C4  UNL d   1       0.740  -2.522   0.008  0.00  0.00     0.002 A 
ATOM      4  C5  UNL d   1      -0.169  -3.582   0.091  0.00  0.00    -0.080 A 
ATOM      5  C6  UNL d   1       0.259  -4.991  -0.193  0.00  0.00     0.076 C 
ATOM      6  C7  UNL d   1      -1.496  -3.313   0.443  0.00  0.00     0.002 A 
ATOM      7  C8  UNL d   1      -1.913  -2.002   0.683  0.00  0.00     0.006 A 
ENDROOT
BRANCH   1   8
ATOM      8  C1  UNL d   1      -1.476   0.481   0.777  0.00  0.00     0.054 C 
ATOM      9  C   UNL d   1      -2.649   0.549   1.745  0.00  0.00     0.018 C 
ENDBRANCH   1   8
TORSDOF 1
ENDMDL
