MODEL 1
REMARK minimizedAffinity -5.30916166
REMARK minimizedRMSD -1
REMARK  1 active torsions:
REMARK  status: ('A' for Active; 'I' for Inactive)
REMARK    1  A    between atoms: C1_2  and  C2_3 
ROOT
ATOM      1  C2  UNL d   1       0.067   0.835   0.299  0.00  0.00    -0.081 A 
ATOM      2  C3  UNL d   1      -0.445   0.038   1.330  0.00  0.00     0.006 A 
ATOM      3  C4  UNL d   1      -0.450  -1.354   1.214  0.00  0.00     0.002 A 
ATOM      4  C5  UNL d   1       0.063  -1.972   0.068  0.00  0.00    -0.080 A 
ATOM      5  C6  UNL d   1       0.092  -3.467  -0.056  0.00  0.00     0.076 C 
ATOM      6  C7  UNL d   1       0.559  -1.176  -0.969  0.00  0.00     0.002 A 
ATOM      7  C8  UNL d   1       0.564   0.216  -0.854  0.00  0.00     0.006 A 
ENDROOT
BRANCH   1   8
ATOM      8  C1  UNL d   1       0.133   2.333   0.449  0.00  0.00     0.054 C 
ATOM      9  C   UNL d   1       1.564   2.805   0.662  0.00  0.00     0.018 C 
ENDBRANCH   1   8
TORSDOF 1
ENDMDL
