MODEL 1
REMARK minimizedAffinity -1.16758144
REMARK minimizedRMSD -1
REMARK  1 active torsions:
REMARK  status: ('A' for Active; 'I' for Inactive)
REMARK    1  A    between atoms: C1_2  and  C2_3 
ROOT
ATOM      1  C2  UNL d   1       0.298   0.951   0.188  0.00  0.00    -0.081 A 
ATOM      2  C3  UNL d   1      -0.414   0.290   1.196  0.00  0.00     0.006 A 
ATOM      3  C4  UNL d   1      -0.756  -1.057   1.056  0.00  0.00     0.002 A 
ATOM      4  C5  UNL d   1      -0.386  -1.767  -0.091  0.00  0.00    -0.080 A 
ATOM      5  C6  UNL d   1      -0.721  -3.222  -0.241  0.00  0.00     0.076 C 
ATOM      6  C7  UNL d   1       0.311  -1.103  -1.106  0.00  0.00     0.002 A 
ATOM      7  C8  UNL d   1       0.653   0.244  -0.967  0.00  0.00     0.006 A 
ENDROOT
BRANCH   1   8
ATOM      8  C1  UNL d   1       0.725   2.385   0.365  0.00  0.00     0.054 C 
ATOM      9  C   UNL d   1       2.242   2.513   0.381  0.00  0.00     0.018 C 
ENDBRANCH   1   8
TORSDOF 1
ENDMDL
