MODEL 1
REMARK minimizedAffinity -5.53130865
REMARK minimizedRMSD -1
REMARK  1 active torsions:
REMARK  status: ('A' for Active; 'I' for Inactive)
REMARK    1  A    between atoms: C1_2  and  C2_3 
ROOT
ATOM      1  C2  UNL d   1      -0.202   0.654   0.202  0.00  0.00    -0.081 A 
ATOM      2  C3  UNL d   1      -1.038  -0.010   1.109  0.00  0.00     0.006 A 
ATOM      3  C4  UNL d   1      -0.949  -1.395   1.268  0.00  0.00     0.002 A 
ATOM      4  C5  UNL d   1      -0.020  -2.137   0.531  0.00  0.00    -0.080 A 
ATOM      5  C6  UNL d   1       0.105  -3.620   0.715  0.00  0.00     0.076 C 
ATOM      6  C7  UNL d   1       0.802  -1.476  -0.387  0.00  0.00     0.002 A 
ATOM      7  C8  UNL d   1       0.714  -0.091  -0.548  0.00  0.00     0.006 A 
ENDROOT
BRANCH   1   8
ATOM      8  C1  UNL d   1      -0.250   2.155   0.074  0.00  0.00     0.054 C 
ATOM      9  C   UNL d   1       0.882   2.813   0.850  0.00  0.00     0.018 C 
ENDBRANCH   1   8
TORSDOF 1
ENDMDL
