MODEL 1
REMARK minimizedAffinity -4.86322927
REMARK minimizedRMSD -1
REMARK  1 active torsions:
REMARK  status: ('A' for Active; 'I' for Inactive)
REMARK    1  A    between atoms: C1_2  and  C2_3 
ROOT
ATOM      1  C2  UNL d   1       0.524   1.193   0.415  0.00  0.00    -0.081 A 
ATOM      2  C3  UNL d   1       0.127   0.551   1.595  0.00  0.00     0.006 A 
ATOM      3  C4  UNL d   1      -0.179  -0.812   1.590  0.00  0.00     0.002 A 
ATOM      4  C5  UNL d   1      -0.086  -1.557   0.410  0.00  0.00    -0.080 A 
ATOM      5  C6  UNL d   1      -0.383  -3.027   0.398  0.00  0.00     0.076 C 
ATOM      6  C7  UNL d   1       0.293  -0.912  -0.772  0.00  0.00     0.002 A 
ATOM      7  C8  UNL d   1       0.599   0.451  -0.769  0.00  0.00     0.006 A 
ENDROOT
BRANCH   1   8
ATOM      8  C1  UNL d   1       0.917   2.648   0.429  0.00  0.00     0.054 C 
ATOM      9  C   UNL d   1       2.272   2.849   1.093  0.00  0.00     0.018 C 
ENDBRANCH   1   8
TORSDOF 1
ENDMDL
