MODEL 1
REMARK minimizedAffinity -4.19260406
REMARK minimizedRMSD -1
REMARK  1 active torsions:
REMARK  status: ('A' for Active; 'I' for Inactive)
REMARK    1  A    between atoms: C1_2  and  C2_3 
ROOT
ATOM      1  C2  UNL d   1      -0.059  -0.495   0.601  0.00  0.00    -0.081 A 
ATOM      2  C3  UNL d   1       0.089  -0.622  -0.785  0.00  0.00     0.006 A 
ATOM      3  C4  UNL d   1       0.144  -1.886  -1.379  0.00  0.00     0.002 A 
ATOM      4  C5  UNL d   1       0.043  -3.042  -0.598  0.00  0.00    -0.080 A 
ATOM      5  C6  UNL d   1       0.069  -4.404  -1.226  0.00  0.00     0.076 C 
ATOM      6  C7  UNL d   1      -0.088  -2.915   0.789  0.00  0.00     0.002 A 
ATOM      7  C8  UNL d   1      -0.142  -1.653   1.384  0.00  0.00     0.006 A 
ENDROOT
BRANCH   1   8
ATOM      8  C1  UNL d   1      -0.183   0.866   1.237  0.00  0.00     0.054 C 
ATOM      9  C   UNL d   1       0.457   1.941   0.371  0.00  0.00     0.018 C 
ENDBRANCH   1   8
TORSDOF 1
ENDMDL
