MODEL 1
REMARK minimizedAffinity -5.89937782
REMARK minimizedRMSD -1
REMARK  1 active torsions:
REMARK  status: ('A' for Active; 'I' for Inactive)
REMARK    1  A    between atoms: C1_2  and  C2_3 
ROOT
ATOM      1  C2  UNL d   1       0.151   0.559  -0.837  0.00  0.00    -0.081 A 
ATOM      2  C3  UNL d   1      -0.380   0.131   0.386  0.00  0.00     0.006 A 
ATOM      3  C4  UNL d   1      -0.535  -1.232   0.653  0.00  0.00     0.002 A 
ATOM      4  C5  UNL d   1      -0.153  -2.188  -0.294  0.00  0.00    -0.080 A 
ATOM      5  C6  UNL d   1      -0.286  -3.655  -0.008  0.00  0.00     0.076 C 
ATOM      6  C7  UNL d   1       0.361  -1.761  -1.523  0.00  0.00     0.002 A 
ATOM      7  C8  UNL d   1       0.515  -0.399  -1.791  0.00  0.00     0.006 A 
ENDROOT
BRANCH   1   8
ATOM      8  C1  UNL d   1       0.380   2.025  -1.103  0.00  0.00     0.054 C 
ATOM      9  C   UNL d   1       1.030   2.709   0.091  0.00  0.00     0.018 C 
ENDBRANCH   1   8
TORSDOF 1
ENDMDL
