MODEL 1
REMARK minimizedAffinity -3.82788992
REMARK minimizedRMSD -1
REMARK  1 active torsions:
REMARK  status: ('A' for Active; 'I' for Inactive)
REMARK    1  A    between atoms: C1_2  and  C2_3 
ROOT
ATOM      1  C2  UNL d   1       0.230   1.052  -0.232  0.00  0.00    -0.081 A 
ATOM      2  C3  UNL d   1      -0.179   0.507   0.991  0.00  0.00     0.006 A 
ATOM      3  C4  UNL d   1      -0.400  -0.867   1.115  0.00  0.00     0.002 A 
ATOM      4  C5  UNL d   1      -0.208  -1.718   0.022  0.00  0.00    -0.080 A 
ATOM      5  C6  UNL d   1      -0.412  -3.199   0.150  0.00  0.00     0.076 C 
ATOM      6  C7  UNL d   1       0.184  -1.171  -1.205  0.00  0.00     0.002 A 
ATOM      7  C8  UNL d   1       0.404   0.202  -1.330  0.00  0.00     0.006 A 
ENDROOT
BRANCH   1   8
ATOM      8  C1  UNL d   1       0.531   2.525  -0.352  0.00  0.00     0.054 C 
ATOM      9  C   UNL d   1       1.889   2.862   0.248  0.00  0.00     0.018 C 
ENDBRANCH   1   8
TORSDOF 1
ENDMDL
