MODEL 1
REMARK minimizedAffinity 12.314333
REMARK minimizedRMSD -1
REMARK  0 active torsions:
REMARK  status: ('A' for Active; 'I' for Inactive)
ROOT
ATOM      1  C   UNL d   1      -1.379   2.062   1.885  0.00  0.00     0.124 A 
ATOM      2  C1  UNL d   1      -0.901   3.121   2.644  0.00  0.00     0.062 A 
ATOM      3  C2  UNL d   1       0.464   3.391   2.688  0.00  0.00     0.162 A 
ATOM      4  C3  UNL d   1       1.361   2.600   1.969  0.00  0.00    -0.034 A 
ATOM      5  C4  UNL d   1       0.873   1.536   1.209  0.00  0.00     0.162 A 
ATOM      6  C5  UNL d   1      -0.492   1.271   1.168  0.00  0.00     0.062 A 
ATOM      7  F   UNL d   1      -0.952   0.247   0.434  0.00  0.00    -0.097 F 
ATOM      8  F1  UNL d   1       1.707   0.757   0.506  0.00  0.00    -0.096 F 
ATOM      9  I   UNL d   1       3.402   3.000   2.033  0.00  0.00    -0.060 I 
ATOM     10  F2  UNL d   1       0.898   4.421   3.430  0.00  0.00    -0.096 F 
ATOM     11  F3  UNL d   1      -1.756   3.886   3.338  0.00  0.00    -0.097 F 
ATOM     12  F4  UNL d   1      -2.693   1.804   1.845  0.00  0.00    -0.092 F 
ENDROOT
TORSDOF 0
ENDMDL
