MODEL 1
REMARK minimizedAffinity 4.05624723
REMARK minimizedRMSD -1
REMARK  0 active torsions:
REMARK  status: ('A' for Active; 'I' for Inactive)
ROOT
ATOM      1  C   UNL d   1      -1.895   4.844  -5.695  0.00  0.00     0.124 A 
ATOM      2  C1  UNL d   1      -2.586   3.645  -5.806  0.00  0.00     0.062 A 
ATOM      3  C2  UNL d   1      -1.891   2.442  -5.893  0.00  0.00     0.162 A 
ATOM      4  C3  UNL d   1      -0.496   2.432  -5.868  0.00  0.00    -0.034 A 
ATOM      5  C4  UNL d   1       0.191   3.642  -5.756  0.00  0.00     0.162 A 
ATOM      6  C5  UNL d   1      -0.508   4.841  -5.670  0.00  0.00     0.062 A 
ATOM      7  F   UNL d   1       0.161   5.999  -5.562  0.00  0.00    -0.097 F 
ATOM      8  F1  UNL d   1       1.532   3.669  -5.729  0.00  0.00    -0.096 F 
ATOM      9  I   UNL d   1       0.547   0.636  -5.997  0.00  0.00    -0.060 I 
ATOM     10  F2  UNL d   1      -2.584   1.299  -6.000  0.00  0.00    -0.096 F 
ATOM     11  F3  UNL d   1      -3.926   3.645  -5.831  0.00  0.00    -0.097 F 
ATOM     12  F4  UNL d   1      -2.567   6.000  -5.612  0.00  0.00    -0.092 F 
ENDROOT
TORSDOF 0
ENDMDL
