MODEL 1
REMARK minimizedAffinity 4.77535343
REMARK minimizedRMSD -1
REMARK  0 active torsions:
REMARK  status: ('A' for Active; 'I' for Inactive)
ROOT
ATOM      1  C   UNL d   1       0.784   2.371  -5.963  0.00  0.00     0.124 A 
ATOM      2  C1  UNL d   1       1.187   3.699  -5.954  0.00  0.00     0.062 A 
ATOM      3  C2  UNL d   1       0.238   4.718  -5.938  0.00  0.00     0.162 A 
ATOM      4  C3  UNL d   1      -1.123   4.412  -5.930  0.00  0.00    -0.034 A 
ATOM      5  C4  UNL d   1      -1.520   3.074  -5.940  0.00  0.00     0.162 A 
ATOM      6  C5  UNL d   1      -0.568   2.060  -5.956  0.00  0.00     0.062 A 
ATOM      7  F   UNL d   1      -0.959   0.777  -5.965  0.00  0.00    -0.097 F 
ATOM      8  F1  UNL d   1      -2.820   2.745  -5.932  0.00  0.00    -0.096 F 
ATOM      9  I   UNL d   1      -2.544   5.933  -5.906  0.00  0.00    -0.060 I 
ATOM     10  F2  UNL d   1       0.656   5.993  -5.930  0.00  0.00    -0.096 F 
ATOM     11  F3  UNL d   1       2.493   4.003  -5.962  0.00  0.00    -0.097 F 
ATOM     12  F4  UNL d   1       1.699   1.393  -5.980  0.00  0.00    -0.092 F 
ENDROOT
TORSDOF 0
ENDMDL
