MODEL 1
REMARK minimizedAffinity 4.07824707
REMARK minimizedRMSD -1
REMARK  0 active torsions:
REMARK  status: ('A' for Active; 'I' for Inactive)
ROOT
ATOM      1  C   UNL d   1       1.133   3.639  -5.996  0.00  0.00     0.124 A 
ATOM      2  C1  UNL d   1       0.363   4.794  -5.997  0.00  0.00     0.062 A 
ATOM      3  C2  UNL d   1      -1.026   4.709  -5.997  0.00  0.00     0.162 A 
ATOM      4  C3  UNL d   1      -1.655   3.464  -5.995  0.00  0.00    -0.034 A 
ATOM      5  C4  UNL d   1      -0.874   2.307  -5.995  0.00  0.00     0.162 A 
ATOM      6  C5  UNL d   1       0.514   2.397  -5.996  0.00  0.00     0.062 A 
ATOM      7  F   UNL d   1       1.256   1.280  -5.995  0.00  0.00    -0.097 F 
ATOM      8  F1  UNL d   1      -1.446   1.094  -5.994  0.00  0.00    -0.096 F 
ATOM      9  I   UNL d   1      -3.732   3.333  -5.995  0.00  0.00    -0.060 I 
ATOM     10  F2  UNL d   1      -1.745   5.841  -5.997  0.00  0.00    -0.096 F 
ATOM     11  F3  UNL d   1       0.959   5.995  -5.999  0.00  0.00    -0.097 F 
ATOM     12  F4  UNL d   1       2.470   3.724  -5.998  0.00  0.00    -0.092 F 
ENDROOT
TORSDOF 0
ENDMDL
