MODEL 1
REMARK minimizedAffinity 11.7888412
REMARK minimizedRMSD -1
REMARK  0 active torsions:
REMARK  status: ('A' for Active; 'I' for Inactive)
ROOT
ATOM      1  C   UNL d   1      -2.783   3.532  -5.630  0.00  0.00     0.124 A 
ATOM      2  C1  UNL d   1      -2.078   4.717  -5.469  0.00  0.00     0.062 A 
ATOM      3  C2  UNL d   1      -0.687   4.710  -5.473  0.00  0.00     0.162 A 
ATOM      4  C3  UNL d   1       0.011   3.514  -5.640  0.00  0.00    -0.034 A 
ATOM      5  C4  UNL d   1      -0.705   2.326  -5.800  0.00  0.00     0.162 A 
ATOM      6  C5  UNL d   1      -2.096   2.338  -5.795  0.00  0.00     0.062 A 
ATOM      7  F   UNL d   1      -2.775   1.192  -5.951  0.00  0.00    -0.097 F 
ATOM      8  F1  UNL d   1      -0.066   1.158  -5.963  0.00  0.00    -0.096 F 
ATOM      9  I   UNL d   1       2.092   3.499  -5.647  0.00  0.00    -0.060 I 
ATOM     10  F2  UNL d   1      -0.032   5.870  -5.315  0.00  0.00    -0.096 F 
ATOM     11  F3  UNL d   1      -2.740   5.872  -5.307  0.00  0.00    -0.097 F 
ATOM     12  F4  UNL d   1      -4.122   3.542  -5.624  0.00  0.00    -0.092 F 
ENDROOT
TORSDOF 0
ENDMDL
