MODEL 1
REMARK minimizedAffinity 8.1373291
REMARK minimizedRMSD -1
REMARK  0 active torsions:
REMARK  status: ('A' for Active; 'I' for Inactive)
ROOT
ATOM      1  C   UNL d   1      -0.374   2.592  -5.799  0.00  0.00     0.124 A 
ATOM      2  C1  UNL d   1      -0.350   3.979  -5.736  0.00  0.00     0.062 A 
ATOM      3  C2  UNL d   1       0.864   4.660  -5.760  0.00  0.00     0.162 A 
ATOM      4  C3  UNL d   1       2.065   3.955  -5.848  0.00  0.00    -0.034 A 
ATOM      5  C4  UNL d   1       2.033   2.561  -5.910  0.00  0.00     0.162 A 
ATOM      6  C5  UNL d   1       0.817   1.885  -5.886  0.00  0.00     0.062 A 
ATOM      7  F   UNL d   1       0.796   0.545  -5.946  0.00  0.00    -0.097 F 
ATOM      8  F1  UNL d   1       3.168   1.852  -5.995  0.00  0.00    -0.096 F 
ATOM      9  I   UNL d   1       3.882   4.969  -5.884  0.00  0.00    -0.060 I 
ATOM     10  F2  UNL d   1       0.857   5.999  -5.698  0.00  0.00    -0.096 F 
ATOM     11  F3  UNL d   1      -1.499   4.665  -5.652  0.00  0.00    -0.097 F 
ATOM     12  F4  UNL d   1      -1.543   1.940  -5.775  0.00  0.00    -0.092 F 
ENDROOT
TORSDOF 0
ENDMDL
