MODEL 1
REMARK minimizedAffinity 3.23775673
REMARK minimizedRMSD -1
REMARK  0 active torsions:
REMARK  status: ('A' for Active; 'I' for Inactive)
ROOT
ATOM      1  C   UNL d   1       1.242   3.473  -6.000  0.00  0.00     0.124 A 
ATOM      2  C1  UNL d   1       0.481   2.313  -6.000  0.00  0.00     0.062 A 
ATOM      3  C2  UNL d   1      -0.909   2.388  -5.999  0.00  0.00     0.162 A 
ATOM      4  C3  UNL d   1      -1.547   3.628  -5.999  0.00  0.00    -0.034 A 
ATOM      5  C4  UNL d   1      -0.774   4.791  -5.998  0.00  0.00     0.162 A 
ATOM      6  C5  UNL d   1       0.615   4.710  -5.999  0.00  0.00     0.062 A 
ATOM      7  F   UNL d   1       1.349   5.833  -5.999  0.00  0.00    -0.097 F 
ATOM      8  F1  UNL d   1      -1.355   6.000  -5.998  0.00  0.00    -0.096 F 
ATOM      9  I   UNL d   1      -3.625   3.744  -5.998  0.00  0.00    -0.060 I 
ATOM     10  F2  UNL d   1      -1.620   1.250  -5.999  0.00  0.00    -0.096 F 
ATOM     11  F3  UNL d   1       1.085   1.116  -6.000  0.00  0.00    -0.097 F 
ATOM     12  F4  UNL d   1       2.580   3.398  -6.000  0.00  0.00    -0.092 F 
ENDROOT
TORSDOF 0
ENDMDL
