MODEL 1
REMARK minimizedAffinity 5.04310513
REMARK minimizedRMSD -1
REMARK  0 active torsions:
REMARK  status: ('A' for Active; 'I' for Inactive)
ROOT
ATOM      1  C   UNL d   1       0.999   2.346  -5.986  0.00  0.00     0.124 A 
ATOM      2  C1  UNL d   1      -0.351   2.023  -5.986  0.00  0.00     0.062 A 
ATOM      3  C2  UNL d   1      -1.312   3.030  -5.984  0.00  0.00     0.162 A 
ATOM      4  C3  UNL d   1      -0.926   4.371  -5.983  0.00  0.00    -0.034 A 
ATOM      5  C4  UNL d   1       0.434   4.687  -5.982  0.00  0.00     0.162 A 
ATOM      6  C5  UNL d   1       1.390   3.677  -5.983  0.00  0.00     0.062 A 
ATOM      7  F   UNL d   1       2.694   3.991  -5.983  0.00  0.00    -0.097 F 
ATOM      8  F1  UNL d   1       0.840   5.966  -5.980  0.00  0.00    -0.096 F 
ATOM      9  I   UNL d   1      -2.359   5.880  -5.980  0.00  0.00    -0.060 I 
ATOM     10  F2  UNL d   1      -2.609   2.689  -5.985  0.00  0.00    -0.096 F 
ATOM     11  F3  UNL d   1      -0.732   0.737  -5.987  0.00  0.00    -0.097 F 
ATOM     12  F4  UNL d   1       1.921   1.374  -5.986  0.00  0.00    -0.092 F 
ENDROOT
TORSDOF 0
ENDMDL
