MODEL 1
REMARK minimizedAffinity 7.4625206
REMARK minimizedRMSD -1
REMARK  0 active torsions:
REMARK  status: ('A' for Active; 'I' for Inactive)
ROOT
ATOM      1  C   UNL d   1      -2.527   3.589  -5.925  0.00  0.00     0.124 A 
ATOM      2  C1  UNL d   1      -1.818   2.395  -5.919  0.00  0.00     0.062 A 
ATOM      3  C2  UNL d   1      -0.427   2.407  -5.940  0.00  0.00     0.162 A 
ATOM      4  C3  UNL d   1       0.267   3.617  -5.965  0.00  0.00    -0.034 A 
ATOM      5  C4  UNL d   1      -0.453   4.814  -5.972  0.00  0.00     0.162 A 
ATOM      6  C5  UNL d   1      -1.843   4.797  -5.951  0.00  0.00     0.062 A 
ATOM      7  F   UNL d   1      -2.526   5.951  -5.957  0.00  0.00    -0.097 F 
ATOM      8  F1  UNL d   1       0.182   5.995  -5.996  0.00  0.00    -0.096 F 
ATOM      9  I   UNL d   1       2.348   3.639  -5.996  0.00  0.00    -0.060 I 
ATOM     10  F2  UNL d   1       0.232   1.238  -5.934  0.00  0.00    -0.096 F 
ATOM     11  F3  UNL d   1      -2.476   1.227  -5.895  0.00  0.00    -0.097 F 
ATOM     12  F4  UNL d   1      -3.866   3.575  -5.906  0.00  0.00    -0.092 F 
ENDROOT
TORSDOF 0
ENDMDL
