MODEL 1
REMARK minimizedAffinity 17.123703
REMARK minimizedRMSD -1
REMARK  0 active torsions:
REMARK  status: ('A' for Active; 'I' for Inactive)
ROOT
ATOM      1  C   UNL d   1       0.556   2.374  -5.950  0.00  0.00     0.124 A 
ATOM      2  C1  UNL d   1       0.978   3.695  -5.905  0.00  0.00     0.062 A 
ATOM      3  C2  UNL d   1       0.045   4.727  -5.866  0.00  0.00     0.162 A 
ATOM      4  C3  UNL d   1      -1.321   4.442  -5.869  0.00  0.00    -0.034 A 
ATOM      5  C4  UNL d   1      -1.737   3.111  -5.915  0.00  0.00     0.162 A 
ATOM      6  C5  UNL d   1      -0.801   2.083  -5.955  0.00  0.00     0.062 A 
ATOM      7  F   UNL d   1      -1.211   0.807  -5.998  0.00  0.00    -0.097 F 
ATOM      8  F1  UNL d   1      -3.043   2.801  -5.920  0.00  0.00    -0.096 F 
ATOM      9  I   UNL d   1      -2.719   5.982  -5.810  0.00  0.00    -0.060 I 
ATOM     10  F2  UNL d   1       0.481   5.995  -5.823  0.00  0.00    -0.096 F 
ATOM     11  F3  UNL d   1       2.288   3.979  -5.902  0.00  0.00    -0.097 F 
ATOM     12  F4  UNL d   1       1.456   1.383  -5.989  0.00  0.00    -0.092 F 
ENDROOT
TORSDOF 0
ENDMDL
