MODEL 1
REMARK minimizedAffinity 18.7442417
REMARK minimizedRMSD -1
REMARK  0 active torsions:
REMARK  status: ('A' for Active; 'I' for Inactive)
ROOT
ATOM      1  C   UNL d   1      -0.451  -1.018   0.780  0.00  0.00     0.124 A 
ATOM      2  C1  UNL d   1      -0.858  -2.119   1.522  0.00  0.00     0.062 A 
ATOM      3  C2  UNL d   1      -1.522  -3.173   0.902  0.00  0.00     0.162 A 
ATOM      4  C3  UNL d   1      -1.782  -3.134  -0.468  0.00  0.00    -0.034 A 
ATOM      5  C4  UNL d   1      -1.369  -2.023  -1.207  0.00  0.00     0.162 A 
ATOM      6  C5  UNL d   1      -0.706  -0.972  -0.583  0.00  0.00     0.062 A 
ATOM      7  F   UNL d   1      -0.313   0.091  -1.301  0.00  0.00    -0.097 F 
ATOM      8  F1  UNL d   1      -1.603  -1.952  -2.526  0.00  0.00    -0.096 F 
ATOM      9  I   UNL d   1      -2.774  -4.709  -1.399  0.00  0.00    -0.060 I 
ATOM     10  F2  UNL d   1      -1.905  -4.224   1.643  0.00  0.00    -0.096 F 
ATOM     11  F3  UNL d   1      -0.613  -2.166   2.839  0.00  0.00    -0.097 F 
ATOM     12  F4  UNL d   1       0.187  -0.005   1.379  0.00  0.00    -0.092 F 
ENDROOT
TORSDOF 0
ENDMDL
