MODEL 1
REMARK minimizedAffinity 17.6203003
REMARK minimizedRMSD -1
REMARK  0 active torsions:
REMARK  status: ('A' for Active; 'I' for Inactive)
ROOT
ATOM      1  C   UNL d   1       1.623   2.346  -5.870  0.00  0.00     0.124 A 
ATOM      2  C1  UNL d   1       2.939   1.905  -5.875  0.00  0.00     0.062 A 
ATOM      3  C2  UNL d   1       3.985   2.823  -5.912  0.00  0.00     0.162 A 
ATOM      4  C3  UNL d   1       3.719   4.192  -5.943  0.00  0.00    -0.034 A 
ATOM      5  C4  UNL d   1       2.393   4.628  -5.938  0.00  0.00     0.162 A 
ATOM      6  C5  UNL d   1       1.351   3.707  -5.902  0.00  0.00     0.062 A 
ATOM      7  F   UNL d   1       0.081   4.135  -5.897  0.00  0.00    -0.097 F 
ATOM      8  F1  UNL d   1       2.102   5.937  -5.967  0.00  0.00    -0.096 F 
ATOM      9  I   UNL d   1       5.280   5.567  -5.997  0.00  0.00    -0.060 I 
ATOM     10  F2  UNL d   1       5.247   2.368  -5.916  0.00  0.00    -0.096 F 
ATOM     11  F3  UNL d   1       3.204   0.591  -5.846  0.00  0.00    -0.097 F 
ATOM     12  F4  UNL d   1       0.619   1.461  -5.836  0.00  0.00    -0.092 F 
ENDROOT
TORSDOF 0
ENDMDL
