MODEL 1
REMARK minimizedAffinity 3.70962977
REMARK minimizedRMSD -1
REMARK  0 active torsions:
REMARK  status: ('A' for Active; 'I' for Inactive)
ROOT
ATOM      1  C   UNL d   1      -2.609   3.638  -5.890  0.00  0.00     0.124 A 
ATOM      2  C1  UNL d   1      -1.906   4.834  -5.845  0.00  0.00     0.062 A 
ATOM      3  C2  UNL d   1      -0.514   4.828  -5.842  0.00  0.00     0.162 A 
ATOM      4  C3  UNL d   1       0.185   3.621  -5.886  0.00  0.00    -0.034 A 
ATOM      5  C4  UNL d   1      -0.529   2.423  -5.930  0.00  0.00     0.162 A 
ATOM      6  C5  UNL d   1      -1.920   2.434  -5.932  0.00  0.00     0.062 A 
ATOM      7  F   UNL d   1      -2.598   1.278  -5.975  0.00  0.00    -0.097 F 
ATOM      8  F1  UNL d   1       0.111   1.245  -5.972  0.00  0.00    -0.096 F 
ATOM      9  I   UNL d   1       2.266   3.608  -5.882  0.00  0.00    -0.060 I 
ATOM     10  F2  UNL d   1       0.139   5.999  -5.799  0.00  0.00    -0.096 F 
ATOM     11  F3  UNL d   1      -2.569   5.999  -5.803  0.00  0.00    -0.097 F 
ATOM     12  F4  UNL d   1      -3.948   3.647  -5.891  0.00  0.00    -0.092 F 
ENDROOT
TORSDOF 0
ENDMDL
