MODEL 1
REMARK minimizedAffinity 5.23540211
REMARK minimizedRMSD -1
REMARK  0 active torsions:
REMARK  status: ('A' for Active; 'I' for Inactive)
ROOT
ATOM      1  C   UNL d   1      -0.349   2.378  -5.987  0.00  0.00     0.124 A 
ATOM      2  C1  UNL d   1       0.043   3.710  -5.980  0.00  0.00     0.062 A 
ATOM      3  C2  UNL d   1      -0.913   4.721  -5.977  0.00  0.00     0.162 A 
ATOM      4  C3  UNL d   1      -2.271   4.405  -5.980  0.00  0.00    -0.034 A 
ATOM      5  C4  UNL d   1      -2.658   3.064  -5.988  0.00  0.00     0.162 A 
ATOM      6  C5  UNL d   1      -1.698   2.057  -5.991  0.00  0.00     0.062 A 
ATOM      7  F   UNL d   1      -2.079   0.771  -5.997  0.00  0.00    -0.097 F 
ATOM      8  F1  UNL d   1      -3.956   2.724  -5.991  0.00  0.00    -0.096 F 
ATOM      9  I   UNL d   1      -3.704   5.914  -5.976  0.00  0.00    -0.060 I 
ATOM     10  F2  UNL d   1      -0.505   5.999  -5.971  0.00  0.00    -0.096 F 
ATOM     11  F3  UNL d   1       1.347   4.023  -5.977  0.00  0.00    -0.097 F 
ATOM     12  F4  UNL d   1       0.574   1.407  -5.990  0.00  0.00    -0.092 F 
ENDROOT
TORSDOF 0
ENDMDL
