MODEL 1
REMARK minimizedAffinity 2.54282641
REMARK minimizedRMSD -1
REMARK  0 active torsions:
REMARK  status: ('A' for Active; 'I' for Inactive)
ROOT
ATOM      1  C   UNL d   1       0.062   2.223  -5.993  0.00  0.00     0.124 A 
ATOM      2  C1  UNL d   1      -1.308   2.002  -5.993  0.00  0.00     0.062 A 
ATOM      3  C2  UNL d   1      -2.191   3.078  -5.992  0.00  0.00     0.162 A 
ATOM      4  C3  UNL d   1      -1.706   4.386  -5.992  0.00  0.00    -0.034 A 
ATOM      5  C4  UNL d   1      -0.326   4.600  -5.991  0.00  0.00     0.162 A 
ATOM      6  C5  UNL d   1       0.552   3.521  -5.992  0.00  0.00     0.062 A 
ATOM      7  F   UNL d   1       1.875   3.737  -5.992  0.00  0.00    -0.097 F 
ATOM      8  F1  UNL d   1       0.174   5.845  -5.991  0.00  0.00    -0.096 F 
ATOM      9  I   UNL d   1      -3.023   5.998  -5.991  0.00  0.00    -0.060 I 
ATOM     10  F2  UNL d   1      -3.510   2.835  -5.992  0.00  0.00    -0.096 F 
ATOM     11  F3  UNL d   1      -1.784   0.748  -5.993  0.00  0.00    -0.097 F 
ATOM     12  F4  UNL d   1       0.909   1.185  -5.993  0.00  0.00    -0.092 F 
ENDROOT
TORSDOF 0
ENDMDL
