MODEL 1
REMARK minimizedAffinity 14.6382656
REMARK minimizedRMSD -1
REMARK  0 active torsions:
REMARK  status: ('A' for Active; 'I' for Inactive)
ROOT
ATOM      1  C   UNL d   1       1.237   2.309  -5.979  0.00  0.00     0.124 A 
ATOM      2  C1  UNL d   1       1.692   3.621  -5.974  0.00  0.00     0.062 A 
ATOM      3  C2  UNL d   1       0.784   4.676  -5.972  0.00  0.00     0.162 A 
ATOM      4  C3  UNL d   1      -0.588   4.424  -5.974  0.00  0.00    -0.034 A 
ATOM      5  C4  UNL d   1      -1.037   3.102  -5.980  0.00  0.00     0.162 A 
ATOM      6  C5  UNL d   1      -0.126   2.051  -5.982  0.00  0.00     0.062 A 
ATOM      7  F   UNL d   1      -0.567   0.784  -5.987  0.00  0.00    -0.097 F 
ATOM      8  F1  UNL d   1      -2.349   2.824  -5.982  0.00  0.00    -0.096 F 
ATOM      9  I   UNL d   1      -1.949   5.998  -5.971  0.00  0.00    -0.060 I 
ATOM     10  F2  UNL d   1       1.251   5.933  -5.968  0.00  0.00    -0.096 F 
ATOM     11  F3  UNL d   1       3.008   3.873  -5.973  0.00  0.00    -0.097 F 
ATOM     12  F4  UNL d   1       2.113   1.296  -5.982  0.00  0.00    -0.092 F 
ENDROOT
TORSDOF 0
ENDMDL
