MODEL 1
REMARK minimizedAffinity 12.3597622
REMARK minimizedRMSD -1
REMARK  0 active torsions:
REMARK  status: ('A' for Active; 'I' for Inactive)
ROOT
ATOM      1  C   UNL d   1      -4.315  -0.513  -0.247  0.00  0.00     0.124 A 
ATOM      2  C1  UNL d   1      -3.685   0.030   0.864  0.00  0.00     0.062 A 
ATOM      3  C2  UNL d   1      -2.406   0.569   0.750  0.00  0.00     0.162 A 
ATOM      4  C3  UNL d   1      -1.749   0.568  -0.480  0.00  0.00    -0.034 A 
ATOM      5  C4  UNL d   1      -2.389   0.020  -1.593  0.00  0.00     0.162 A 
ATOM      6  C5  UNL d   1      -3.667  -0.517  -1.474  0.00  0.00     0.062 A 
ATOM      7  F   UNL d   1      -4.274  -1.042  -2.549  0.00  0.00    -0.097 F 
ATOM      8  F1  UNL d   1      -1.786   0.003  -2.791  0.00  0.00    -0.096 F 
ATOM      9  I   UNL d   1       0.162   1.373  -0.655  0.00  0.00    -0.060 I 
ATOM     10  F2  UNL d   1      -1.821   1.087   1.841  0.00  0.00    -0.096 F 
ATOM     11  F3  UNL d   1      -4.308   0.035   2.051  0.00  0.00    -0.097 F 
ATOM     12  F4  UNL d   1      -5.545  -1.031  -0.134  0.00  0.00    -0.092 F 
ENDROOT
TORSDOF 0
ENDMDL
