MODEL 1
REMARK minimizedAffinity 13.6323299
REMARK minimizedRMSD -1
REMARK  0 active torsions:
REMARK  status: ('A' for Active; 'I' for Inactive)
ROOT
ATOM      1  C   UNL d   1      -5.276  -0.686  -0.936  0.00  0.00     0.124 A 
ATOM      2  C1  UNL d   1      -4.614   0.471  -0.549  0.00  0.00     0.062 A 
ATOM      3  C2  UNL d   1      -3.862   0.489   0.622  0.00  0.00     0.162 A 
ATOM      4  C3  UNL d   1      -3.767  -0.655   1.415  0.00  0.00    -0.034 A 
ATOM      5  C4  UNL d   1      -4.437  -1.815   1.020  0.00  0.00     0.162 A 
ATOM      6  C5  UNL d   1      -5.187  -1.828  -0.151  0.00  0.00     0.062 A 
ATOM      7  F   UNL d   1      -5.826  -2.946  -0.523  0.00  0.00    -0.097 F 
ATOM      8  F1  UNL d   1      -4.367  -2.932   1.759  0.00  0.00    -0.096 F 
ATOM      9  I   UNL d   1      -2.644  -0.632   3.167  0.00  0.00    -0.060 I 
ATOM     10  F2  UNL d   1      -3.233   1.621   0.972  0.00  0.00    -0.096 F 
ATOM     11  F3  UNL d   1      -4.699   1.575  -1.305  0.00  0.00    -0.097 F 
ATOM     12  F4  UNL d   1      -5.999  -0.701  -2.063  0.00  0.00    -0.092 F 
ENDROOT
TORSDOF 0
ENDMDL
