MODEL 1
REMARK minimizedAffinity 26.5127201
REMARK minimizedRMSD -1
REMARK  0 active torsions:
REMARK  status: ('A' for Active; 'I' for Inactive)
ROOT
ATOM      1  C   UNL d   1      -1.166  -0.183  -0.758  0.00  0.00     0.124 A 
ATOM      2  C1  UNL d   1      -1.902   0.146   0.372  0.00  0.00     0.062 A 
ATOM      3  C2  UNL d   1      -3.282  -0.034   0.385  0.00  0.00     0.162 A 
ATOM      4  C3  UNL d   1      -3.936  -0.546  -0.735  0.00  0.00    -0.034 A 
ATOM      5  C4  UNL d   1      -3.190  -0.874  -1.869  0.00  0.00     0.162 A 
ATOM      6  C5  UNL d   1      -1.810  -0.693  -1.877  0.00  0.00     0.062 A 
ATOM      7  F   UNL d   1      -1.101  -1.012  -2.969  0.00  0.00    -0.097 F 
ATOM      8  F1  UNL d   1      -3.786  -1.369  -2.963  0.00  0.00    -0.096 F 
ATOM      9  I   UNL d   1      -6.000  -0.816  -0.720  0.00  0.00    -0.060 I 
ATOM     10  F2  UNL d   1      -3.968   0.293   1.490  0.00  0.00    -0.096 F 
ATOM     11  F3  UNL d   1      -1.282   0.639   1.453  0.00  0.00    -0.097 F 
ATOM     12  F4  UNL d   1       0.161  -0.009  -0.769  0.00  0.00    -0.092 F 
ENDROOT
TORSDOF 0
ENDMDL
