MODEL 1
REMARK minimizedAffinity 26.3651829
REMARK minimizedRMSD -1
REMARK  0 active torsions:
REMARK  status: ('A' for Active; 'I' for Inactive)
ROOT
ATOM      1  C   UNL d   1      -4.452  -0.622  -0.002  0.00  0.00     0.124 A 
ATOM      2  C1  UNL d   1      -3.912  -0.718  -1.277  0.00  0.00     0.062 A 
ATOM      3  C2  UNL d   1      -2.585  -0.363  -1.504  0.00  0.00     0.162 A 
ATOM      4  C3  UNL d   1      -1.788   0.091  -0.453  0.00  0.00    -0.034 A 
ATOM      5  C4  UNL d   1      -2.339   0.185   0.827  0.00  0.00     0.162 A 
ATOM      6  C5  UNL d   1      -3.665  -0.171   1.048  0.00  0.00     0.062 A 
ATOM      7  F   UNL d   1      -4.185  -0.078   2.281  0.00  0.00    -0.097 F 
ATOM      8  F1  UNL d   1      -1.601   0.617   1.860  0.00  0.00    -0.096 F 
ATOM      9  I   UNL d   1       0.196   0.623  -0.788  0.00  0.00    -0.060 I 
ATOM     10  F2  UNL d   1      -2.090  -0.465  -2.747  0.00  0.00    -0.096 F 
ATOM     11  F3  UNL d   1      -4.670  -1.153  -2.294  0.00  0.00    -0.097 F 
ATOM     12  F4  UNL d   1      -5.729  -0.964   0.213  0.00  0.00    -0.092 F 
ENDROOT
TORSDOF 0
ENDMDL
