MODEL 1
REMARK minimizedAffinity 32.8264008
REMARK minimizedRMSD -1
REMARK  0 active torsions:
REMARK  status: ('A' for Active; 'I' for Inactive)
ROOT
ATOM      1  C   UNL d   1       0.003  -0.396   3.171  0.00  0.00     0.124 A 
ATOM      2  C1  UNL d   1      -1.050  -1.293   3.063  0.00  0.00     0.062 A 
ATOM      3  C2  UNL d   1      -2.026  -1.113   2.087  0.00  0.00     0.162 A 
ATOM      4  C3  UNL d   1      -1.953  -0.030   1.211  0.00  0.00    -0.034 A 
ATOM      5  C4  UNL d   1      -0.892   0.869   1.326  0.00  0.00     0.162 A 
ATOM      6  C5  UNL d   1       0.081   0.684   2.303  0.00  0.00     0.062 A 
ATOM      7  F   UNL d   1       1.098   1.553   2.406  0.00  0.00    -0.097 F 
ATOM      8  F1  UNL d   1      -0.791   1.921   0.500  0.00  0.00    -0.096 F 
ATOM      9  I   UNL d   1      -3.411   0.243  -0.250  0.00  0.00    -0.060 I 
ATOM     10  F2  UNL d   1      -3.033  -1.996   2.006  0.00  0.00    -0.096 F 
ATOM     11  F3  UNL d   1      -1.128  -2.337   3.901  0.00  0.00    -0.097 F 
ATOM     12  F4  UNL d   1       0.940  -0.571   4.111  0.00  0.00    -0.092 F 
ENDROOT
TORSDOF 0
ENDMDL
