MODEL 1
REMARK minimizedAffinity 30.8980541
REMARK minimizedRMSD -1
REMARK  0 active torsions:
REMARK  status: ('A' for Active; 'I' for Inactive)
ROOT
ATOM      1  C   UNL d   1      -1.196  -4.839  -1.484  0.00  0.00     0.124 A 
ATOM      2  C1  UNL d   1      -1.331  -4.877  -0.103  0.00  0.00     0.062 A 
ATOM      3  C2  UNL d   1      -1.771  -3.752   0.588  0.00  0.00     0.162 A 
ATOM      4  C3  UNL d   1      -2.081  -2.579  -0.100  0.00  0.00    -0.034 A 
ATOM      5  C4  UNL d   1      -1.942  -2.548  -1.489  0.00  0.00     0.162 A 
ATOM      6  C5  UNL d   1      -1.502  -3.676  -2.175  0.00  0.00     0.062 A 
ATOM      7  F   UNL d   1      -1.372  -3.637  -3.510  0.00  0.00    -0.097 F 
ATOM      8  F1  UNL d   1      -2.230  -1.437  -2.183  0.00  0.00    -0.096 F 
ATOM      9  I   UNL d   1      -2.739  -0.894   0.929  0.00  0.00    -0.060 I 
ATOM     10  F2  UNL d   1      -1.892  -3.816   1.923  0.00  0.00    -0.096 F 
ATOM     11  F3  UNL d   1      -1.036  -6.000   0.568  0.00  0.00    -0.097 F 
ATOM     12  F4  UNL d   1      -0.772  -5.923  -2.146  0.00  0.00    -0.092 F 
ENDROOT
TORSDOF 0
ENDMDL
