MODEL 1
REMARK minimizedAffinity 0.338242561
REMARK minimizedRMSD -1
REMARK  0 active torsions:
REMARK  status: ('A' for Active; 'I' for Inactive)
ROOT
ATOM      1  C   UNL d   1       0.135  -0.971   0.864  0.00  0.00     0.124 A 
ATOM      2  C1  UNL d   1       1.433  -0.577   0.572  0.00  0.00     0.062 A 
ATOM      3  C2  UNL d   1       1.674   0.331  -0.455  0.00  0.00     0.162 A 
ATOM      4  C3  UNL d   1       0.614   0.853  -1.197  0.00  0.00    -0.034 A 
ATOM      5  C4  UNL d   1      -0.689   0.450  -0.898  0.00  0.00     0.162 A 
ATOM      6  C5  UNL d   1      -0.924  -0.458   0.130  0.00  0.00     0.062 A 
ATOM      7  F   UNL d   1      -2.179  -0.837   0.411  0.00  0.00    -0.097 F 
ATOM      8  F1  UNL d   1      -1.731   0.932  -1.591  0.00  0.00    -0.096 F 
ATOM      9  I   UNL d   1       0.971   2.211  -2.733  0.00  0.00    -0.060 I 
ATOM     10  F2  UNL d   1       2.939   0.695  -0.716  0.00  0.00    -0.096 F 
ATOM     11  F3  UNL d   1       2.459  -1.073   1.279  0.00  0.00    -0.097 F 
ATOM     12  F4  UNL d   1      -0.094  -1.846   1.852  0.00  0.00    -0.092 F 
ENDROOT
TORSDOF 0
ENDMDL
