MODEL 1
REMARK minimizedAffinity -0.708069384
REMARK minimizedRMSD -1
REMARK  0 active torsions:
REMARK  status: ('A' for Active; 'I' for Inactive)
ROOT
ATOM      1  C   UNL d   1      -1.285  -2.008   1.361  0.00  0.00     0.124 A 
ATOM      2  C1  UNL d   1      -2.036  -1.114   0.610  0.00  0.00     0.062 A 
ATOM      3  C2  UNL d   1      -1.403  -0.168  -0.190  0.00  0.00     0.162 A 
ATOM      4  C3  UNL d   1      -0.010  -0.111  -0.245  0.00  0.00    -0.034 A 
ATOM      5  C4  UNL d   1       0.738  -1.013   0.514  0.00  0.00     0.162 A 
ATOM      6  C5  UNL d   1       0.101  -1.957   1.312  0.00  0.00     0.062 A 
ATOM      7  F   UNL d   1       0.828  -2.820   2.036  0.00  0.00    -0.097 F 
ATOM      8  F1  UNL d   1       2.079  -0.986   0.484  0.00  0.00    -0.096 F 
ATOM      9  I   UNL d   1       0.941   1.303  -1.440  0.00  0.00    -0.060 I 
ATOM     10  F2  UNL d   1      -2.153   0.684  -0.905  0.00  0.00    -0.096 F 
ATOM     11  F3  UNL d   1      -3.375  -1.161   0.656  0.00  0.00    -0.097 F 
ATOM     12  F4  UNL d   1      -1.897  -2.918   2.130  0.00  0.00    -0.092 F 
ENDROOT
TORSDOF 0
ENDMDL
