MODEL 1
REMARK minimizedAffinity 0.240671128
REMARK minimizedRMSD -1
REMARK  0 active torsions:
REMARK  status: ('A' for Active; 'I' for Inactive)
ROOT
ATOM      1  C   UNL d   1       0.097  -1.843   0.762  0.00  0.00     0.124 A 
ATOM      2  C1  UNL d   1       1.118  -0.904   0.704  0.00  0.00     0.062 A 
ATOM      3  C2  UNL d   1       1.018   0.186  -0.156  0.00  0.00     0.162 A 
ATOM      4  C3  UNL d   1      -0.108   0.345  -0.963  0.00  0.00    -0.034 A 
ATOM      5  C4  UNL d   1      -1.130  -0.604  -0.900  0.00  0.00     0.162 A 
ATOM      6  C5  UNL d   1      -1.026  -1.692  -0.039  0.00  0.00     0.062 A 
ATOM      7  F   UNL d   1      -2.013  -2.597   0.016  0.00  0.00    -0.097 F 
ATOM      8  F1  UNL d   1      -2.227  -0.482  -1.662  0.00  0.00    -0.096 F 
ATOM      9  I   UNL d   1      -0.261   1.974  -2.250  0.00  0.00    -0.060 I 
ATOM     10  F2  UNL d   1       2.020   1.077  -0.192  0.00  0.00    -0.096 F 
ATOM     11  F3  UNL d   1       2.204  -1.048   1.476  0.00  0.00    -0.097 F 
ATOM     12  F4  UNL d   1       0.196  -2.891   1.589  0.00  0.00    -0.092 F 
ENDROOT
TORSDOF 0
ENDMDL
