MODEL 1
REMARK minimizedAffinity -4.35168886
REMARK minimizedRMSD -1
REMARK  0 active torsions:
REMARK  status: ('A' for Active; 'I' for Inactive)
ROOT
ATOM      1  C   UNL d   1      -1.883  -1.696   1.371  0.00  0.00     0.124 A 
ATOM      2  C1  UNL d   1      -1.875  -0.312   1.477  0.00  0.00     0.062 A 
ATOM      3  C2  UNL d   1      -1.040   0.448   0.663  0.00  0.00     0.162 A 
ATOM      4  C3  UNL d   1      -0.205  -0.175  -0.265  0.00  0.00    -0.034 A 
ATOM      5  C4  UNL d   1      -0.217  -1.568  -0.365  0.00  0.00     0.162 A 
ATOM      6  C5  UNL d   1      -1.055  -2.322   0.451  0.00  0.00     0.062 A 
ATOM      7  F   UNL d   1      -1.061  -3.659   0.347  0.00  0.00    -0.097 F 
ATOM      8  F1  UNL d   1       0.572  -2.199  -1.246  0.00  0.00    -0.096 F 
ATOM      9  I   UNL d   1       1.046   0.957  -1.483  0.00  0.00    -0.060 I 
ATOM     10  F2  UNL d   1      -1.053   1.783   0.787  0.00  0.00    -0.096 F 
ATOM     11  F3  UNL d   1      -2.674   0.296   2.366  0.00  0.00    -0.097 F 
ATOM     12  F4  UNL d   1      -2.688  -2.424   2.156  0.00  0.00    -0.092 F 
ENDROOT
TORSDOF 0
ENDMDL
