MODEL 1
REMARK minimizedAffinity 1.2310133
REMARK minimizedRMSD -1
REMARK  0 active torsions:
REMARK  status: ('A' for Active; 'I' for Inactive)
ROOT
ATOM      1  C   UNL d   1      -1.333  -1.374   1.181  0.00  0.00     0.124 A 
ATOM      2  C1  UNL d   1      -0.302  -1.954   0.455  0.00  0.00     0.062 A 
ATOM      3  C2  UNL d   1       0.548  -1.160  -0.311  0.00  0.00     0.162 A 
ATOM      4  C3  UNL d   1       0.370   0.223  -0.353  0.00  0.00    -0.034 A 
ATOM      5  C4  UNL d   1      -0.669   0.799   0.379  0.00  0.00     0.162 A 
ATOM      6  C5  UNL d   1      -1.516   0.001   1.143  0.00  0.00     0.062 A 
ATOM      7  F   UNL d   1      -2.511   0.563   1.843  0.00  0.00    -0.097 F 
ATOM      8  F1  UNL d   1      -0.868   2.125   0.361  0.00  0.00    -0.096 F 
ATOM      9  I   UNL d   1       1.639   1.413  -1.496  0.00  0.00    -0.060 I 
ATOM     10  F2  UNL d   1       1.536  -1.747  -1.002  0.00  0.00    -0.096 F 
ATOM     11  F3  UNL d   1      -0.124  -3.282   0.489  0.00  0.00    -0.097 F 
ATOM     12  F4  UNL d   1      -2.150  -2.140   1.915  0.00  0.00    -0.092 F 
ENDROOT
TORSDOF 0
ENDMDL
