MODEL 1
REMARK minimizedAffinity 0.459918618
REMARK minimizedRMSD -1
REMARK  0 active torsions:
REMARK  status: ('A' for Active; 'I' for Inactive)
ROOT
ATOM      1  C   UNL d   1      -0.619  -2.748   2.613  0.00  0.00     0.124 A 
ATOM      2  C1  UNL d   1      -1.296  -2.681   1.403  0.00  0.00     0.062 A 
ATOM      3  C2  UNL d   1      -0.926  -1.740   0.446  0.00  0.00     0.162 A 
ATOM      4  C3  UNL d   1       0.126  -0.858   0.695  0.00  0.00    -0.034 A 
ATOM      5  C4  UNL d   1       0.801  -0.931   1.916  0.00  0.00     0.162 A 
ATOM      6  C5  UNL d   1       0.427  -1.874   2.868  0.00  0.00     0.062 A 
ATOM      7  F   UNL d   1       1.082  -1.937   4.037  0.00  0.00    -0.097 F 
ATOM      8  F1  UNL d   1       1.817  -0.099   2.188  0.00  0.00    -0.096 F 
ATOM      9  I   UNL d   1       0.681   0.550  -0.733  0.00  0.00    -0.060 I 
ATOM     10  F2  UNL d   1      -1.597  -1.697  -0.714  0.00  0.00    -0.096 F 
ATOM     11  F3  UNL d   1      -2.308  -3.524   1.155  0.00  0.00    -0.097 F 
ATOM     12  F4  UNL d   1      -0.978  -3.654   3.533  0.00  0.00    -0.092 F 
ENDROOT
TORSDOF 0
ENDMDL
