MODEL 1
REMARK minimizedAffinity 0.577833116
REMARK minimizedRMSD -1
REMARK  0 active torsions:
REMARK  status: ('A' for Active; 'I' for Inactive)
ROOT
ATOM      1  C   UNL d   1       0.404   1.900  -1.967  0.00  0.00     0.124 A 
ATOM      2  C1  UNL d   1      -0.483   2.023  -0.907  0.00  0.00     0.062 A 
ATOM      3  C2  UNL d   1      -0.682   0.957  -0.033  0.00  0.00     0.162 A 
ATOM      4  C3  UNL d   1       0.008  -0.241  -0.216  0.00  0.00    -0.034 A 
ATOM      5  C4  UNL d   1       0.897  -0.358  -1.286  0.00  0.00     0.162 A 
ATOM      6  C5  UNL d   1       1.093   0.710  -2.156  0.00  0.00     0.062 A 
ATOM      7  F   UNL d   1       1.950   0.589  -3.180  0.00  0.00    -0.097 F 
ATOM      8  F1  UNL d   1       1.577  -1.496  -1.491  0.00  0.00    -0.096 F 
ATOM      9  I   UNL d   1      -0.287  -1.837   1.087  0.00  0.00    -0.060 I 
ATOM     10  F2  UNL d   1      -1.545   1.104   0.983  0.00  0.00    -0.096 F 
ATOM     11  F3  UNL d   1      -1.151   3.171  -0.723  0.00  0.00    -0.097 F 
ATOM     12  F4  UNL d   1       0.593   2.926  -2.806  0.00  0.00    -0.092 F 
ENDROOT
TORSDOF 0
ENDMDL
