MODEL 1
REMARK minimizedAffinity 1.2486068
REMARK minimizedRMSD -1
REMARK  0 active torsions:
REMARK  status: ('A' for Active; 'I' for Inactive)
ROOT
ATOM      1  C   UNL d   1      -2.096  -0.970   0.833  0.00  0.00     0.124 A 
ATOM      2  C1  UNL d   1      -1.157  -1.624   0.048  0.00  0.00     0.062 A 
ATOM      3  C2  UNL d   1      -0.096  -0.917  -0.511  0.00  0.00     0.162 A 
ATOM      4  C3  UNL d   1       0.031   0.454  -0.286  0.00  0.00    -0.034 A 
ATOM      5  C4  UNL d   1      -0.918   1.106   0.504  0.00  0.00     0.162 A 
ATOM      6  C5  UNL d   1      -1.976   0.394   1.060  0.00  0.00     0.062 A 
ATOM      7  F   UNL d   1      -2.883   1.028   1.817  0.00  0.00    -0.097 F 
ATOM      8  F1  UNL d   1      -0.826   2.423   0.740  0.00  0.00    -0.096 F 
ATOM      9  I   UNL d   1       1.615   1.516  -1.119  0.00  0.00    -0.060 I 
ATOM     10  F2  UNL d   1       0.797  -1.575  -1.265  0.00  0.00    -0.096 F 
ATOM     11  F3  UNL d   1      -1.271  -2.942  -0.174  0.00  0.00    -0.097 F 
ATOM     12  F4  UNL d   1      -3.116  -1.653   1.368  0.00  0.00    -0.092 F 
ENDROOT
TORSDOF 0
ENDMDL
