MODEL 1
REMARK minimizedAffinity -0.278722227
REMARK minimizedRMSD -1
REMARK  0 active torsions:
REMARK  status: ('A' for Active; 'I' for Inactive)
ROOT
ATOM      1  C   UNL d   1      -1.611  -0.843   0.635  0.00  0.00     0.124 A 
ATOM      2  C1  UNL d   1      -0.796  -1.398  -0.342  0.00  0.00     0.062 A 
ATOM      3  C2  UNL d   1       0.156  -0.615  -0.988  0.00  0.00     0.162 A 
ATOM      4  C3  UNL d   1       0.297   0.734  -0.661  0.00  0.00    -0.034 A 
ATOM      5  C4  UNL d   1      -0.527   1.286   0.321  0.00  0.00     0.162 A 
ATOM      6  C5  UNL d   1      -1.476   0.498   0.965  0.00  0.00     0.062 A 
ATOM      7  F   UNL d   1      -2.263   1.037   1.908  0.00  0.00    -0.097 F 
ATOM      8  F1  UNL d   1      -0.417   2.579   0.661  0.00  0.00    -0.096 F 
ATOM      9  I   UNL d   1       1.718   1.909  -1.626  0.00  0.00    -0.060 I 
ATOM     10  F2  UNL d   1       0.930  -1.178  -1.928  0.00  0.00    -0.096 F 
ATOM     11  F3  UNL d   1      -0.925  -2.694  -0.663  0.00  0.00    -0.097 F 
ATOM     12  F4  UNL d   1      -2.526  -1.599   1.255  0.00  0.00    -0.092 F 
ENDROOT
TORSDOF 0
ENDMDL
