MODEL 1
REMARK minimizedAffinity -3.57805848
REMARK minimizedRMSD -1
REMARK  0 active torsions:
REMARK  status: ('A' for Active; 'I' for Inactive)
ROOT
ATOM      1  C   UNL d   1      -1.878  -1.608   1.087  0.00  0.00     0.124 A 
ATOM      2  C1  UNL d   1      -1.804  -0.243   1.328  0.00  0.00     0.062 A 
ATOM      3  C2  UNL d   1      -0.843   0.531   0.683  0.00  0.00     0.162 A 
ATOM      4  C3  UNL d   1       0.052  -0.059  -0.210  0.00  0.00    -0.034 A 
ATOM      5  C4  UNL d   1      -0.029  -1.432  -0.447  0.00  0.00     0.162 A 
ATOM      6  C5  UNL d   1      -0.991  -2.201   0.200  0.00  0.00     0.062 A 
ATOM      7  F   UNL d   1      -1.061  -3.519  -0.035  0.00  0.00    -0.097 F 
ATOM      8  F1  UNL d   1       0.816  -2.031  -1.300  0.00  0.00    -0.096 F 
ATOM      9  I   UNL d   1       1.490   1.095  -1.176  0.00  0.00    -0.060 I 
ATOM     10  F2  UNL d   1      -0.794   1.847   0.936  0.00  0.00    -0.096 F 
ATOM     11  F3  UNL d   1      -2.659   0.332   2.185  0.00  0.00    -0.097 F 
ATOM     12  F4  UNL d   1      -2.803  -2.350   1.709  0.00  0.00    -0.092 F 
ENDROOT
TORSDOF 0
ENDMDL
