MODEL 1
REMARK minimizedAffinity 2.51479411
REMARK minimizedRMSD -1
REMARK  0 active torsions:
REMARK  status: ('A' for Active; 'I' for Inactive)
ROOT
ATOM      1  C   UNL d   1      -2.227  -0.354   0.696  0.00  0.00     0.124 A 
ATOM      2  C1  UNL d   1      -1.088   0.426   0.555  0.00  0.00     0.062 A 
ATOM      3  C2  UNL d   1       0.156  -0.175   0.388  0.00  0.00     0.162 A 
ATOM      4  C3  UNL d   1       0.268  -1.565   0.359  0.00  0.00    -0.034 A 
ATOM      5  C4  UNL d   1      -0.883  -2.343   0.502  0.00  0.00     0.162 A 
ATOM      6  C5  UNL d   1      -2.124  -1.738   0.669  0.00  0.00     0.062 A 
ATOM      7  F   UNL d   1      -3.223  -2.493   0.804  0.00  0.00    -0.097 F 
ATOM      8  F1  UNL d   1      -0.811  -3.682   0.478  0.00  0.00    -0.096 F 
ATOM      9  I   UNL d   1       2.126  -2.468   0.108  0.00  0.00    -0.060 I 
ATOM     10  F2  UNL d   1       1.240   0.604   0.255  0.00  0.00    -0.096 F 
ATOM     11  F3  UNL d   1      -1.186   1.763   0.582  0.00  0.00    -0.097 F 
ATOM     12  F4  UNL d   1      -3.423   0.227   0.858  0.00  0.00    -0.092 F 
ENDROOT
TORSDOF 0
ENDMDL
