MODEL 1
REMARK minimizedAffinity -0.305659711
REMARK minimizedRMSD -1
REMARK  0 active torsions:
REMARK  status: ('A' for Active; 'I' for Inactive)
ROOT
ATOM      1  C   UNL d   1       0.126   1.811   0.531  0.00  0.00     0.124 A 
ATOM      2  C1  UNL d   1      -1.191   1.584   0.905  0.00  0.00     0.062 A 
ATOM      3  C2  UNL d   1      -1.678   0.283   0.995  0.00  0.00     0.162 A 
ATOM      4  C3  UNL d   1      -0.848  -0.801   0.710  0.00  0.00    -0.034 A 
ATOM      5  C4  UNL d   1       0.476  -0.564   0.333  0.00  0.00     0.162 A 
ATOM      6  C5  UNL d   1       0.958   0.738   0.245  0.00  0.00     0.062 A 
ATOM      7  F   UNL d   1       2.231   0.956  -0.117  0.00  0.00    -0.097 F 
ATOM      8  F1  UNL d   1       1.301  -1.583   0.052  0.00  0.00    -0.096 F 
ATOM      9  I   UNL d   1      -1.573  -2.747   0.842  0.00  0.00    -0.060 I 
ATOM     10  F2  UNL d   1      -2.955   0.092   1.359  0.00  0.00    -0.096 F 
ATOM     11  F3  UNL d   1      -1.996   2.619   1.181  0.00  0.00    -0.097 F 
ATOM     12  F4  UNL d   1       0.592   3.064   0.444  0.00  0.00    -0.092 F 
ENDROOT
TORSDOF 0
ENDMDL
