MODEL 1
REMARK minimizedAffinity -2.85235167
REMARK minimizedRMSD -1
REMARK  0 active torsions:
REMARK  status: ('A' for Active; 'I' for Inactive)
ROOT
ATOM      1  C   UNL d   1      -1.499  -1.572   0.884  0.00  0.00     0.124 A 
ATOM      2  C1  UNL d   1      -1.789  -0.222   0.742  0.00  0.00     0.062 A 
ATOM      3  C2  UNL d   1      -0.837   0.647   0.216  0.00  0.00     0.162 A 
ATOM      4  C3  UNL d   1       0.414   0.168  -0.174  0.00  0.00    -0.034 A 
ATOM      5  C4  UNL d   1       0.699  -1.190  -0.027  0.00  0.00     0.162 A 
ATOM      6  C5  UNL d   1      -0.256  -2.055   0.499  0.00  0.00     0.062 A 
ATOM      7  F   UNL d   1       0.026  -3.359   0.636  0.00  0.00    -0.097 F 
ATOM      8  F1  UNL d   1       1.891  -1.684  -0.391  0.00  0.00    -0.096 F 
ATOM      9  I   UNL d   1       1.840   1.464  -0.961  0.00  0.00    -0.060 I 
ATOM     10  F2  UNL d   1      -1.144   1.947   0.090  0.00  0.00    -0.096 F 
ATOM     11  F3  UNL d   1      -2.988   0.248   1.113  0.00  0.00    -0.097 F 
ATOM     12  F4  UNL d   1      -2.416  -2.405   1.391  0.00  0.00    -0.092 F 
ENDROOT
TORSDOF 0
ENDMDL
