MODEL 1
REMARK minimizedAffinity -3.47070241
REMARK minimizedRMSD -1
REMARK  0 active torsions:
REMARK  status: ('A' for Active; 'I' for Inactive)
ROOT
ATOM      1  C   UNL d   1      -2.358  -1.370   1.314  0.00  0.00     0.124 A 
ATOM      2  C1  UNL d   1      -1.402  -2.036   0.561  0.00  0.00     0.062 A 
ATOM      3  C2  UNL d   1      -0.357  -1.329  -0.027  0.00  0.00     0.162 A 
ATOM      4  C3  UNL d   1      -0.262   0.052   0.137  0.00  0.00    -0.034 A 
ATOM      5  C4  UNL d   1      -1.228   0.716   0.896  0.00  0.00     0.162 A 
ATOM      6  C5  UNL d   1      -2.270   0.005   1.481  0.00  0.00     0.062 A 
ATOM      7  F   UNL d   1      -3.193   0.650   2.209  0.00  0.00    -0.097 F 
ATOM      8  F1  UNL d   1      -1.166   2.044   1.074  0.00  0.00    -0.096 F 
ATOM      9  I   UNL d   1       1.299   1.113  -0.740  0.00  0.00    -0.060 I 
ATOM     10  F2  UNL d   1       0.553  -1.999  -0.751  0.00  0.00    -0.096 F 
ATOM     11  F3  UNL d   1      -1.485  -3.364   0.397  0.00  0.00    -0.097 F 
ATOM     12  F4  UNL d   1      -3.363  -2.052   1.878  0.00  0.00    -0.092 F 
ENDROOT
TORSDOF 0
ENDMDL
