MODEL 1
REMARK minimizedAffinity -3.37804317
REMARK minimizedRMSD -1
REMARK  0 active torsions:
REMARK  status: ('A' for Active; 'I' for Inactive)
ROOT
ATOM      1  C   UNL d   1       0.648   0.605   0.256  0.00  0.00     0.124 A 
ATOM      2  C1  UNL d   1       1.009  -0.716   0.481  0.00  0.00     0.062 A 
ATOM      3  C2  UNL d   1       0.052  -1.646   0.879  0.00  0.00     0.162 A 
ATOM      4  C3  UNL d   1      -1.276  -1.257   1.053  0.00  0.00    -0.034 A 
ATOM      5  C4  UNL d   1      -1.632   0.073   0.826  0.00  0.00     0.162 A 
ATOM      6  C5  UNL d   1      -0.672   0.998   0.429  0.00  0.00     0.062 A 
ATOM      7  F   UNL d   1      -1.023   2.274   0.212  0.00  0.00    -0.097 F 
ATOM      8  F1  UNL d   1      -2.900   0.481   0.984  0.00  0.00    -0.096 F 
ATOM      9  I   UNL d   1      -2.710  -2.644   1.647  0.00  0.00    -0.060 I 
ATOM     10  F2  UNL d   1       0.429  -2.915   1.089  0.00  0.00    -0.096 F 
ATOM     11  F3  UNL d   1       2.283  -1.099   0.316  0.00  0.00    -0.097 F 
ATOM     12  F4  UNL d   1       1.571   1.497  -0.125  0.00  0.00    -0.092 F 
ENDROOT
TORSDOF 0
ENDMDL
