MODEL 1
REMARK minimizedAffinity -3.52601743
REMARK minimizedRMSD -1
REMARK  0 active torsions:
REMARK  status: ('A' for Active; 'I' for Inactive)
ROOT
ATOM      1  C   UNL d   1      -1.447  -1.286   1.377  0.00  0.00     0.124 A 
ATOM      2  C1  UNL d   1      -0.265  -1.767   0.830  0.00  0.00     0.062 A 
ATOM      3  C2  UNL d   1       0.601  -0.904   0.166  0.00  0.00     0.162 A 
ATOM      4  C3  UNL d   1       0.289   0.451   0.045  0.00  0.00    -0.034 A 
ATOM      5  C4  UNL d   1      -0.902   0.927   0.596  0.00  0.00     0.162 A 
ATOM      6  C5  UNL d   1      -1.764   0.060   1.260  0.00  0.00     0.062 A 
ATOM      7  F   UNL d   1      -2.905   0.526   1.788  0.00  0.00    -0.097 F 
ATOM      8  F1  UNL d   1      -1.233   2.223   0.498  0.00  0.00    -0.096 F 
ATOM      9  I   UNL d   1       1.581   1.745  -0.949  0.00  0.00    -0.060 I 
ATOM     10  F2  UNL d   1       1.735  -1.396  -0.353  0.00  0.00    -0.096 F 
ATOM     11  F3  UNL d   1       0.043  -3.067   0.942  0.00  0.00    -0.097 F 
ATOM     12  F4  UNL d   1      -2.279  -2.120   2.016  0.00  0.00    -0.092 F 
ENDROOT
TORSDOF 0
ENDMDL
