MODEL 1
REMARK minimizedAffinity -5.07792568
REMARK minimizedRMSD -1
REMARK  0 active torsions:
REMARK  status: ('A' for Active; 'I' for Inactive)
ROOT
ATOM      1  C   UNL d   1       3.005  -1.532   1.138  0.00  0.00     0.020 A 
ATOM      2  C1  UNL d   1       2.367  -1.500   2.378  0.00  0.00     0.020 A 
ATOM      3  C2  UNL d   1       1.085  -0.958   2.489  0.00  0.00     0.034 A 
ATOM      4  C3  UNL d   1       0.436  -0.446   1.360  0.00  0.00     0.017 A 
ATOM      5  C4  UNL d   1       1.077  -0.480   0.116  0.00  0.00     0.017 A 
ATOM      6  C5  UNL d   1       2.361  -1.024   0.010  0.00  0.00     0.034 A 
ATOM      7 Cl   UNL d   1       0.340   0.132  -1.323  0.00  0.00    -0.070 Cl
ATOM      8 Cl1  UNL d   1      -1.149   0.209   1.571  0.00  0.00    -0.070 Cl
ENDROOT
TORSDOF 0
ENDMDL
