MODEL 1
REMARK minimizedAffinity -3.76440454
REMARK minimizedRMSD -1
REMARK  0 active torsions:
REMARK  status: ('A' for Active; 'I' for Inactive)
ROOT
ATOM      1  C   UNL d   1      -1.027   0.386  -0.199  0.00  0.00     0.020 A 
ATOM      2  C1  UNL d   1      -0.423   0.027  -1.404  0.00  0.00     0.020 A 
ATOM      3  C2  UNL d   1       0.870  -0.500  -1.406  0.00  0.00     0.034 A 
ATOM      4  C3  UNL d   1       1.564  -0.669  -0.203  0.00  0.00     0.017 A 
ATOM      5  C4  UNL d   1       0.956  -0.309   1.006  0.00  0.00     0.017 A 
ATOM      6  C5  UNL d   1      -0.339   0.218   1.003  0.00  0.00     0.034 A 
ATOM      7 Cl   UNL d   1       1.749  -0.489   2.531  0.00  0.00    -0.070 Cl
ATOM      8 Cl1  UNL d   1       3.160  -1.327  -0.280  0.00  0.00    -0.070 Cl
ENDROOT
TORSDOF 0
ENDMDL
