MODEL 1
REMARK minimizedAffinity -1.5193572
REMARK minimizedRMSD -1
REMARK  0 active torsions:
REMARK  status: ('A' for Active; 'I' for Inactive)
ROOT
ATOM      1  C   UNL d   1      -1.385   0.809  -0.332  0.00  0.00     0.020 A 
ATOM      2  C1  UNL d   1      -0.841   0.383  -1.543  0.00  0.00     0.020 A 
ATOM      3  C2  UNL d   1       0.457  -0.129  -1.583  0.00  0.00     0.034 A 
ATOM      4  C3  UNL d   1       1.216  -0.218  -0.410  0.00  0.00     0.017 A 
ATOM      5  C4  UNL d   1       0.669   0.210   0.805  0.00  0.00     0.017 A 
ATOM      6  C5  UNL d   1      -0.632   0.722   0.839  0.00  0.00     0.034 A 
ATOM      7 Cl   UNL d   1       1.543   0.132   2.294  0.00  0.00    -0.070 Cl
ATOM      8 Cl1  UNL d   1       2.814  -0.862  -0.534  0.00  0.00    -0.070 Cl
ENDROOT
TORSDOF 0
ENDMDL
