MODEL 1
REMARK minimizedAffinity -2.94679666
REMARK minimizedRMSD -1
REMARK  0 active torsions:
REMARK  status: ('A' for Active; 'I' for Inactive)
ROOT
ATOM      1  C   UNL d   1      -0.635  -0.181  -1.421  0.00  0.00     0.020 A 
ATOM      2  C1  UNL d   1      -1.345  -0.139  -0.221  0.00  0.00     0.020 A 
ATOM      3  C2  UNL d   1      -0.668  -0.257   0.995  0.00  0.00     0.034 A 
ATOM      4  C3  UNL d   1       0.722  -0.418   1.014  0.00  0.00     0.017 A 
ATOM      5  C4  UNL d   1       1.433  -0.460  -0.190  0.00  0.00     0.017 A 
ATOM      6  C5  UNL d   1       0.751  -0.341  -1.405  0.00  0.00     0.034 A 
ATOM      7 Cl   UNL d   1       3.150  -0.656  -0.246  0.00  0.00    -0.070 Cl
ATOM      8 Cl1  UNL d   1       1.493  -0.558   2.554  0.00  0.00    -0.070 Cl
ENDROOT
TORSDOF 0
ENDMDL
