MODEL 1
REMARK minimizedAffinity -0.823176324
REMARK minimizedRMSD -1
REMARK  0 active torsions:
REMARK  status: ('A' for Active; 'I' for Inactive)
ROOT
ATOM      1  C   UNL d   1       0.101  -0.557  -1.991  0.00  0.00     0.020 A 
ATOM      2  C1  UNL d   1       1.441  -0.799  -1.688  0.00  0.00     0.020 A 
ATOM      3  C2  UNL d   1       1.875  -0.759  -0.362  0.00  0.00     0.034 A 
ATOM      4  C3  UNL d   1       0.969  -0.477   0.667  0.00  0.00     0.017 A 
ATOM      5  C4  UNL d   1      -0.375  -0.234   0.362  0.00  0.00     0.017 A 
ATOM      6  C5  UNL d   1      -0.805  -0.276  -0.968  0.00  0.00     0.034 A 
ATOM      7 Cl   UNL d   1      -1.552   0.120   1.578  0.00  0.00    -0.070 Cl
ATOM      8 Cl1  UNL d   1       1.575  -0.444   2.285  0.00  0.00    -0.070 Cl
ENDROOT
TORSDOF 0
ENDMDL
