MODEL 1
REMARK minimizedAffinity -3.48517799
REMARK minimizedRMSD -1
REMARK  0 active torsions:
REMARK  status: ('A' for Active; 'I' for Inactive)
ROOT
ATOM      1  C   UNL d   1      -0.832  -0.051  -0.977  0.00  0.00     0.020 A 
ATOM      2  C1  UNL d   1       0.266   0.803  -0.887  0.00  0.00     0.020 A 
ATOM      3  C2  UNL d   1       1.058   0.803   0.263  0.00  0.00     0.034 A 
ATOM      4  C3  UNL d   1       0.754  -0.053   1.327  0.00  0.00     0.017 A 
ATOM      5  C4  UNL d   1      -0.349  -0.910   1.236  0.00  0.00     0.017 A 
ATOM      6  C5  UNL d   1      -1.139  -0.906   0.082  0.00  0.00     0.034 A 
ATOM      7 Cl   UNL d   1      -0.787  -1.995   2.508  0.00  0.00    -0.070 Cl
ATOM      8 Cl1  UNL d   1       1.777  -0.001   2.718  0.00  0.00    -0.070 Cl
ENDROOT
TORSDOF 0
ENDMDL
