MODEL 1
REMARK minimizedAffinity -2.87734532
REMARK minimizedRMSD -1
REMARK  0 active torsions:
REMARK  status: ('A' for Active; 'I' for Inactive)
ROOT
ATOM      1  C   UNL d   1       2.069  -0.721   1.620  0.00  0.00     0.020 A 
ATOM      2  C1  UNL d   1       1.208  -0.912   2.700  0.00  0.00     0.020 A 
ATOM      3  C2  UNL d   1      -0.172  -0.795   2.522  0.00  0.00     0.034 A 
ATOM      4  C3  UNL d   1      -0.696  -0.486   1.261  0.00  0.00     0.017 A 
ATOM      5  C4  UNL d   1       0.169  -0.295   0.178  0.00  0.00     0.017 A 
ATOM      6  C5  UNL d   1       1.550  -0.413   0.361  0.00  0.00     0.034 A 
ATOM      7 Cl   UNL d   1      -0.402   0.089  -1.408  0.00  0.00    -0.070 Cl
ATOM      8 Cl1  UNL d   1      -2.412  -0.357   1.114  0.00  0.00    -0.070 Cl
ENDROOT
TORSDOF 0
ENDMDL
