MODEL 1
REMARK minimizedAffinity -2.27576113
REMARK minimizedRMSD -1
REMARK  0 active torsions:
REMARK  status: ('A' for Active; 'I' for Inactive)
ROOT
ATOM      1  C   UNL d   1      -1.635  -0.828   0.108  0.00  0.00     0.020 A 
ATOM      2  C1  UNL d   1      -0.863  -0.278  -0.914  0.00  0.00     0.020 A 
ATOM      3  C2  UNL d   1       0.485   0.012  -0.692  0.00  0.00     0.034 A 
ATOM      4  C3  UNL d   1       1.065  -0.249   0.554  0.00  0.00     0.017 A 
ATOM      5  C4  UNL d   1       0.290  -0.801   1.580  0.00  0.00     0.017 A 
ATOM      6  C5  UNL d   1      -1.059  -1.089   1.353  0.00  0.00     0.034 A 
ATOM      7 Cl   UNL d   1       0.935  -1.150   3.145  0.00  0.00    -0.070 Cl
ATOM      8 Cl1  UNL d   1       2.738   0.135   0.758  0.00  0.00    -0.070 Cl
ENDROOT
TORSDOF 0
ENDMDL
