MODEL 1
REMARK minimizedAffinity -3.45578814
REMARK minimizedRMSD -1
REMARK  0 active torsions:
REMARK  status: ('A' for Active; 'I' for Inactive)
ROOT
ATOM      1  C   UNL d   1       1.046  -0.779   2.549  0.00  0.00     0.020 A 
ATOM      2  C1  UNL d   1       1.927  -0.608   1.482  0.00  0.00     0.020 A 
ATOM      3  C2  UNL d   1       1.432  -0.329   0.206  0.00  0.00     0.034 A 
ATOM      4  C3  UNL d   1       0.052  -0.219  -0.005  0.00  0.00     0.017 A 
ATOM      5  C4  UNL d   1      -0.831  -0.391   1.067  0.00  0.00     0.017 A 
ATOM      6  C5  UNL d   1      -0.329  -0.671   2.342  0.00  0.00     0.034 A 
ATOM      7 Cl   UNL d   1      -2.545  -0.271   0.884  0.00  0.00    -0.070 Cl
ATOM      8 Cl1  UNL d   1      -0.490   0.128  -1.608  0.00  0.00    -0.070 Cl
ENDROOT
TORSDOF 0
ENDMDL
