MODEL 1
REMARK minimizedAffinity -4.58199406
REMARK minimizedRMSD -1
REMARK  0 active torsions:
REMARK  status: ('A' for Active; 'I' for Inactive)
ROOT
ATOM      1  C   UNL d   1       2.314  -0.764   1.181  0.00  0.00     0.020 A 
ATOM      2  C1  UNL d   1       1.615  -0.872   2.382  0.00  0.00     0.020 A 
ATOM      3  C2  UNL d   1       0.250  -0.580   2.424  0.00  0.00     0.034 A 
ATOM      4  C3  UNL d   1      -0.420  -0.177   1.263  0.00  0.00     0.017 A 
ATOM      5  C4  UNL d   1       0.283  -0.068   0.058  0.00  0.00     0.017 A 
ATOM      6  C5  UNL d   1       1.650  -0.362   0.021  0.00  0.00     0.034 A 
ATOM      7 Cl   UNL d   1      -0.474   0.423  -1.416  0.00  0.00    -0.070 Cl
ATOM      8 Cl1  UNL d   1      -2.108   0.169   1.388  0.00  0.00    -0.070 Cl
ENDROOT
TORSDOF 0
ENDMDL
