MODEL 1
REMARK minimizedAffinity -5.62140083
REMARK minimizedRMSD -1
REMARK  0 active torsions:
REMARK  status: ('A' for Active; 'I' for Inactive)
ROOT
ATOM      1  C   UNL d   1       1.016  -0.779   3.069  0.00  0.00     0.020 A 
ATOM      2  C1  UNL d   1       1.881  -0.009   2.293  0.00  0.00     0.020 A 
ATOM      3  C2  UNL d   1       1.455   0.493   1.061  0.00  0.00     0.034 A 
ATOM      4  C3  UNL d   1       0.160   0.225   0.602  0.00  0.00     0.017 A 
ATOM      5  C4  UNL d   1      -0.708  -0.548   1.382  0.00  0.00     0.017 A 
ATOM      6  C5  UNL d   1      -0.276  -1.048   2.614  0.00  0.00     0.034 A 
ATOM      7 Cl   UNL d   1      -2.320  -0.920   0.882  0.00  0.00    -0.070 Cl
ATOM      8 Cl1  UNL d   1      -0.300   0.878  -0.930  0.00  0.00    -0.070 Cl
ENDROOT
TORSDOF 0
ENDMDL
