MODEL 1
REMARK minimizedAffinity 8.59178448
REMARK minimizedRMSD -1
REMARK  1 active torsions:
REMARK  status: ('A' for Active; 'I' for Inactive)
REMARK    1  A    between atoms: C1_2  and  C2_3 
ROOT
ATOM      1  C2  UNL d   1       0.347   5.585  -3.394  0.00  0.00    -0.076 A 
ATOM      2  C3  UNL d   1       1.726   5.487  -3.650  0.00  0.00     0.004 A 
ATOM      3  C4  UNL d   1       2.228   5.631  -4.942  0.00  0.00    -0.003 A 
ATOM      4  C5  UNL d   1       1.360   5.877  -6.000  0.00  0.00     0.000 A 
ATOM      5  C6  UNL d   1      -0.009   5.995  -5.762  0.00  0.00     0.000 A 
ATOM      6  C7  UNL d   1      -0.530   5.868  -4.463  0.00  0.00    -0.073 A 
ATOM      7  C8  UNL d   1      -2.015   5.999  -4.265  0.00  0.00     0.078 C 
ENDROOT
BRANCH   1   8
ATOM      8  C1  UNL d   1      -0.142   5.393  -1.977  0.00  0.00     0.053 C 
ATOM      9  C   UNL d   1       0.674   4.360  -1.214  0.00  0.00     0.018 C 
ENDBRANCH   1   8
TORSDOF 1
ENDMDL
