MODEL 1
REMARK minimizedAffinity 0.58688277
REMARK minimizedRMSD -1
REMARK  1 active torsions:
REMARK  status: ('A' for Active; 'I' for Inactive)
REMARK    1  A    between atoms: C1_2  and  C2_3 
ROOT
ATOM      1  C2  UNL d   1      -1.291   5.992  -3.282  0.00  0.00    -0.076 A 
ATOM      2  C3  UNL d   1       0.110   5.999  -3.399  0.00  0.00     0.004 A 
ATOM      3  C4  UNL d   1       0.726   5.978  -4.649  0.00  0.00    -0.003 A 
ATOM      4  C5  UNL d   1      -0.049   5.949  -5.803  0.00  0.00     0.000 A 
ATOM      5  C6  UNL d   1      -1.440   5.959  -5.706  0.00  0.00     0.000 A 
ATOM      6  C7  UNL d   1      -2.077   5.997  -4.454  0.00  0.00    -0.073 A 
ATOM      7  C8  UNL d   1      -3.580   6.000  -4.408  0.00  0.00     0.078 C 
ENDROOT
BRANCH   1   8
ATOM      8  C1  UNL d   1      -1.902   5.988  -1.899  0.00  0.00     0.053 C 
ATOM      9  C   UNL d   1      -3.422   5.997  -1.934  0.00  0.00     0.018 C 
ENDBRANCH   1   8
TORSDOF 1
ENDMDL
