MODEL 1
REMARK minimizedAffinity 6.85885525
REMARK minimizedRMSD -1
REMARK  1 active torsions:
REMARK  status: ('A' for Active; 'I' for Inactive)
REMARK    1  A    between atoms: C1_2  and  C2_3 
ROOT
ATOM      1  C2  UNL d   1      -1.640  -0.082  -0.997  0.00  0.00    -0.076 A 
ATOM      2  C3  UNL d   1      -2.866  -0.746  -1.174  0.00  0.00     0.004 A 
ATOM      3  C4  UNL d   1      -3.150  -1.424  -2.358  0.00  0.00    -0.003 A 
ATOM      4  C5  UNL d   1      -2.212  -1.451  -3.384  0.00  0.00     0.000 A 
ATOM      5  C6  UNL d   1      -0.983  -0.813  -3.219  0.00  0.00     0.000 A 
ATOM      6  C7  UNL d   1      -0.674  -0.138  -2.025  0.00  0.00    -0.073 A 
ATOM      7  C8  UNL d   1       0.664   0.537  -1.904  0.00  0.00     0.078 C 
ENDROOT
BRANCH   1   8
ATOM      8  C1  UNL d   1      -1.398   0.660   0.298  0.00  0.00     0.053 C 
ATOM      9  C   UNL d   1      -0.120   0.217   0.993  0.00  0.00     0.018 C 
ENDBRANCH   1   8
TORSDOF 1
ENDMDL
