MODEL 1
REMARK minimizedAffinity 0.375518441
REMARK minimizedRMSD -1
REMARK  1 active torsions:
REMARK  status: ('A' for Active; 'I' for Inactive)
REMARK    1  A    between atoms: C1_2  and  C2_3 
ROOT
ATOM      1  C2  UNL d   1       3.565   4.407  -4.526  0.00  0.00    -0.076 A 
ATOM      2  C3  UNL d   1       4.818   3.966  -4.064  0.00  0.00     0.004 A 
ATOM      3  C4  UNL d   1       5.999   4.527  -4.549  0.00  0.00    -0.003 A 
ATOM      4  C5  UNL d   1       5.946   5.538  -5.502  0.00  0.00     0.000 A 
ATOM      5  C6  UNL d   1       4.711   5.999  -5.958  0.00  0.00     0.000 A 
ATOM      6  C7  UNL d   1       3.511   5.456  -5.468  0.00  0.00    -0.073 A 
ATOM      7  C8  UNL d   1       2.208   5.987  -6.000  0.00  0.00     0.078 C 
ENDROOT
BRANCH   1   8
ATOM      8  C1  UNL d   1       2.320   3.742  -3.984  0.00  0.00     0.053 C 
ATOM      9  C   UNL d   1       2.331   2.234  -4.182  0.00  0.00     0.018 C 
ENDBRANCH   1   8
TORSDOF 1
ENDMDL
