MODEL 1
REMARK minimizedAffinity 0.318582684
REMARK minimizedRMSD -1
REMARK  1 active torsions:
REMARK  status: ('A' for Active; 'I' for Inactive)
REMARK    1  A    between atoms: C1_2  and  C2_3 
ROOT
ATOM      1  C2  UNL d   1      -0.336   5.764  -3.144  0.00  0.00    -0.076 A 
ATOM      2  C3  UNL d   1      -1.276   5.896  -4.181  0.00  0.00     0.004 A 
ATOM      3  C4  UNL d   1      -2.639   6.000  -3.905  0.00  0.00    -0.003 A 
ATOM      4  C5  UNL d   1      -3.083   5.974  -2.588  0.00  0.00     0.000 A 
ATOM      5  C6  UNL d   1      -2.164   5.861  -1.546  0.00  0.00     0.000 A 
ATOM      6  C7  UNL d   1      -0.785   5.772  -1.806  0.00  0.00    -0.073 A 
ATOM      7  C8  UNL d   1       0.162   5.646  -0.644  0.00  0.00     0.078 C 
ENDROOT
BRANCH   1   8
ATOM      8  C1  UNL d   1       1.126   5.628  -3.504  0.00  0.00     0.053 C 
ATOM      9  C   UNL d   1       1.406   6.000  -4.952  0.00  0.00     0.018 C 
ENDBRANCH   1   8
TORSDOF 1
ENDMDL
