MODEL 1
REMARK minimizedAffinity -0.941662252
REMARK minimizedRMSD -1
REMARK  1 active torsions:
REMARK  status: ('A' for Active; 'I' for Inactive)
REMARK    1  A    between atoms: C1_2  and  C2_3 
ROOT
ATOM      1  C2  UNL d   1      -1.223   5.994  -3.838  0.00  0.00    -0.076 A 
ATOM      2  C3  UNL d   1      -2.330   5.999  -4.705  0.00  0.00     0.004 A 
ATOM      3  C4  UNL d   1      -3.632   5.970  -4.207  0.00  0.00    -0.003 A 
ATOM      4  C5  UNL d   1      -3.848   5.936  -2.834  0.00  0.00     0.000 A 
ATOM      5  C6  UNL d   1      -2.762   5.948  -1.959  0.00  0.00     0.000 A 
ATOM      6  C7  UNL d   1      -1.444   5.994  -2.444  0.00  0.00    -0.073 A 
ATOM      7  C8  UNL d   1      -0.310   5.999  -1.455  0.00  0.00     0.078 C 
ENDROOT
BRANCH   1   8
ATOM      8  C1  UNL d   1       0.165   5.999  -4.436  0.00  0.00     0.053 C 
ATOM      9  C   UNL d   1       0.450   4.752  -5.259  0.00  0.00     0.018 C 
ENDBRANCH   1   8
TORSDOF 1
ENDMDL
