MODEL 1
REMARK minimizedAffinity -0.158130482
REMARK minimizedRMSD -1
REMARK  1 active torsions:
REMARK  status: ('A' for Active; 'I' for Inactive)
REMARK    1  A    between atoms: C1_2  and  C2_3 
ROOT
ATOM      1  C2  UNL d   1      -0.727   5.979  -3.901  0.00  0.00    -0.076 A 
ATOM      2  C3  UNL d   1      -0.626   5.950  -5.303  0.00  0.00     0.004 A 
ATOM      3  C4  UNL d   1       0.617   5.955  -5.934  0.00  0.00    -0.003 A 
ATOM      4  C5  UNL d   1       1.780   5.988  -5.172  0.00  0.00     0.000 A 
ATOM      5  C6  UNL d   1       1.699   6.000  -3.780  0.00  0.00     0.000 A 
ATOM      6  C7  UNL d   1       0.454   5.979  -3.129  0.00  0.00    -0.073 A 
ATOM      7  C8  UNL d   1       0.425   5.998  -1.625  0.00  0.00     0.078 C 
ENDROOT
BRANCH   1   8
ATOM      8  C1  UNL d   1      -2.103   6.000  -3.274  0.00  0.00     0.053 C 
ATOM      9  C   UNL d   1      -3.216   5.998  -4.311  0.00  0.00     0.018 C 
ENDBRANCH   1   8
TORSDOF 1
ENDMDL
