MODEL 1
REMARK minimizedAffinity 0.61119324
REMARK minimizedRMSD -1
REMARK  1 active torsions:
REMARK  status: ('A' for Active; 'I' for Inactive)
REMARK    1  A    between atoms: C1_2  and  C2_3 
ROOT
ATOM      1  C2  UNL d   1      -0.229   5.976  -4.804  0.00  0.00    -0.076 A 
ATOM      2  C3  UNL d   1       0.521   5.946  -5.992  0.00  0.00     0.004 A 
ATOM      3  C4  UNL d   1       1.915   5.952  -5.961  0.00  0.00    -0.003 A 
ATOM      4  C5  UNL d   1       2.580   5.986  -4.740  0.00  0.00     0.000 A 
ATOM      5  C6  UNL d   1       1.852   5.998  -3.551  0.00  0.00     0.000 A 
ATOM      6  C7  UNL d   1       0.447   5.977  -3.565  0.00  0.00    -0.073 A 
ATOM      7  C8  UNL d   1      -0.289   5.997  -2.253  0.00  0.00     0.078 C 
ENDROOT
BRANCH   1   8
ATOM      8  C1  UNL d   1      -1.738   5.996  -4.901  0.00  0.00     0.053 C 
ATOM      9  C   UNL d   1      -2.411   5.639  -3.585  0.00  0.00     0.018 C 
ENDBRANCH   1   8
TORSDOF 1
ENDMDL
