MODEL 1
REMARK minimizedAffinity 8.02001381
REMARK minimizedRMSD -1
REMARK  1 active torsions:
REMARK  status: ('A' for Active; 'I' for Inactive)
REMARK    1  A    between atoms: C1_2  and  C2_3 
ROOT
ATOM      1  C2  UNL d   1       4.236   4.026  -4.578  0.00  0.00    -0.076 A 
ATOM      2  C3  UNL d   1       3.154   3.240  -4.146  0.00  0.00     0.004 A 
ATOM      3  C4  UNL d   1       1.849   3.542  -4.531  0.00  0.00    -0.003 A 
ATOM      4  C5  UNL d   1       1.605   4.635  -5.355  0.00  0.00     0.000 A 
ATOM      5  C6  UNL d   1       2.668   5.415  -5.808  0.00  0.00     0.000 A 
ATOM      6  C7  UNL d   1       3.992   5.115  -5.442  0.00  0.00    -0.073 A 
ATOM      7  C8  UNL d   1       5.099   5.994  -5.955  0.00  0.00     0.078 C 
ENDROOT
BRANCH   1   8
ATOM      8  C1  UNL d   1       5.627   3.667  -4.106  0.00  0.00     0.053 C 
ATOM      9  C   UNL d   1       5.786   2.177  -3.843  0.00  0.00     0.018 C 
ENDBRANCH   1   8
TORSDOF 1
ENDMDL
