MODEL 1
REMARK minimizedAffinity 2.08428264
REMARK minimizedRMSD -1
REMARK  1 active torsions:
REMARK  status: ('A' for Active; 'I' for Inactive)
REMARK    1  A    between atoms: C1_2  and  C2_3 
ROOT
ATOM      1  C2  UNL d   1      -1.510  -3.752   3.872  0.00  0.00    -0.076 A 
ATOM      2  C3  UNL d   1      -1.297  -4.840   4.737  0.00  0.00     0.004 A 
ATOM      3  C4  UNL d   1      -0.571  -5.955   4.321  0.00  0.00    -0.003 A 
ATOM      4  C5  UNL d   1      -0.045  -6.000   3.035  0.00  0.00     0.000 A 
ATOM      5  C6  UNL d   1      -0.232  -4.922   2.170  0.00  0.00     0.000 A 
ATOM      6  C7  UNL d   1      -0.947  -3.783   2.578  0.00  0.00    -0.073 A 
ATOM      7  C8  UNL d   1      -1.123  -2.652   1.602  0.00  0.00     0.078 C 
ENDROOT
BRANCH   1   8
ATOM      8  C1  UNL d   1      -2.328  -2.581   4.369  0.00  0.00     0.053 C 
ATOM      9  C   UNL d   1      -3.190  -2.941   5.569  0.00  0.00     0.018 C 
ENDBRANCH   1   8
TORSDOF 1
ENDMDL
