MODEL 1
REMARK minimizedAffinity -0.107067741
REMARK minimizedRMSD -1
REMARK  1 active torsions:
REMARK  status: ('A' for Active; 'I' for Inactive)
REMARK    1  A    between atoms: C1_2  and  C2_3 
ROOT
ATOM      1  C2  UNL d   1      -1.713   5.989  -3.015  0.00  0.00    -0.076 A 
ATOM      2  C3  UNL d   1      -0.475   6.000  -2.350  0.00  0.00     0.004 A 
ATOM      3  C4  UNL d   1       0.723   5.987  -3.064  0.00  0.00    -0.003 A 
ATOM      4  C5  UNL d   1       0.700   5.964  -4.454  0.00  0.00     0.000 A 
ATOM      5  C6  UNL d   1      -0.519   5.970  -5.130  0.00  0.00     0.000 A 
ATOM      6  C7  UNL d   1      -1.735   6.000  -4.426  0.00  0.00    -0.073 A 
ATOM      7  C8  UNL d   1      -3.021   6.000  -5.206  0.00  0.00     0.078 C 
ENDROOT
BRANCH   1   8
ATOM      8  C1  UNL d   1      -2.979   5.976  -2.187  0.00  0.00     0.053 C 
ATOM      9  C   UNL d   1      -2.958   4.906  -1.107  0.00  0.00     0.018 C 
ENDBRANCH   1   8
TORSDOF 1
ENDMDL
