MODEL 1
REMARK minimizedAffinity 0.575503409
REMARK minimizedRMSD -1
REMARK  1 active torsions:
REMARK  status: ('A' for Active; 'I' for Inactive)
REMARK    1  A    between atoms: C1_2  and  C2_3 
ROOT
ATOM      1  C2  UNL d   1      -1.501   5.926  -3.472  0.00  0.00    -0.076 A 
ATOM      2  C3  UNL d   1      -1.349   5.965  -4.869  0.00  0.00     0.004 A 
ATOM      3  C4  UNL d   1      -0.084   5.999  -5.452  0.00  0.00    -0.003 A 
ATOM      4  C5  UNL d   1       1.051   5.993  -4.648  0.00  0.00     0.000 A 
ATOM      5  C6  UNL d   1       0.919   5.936  -3.261  0.00  0.00     0.000 A 
ATOM      6  C7  UNL d   1      -0.349   5.885  -2.657  0.00  0.00    -0.073 A 
ATOM      7  C8  UNL d   1      -0.432   5.830  -1.157  0.00  0.00     0.078 C 
ENDROOT
BRANCH   1   8
ATOM      8  C1  UNL d   1      -2.898   5.917  -2.895  0.00  0.00     0.053 C 
ATOM      9  C   UNL d   1      -3.973   5.975  -3.970  0.00  0.00     0.018 C 
ENDBRANCH   1   8
TORSDOF 1
ENDMDL
