MODEL 1
REMARK minimizedAffinity -0.40076229
REMARK minimizedRMSD -1
REMARK  1 active torsions:
REMARK  status: ('A' for Active; 'I' for Inactive)
REMARK    1  A    between atoms: C1_2  and  C2_3 
ROOT
ATOM      1  C2  UNL d   1      -0.718   5.795  -3.753  0.00  0.00    -0.076 A 
ATOM      2  C3  UNL d   1      -1.966   5.914  -4.388  0.00  0.00     0.004 A 
ATOM      3  C4  UNL d   1      -3.143   5.998  -3.647  0.00  0.00    -0.003 A 
ATOM      4  C5  UNL d   1      -3.091   5.966  -2.258  0.00  0.00     0.000 A 
ATOM      5  C6  UNL d   1      -1.860   5.866  -1.610  0.00  0.00     0.000 A 
ATOM      6  C7  UNL d   1      -0.662   5.796  -2.343  0.00  0.00    -0.073 A 
ATOM      7  C8  UNL d   1       0.637   5.684  -1.593  0.00  0.00     0.078 C 
ENDROOT
BRANCH   1   8
ATOM      8  C1  UNL d   1       0.523   5.679  -4.610  0.00  0.00     0.053 C 
ATOM      9  C   UNL d   1       0.225   5.127  -5.995  0.00  0.00     0.018 C 
ENDBRANCH   1   8
TORSDOF 1
ENDMDL
