MODEL 1
REMARK minimizedAffinity 4.34958839
REMARK minimizedRMSD -1
REMARK  1 active torsions:
REMARK  status: ('A' for Active; 'I' for Inactive)
REMARK    1  A    between atoms: C1_2  and  C2_3 
ROOT
ATOM      1  C2  UNL d   1       3.131   4.778  -5.359  0.00  0.00    -0.076 A 
ATOM      2  C3  UNL d   1       3.827   5.820  -5.995  0.00  0.00     0.004 A 
ATOM      3  C4  UNL d   1       5.194   6.000  -5.789  0.00  0.00    -0.003 A 
ATOM      4  C5  UNL d   1       5.887   5.139  -4.944  0.00  0.00     0.000 A 
ATOM      5  C6  UNL d   1       5.215   4.089  -4.319  0.00  0.00     0.000 A 
ATOM      6  C7  UNL d   1       3.841   3.884  -4.529  0.00  0.00    -0.073 A 
ATOM      7  C8  UNL d   1       3.166   2.739  -3.825  0.00  0.00     0.078 C 
ENDROOT
BRANCH   1   8
ATOM      8  C1  UNL d   1       1.643   4.649  -5.599  0.00  0.00     0.053 C 
ATOM      9  C   UNL d   1       0.980   5.988  -5.878  0.00  0.00     0.018 C 
ENDBRANCH   1   8
TORSDOF 1
ENDMDL
