MODEL 1
REMARK minimizedAffinity 3.95976877
REMARK minimizedRMSD -1
REMARK  1 active torsions:
REMARK  status: ('A' for Active; 'I' for Inactive)
REMARK    1  A    between atoms: C1_2  and  C2_3 
ROOT
ATOM      1  C2  UNL d   1      -1.255   5.972  -3.714  0.00  0.00    -0.076 A 
ATOM      2  C3  UNL d   1      -1.420   5.985  -5.110  0.00  0.00     0.004 A 
ATOM      3  C4  UNL d   1      -0.318   5.990  -5.963  0.00  0.00    -0.003 A 
ATOM      4  C5  UNL d   1       0.968   5.980  -5.434  0.00  0.00     0.000 A 
ATOM      5  C6  UNL d   1       1.151   5.949  -4.052  0.00  0.00     0.000 A 
ATOM      6  C7  UNL d   1       0.050   5.927  -3.178  0.00  0.00    -0.073 A 
ATOM      7  C8  UNL d   1       0.305   5.900  -1.696  0.00  0.00     0.078 C 
ENDROOT
BRANCH   1   8
ATOM      8  C1  UNL d   1      -2.487   5.995  -2.839  0.00  0.00     0.053 C 
ATOM      9  C   UNL d   1      -3.776   5.938  -3.644  0.00  0.00     0.018 C 
ENDBRANCH   1   8
TORSDOF 1
ENDMDL
