MODEL 1
REMARK minimizedAffinity 0.780245006
REMARK minimizedRMSD -1
REMARK  1 active torsions:
REMARK  status: ('A' for Active; 'I' for Inactive)
REMARK    1  A    between atoms: C1_2  and  C2_3 
ROOT
ATOM      1  C2  UNL d   1       3.410   5.348  -5.171  0.00  0.00    -0.076 A 
ATOM      2  C3  UNL d   1       4.425   5.999  -5.894  0.00  0.00     0.004 A 
ATOM      3  C4  UNL d   1       5.710   5.464  -5.967  0.00  0.00    -0.003 A 
ATOM      4  C5  UNL d   1       6.000   4.268  -5.319  0.00  0.00     0.000 A 
ATOM      5  C6  UNL d   1       5.000   3.600  -4.612  0.00  0.00     0.000 A 
ATOM      6  C7  UNL d   1       3.696   4.118  -4.543  0.00  0.00    -0.073 A 
ATOM      7  C8  UNL d   1       2.658   3.358  -3.762  0.00  0.00     0.078 C 
ENDROOT
BRANCH   1   8
ATOM      8  C1  UNL d   1       2.042   5.991  -5.105  0.00  0.00     0.053 C 
ATOM      9  C   UNL d   1       1.028   5.295  -5.999  0.00  0.00     0.018 C 
ENDBRANCH   1   8
TORSDOF 1
ENDMDL
