MODEL 1
REMARK minimizedAffinity -4.5049963
REMARK minimizedRMSD -1
REMARK  2 active torsions:
REMARK  status: ('A' for Active; 'I' for Inactive)
REMARK    1  A    between atoms: C2'_3  and  C1'_4 
REMARK    2  A    between atoms: C1'_4  and  C1_5 
ROOT
ATOM      1  C1  I4B d   1      -1.000   1.417   0.127  0.00  0.00    -0.075 A 
ATOM      2  C2  I4B d   1      -0.439   2.669   0.177  0.00  0.00     0.003 A 
ATOM      3  C3  I4B d   1      -1.011   3.675   0.993  0.00  0.00     0.002 A 
ATOM      4  C4  I4B d   1      -2.165   3.402   1.699  0.00  0.00    -0.004 A 
ATOM      5  C5  I4B d   1      -2.720   2.126   1.665  0.00  0.00     0.002 A 
ATOM      6  C6  I4B d   1      -2.127   1.124   0.883  0.00  0.00     0.003 A 
ENDROOT
BRANCH   1   7
ATOM      7  C1' I4B d   1      -0.390   0.389  -0.771  0.00  0.00     0.060 C 
BRANCH   7   8
ATOM      8  C2' I4B d   1       0.774  -0.243  -0.034  0.00  0.00    -0.013 C 
ATOM      9  C4' I4B d   1       0.338  -0.802   1.294  0.00  0.00     0.013 C 
ATOM     10  C3' I4B d   1       1.350  -1.315  -0.910  0.00  0.00     0.013 C 
ENDBRANCH   7   8
ENDBRANCH   1   7
TORSDOF 2
ENDMDL
