MODEL 1
REMARK minimizedAffinity -0.898493469
REMARK minimizedRMSD -1
REMARK  2 active torsions:
REMARK  status: ('A' for Active; 'I' for Inactive)
REMARK    1  A    between atoms: C2'_3  and  C1'_4 
REMARK    2  A    between atoms: C1'_4  and  C1_5 
ROOT
ATOM      1  C1  I4B d   1      -0.035  -0.592  -0.403  0.00  0.00    -0.075 A 
ATOM      2  C2  I4B d   1      -0.770  -1.218   0.574  0.00  0.00     0.003 A 
ATOM      3  C3  I4B d   1      -1.207  -0.496   1.710  0.00  0.00     0.002 A 
ATOM      4  C4  I4B d   1      -0.848   0.828   1.853  0.00  0.00    -0.004 A 
ATOM      5  C5  I4B d   1      -0.123   1.468   0.852  0.00  0.00     0.002 A 
ATOM      6  C6  I4B d   1       0.276   0.757  -0.289  0.00  0.00     0.003 A 
ENDROOT
BRANCH   1   7
ATOM      7  C1' I4B d   1       0.439  -1.393  -1.573  0.00  0.00     0.060 C 
BRANCH   7   8
ATOM      8  C2' I4B d   1      -0.128  -2.792  -1.442  0.00  0.00    -0.013 C 
ATOM      9  C4' I4B d   1      -0.890  -3.190  -2.678  0.00  0.00     0.013 C 
ATOM     10  C3' I4B d   1       1.013  -3.731  -1.184  0.00  0.00     0.013 C 
ENDBRANCH   7   8
ENDBRANCH   1   7
TORSDOF 2
ENDMDL
