MODEL 1
REMARK minimizedAffinity -3.54515648
REMARK minimizedRMSD -1
REMARK  2 active torsions:
REMARK  status: ('A' for Active; 'I' for Inactive)
REMARK    1  A    between atoms: C2'_3  and  C1'_4 
REMARK    2  A    between atoms: C1'_4  and  C1_5 
ROOT
ATOM      1  C1  I4B d   1       0.521   0.056  -0.287  0.00  0.00    -0.075 A 
ATOM      2  C2  I4B d   1      -0.040  -0.546   0.811  0.00  0.00     0.003 A 
ATOM      3  C3  I4B d   1      -0.815   0.212   1.722  0.00  0.00     0.002 A 
ATOM      4  C4  I4B d   1      -0.961   1.569   1.524  0.00  0.00    -0.004 A 
ATOM      5  C5  I4B d   1      -0.412   2.174   0.397  0.00  0.00     0.002 A 
ATOM      6  C6  I4B d   1       0.324   1.411  -0.521  0.00  0.00     0.003 A 
ENDROOT
BRANCH   1   7
ATOM      7  C1' I4B d   1       1.361  -0.768  -1.211  0.00  0.00     0.060 C 
BRANCH   7   8
ATOM      8  C2' I4B d   1       0.625  -2.064  -1.481  0.00  0.00    -0.013 C 
ATOM      9  C4' I4B d   1       0.116  -2.117  -2.897  0.00  0.00     0.013 C 
ATOM     10  C3' I4B d   1       1.565  -3.198  -1.200  0.00  0.00     0.013 C 
ENDBRANCH   7   8
ENDBRANCH   1   7
TORSDOF 2
ENDMDL
