MODEL 1
REMARK minimizedAffinity -0.888011575
REMARK minimizedRMSD -1
REMARK  2 active torsions:
REMARK  status: ('A' for Active; 'I' for Inactive)
REMARK    1  A    between atoms: C2'_3  and  C1'_4 
REMARK    2  A    between atoms: C1'_4  and  C1_5 
ROOT
ATOM      1  C1  I4B d   1       0.578  -0.734  -0.432  0.00  0.00    -0.075 A 
ATOM      2  C2  I4B d   1       0.270   0.532  -0.862  0.00  0.00     0.003 A 
ATOM      3  C3  I4B d   1      -0.431   1.423  -0.013  0.00  0.00     0.002 A 
ATOM      4  C4  I4B d   1      -0.845   0.992   1.230  0.00  0.00    -0.004 A 
ATOM      5  C5  I4B d   1      -0.512  -0.285   1.674  0.00  0.00     0.002 A 
ATOM      6  C6  I4B d   1       0.215  -1.149   0.843  0.00  0.00     0.003 A 
ENDROOT
BRANCH   1   7
ATOM      7  C1' I4B d   1       1.290  -1.660  -1.366  0.00  0.00     0.060 C 
BRANCH   7   8
ATOM      8  C2' I4B d   1       0.416  -2.880  -1.571  0.00  0.00    -0.013 C 
ATOM      9  C4' I4B d   1      -0.044  -2.989  -3.001  0.00  0.00     0.013 C 
ATOM     10  C3' I4B d   1       1.205  -4.089  -1.162  0.00  0.00     0.013 C 
ENDBRANCH   7   8
ENDBRANCH   1   7
TORSDOF 2
ENDMDL
