MODEL 1
REMARK minimizedAffinity 2.09912968
REMARK minimizedRMSD -1
REMARK  2 active torsions:
REMARK  status: ('A' for Active; 'I' for Inactive)
REMARK    1  A    between atoms: C2'_3  and  C1'_4 
REMARK    2  A    between atoms: C1'_4  and  C1_5 
ROOT
ATOM      1  C1  I4B d   1       0.342  -0.350  -0.261  0.00  0.00    -0.075 A 
ATOM      2  C2  I4B d   1       0.055   0.906  -0.734  0.00  0.00     0.003 A 
ATOM      3  C3  I4B d   1      -0.614   1.843   0.091  0.00  0.00     0.002 A 
ATOM      4  C4  I4B d   1      -1.020   1.467   1.356  0.00  0.00    -0.004 A 
ATOM      5  C5  I4B d   1      -0.707   0.200   1.842  0.00  0.00     0.002 A 
ATOM      6  C6  I4B d   1      -0.011  -0.710   1.033  0.00  0.00     0.003 A 
ENDROOT
BRANCH   1   7
ATOM      7  C1' I4B d   1       1.021  -1.324  -1.170  0.00  0.00     0.060 C 
BRANCH   7   8
ATOM      8  C2' I4B d   1      -0.047  -2.194  -1.802  0.00  0.00    -0.013 C 
ATOM      9  C4' I4B d   1      -0.093  -2.002  -3.295  0.00  0.00     0.013 C 
ATOM     10  C3' I4B d   1       0.249  -3.621  -1.449  0.00  0.00     0.013 C 
ENDBRANCH   7   8
ENDBRANCH   1   7
TORSDOF 2
ENDMDL
