MODEL 1
REMARK minimizedAffinity -4.36333179
REMARK minimizedRMSD -1
REMARK  2 active torsions:
REMARK  status: ('A' for Active; 'I' for Inactive)
REMARK    1  A    between atoms: C2'_3  and  C1'_4 
REMARK    2  A    between atoms: C1'_4  and  C1_5 
ROOT
ATOM      1  C1  I4B d   1      -0.050  -0.316  -0.172  0.00  0.00    -0.075 A 
ATOM      2  C2  I4B d   1      -0.425   0.715  -0.996  0.00  0.00     0.003 A 
ATOM      3  C3  I4B d   1      -1.299   1.724  -0.524  0.00  0.00     0.002 A 
ATOM      4  C4  I4B d   1      -1.810   1.636   0.754  0.00  0.00    -0.004 A 
ATOM      5  C5  I4B d   1      -1.411   0.602   1.597  0.00  0.00     0.002 A 
ATOM      6  C6  I4B d   1      -0.516  -0.374   1.136  0.00  0.00     0.003 A 
ENDROOT
BRANCH   1   7
ATOM      7  C1' I4B d   1       0.848  -1.383  -0.713  0.00  0.00     0.060 C 
BRANCH   7   8
ATOM      8  C2' I4B d   1       0.043  -2.222  -1.684  0.00  0.00    -0.013 C 
ATOM      9  C4' I4B d   1       0.077  -1.635  -3.071  0.00  0.00     0.013 C 
ATOM     10  C3' I4B d   1       0.605  -3.612  -1.671  0.00  0.00     0.013 C 
ENDBRANCH   7   8
ENDBRANCH   1   7
TORSDOF 2
ENDMDL
