MODEL 1
REMARK minimizedAffinity -3.27952194
REMARK minimizedRMSD -1
REMARK  2 active torsions:
REMARK  status: ('A' for Active; 'I' for Inactive)
REMARK    1  A    between atoms: C2'_3  and  C1'_4 
REMARK    2  A    between atoms: C1'_4  and  C1_5 
ROOT
ATOM      1  C1  I4B d   1       0.673  -0.535  -0.561  0.00  0.00    -0.075 A 
ATOM      2  C2  I4B d   1       0.698  -1.809  -1.070  0.00  0.00     0.003 A 
ATOM      3  C3  I4B d   1       0.546  -2.024  -2.462  0.00  0.00     0.002 A 
ATOM      4  C4  I4B d   1       0.321  -0.948  -3.295  0.00  0.00    -0.004 A 
ATOM      5  C5  I4B d   1       0.319   0.346  -2.780  0.00  0.00     0.002 A 
ATOM      6  C6  I4B d   1       0.508   0.555  -1.407  0.00  0.00     0.003 A 
ENDROOT
BRANCH   1   7
ATOM      7  C1' I4B d   1       0.804  -0.346   0.917  0.00  0.00     0.060 C 
BRANCH   7   8
ATOM      8  C2' I4B d   1      -0.583  -0.428   1.522  0.00  0.00    -0.013 C 
ATOM      9  C4' I4B d   1      -0.737  -1.666   2.366  0.00  0.00     0.013 C 
ATOM     10  C3' I4B d   1      -0.807   0.812   2.335  0.00  0.00     0.013 C 
ENDBRANCH   7   8
ENDBRANCH   1   7
TORSDOF 2
ENDMDL
