MODEL 1
REMARK minimizedAffinity -2.59297252
REMARK minimizedRMSD -1
REMARK  2 active torsions:
REMARK  status: ('A' for Active; 'I' for Inactive)
REMARK    1  A    between atoms: C2'_3  and  C1'_4 
REMARK    2  A    between atoms: C1'_4  and  C1_5 
ROOT
ATOM      1  C1  I4B d   1       0.770  -1.924  -1.581  0.00  0.00    -0.075 A 
ATOM      2  C2  I4B d   1       1.469  -3.058  -1.248  0.00  0.00     0.003 A 
ATOM      3  C3  I4B d   1       1.078  -4.315  -1.768  0.00  0.00     0.002 A 
ATOM      4  C4  I4B d   1      -0.040  -4.400  -2.573  0.00  0.00    -0.004 A 
ATOM      5  C5  I4B d   1      -0.734  -3.246  -2.928  0.00  0.00     0.002 A 
ATOM      6  C6  I4B d   1      -0.319  -1.999  -2.440  0.00  0.00     0.003 A 
ENDROOT
BRANCH   1   7
ATOM      7  C1' I4B d   1       1.190  -0.617  -0.987  0.00  0.00     0.060 C 
BRANCH   7   8
ATOM      8  C2' I4B d   1       0.062  -0.121  -0.106  0.00  0.00    -0.013 C 
ATOM      9  C4' I4B d   1       0.263  -0.543   1.326  0.00  0.00     0.013 C 
ATOM     10  C3' I4B d   1       0.003   1.373  -0.227  0.00  0.00     0.013 C 
ENDBRANCH   7   8
ENDBRANCH   1   7
TORSDOF 2
ENDMDL
