MODEL 1
REMARK minimizedAffinity -3.27496147
REMARK minimizedRMSD -1
REMARK  2 active torsions:
REMARK  status: ('A' for Active; 'I' for Inactive)
REMARK    1  A    between atoms: C2'_3  and  C1'_4 
REMARK    2  A    between atoms: C1'_4  and  C1_5 
ROOT
ATOM      1  C1  I4B d   1       0.130  -0.020   0.447  0.00  0.00    -0.075 A 
ATOM      2  C2  I4B d   1      -0.745   0.100   1.499  0.00  0.00     0.003 A 
ATOM      3  C3  I4B d   1      -1.297   1.363   1.825  0.00  0.00     0.002 A 
ATOM      4  C4  I4B d   1      -0.912   2.479   1.110  0.00  0.00    -0.004 A 
ATOM      5  C5  I4B d   1      -0.043   2.351   0.031  0.00  0.00     0.002 A 
ATOM      6  C6  I4B d   1       0.472   1.092  -0.311  0.00  0.00     0.003 A 
ENDROOT
BRANCH   1   7
ATOM      7  C1' I4B d   1       0.720  -1.362   0.151  0.00  0.00     0.060 C 
BRANCH   7   8
ATOM      8  C2' I4B d   1       0.460  -1.675  -1.308  0.00  0.00    -0.013 C 
ATOM      9  C4' I4B d   1       1.167  -2.936  -1.730  0.00  0.00     0.013 C 
ATOM     10  C3' I4B d   1      -1.022  -1.795  -1.499  0.00  0.00     0.013 C 
ENDBRANCH   7   8
ENDBRANCH   1   7
TORSDOF 2
ENDMDL
