MODEL 1
REMARK minimizedAffinity -5.40500164
REMARK minimizedRMSD -1
REMARK  2 active torsions:
REMARK  status: ('A' for Active; 'I' for Inactive)
REMARK    1  A    between atoms: C2'_3  and  C1'_4 
REMARK    2  A    between atoms: C1'_4  and  C1_5 
ROOT
ATOM      1  C1  I4B d   1      -0.695   1.646  -0.014  0.00  0.00    -0.075 A 
ATOM      2  C2  I4B d   1      -1.479   1.952   1.071  0.00  0.00     0.003 A 
ATOM      3  C3  I4B d   1      -1.461   3.258   1.618  0.00  0.00     0.002 A 
ATOM      4  C4  I4B d   1      -0.613   4.207   1.084  0.00  0.00    -0.004 A 
ATOM      5  C5  I4B d   1       0.163   3.902  -0.030  0.00  0.00     0.002 A 
ATOM      6  C6  I4B d   1       0.113   2.617  -0.591  0.00  0.00     0.003 A 
ENDROOT
BRANCH   1   7
ATOM      7  C1' I4B d   1      -0.714   0.248  -0.545  0.00  0.00     0.060 C 
BRANCH   7   8
ATOM      8  C2' I4B d   1       0.619  -0.394  -0.217  0.00  0.00    -0.013 C 
ATOM      9  C4' I4B d   1       0.727  -0.705   1.252  0.00  0.00     0.013 C 
ATOM     10  C3' I4B d   1       0.750  -1.638  -1.045  0.00  0.00     0.013 C 
ENDBRANCH   7   8
ENDBRANCH   1   7
TORSDOF 2
ENDMDL
