MODEL 1
REMARK minimizedAffinity -3.04645228
REMARK minimizedRMSD -1
REMARK  2 active torsions:
REMARK  status: ('A' for Active; 'I' for Inactive)
REMARK    1  A    between atoms: C2'_3  and  C1'_4 
REMARK    2  A    between atoms: C1'_4  and  C1_5 
ROOT
ATOM      1  C1  I4B d   1      -0.476   0.898   0.019  0.00  0.00    -0.075 A 
ATOM      2  C2  I4B d   1       0.620   0.253  -0.497  0.00  0.00     0.003 A 
ATOM      3  C3  I4B d   1       1.533   0.951  -1.325  0.00  0.00     0.002 A 
ATOM      4  C4  I4B d   1       1.286   2.269  -1.649  0.00  0.00    -0.004 A 
ATOM      5  C5  I4B d   1       0.186   2.927  -1.106  0.00  0.00     0.002 A 
ATOM      6  C6  I4B d   1      -0.694   2.242  -0.257  0.00  0.00     0.003 A 
ENDROOT
BRANCH   1   7
ATOM      7  C1' I4B d   1      -1.437   0.123   0.863  0.00  0.00     0.060 C 
BRANCH   7   8
ATOM      8  C2' I4B d   1      -0.990   0.237   2.306  0.00  0.00    -0.013 C 
ATOM      9  C4' I4B d   1       0.286  -0.526   2.544  0.00  0.00     0.013 C 
ATOM     10  C3' I4B d   1      -0.816   1.693   2.623  0.00  0.00     0.013 C 
ENDBRANCH   7   8
ENDBRANCH   1   7
TORSDOF 2
ENDMDL
