MODEL 1
REMARK minimizedAffinity -3.01795387
REMARK minimizedRMSD -1
REMARK  2 active torsions:
REMARK  status: ('A' for Active; 'I' for Inactive)
REMARK    1  A    between atoms: C2'_3  and  C1'_4 
REMARK    2  A    between atoms: C1'_4  and  C1_5 
ROOT
ATOM      1  C1  I4B d   1       0.415   0.035  -0.392  0.00  0.00    -0.075 A 
ATOM      2  C2  I4B d   1       0.427   1.407  -0.359  0.00  0.00     0.003 A 
ATOM      3  C3  I4B d   1      -0.260   2.101   0.666  0.00  0.00     0.002 A 
ATOM      4  C4  I4B d   1      -0.983   1.389   1.602  0.00  0.00    -0.004 A 
ATOM      5  C5  I4B d   1      -0.975  -0.002   1.580  0.00  0.00     0.002 A 
ATOM      6  C6  I4B d   1      -0.262  -0.685   0.584  0.00  0.00     0.003 A 
ENDROOT
BRANCH   1   7
ATOM      7  C1' I4B d   1       1.124  -0.665  -1.508  0.00  0.00     0.060 C 
BRANCH   7   8
ATOM      8  C2' I4B d   1       0.516  -2.045  -1.655  0.00  0.00    -0.013 C 
ATOM      9  C4' I4B d   1       0.015  -2.274  -3.057  0.00  0.00     0.013 C 
ATOM     10  C3' I4B d   1       1.561  -3.054  -1.282  0.00  0.00     0.013 C 
ENDBRANCH   7   8
ENDBRANCH   1   7
TORSDOF 2
ENDMDL
