MODEL 1
REMARK minimizedAffinity -2.83603692
REMARK minimizedRMSD -1
REMARK  2 active torsions:
REMARK  status: ('A' for Active; 'I' for Inactive)
REMARK    1  A    between atoms: C2'_3  and  C1'_4 
REMARK    2  A    between atoms: C1'_4  and  C1_5 
ROOT
ATOM      1  C1  I4B d   1       0.563  -1.164  -0.505  0.00  0.00    -0.075 A 
ATOM      2  C2  I4B d   1       1.207  -2.366  -0.346  0.00  0.00     0.003 A 
ATOM      3  C3  I4B d   1       1.061  -3.387  -1.316  0.00  0.00     0.002 A 
ATOM      4  C4  I4B d   1       0.227  -3.183  -2.397  0.00  0.00    -0.004 A 
ATOM      5  C5  I4B d   1      -0.407  -1.956  -2.568  0.00  0.00     0.002 A 
ATOM      6  C6  I4B d   1      -0.229  -0.936  -1.623  0.00  0.00     0.003 A 
ENDROOT
BRANCH   1   7
ATOM      7  C1' I4B d   1       0.712  -0.120   0.555  0.00  0.00     0.060 C 
BRANCH   7   8
ATOM      8  C2' I4B d   1      -0.658   0.147   1.144  0.00  0.00    -0.013 C 
ATOM      9  C4' I4B d   1      -1.103  -0.990   2.026  0.00  0.00     0.013 C 
ATOM     10  C3' I4B d   1      -0.589   1.433   1.912  0.00  0.00     0.013 C 
ENDBRANCH   7   8
ENDBRANCH   1   7
TORSDOF 2
ENDMDL
