MODEL 1
REMARK minimizedAffinity -2.55591345
REMARK minimizedRMSD -1
REMARK  0 active torsions:
REMARK  status: ('A' for Active; 'I' for Inactive)
ROOT
ATOM      1  C4' PXY d   1       0.655   2.483  -0.637  0.00  0.00     0.077 C 
ATOM      2  C1' PXY d   1       0.654  -3.144   0.688  0.00  0.00     0.077 C 
ATOM      3  C1  PXY d   1       0.659  -1.671   0.329  0.00  0.00    -0.082 A 
ATOM      4  C2  PXY d   1       0.698  -0.764   1.291  0.00  0.00     0.003 A 
ATOM      5  C3  PXY d   1       0.671   0.573   0.985  0.00  0.00     0.003 A 
ATOM      6  C4  PXY d   1       0.658   0.984  -0.321  0.00  0.00    -0.082 A 
ATOM      7  C5  PXY d   1       0.629   0.064  -1.308  0.00  0.00     0.003 A 
ATOM      8  C6  PXY d   1       0.615  -1.287  -0.976  0.00  0.00     0.003 A 
ENDROOT
TORSDOF 0
ENDMDL
