MODEL 1
REMARK minimizedAffinity -5.29286242
REMARK minimizedRMSD -1
REMARK  0 active torsions:
REMARK  status: ('A' for Active; 'I' for Inactive)
ROOT
ATOM      1  C4' PXY d   1       0.071   2.417   0.202  0.00  0.00     0.077 C 
ATOM      2  C1' PXY d   1      -0.039  -3.350   0.587  0.00  0.00     0.077 C 
ATOM      3  C1  PXY d   1       0.000  -1.838   0.479  0.00  0.00    -0.082 A 
ATOM      4  C2  PXY d   1      -0.590  -1.100   1.404  0.00  0.00     0.003 A 
ATOM      5  C3  PXY d   1      -0.592   0.267   1.305  0.00  0.00     0.003 A 
ATOM      6  C4  PXY d   1       0.064   0.888   0.276  0.00  0.00    -0.082 A 
ATOM      7  C5  PXY d   1       0.679   0.142  -0.667  0.00  0.00     0.003 A 
ATOM      8  C6  PXY d   1       0.633  -1.246  -0.570  0.00  0.00     0.003 A 
ENDROOT
TORSDOF 0
ENDMDL
