MODEL 1
REMARK minimizedAffinity -3.15023088
REMARK minimizedRMSD -1
REMARK  0 active torsions:
REMARK  status: ('A' for Active; 'I' for Inactive)
ROOT
ATOM      1  C4' PXY d   1       0.840   2.734   0.349  0.00  0.00     0.077 C 
ATOM      2  C1' PXY d   1      -0.405  -2.878   0.954  0.00  0.00     0.077 C 
ATOM      3  C1  PXY d   1      -0.080  -1.408   0.782  0.00  0.00    -0.082 A 
ATOM      4  C2  PXY d   1       0.629  -0.782   1.708  0.00  0.00     0.003 A 
ATOM      5  C3  PXY d   1       0.905   0.555   1.584  0.00  0.00     0.003 A 
ATOM      6  C4  PXY d   1       0.496   1.247   0.476  0.00  0.00    -0.082 A 
ATOM      7  C5  PXY d   1      -0.218   0.614  -0.478  0.00  0.00     0.003 A 
ATOM      8  C6  PXY d   1      -0.523  -0.734  -0.314  0.00  0.00     0.003 A 
ENDROOT
TORSDOF 0
ENDMDL
