MODEL 1
REMARK minimizedAffinity -2.11818695
REMARK minimizedRMSD -1
REMARK  0 active torsions:
REMARK  status: ('A' for Active; 'I' for Inactive)
ROOT
ATOM      1  C4' PXY d   1       0.206  -2.181  -2.363  0.00  0.00     0.077 C 
ATOM      2  C1' PXY d   1      -0.777  -0.988   3.207  0.00  0.00     0.077 C 
ATOM      3  C1  PXY d   1      -0.526  -1.290   1.743  0.00  0.00    -0.082 A 
ATOM      4  C2  PXY d   1      -0.323  -2.540   1.358  0.00  0.00     0.003 A 
ATOM      5  C3  PXY d   1      -0.062  -2.827   0.043  0.00  0.00     0.003 A 
ATOM      6  C4  PXY d   1      -0.061  -1.831  -0.896  0.00  0.00    -0.082 A 
ATOM      7  C5  PXY d   1      -0.278  -0.555  -0.514  0.00  0.00     0.003 A 
ATOM      8  C6  PXY d   1      -0.500  -0.279   0.833  0.00  0.00     0.003 A 
ENDROOT
TORSDOF 0
ENDMDL
