MODEL 1
REMARK minimizedAffinity -0.767115712
REMARK minimizedRMSD -1
REMARK  0 active torsions:
REMARK  status: ('A' for Active; 'I' for Inactive)
ROOT
ATOM      1  C4' PXY d   1       0.209   2.794   0.432  0.00  0.00     0.077 C 
ATOM      2  C1' PXY d   1      -0.889  -2.881   0.372  0.00  0.00     0.077 C 
ATOM      3  C1  PXY d   1      -0.595  -1.394   0.376  0.00  0.00    -0.082 A 
ATOM      4  C2  PXY d   1      -0.539  -0.741   1.526  0.00  0.00     0.003 A 
ATOM      5  C3  PXY d   1      -0.306   0.610   1.546  0.00  0.00     0.003 A 
ATOM      6  C4  PXY d   1      -0.075   1.290   0.381  0.00  0.00    -0.082 A 
ATOM      7  C5  PXY d   1      -0.120   0.630  -0.796  0.00  0.00     0.003 A 
ATOM      8  C6  PXY d   1      -0.399  -0.734  -0.797  0.00  0.00     0.003 A 
ENDROOT
TORSDOF 0
ENDMDL
