MODEL 1
REMARK minimizedAffinity -4.82376289
REMARK minimizedRMSD -1
REMARK  0 active torsions:
REMARK  status: ('A' for Active; 'I' for Inactive)
ROOT
ATOM      1  C4' PXY d   1       0.046   1.885  -0.068  0.00  0.00     0.077 C 
ATOM      2  C1' PXY d   1       0.121  -3.882   0.323  0.00  0.00     0.077 C 
ATOM      3  C1  PXY d   1       0.090  -2.369   0.227  0.00  0.00    -0.082 A 
ATOM      4  C2  PXY d   1       0.777  -1.760  -0.726  0.00  0.00     0.003 A 
ATOM      5  C3  PXY d   1       0.786  -0.392  -0.808  0.00  0.00     0.003 A 
ATOM      6  C4  PXY d   1       0.041   0.359   0.061  0.00  0.00    -0.082 A 
ATOM      7  C5  PXY d   1      -0.672  -0.255   1.029  0.00  0.00     0.003 A 
ATOM      8  C6  PXY d   1      -0.635  -1.643   1.121  0.00  0.00     0.003 A 
ENDROOT
TORSDOF 0
ENDMDL
