MODEL 1
REMARK minimizedAffinity -5.33858395
REMARK minimizedRMSD -1
REMARK  0 active torsions:
REMARK  status: ('A' for Active; 'I' for Inactive)
ROOT
ATOM      1  C4' PXY d   1      -0.071  -2.782   0.352  0.00  0.00     0.077 C 
ATOM      2  C1' PXY d   1       1.123   2.873   0.467  0.00  0.00     0.077 C 
ATOM      3  C1  PXY d   1       0.801   1.392   0.428  0.00  0.00    -0.082 A 
ATOM      4  C2  PXY d   1       1.098   0.630   1.468  0.00  0.00     0.003 A 
ATOM      5  C3  PXY d   1       0.843  -0.716   1.437  0.00  0.00     0.003 A 
ATOM      6  C4  PXY d   1       0.228  -1.280   0.351  0.00  0.00    -0.082 A 
ATOM      7  C5  PXY d   1      -0.088  -0.508  -0.710  0.00  0.00     0.003 A 
ATOM      8  C6  PXY d   1       0.217   0.850  -0.675  0.00  0.00     0.003 A 
ENDROOT
TORSDOF 0
ENDMDL
