MODEL 1
REMARK minimizedAffinity -4.65483236
REMARK minimizedRMSD -1
REMARK  0 active torsions:
REMARK  status: ('A' for Active; 'I' for Inactive)
ROOT
ATOM      1  C4' PXY d   1       0.185   1.585  -0.043  0.00  0.00     0.077 C 
ATOM      2  C1' PXY d   1      -0.596  -4.093  -0.796  0.00  0.00     0.077 C 
ATOM      3  C1  PXY d   1      -0.383  -2.604  -0.609  0.00  0.00    -0.082 A 
ATOM      4  C2  PXY d   1      -0.606  -2.055   0.575  0.00  0.00     0.003 A 
ATOM      5  C3  PXY d   1      -0.449  -0.704   0.753  0.00  0.00     0.003 A 
ATOM      6  C4  PXY d   1      -0.008   0.084  -0.275  0.00  0.00    -0.082 A 
ATOM      7  C5  PXY d   1       0.232  -0.470  -1.483  0.00  0.00     0.003 A 
ATOM      8  C6  PXY d   1       0.027  -1.836  -1.655  0.00  0.00     0.003 A 
ENDROOT
TORSDOF 0
ENDMDL
