MODEL 1
REMARK minimizedAffinity -4.47308826
REMARK minimizedRMSD -1
REMARK  0 active torsions:
REMARK  status: ('A' for Active; 'I' for Inactive)
ROOT
ATOM      1  C4' PXY d   1       0.617   1.972  -0.216  0.00  0.00     0.077 C 
ATOM      2  C1' PXY d   1      -0.348  -3.701   0.336  0.00  0.00     0.077 C 
ATOM      3  C1  PXY d   1      -0.106  -2.210   0.198  0.00  0.00    -0.082 A 
ATOM      4  C2  PXY d   1       0.600  -1.754  -0.823  0.00  0.00     0.003 A 
ATOM      5  C3  PXY d   1       0.856  -0.413  -0.946  0.00  0.00     0.003 A 
ATOM      6  C4  PXY d   1       0.339   0.476  -0.042  0.00  0.00    -0.082 A 
ATOM      7  C5  PXY d   1      -0.391   0.020   0.998  0.00  0.00     0.003 A 
ATOM      8  C6  PXY d   1      -0.605  -1.350   1.127  0.00  0.00     0.003 A 
ENDROOT
TORSDOF 0
ENDMDL
