MODEL 1
REMARK minimizedAffinity 0.333927751
REMARK minimizedRMSD -1
REMARK  0 active torsions:
REMARK  status: ('A' for Active; 'I' for Inactive)
ROOT
ATOM      1  C4' PXY d   1       0.694  -1.148  -2.038  0.00  0.00     0.077 C 
ATOM      2  C1' PXY d   1      -1.629  -1.156   3.256  0.00  0.00     0.077 C 
ATOM      3  C1  PXY d   1      -1.018  -1.167   1.868  0.00  0.00    -0.082 A 
ATOM      4  C2  PXY d   1      -0.446  -0.071   1.397  0.00  0.00     0.003 A 
ATOM      5  C3  PXY d   1       0.083  -0.054   0.132  0.00  0.00     0.003 A 
ATOM      6  C4  PXY d   1       0.073  -1.186  -0.639  0.00  0.00    -0.082 A 
ATOM      7  C5  PXY d   1      -0.499  -2.311  -0.161  0.00  0.00     0.003 A 
ATOM      8  C6  PXY d   1      -1.067  -2.296   1.110  0.00  0.00     0.003 A 
ENDROOT
TORSDOF 0
ENDMDL
