MODEL 1
REMARK minimizedAffinity -3.78248787
REMARK minimizedRMSD -1
REMARK  0 active torsions:
REMARK  status: ('A' for Active; 'I' for Inactive)
ROOT
ATOM      1  C4' PXY d   1       0.660   2.235  -0.111  0.00  0.00     0.077 C 
ATOM      2  C1' PXY d   1      -0.602  -3.372   0.507  0.00  0.00     0.077 C 
ATOM      3  C1  PXY d   1      -0.283  -1.898   0.350  0.00  0.00    -0.082 A 
ATOM      4  C2  PXY d   1       0.617  -1.516  -0.541  0.00  0.00     0.003 A 
ATOM      5  C3  PXY d   1       0.942  -0.190  -0.674  0.00  0.00     0.003 A 
ATOM      6  C4  PXY d   1       0.299   0.759   0.076  0.00  0.00    -0.082 A 
ATOM      7  C5  PXY d   1      -0.628   0.377   0.979  0.00  0.00     0.003 A 
ATOM      8  C6  PXY d   1      -0.913  -0.977   1.128  0.00  0.00     0.003 A 
ENDROOT
TORSDOF 0
ENDMDL
