MODEL 1
REMARK minimizedAffinity -4.54049778
REMARK minimizedRMSD -1
REMARK  0 active torsions:
REMARK  status: ('A' for Active; 'I' for Inactive)
ROOT
ATOM      1  C4' PXY d   1       0.749   1.782   0.447  0.00  0.00     0.077 C 
ATOM      2  C1' PXY d   1      -0.106  -3.781  -0.868  0.00  0.00     0.077 C 
ATOM      3  C1  PXY d   1       0.112  -2.324  -0.511  0.00  0.00    -0.082 A 
ATOM      4  C2  PXY d   1       0.285  -1.434  -1.475  0.00  0.00     0.003 A 
ATOM      5  C3  PXY d   1       0.516  -0.117  -1.170  0.00  0.00     0.003 A 
ATOM      6  C4  PXY d   1       0.516   0.302   0.134  0.00  0.00    -0.082 A 
ATOM      7  C5  PXY d   1       0.330  -0.599   1.122  0.00  0.00     0.003 A 
ATOM      8  C6  PXY d   1       0.138  -1.937   0.793  0.00  0.00     0.003 A 
ENDROOT
TORSDOF 0
ENDMDL
