MODEL 1
REMARK minimizedAffinity -3.57820487
REMARK minimizedRMSD -1
REMARK  0 active torsions:
REMARK  status: ('A' for Active; 'I' for Inactive)
ROOT
ATOM      1  C4' PXY d   1       1.986   3.636  -0.114  0.00  0.00     0.077 C 
ATOM      2  C1' PXY d   1      -1.124  -1.202   0.469  0.00  0.00     0.077 C 
ATOM      3  C1  PXY d   1      -0.315   0.070   0.305  0.00  0.00    -0.082 A 
ATOM      4  C2  PXY d   1       0.894   0.149   0.837  0.00  0.00     0.003 A 
ATOM      5  C3  PXY d   1       1.626   1.303   0.726  0.00  0.00     0.003 A 
ATOM      6  C4  PXY d   1       1.137   2.368   0.018  0.00  0.00    -0.082 A 
ATOM      7  C5  PXY d   1      -0.091   2.291  -0.536  0.00  0.00     0.003 A 
ATOM      8  C6  PXY d   1      -0.835   1.126  -0.377  0.00  0.00     0.003 A 
ENDROOT
TORSDOF 0
ENDMDL
