MODEL 1
REMARK minimizedAffinity -3.6271472
REMARK minimizedRMSD -1
REMARK  0 active torsions:
REMARK  status: ('A' for Active; 'I' for Inactive)
ROOT
ATOM      1  C4' PXY d   1      -0.019   1.906  -0.162  0.00  0.00     0.077 C 
ATOM      2  C1' PXY d   1      -0.035  -3.635  -1.809  0.00  0.00     0.077 C 
ATOM      3  C1  PXY d   1      -0.038  -2.185  -1.366  0.00  0.00    -0.082 A 
ATOM      4  C2  PXY d   1       0.119  -1.226  -2.265  0.00  0.00     0.003 A 
ATOM      5  C3  PXY d   1       0.151   0.089  -1.878  0.00  0.00     0.003 A 
ATOM      6  C4  PXY d   1      -0.033   0.429  -0.564  0.00  0.00    -0.082 A 
ATOM      7  C5  PXY d   1      -0.204  -0.542   0.357  0.00  0.00     0.003 A 
ATOM      8  C6  PXY d   1      -0.192  -1.873  -0.051  0.00  0.00     0.003 A 
ENDROOT
TORSDOF 0
ENDMDL
