MODEL 1
REMARK minimizedAffinity -3.17427063
REMARK minimizedRMSD -1
REMARK  0 active torsions:
REMARK  status: ('A' for Active; 'I' for Inactive)
ROOT
ATOM      1  C4' PXY d   1       0.799   3.423   0.419  0.00  0.00     0.077 C 
ATOM      2  C1' PXY d   1      -0.804  -2.129   0.294  0.00  0.00     0.077 C 
ATOM      3  C1  PXY d   1      -0.380  -0.674   0.314  0.00  0.00    -0.082 A 
ATOM      4  C2  PXY d   1      -0.104  -0.089   1.469  0.00  0.00     0.003 A 
ATOM      5  C3  PXY d   1       0.251   1.235   1.508  0.00  0.00     0.003 A 
ATOM      6  C4  PXY d   1       0.375   1.953   0.350  0.00  0.00    -0.082 A 
ATOM      7  C5  PXY d   1       0.106   1.361  -0.833  0.00  0.00     0.003 A 
ATOM      8  C6  PXY d   1      -0.292   0.027  -0.848  0.00  0.00     0.003 A 
ENDROOT
TORSDOF 0
ENDMDL
