MODEL 1
REMARK minimizedAffinity -2.27293777
REMARK minimizedRMSD -1
REMARK  0 active torsions:
REMARK  status: ('A' for Active; 'I' for Inactive)
ROOT
ATOM      1  C4' PXY d   1       1.500   2.315   0.546  0.00  0.00     0.077 C 
ATOM      2  C1' PXY d   1      -1.623  -2.532   0.141  0.00  0.00     0.077 C 
ATOM      3  C1  PXY d   1      -0.811  -1.256   0.238  0.00  0.00    -0.082 A 
ATOM      4  C2  PXY d   1       0.428  -1.302   0.700  0.00  0.00     0.003 A 
ATOM      5  C3  PXY d   1       1.165  -0.152   0.824  0.00  0.00     0.003 A 
ATOM      6  C4  PXY d   1       0.647   1.050   0.422  0.00  0.00    -0.082 A 
ATOM      7  C5  PXY d   1      -0.612   1.104  -0.060  0.00  0.00     0.003 A 
ATOM      8  C6  PXY d   1      -1.359  -0.069  -0.140  0.00  0.00     0.003 A 
ENDROOT
TORSDOF 0
ENDMDL
