MODEL 1
REMARK minimizedAffinity -5.05990028
REMARK minimizedRMSD -1
REMARK  0 active torsions:
REMARK  status: ('A' for Active; 'I' for Inactive)
ROOT
ATOM      1  C4' PXY d   1      -0.793  -2.148   1.118  0.00  0.00     0.077 C 
ATOM      2  C1' PXY d   1       1.977   2.818   0.077  0.00  0.00     0.077 C 
ATOM      3  C1  PXY d   1       1.262   1.510   0.353  0.00  0.00    -0.082 A 
ATOM      4  C2  PXY d   1       0.097   1.266  -0.226  0.00  0.00     0.003 A 
ATOM      5  C3  PXY d   1      -0.578   0.103   0.038  0.00  0.00     0.003 A 
ATOM      6  C4  PXY d   1      -0.031  -0.845   0.861  0.00  0.00    -0.082 A 
ATOM      7  C5  PXY d   1       1.162  -0.608   1.447  0.00  0.00     0.003 A 
ATOM      8  C6  PXY d   1       1.812   0.597   1.199  0.00  0.00     0.003 A 
ENDROOT
TORSDOF 0
ENDMDL
