MODEL 1
REMARK minimizedAffinity -3.56625175
REMARK minimizedRMSD -1
REMARK  0 active torsions:
REMARK  status: ('A' for Active; 'I' for Inactive)
ROOT
ATOM      1  C4' PXY d   1      -1.208  -2.808   0.784  0.00  0.00     0.077 C 
ATOM      2  C1' PXY d   1       1.074   2.459   0.098  0.00  0.00     0.077 C 
ATOM      3  C1  PXY d   1       0.480   1.074   0.266  0.00  0.00    -0.082 A 
ATOM      4  C2  PXY d   1      -0.505   0.885   1.130  0.00  0.00     0.003 A 
ATOM      5  C3  PXY d   1      -1.032  -0.366   1.317  0.00  0.00     0.003 A 
ATOM      6  C4  PXY d   1      -0.584  -1.425   0.574  0.00  0.00    -0.082 A 
ATOM      7  C5  PXY d   1       0.413  -1.239  -0.317  0.00  0.00     0.003 A 
ATOM      8  C6  PXY d   1       0.963   0.032  -0.462  0.00  0.00     0.003 A 
ENDROOT
TORSDOF 0
ENDMDL
