MODEL 1
REMARK minimizedAffinity 12.2921591
REMARK minimizedRMSD -1
REMARK  0 active torsions:
REMARK  status: ('A' for Active; 'I' for Inactive)
ROOT
ATOM      1  C1  DEN d   1      -4.477   5.261  -0.981  0.00  0.00     0.130 A 
ATOM      2  C2  DEN d   1      -4.987   3.991  -0.473  0.00  0.00    -0.031 A 
ATOM      3  C3  DEN d   1      -4.345   2.903  -1.236  0.00  0.00     0.027 A 
ATOM      4  C4  DEN d   1      -2.615   3.059  -3.143  0.00  0.00     0.027 A 
ATOM      5  C5  DEN d   1      -1.886   3.924  -3.929  0.00  0.00    -0.003 A 
ATOM      6  C6  DEN d   1      -1.994   5.285  -3.811  0.00  0.00     0.001 A 
ATOM      7  C7  DEN d   1      -2.817   5.820  -2.856  0.00  0.00     0.017 A 
ATOM      8  C8  DEN d   1      -3.561   4.955  -2.065  0.00  0.00    -0.094 A 
ATOM      9  C9  DEN d   1      -3.428   3.582  -2.191  0.00  0.00    -0.072 A 
ENDROOT
TORSDOF 0
ENDMDL
