MODEL 1
REMARK minimizedAffinity 19.8126965
REMARK minimizedRMSD -1
REMARK  0 active torsions:
REMARK  status: ('A' for Active; 'I' for Inactive)
ROOT
ATOM      1  C1  DEN d   1       0.170   2.201   0.436  0.00  0.00     0.130 A 
ATOM      2  C2  DEN d   1       0.878   3.457   0.206  0.00  0.00    -0.031 A 
ATOM      3  C3  DEN d   1       2.321   3.209   0.394  0.00  0.00     0.027 A 
ATOM      4  C4  DEN d   1       3.522   1.012   1.013  0.00  0.00     0.027 A 
ATOM      5  C5  DEN d   1       3.341  -0.319   1.320  0.00  0.00    -0.003 A 
ATOM      6  C6  DEN d   1       2.098  -0.890   1.386  0.00  0.00     0.001 A 
ATOM      7  C7  DEN d   1       0.989  -0.138   1.098  0.00  0.00     0.017 A 
ATOM      8  C8  DEN d   1       1.164   1.206   0.795  0.00  0.00    -0.094 A 
ATOM      9  C9  DEN d   1       2.429   1.762   0.721  0.00  0.00    -0.072 A 
ENDROOT
TORSDOF 0
ENDMDL
