MODEL 1
REMARK minimizedAffinity 13.1136303
REMARK minimizedRMSD -1
REMARK  0 active torsions:
REMARK  status: ('A' for Active; 'I' for Inactive)
ROOT
ATOM      1  C1  DEN d   1      -0.298   3.004  -0.359  0.00  0.00     0.130 A 
ATOM      2  C2  DEN d   1       0.961   2.828  -1.077  0.00  0.00    -0.031 A 
ATOM      3  C3  DEN d   1       0.676   2.909  -2.524  0.00  0.00     0.027 A 
ATOM      4  C4  DEN d   1      -1.579   3.294  -3.714  0.00  0.00     0.027 A 
ATOM      5  C5  DEN d   1      -2.930   3.487  -3.525  0.00  0.00    -0.003 A 
ATOM      6  C6  DEN d   1      -3.498   3.499  -2.279  0.00  0.00     0.001 A 
ATOM      7  C7  DEN d   1      -2.706   3.359  -1.170  0.00  0.00     0.017 A 
ATOM      8  C8  DEN d   1      -1.344   3.156  -1.353  0.00  0.00    -0.094 A 
ATOM      9  C9  DEN d   1      -0.787   3.160  -2.621  0.00  0.00    -0.072 A 
ENDROOT
TORSDOF 0
ENDMDL
