MODEL 1
REMARK minimizedAffinity 19.5821457
REMARK minimizedRMSD -1
REMARK  0 active torsions:
REMARK  status: ('A' for Active; 'I' for Inactive)
ROOT
ATOM      1  C1  DEN d   1      -4.837   3.557  -0.857  0.00  0.00     0.130 A 
ATOM      2  C2  DEN d   1      -5.110   4.987  -0.741  0.00  0.00    -0.031 A 
ATOM      3  C3  DEN d   1      -4.104   5.710  -1.545  0.00  0.00     0.027 A 
ATOM      4  C4  DEN d   1      -2.165   4.759  -2.955  0.00  0.00     0.027 A 
ATOM      5  C5  DEN d   1      -1.526   3.605  -3.351  0.00  0.00    -0.003 A 
ATOM      6  C6  DEN d   1      -1.922   2.366  -2.920  0.00  0.00     0.001 A 
ATOM      7  C7  DEN d   1      -3.014   2.249  -2.102  0.00  0.00     0.017 A 
ATOM      8  C8  DEN d   1      -3.659   3.409  -1.693  0.00  0.00    -0.094 A 
ATOM      9  C9  DEN d   1      -3.252   4.651  -2.149  0.00  0.00    -0.072 A 
ENDROOT
TORSDOF 0
ENDMDL
