MODEL 1
REMARK minimizedAffinity 17.7759514
REMARK minimizedRMSD -1
REMARK  0 active torsions:
REMARK  status: ('A' for Active; 'I' for Inactive)
ROOT
ATOM      1  C1  DEN d   1      -4.679   3.872  -0.565  0.00  0.00     0.130 A 
ATOM      2  C2  DEN d   1      -4.664   5.290  -0.217  0.00  0.00    -0.031 A 
ATOM      3  C3  DEN d   1      -3.774   5.984  -1.169  0.00  0.00     0.027 A 
ATOM      4  C4  DEN d   1      -2.427   5.007  -3.140  0.00  0.00     0.027 A 
ATOM      5  C5  DEN d   1      -2.111   3.852  -3.820  0.00  0.00    -0.003 A 
ATOM      6  C6  DEN d   1      -2.598   2.628  -3.446  0.00  0.00     0.001 A 
ATOM      7  C7  DEN d   1      -3.464   2.536  -2.388  0.00  0.00     0.017 A 
ATOM      8  C8  DEN d   1      -3.781   3.695  -1.693  0.00  0.00    -0.094 A 
ATOM      9  C9  DEN d   1      -3.288   4.925  -2.094  0.00  0.00    -0.072 A 
ENDROOT
TORSDOF 0
ENDMDL
