MODEL 1
REMARK minimizedAffinity 8.49145889
REMARK minimizedRMSD -1
REMARK  0 active torsions:
REMARK  status: ('A' for Active; 'I' for Inactive)
ROOT
ATOM      1  C1  DEN d   1       2.235  -0.472   2.092  0.00  0.00     0.130 A 
ATOM      2  C2  DEN d   1       2.637  -1.504   1.140  0.00  0.00    -0.031 A 
ATOM      3  C3  DEN d   1       1.609  -2.563   1.152  0.00  0.00     0.027 A 
ATOM      4  C4  DEN d   1      -0.558  -2.704   2.544  0.00  0.00     0.027 A 
ATOM      5  C5  DEN d   1      -1.322  -2.070   3.499  0.00  0.00    -0.003 A 
ATOM      6  C6  DEN d   1      -0.940  -0.886   4.072  0.00  0.00     0.001 A 
ATOM      7  C7  DEN d   1       0.216  -0.276   3.663  0.00  0.00     0.017 A 
ATOM      8  C8  DEN d   1       0.995  -0.912   2.705  0.00  0.00    -0.094 A 
ATOM      9  C9  DEN d   1       0.585  -2.102   2.129  0.00  0.00    -0.072 A 
ENDROOT
TORSDOF 0
ENDMDL
