MODEL 1
REMARK minimizedAffinity 12.7385769
REMARK minimizedRMSD -1
REMARK  0 active torsions:
REMARK  status: ('A' for Active; 'I' for Inactive)
ROOT
ATOM      1  C1  DEN d   1       0.613  -0.522   3.068  0.00  0.00     0.130 A 
ATOM      2  C2  DEN d   1      -0.393  -1.564   3.255  0.00  0.00    -0.031 A 
ATOM      3  C3  DEN d   1      -0.052  -2.692   2.365  0.00  0.00     0.027 A 
ATOM      4  C4  DEN d   1       1.928  -2.927   0.729  0.00  0.00     0.027 A 
ATOM      5  C5  DEN d   1       3.041  -2.297   0.215  0.00  0.00    -0.003 A 
ATOM      6  C6  DEN d   1       3.400  -1.029   0.588  0.00  0.00     0.001 A 
ATOM      7  C7  DEN d   1       2.664  -0.366   1.535  0.00  0.00     0.017 A 
ATOM      8  C8  DEN d   1       1.537  -0.991   2.052  0.00  0.00    -0.094 A 
ATOM      9  C9  DEN d   1       1.198  -2.279   1.671  0.00  0.00    -0.072 A 
ENDROOT
TORSDOF 0
ENDMDL
