MODEL 1
REMARK minimizedAffinity 12.5545692
REMARK minimizedRMSD -1
REMARK  0 active torsions:
REMARK  status: ('A' for Active; 'I' for Inactive)
ROOT
ATOM      1  C1  DEN d   1       1.314  -2.448   1.156  0.00  0.00     0.130 A 
ATOM      2  C2  DEN d   1       2.294  -1.371   1.257  0.00  0.00    -0.031 A 
ATOM      3  C3  DEN d   1       1.776  -0.370   2.211  0.00  0.00     0.027 A 
ATOM      4  C4  DEN d   1      -0.436  -0.386   3.538  0.00  0.00     0.027 A 
ATOM      5  C5  DEN d   1      -1.598  -1.087   3.774  0.00  0.00    -0.003 A 
ATOM      6  C6  DEN d   1      -1.885  -2.263   3.134  0.00  0.00     0.001 A 
ATOM      7  C7  DEN d   1      -0.976  -2.798   2.259  0.00  0.00     0.017 A 
ATOM      8  C8  DEN d   1       0.194  -2.094   2.010  0.00  0.00    -0.094 A 
ATOM      9  C9  DEN d   1       0.471  -0.913   2.677  0.00  0.00    -0.072 A 
ENDROOT
TORSDOF 0
ENDMDL
