MODEL 1
REMARK minimizedAffinity 7.19811535
REMARK minimizedRMSD -1
REMARK  0 active torsions:
REMARK  status: ('A' for Active; 'I' for Inactive)
ROOT
ATOM      1  C1  DEN d   1      -3.046   5.339  -2.116  0.00  0.00     0.130 A 
ATOM      2  C2  DEN d   1      -3.598   4.109  -1.556  0.00  0.00    -0.031 A 
ATOM      3  C3  DEN d   1      -3.594   3.082  -2.617  0.00  0.00     0.027 A 
ATOM      4  C4  DEN d   1      -2.787   3.275  -5.059  0.00  0.00     0.027 A 
ATOM      5  C5  DEN d   1      -2.250   4.126  -6.000  0.00  0.00    -0.003 A 
ATOM      6  C6  DEN d   1      -1.974   5.439  -5.724  0.00  0.00     0.001 A 
ATOM      7  C7  DEN d   1      -2.193   5.928  -4.463  0.00  0.00     0.017 A 
ATOM      8  C8  DEN d   1      -2.741   5.079  -3.512  0.00  0.00    -0.094 A 
ATOM      9  C9  DEN d   1      -3.002   3.751  -3.807  0.00  0.00    -0.072 A 
ENDROOT
TORSDOF 0
ENDMDL
