MODEL 1
REMARK minimizedAffinity 10.0320396
REMARK minimizedRMSD -1
REMARK  0 active torsions:
REMARK  status: ('A' for Active; 'I' for Inactive)
ROOT
ATOM      1  C1  DEN d   1       0.990  -2.631   1.294  0.00  0.00     0.130 A 
ATOM      2  C2  DEN d   1       1.991  -1.571   1.370  0.00  0.00    -0.031 A 
ATOM      3  C3  DEN d   1       1.582  -0.632   2.434  0.00  0.00     0.027 A 
ATOM      4  C4  DEN d   1      -0.491  -0.719   3.966  0.00  0.00     0.027 A 
ATOM      5  C5  DEN d   1      -1.635  -1.424   4.267  0.00  0.00    -0.003 A 
ATOM      6  C6  DEN d   1      -2.000  -2.552   3.582  0.00  0.00     0.001 A 
ATOM      7  C7  DEN d   1      -1.188  -3.035   2.589  0.00  0.00     0.017 A 
ATOM      8  C8  DEN d   1      -0.036  -2.326   2.275  0.00  0.00    -0.094 A 
ATOM      9  C9  DEN d   1       0.321  -1.194   2.988  0.00  0.00    -0.072 A 
ENDROOT
TORSDOF 0
ENDMDL
