MODEL 1
REMARK minimizedAffinity 4.16579342
REMARK minimizedRMSD -1
REMARK  0 active torsions:
REMARK  status: ('A' for Active; 'I' for Inactive)
ROOT
ATOM      1  C1  DEN d   1       0.861  -0.618   2.981  0.00  0.00     0.130 A 
ATOM      2  C2  DEN d   1       1.390  -1.391   1.860  0.00  0.00    -0.031 A 
ATOM      3  C3  DEN d   1       0.445  -2.490   1.578  0.00  0.00     0.027 A 
ATOM      4  C4  DEN d   1      -1.775  -3.065   2.757  0.00  0.00     0.027 A 
ATOM      5  C5  DEN d   1      -2.634  -2.704   3.772  0.00  0.00    -0.003 A 
ATOM      6  C6  DEN d   1      -2.373  -1.651   4.608  0.00  0.00     0.001 A 
ATOM      7  C7  DEN d   1      -1.247  -0.894   4.417  0.00  0.00     0.017 A 
ATOM      8  C8  DEN d   1      -0.373  -1.258   3.401  0.00  0.00    -0.094 A 
ATOM      9  C9  DEN d   1      -0.660  -2.318   2.558  0.00  0.00    -0.072 A 
ENDROOT
TORSDOF 0
ENDMDL
