MODEL 1
REMARK minimizedAffinity 7.07612228
REMARK minimizedRMSD -1
REMARK  0 active torsions:
REMARK  status: ('A' for Active; 'I' for Inactive)
ROOT
ATOM      1  C1  DEN d   1       0.816  -2.782   1.874  0.00  0.00     0.130 A 
ATOM      2  C2  DEN d   1       1.661  -1.606   1.687  0.00  0.00    -0.031 A 
ATOM      3  C3  DEN d   1       1.253  -0.588   2.676  0.00  0.00     0.027 A 
ATOM      4  C4  DEN d   1      -0.594  -0.720   4.472  0.00  0.00     0.027 A 
ATOM      5  C5  DEN d   1      -1.585  -1.513   5.007  0.00  0.00    -0.003 A 
ATOM      6  C6  DEN d   1      -1.866  -2.761   4.517  0.00  0.00     0.001 A 
ATOM      7  C7  DEN d   1      -1.117  -3.271   3.489  0.00  0.00     0.017 A 
ATOM      8  C8  DEN d   1      -0.120  -2.474   2.940  0.00  0.00    -0.094 A 
ATOM      9  C9  DEN d   1       0.156  -1.220   3.457  0.00  0.00    -0.072 A 
ENDROOT
TORSDOF 0
ENDMDL
