MODEL 1
REMARK minimizedAffinity 17.471323
REMARK minimizedRMSD -1
REMARK  0 active torsions:
REMARK  status: ('A' for Active; 'I' for Inactive)
ROOT
ATOM      1  C1  DEN d   1      -4.374   4.760  -0.847  0.00  0.00     0.130 A 
ATOM      2  C2  DEN d   1      -4.828   3.372  -0.853  0.00  0.00    -0.031 A 
ATOM      3  C3  DEN d   1      -4.046   2.641  -1.870  0.00  0.00     0.027 A 
ATOM      4  C4  DEN d   1      -2.181   3.516  -3.422  0.00  0.00     0.027 A 
ATOM      5  C5  DEN d   1      -1.457   4.628  -3.790  0.00  0.00    -0.003 A 
ATOM      6  C6  DEN d   1      -1.675   5.860  -3.231  0.00  0.00     0.001 A 
ATOM      7  C7  DEN d   1      -2.612   5.999  -2.241  0.00  0.00     0.017 A 
ATOM      8  C8  DEN d   1      -3.351   4.884  -1.870  0.00  0.00    -0.094 A 
ATOM      9  C9  DEN d   1      -3.107   3.645  -2.438  0.00  0.00    -0.072 A 
ENDROOT
TORSDOF 0
ENDMDL
