MODEL 1
REMARK minimizedAffinity 14.5009451
REMARK minimizedRMSD -1
REMARK  0 active torsions:
REMARK  status: ('A' for Active; 'I' for Inactive)
ROOT
ATOM      1  C1  DEN d   1       1.037  -2.282   1.608  0.00  0.00     0.130 A 
ATOM      2  C2  DEN d   1       1.831  -1.057   1.645  0.00  0.00    -0.031 A 
ATOM      3  C3  DEN d   1       1.189  -0.124   2.592  0.00  0.00     0.027 A 
ATOM      4  C4  DEN d   1      -0.946  -0.456   4.001  0.00  0.00     0.027 A 
ATOM      5  C5  DEN d   1      -1.970  -1.328   4.298  0.00  0.00    -0.003 A 
ATOM      6  C6  DEN d   1      -2.082  -2.555   3.699  0.00  0.00     0.001 A 
ATOM      7  C7  DEN d   1      -1.128  -2.963   2.805  0.00  0.00     0.017 A 
ATOM      8  C8  DEN d   1      -0.096  -2.087   2.494  0.00  0.00    -0.094 A 
ATOM      9  C9  DEN d   1       0.006  -0.856   3.120  0.00  0.00    -0.072 A 
ENDROOT
TORSDOF 0
ENDMDL
