MODEL 1
REMARK minimizedAffinity -5.21426868
REMARK minimizedRMSD -1
REMARK  0 active torsions:
REMARK  status: ('A' for Active; 'I' for Inactive)
ROOT
ATOM      1  N1  IND d   1       0.146   0.248  -0.569  0.00  0.00    -0.196 N 
ATOM      2  C2  IND d   1      -0.959   0.963  -0.201  0.00  0.00     0.054 A 
ATOM      3  C3  IND d   1      -1.467   0.482   0.956  0.00  0.00    -0.031 A 
ATOM      4  C4  IND d   1      -0.586  -1.407   2.468  0.00  0.00     0.051 A 
ATOM      5  C5  IND d   1       0.375  -2.377   2.531  0.00  0.00    -0.031 A 
ATOM      6  C6  IND d   1       1.329  -2.523   1.545  0.00  0.00     0.015 A 
ATOM      7  C7  IND d   1       1.366  -1.693   0.460  0.00  0.00    -0.016 A 
ATOM      8  C8  IND d   1       0.388  -0.711   0.390  0.00  0.00    -0.047 A 
ATOM      9  C9  IND d   1      -0.609  -0.585   1.366  0.00  0.00    -0.096 A 
ATOM     10  HN1 IND d   1       0.613   0.376  -1.280  0.00  0.00     0.298 HD
ENDROOT
TORSDOF 0
ENDMDL
