MODEL 1
REMARK minimizedAffinity -1.72595704
REMARK minimizedRMSD -1
REMARK  0 active torsions:
REMARK  status: ('A' for Active; 'I' for Inactive)
ROOT
ATOM      1  N1  IND d   1      -1.146  -0.112  -0.081  0.00  0.00    -0.196 N 
ATOM      2  C2  IND d   1       0.189   0.029   0.177  0.00  0.00     0.054 A 
ATOM      3  C3  IND d   1       0.710   1.025  -0.574  0.00  0.00    -0.031 A 
ATOM      4  C4  IND d   1      -0.465   2.620  -2.218  0.00  0.00     0.051 A 
ATOM      5  C5  IND d   1      -1.672   2.857  -2.812  0.00  0.00    -0.031 A 
ATOM      6  C6  IND d   1      -2.790   2.102  -2.518  0.00  0.00     0.015 A 
ATOM      7  C7  IND d   1      -2.743   1.086  -1.606  0.00  0.00    -0.016 A 
ATOM      8  C8  IND d   1      -1.517   0.838  -1.006  0.00  0.00    -0.047 A 
ATOM      9  C9  IND d   1      -0.369   1.573  -1.332  0.00  0.00    -0.096 A 
ATOM     10  HN1 IND d   1      -1.667  -0.696   0.276  0.00  0.00     0.298 HD
ENDROOT
TORSDOF 0
ENDMDL
