MODEL 1
REMARK minimizedAffinity -4.45430422
REMARK minimizedRMSD -1
REMARK  0 active torsions:
REMARK  status: ('A' for Active; 'I' for Inactive)
ROOT
ATOM      1  N1  IND d   1      -0.843   0.388   0.346  0.00  0.00    -0.196 N 
ATOM      2  C2  IND d   1      -0.081   1.205  -0.441  0.00  0.00     0.054 A 
ATOM      3  C3  IND d   1       1.158   0.688  -0.595  0.00  0.00    -0.031 A 
ATOM      4  C4  IND d   1       2.121  -1.537   0.271  0.00  0.00     0.051 A 
ATOM      5  C5  IND d   1       1.816  -2.606   1.066  0.00  0.00    -0.031 A 
ATOM      6  C6  IND d   1       0.583  -2.736   1.672  0.00  0.00     0.015 A 
ATOM      7  C7  IND d   1      -0.399  -1.803   1.495  0.00  0.00    -0.016 A 
ATOM      8  C8  IND d   1      -0.090  -0.712   0.694  0.00  0.00    -0.047 A 
ATOM      9  C9  IND d   1       1.174  -0.554   0.111  0.00  0.00    -0.096 A 
ATOM     10  HN1 IND d   1      -1.656   0.536   0.585  0.00  0.00     0.298 HD
ENDROOT
TORSDOF 0
ENDMDL
