MODEL 1
REMARK minimizedAffinity -3.63948464
REMARK minimizedRMSD -1
REMARK  0 active torsions:
REMARK  status: ('A' for Active; 'I' for Inactive)
ROOT
ATOM      1  N1  IND d   1       0.635  -2.806   1.436  0.00  0.00    -0.196 N 
ATOM      2  C2  IND d   1       1.991  -2.922   1.303  0.00  0.00     0.054 A 
ATOM      3  C3  IND d   1       2.497  -1.834   0.681  0.00  0.00    -0.031 A 
ATOM      4  C4  IND d   1       1.298   0.301  -0.115  0.00  0.00     0.051 A 
ATOM      5  C5  IND d   1       0.055   0.854  -0.244  0.00  0.00    -0.031 A 
ATOM      6  C6  IND d   1      -1.081   0.203   0.192  0.00  0.00     0.015 A 
ATOM      7  C7  IND d   1      -1.015  -1.026   0.786  0.00  0.00    -0.016 A 
ATOM      8  C8  IND d   1       0.245  -1.593   0.912  0.00  0.00    -0.047 A 
ATOM      9  C9  IND d   1       1.397  -0.956   0.433  0.00  0.00    -0.096 A 
ATOM     10  HN1 IND d   1       0.114  -3.392   1.788  0.00  0.00     0.298 HD
ENDROOT
TORSDOF 0
ENDMDL
