MODEL 1
REMARK minimizedAffinity -5.13655186
REMARK minimizedRMSD -1
REMARK  0 active torsions:
REMARK  status: ('A' for Active; 'I' for Inactive)
ROOT
ATOM      1  N1  IND d   1      -0.862   0.257   0.583  0.00  0.00    -0.196 N 
ATOM      2  C2  IND d   1      -0.099   1.160  -0.103  0.00  0.00     0.054 A 
ATOM      3  C3  IND d   1       1.132   0.653  -0.340  0.00  0.00    -0.031 A 
ATOM      4  C4  IND d   1       2.077  -1.675   0.220  0.00  0.00     0.051 A 
ATOM      5  C5  IND d   1       1.768  -2.834   0.876  0.00  0.00    -0.031 A 
ATOM      6  C6  IND d   1       0.541  -3.027   1.477  0.00  0.00     0.015 A 
ATOM      7  C7  IND d   1      -0.431  -2.068   1.435  0.00  0.00    -0.016 A 
ATOM      8  C8  IND d   1      -0.119  -0.887   0.776  0.00  0.00    -0.047 A 
ATOM      9  C9  IND d   1       1.140  -0.669   0.201  0.00  0.00    -0.096 A 
ATOM     10  HN1 IND d   1      -1.670   0.382   0.849  0.00  0.00     0.298 HD
ENDROOT
TORSDOF 0
ENDMDL
