MODEL 1
REMARK minimizedAffinity -6.50603342
REMARK minimizedRMSD -1
REMARK  0 active torsions:
REMARK  status: ('A' for Active; 'I' for Inactive)
ROOT
ATOM      1  N1  IND d   1      -1.011  -1.241   2.715  0.00  0.00    -0.196 N 
ATOM      2  C2  IND d   1      -0.523  -2.218   3.538  0.00  0.00     0.054 A 
ATOM      3  C3  IND d   1       0.614  -2.740   3.025  0.00  0.00    -0.031 A 
ATOM      4  C4  IND d   1       1.908  -2.072   0.902  0.00  0.00     0.051 A 
ATOM      5  C5  IND d   1       1.834  -1.257  -0.193  0.00  0.00    -0.031 A 
ATOM      6  C6  IND d   1       0.789  -0.375  -0.376  0.00  0.00     0.015 A 
ATOM      7  C7  IND d   1      -0.221  -0.267   0.538  0.00  0.00    -0.016 A 
ATOM      8  C8  IND d   1      -0.153  -1.098   1.647  0.00  0.00    -0.047 A 
ATOM      9  C9  IND d   1       0.883  -2.026   1.817  0.00  0.00    -0.096 A 
ATOM     10  HN1 IND d   1      -1.733  -0.792   2.844  0.00  0.00     0.298 HD
ENDROOT
TORSDOF 0
ENDMDL
