MODEL 1
REMARK minimizedAffinity -3.05556226
REMARK minimizedRMSD -1
REMARK  0 active torsions:
REMARK  status: ('A' for Active; 'I' for Inactive)
ROOT
ATOM      1  N1  IND d   1       1.386  -1.426  -0.415  0.00  0.00    -0.196 N 
ATOM      2  C2  IND d   1       1.444  -2.606   0.273  0.00  0.00     0.054 A 
ATOM      3  C3  IND d   1       0.640  -2.557   1.359  0.00  0.00    -0.031 A 
ATOM      4  C4  IND d   1      -0.938  -0.680   2.143  0.00  0.00     0.051 A 
ATOM      5  C5  IND d   1      -1.307   0.605   1.860  0.00  0.00    -0.031 A 
ATOM      6  C6  IND d   1      -0.790   1.292   0.781  0.00  0.00     0.015 A 
ATOM      7  C7  IND d   1       0.112   0.712  -0.066  0.00  0.00    -0.016 A 
ATOM      8  C8  IND d   1       0.495  -0.590   0.222  0.00  0.00    -0.047 A 
ATOM      9  C9  IND d   1       0.006  -1.277   1.341  0.00  0.00    -0.096 A 
ATOM     10  HN1 IND d   1       1.830  -1.238  -1.126  0.00  0.00     0.298 HD
ENDROOT
TORSDOF 0
ENDMDL
