MODEL 1
REMARK minimizedAffinity -2.18287301
REMARK minimizedRMSD -1
REMARK  0 active torsions:
REMARK  status: ('A' for Active; 'I' for Inactive)
ROOT
ATOM      1  N1  IND d   1      -0.561   0.453   1.048  0.00  0.00    -0.196 N 
ATOM      2  C2  IND d   1      -0.504   1.246  -0.064  0.00  0.00     0.054 A 
ATOM      3  C3  IND d   1       0.557   0.905  -0.830  0.00  0.00    -0.031 A 
ATOM      4  C4  IND d   1       2.270  -0.988  -0.503  0.00  0.00     0.051 A 
ATOM      5  C5  IND d   1       2.649  -1.957   0.383  0.00  0.00    -0.031 A 
ATOM      6  C6  IND d   1       1.962  -2.178   1.560  0.00  0.00     0.015 A 
ATOM      7  C7  IND d   1       0.858  -1.443   1.889  0.00  0.00    -0.016 A 
ATOM      8  C8  IND d   1       0.475  -0.454   0.994  0.00  0.00    -0.047 A 
ATOM      9  C9  IND d   1       1.193  -0.197  -0.181  0.00  0.00    -0.096 A 
ATOM     10  HN1 IND d   1      -1.146   0.511   1.676  0.00  0.00     0.298 HD
ENDROOT
TORSDOF 0
ENDMDL
