MODEL 1
REMARK minimizedAffinity -2.07567835
REMARK minimizedRMSD -1
REMARK  0 active torsions:
REMARK  status: ('A' for Active; 'I' for Inactive)
ROOT
ATOM      1  N1  IND d   1      -1.159   0.415  -0.237  0.00  0.00    -0.196 N 
ATOM      2  C2  IND d   1      -0.293   1.279  -0.847  0.00  0.00     0.054 A 
ATOM      3  C3  IND d   1       0.985   0.901  -0.621  0.00  0.00    -0.031 A 
ATOM      4  C4  IND d   1       1.884  -1.160   0.634  0.00  0.00     0.051 A 
ATOM      5  C5  IND d   1       1.477  -2.221   1.393  0.00  0.00    -0.031 A 
ATOM      6  C6  IND d   1       0.143  -2.465   1.650  0.00  0.00     0.015 A 
ATOM      7  C7  IND d   1      -0.838  -1.659   1.146  0.00  0.00    -0.016 A 
ATOM      8  C8  IND d   1      -0.428  -0.576   0.381  0.00  0.00    -0.047 A 
ATOM      9  C9  IND d   1       0.926  -0.299   0.152  0.00  0.00    -0.096 A 
ATOM     10  HN1 IND d   1      -2.017   0.479  -0.240  0.00  0.00     0.298 HD
ENDROOT
TORSDOF 0
ENDMDL
