MODEL 1
REMARK minimizedAffinity -4.41761065
REMARK minimizedRMSD -1
REMARK  0 active torsions:
REMARK  status: ('A' for Active; 'I' for Inactive)
ROOT
ATOM      1  N1  IND d   1      -0.756   0.610   0.480  0.00  0.00    -0.196 N 
ATOM      2  C2  IND d   1      -1.794   0.284   1.308  0.00  0.00     0.054 A 
ATOM      3  C3  IND d   1      -1.613  -0.952   1.824  0.00  0.00    -0.031 A 
ATOM      4  C4  IND d   1       0.362  -2.576   1.526  0.00  0.00     0.051 A 
ATOM      5  C5  IND d   1       1.530  -2.737   0.834  0.00  0.00    -0.031 A 
ATOM      6  C6  IND d   1       2.007  -1.769  -0.026  0.00  0.00     0.015 A 
ATOM      7  C7  IND d   1       1.336  -0.595  -0.219  0.00  0.00    -0.016 A 
ATOM      8  C8  IND d   1       0.146  -0.431   0.476  0.00  0.00    -0.047 A 
ATOM      9  C9  IND d   1      -0.364  -1.428   1.318  0.00  0.00    -0.096 A 
ATOM     10  HN1 IND d   1      -0.680   1.342   0.036  0.00  0.00     0.298 HD
ENDROOT
TORSDOF 0
ENDMDL
