MODEL 1
REMARK minimizedAffinity -1.35011899
REMARK minimizedRMSD -1
REMARK  0 active torsions:
REMARK  status: ('A' for Active; 'I' for Inactive)
ROOT
ATOM      1  N1  IND d   1       1.263   1.145   0.398  0.00  0.00    -0.196 N 
ATOM      2  C2  IND d   1       0.096   1.553  -0.186  0.00  0.00     0.054 A 
ATOM      3  C3  IND d   1      -0.752   0.509  -0.321  0.00  0.00    -0.031 A 
ATOM      4  C4  IND d   1      -0.471  -1.935   0.438  0.00  0.00     0.051 A 
ATOM      5  C5  IND d   1       0.440  -2.795   0.985  0.00  0.00    -0.031 A 
ATOM      6  C6  IND d   1       1.696  -2.377   1.375  0.00  0.00     0.015 A 
ATOM      7  C7  IND d   1       2.085  -1.074   1.242  0.00  0.00    -0.016 A 
ATOM      8  C8  IND d   1       1.166  -0.200   0.680  0.00  0.00    -0.047 A 
ATOM      9  C9  IND d   1      -0.094  -0.627   0.243  0.00  0.00    -0.096 A 
ATOM     10  HN1 IND d   1       1.944   1.645   0.561  0.00  0.00     0.298 HD
ENDROOT
TORSDOF 0
ENDMDL
