MODEL 1
REMARK minimizedAffinity -3.68745112
REMARK minimizedRMSD -1
REMARK  0 active torsions:
REMARK  status: ('A' for Active; 'I' for Inactive)
ROOT
ATOM      1  N1  IND d   1       2.263  -1.262   0.306  0.00  0.00    -0.196 N 
ATOM      2  C2  IND d   1       1.798  -2.385   0.932  0.00  0.00     0.054 A 
ATOM      3  C3  IND d   1       0.480  -2.257   1.208  0.00  0.00    -0.031 A 
ATOM      4  C4  IND d   1      -1.133  -0.336   0.632  0.00  0.00     0.051 A 
ATOM      5  C5  IND d   1      -1.164   0.921   0.096  0.00  0.00    -0.031 A 
ATOM      6  C6  IND d   1      -0.031   1.525  -0.411  0.00  0.00     0.015 A 
ATOM      7  C7  IND d   1       1.177   0.888  -0.410  0.00  0.00    -0.016 A 
ATOM      8  C8  IND d   1       1.213  -0.386   0.140  0.00  0.00    -0.047 A 
ATOM      9  C9  IND d   1       0.076  -0.987   0.694  0.00  0.00    -0.096 A 
ATOM     10  HN1 IND d   1       3.075  -1.127   0.057  0.00  0.00     0.298 HD
ENDROOT
TORSDOF 0
ENDMDL
