MODEL 1
REMARK minimizedAffinity -5.34518528
REMARK minimizedRMSD -1
REMARK  0 active torsions:
REMARK  status: ('A' for Active; 'I' for Inactive)
ROOT
ATOM      1  N1  IND d   1      -0.685   0.541  -0.123  0.00  0.00    -0.196 N 
ATOM      2  C2  IND d   1       0.200   1.420  -0.683  0.00  0.00     0.054 A 
ATOM      3  C3  IND d   1       1.470   1.015  -0.459  0.00  0.00    -0.031 A 
ATOM      4  C4  IND d   1       2.327  -1.111   0.713  0.00  0.00     0.051 A 
ATOM      5  C5  IND d   1       1.897  -2.199   1.419  0.00  0.00    -0.031 A 
ATOM      6  C6  IND d   1       0.557  -2.436   1.649  0.00  0.00     0.015 A 
ATOM      7  C7  IND d   1      -0.407  -1.596   1.170  0.00  0.00    -0.016 A 
ATOM      8  C8  IND d   1       0.026  -0.485   0.459  0.00  0.00    -0.047 A 
ATOM      9  C9  IND d   1       1.386  -0.217   0.259  0.00  0.00    -0.096 A 
ATOM     10  HN1 IND d   1      -1.541   0.617  -0.132  0.00  0.00     0.298 HD
ENDROOT
TORSDOF 0
ENDMDL
