MODEL 1
REMARK minimizedAffinity -0.899103701
REMARK minimizedRMSD -1
REMARK  0 active torsions:
REMARK  status: ('A' for Active; 'I' for Inactive)
ROOT
ATOM      1  N1  IND d   1       2.331  -0.916   0.653  0.00  0.00    -0.196 N 
ATOM      2  C2  IND d   1       1.879  -2.195   0.823  0.00  0.00     0.054 A 
ATOM      3  C3  IND d   1       0.583  -2.289   0.450  0.00  0.00    -0.031 A 
ATOM      4  C4  IND d   1      -0.962  -0.496  -0.563  0.00  0.00     0.051 A 
ATOM      5  C5  IND d   1      -1.010   0.834  -0.874  0.00  0.00    -0.031 A 
ATOM      6  C6  IND d   1       0.077   1.665  -0.690  0.00  0.00     0.015 A 
ATOM      7  C7  IND d   1       1.260   1.192  -0.198  0.00  0.00    -0.016 A 
ATOM      8  C8  IND d   1       1.310  -0.157   0.126  0.00  0.00    -0.047 A 
ATOM      9  C9  IND d   1       0.197  -0.996  -0.019  0.00  0.00    -0.096 A 
ATOM     10  HN1 IND d   1       3.120  -0.634   0.844  0.00  0.00     0.298 HD
ENDROOT
TORSDOF 0
ENDMDL
