MODEL 1
REMARK minimizedAffinity -4.15274191
REMARK minimizedRMSD -1
REMARK  0 active torsions:
REMARK  status: ('A' for Active; 'I' for Inactive)
ROOT
ATOM      1  N1  IND d   1       1.111  -1.765  -0.604  0.00  0.00    -0.196 N 
ATOM      2  C2  IND d   1       1.257  -2.669   0.411  0.00  0.00     0.054 A 
ATOM      3  C3  IND d   1       0.605  -2.244   1.516  0.00  0.00    -0.031 A 
ATOM      4  C4  IND d   1      -0.850  -0.147   1.853  0.00  0.00     0.051 A 
ATOM      5  C5  IND d   1      -1.251   0.998   1.224  0.00  0.00    -0.031 A 
ATOM      6  C6  IND d   1      -0.880   1.286  -0.073  0.00  0.00     0.015 A 
ATOM      7  C7  IND d   1      -0.100   0.429  -0.798  0.00  0.00    -0.016 A 
ATOM      8  C8  IND d   1       0.315  -0.731  -0.160  0.00  0.00    -0.047 A 
ATOM      9  C9  IND d   1      -0.023  -1.008   1.171  0.00  0.00    -0.096 A 
ATOM     10  HN1 IND d   1       1.457  -1.830  -1.388  0.00  0.00     0.298 HD
ENDROOT
TORSDOF 0
ENDMDL
