MODEL 1
REMARK minimizedAffinity -2.73927116
REMARK minimizedRMSD -1
REMARK  0 active torsions:
REMARK  status: ('A' for Active; 'I' for Inactive)
ROOT
ATOM      1  N1  IND d   1       2.513  -1.279   0.360  0.00  0.00    -0.196 N 
ATOM      2  C2  IND d   1       2.245  -2.359   1.154  0.00  0.00     0.054 A 
ATOM      3  C3  IND d   1       0.945  -2.359   1.525  0.00  0.00    -0.031 A 
ATOM      4  C4  IND d   1      -0.945  -0.741   0.864  0.00  0.00     0.051 A 
ATOM      5  C5  IND d   1      -1.179   0.422   0.185  0.00  0.00    -0.031 A 
ATOM      6  C6  IND d   1      -0.175   1.090  -0.486  0.00  0.00     0.015 A 
ATOM      7  C7  IND d   1       1.104   0.611  -0.512  0.00  0.00    -0.016 A 
ATOM      8  C8  IND d   1       1.347  -0.566   0.182  0.00  0.00    -0.047 A 
ATOM      9  C9  IND d   1       0.341  -1.226   0.899  0.00  0.00    -0.096 A 
ATOM     10  HN1 IND d   1       3.280  -1.078   0.028  0.00  0.00     0.298 HD
ENDROOT
TORSDOF 0
ENDMDL
