MODEL 1
REMARK minimizedAffinity 12.9756041
REMARK minimizedRMSD -1
REMARK  2 active torsions:
REMARK  status: ('A' for Active; 'I' for Inactive)
REMARK    1  A    between atoms: C2'_3  and  C1'_4 
REMARK    2  A    between atoms: C1'_4  and  C1_5 
ROOT
ATOM      1  C1  I4B d   1      -3.620   0.824   3.913  0.00  0.00    -0.075 A 
ATOM      2  C2  I4B d   1      -4.038   0.103   2.822  0.00  0.00     0.003 A 
ATOM      3  C3  I4B d   1      -4.207  -1.300   2.917  0.00  0.00     0.002 A 
ATOM      4  C4  I4B d   1      -3.900  -1.943   4.099  0.00  0.00    -0.004 A 
ATOM      5  C5  I4B d   1      -3.499  -1.207   5.210  0.00  0.00     0.002 A 
ATOM      6  C6  I4B d   1      -3.369   0.186   5.121  0.00  0.00     0.003 A 
ENDROOT
BRANCH   1   7
ATOM      7  C1' I4B d   1      -3.420   2.299   3.768  0.00  0.00     0.060 C 
BRANCH   7   8
ATOM      8  C2' I4B d   1      -4.593   2.996   4.428  0.00  0.00    -0.013 C 
ATOM      9  C4' I4B d   1      -5.904   2.449   3.928  0.00  0.00     0.013 C 
ATOM     10  C3' I4B d   1      -4.462   2.818   5.911  0.00  0.00     0.013 C 
ENDBRANCH   7   8
ENDBRANCH   1   7
TORSDOF 2
ENDMDL
