MODEL 1
REMARK minimizedAffinity 17.583498
REMARK minimizedRMSD -1
REMARK  2 active torsions:
REMARK  status: ('A' for Active; 'I' for Inactive)
REMARK    1  A    between atoms: C2'_3  and  C1'_4 
REMARK    2  A    between atoms: C1'_4  and  C1_5 
ROOT
ATOM      1  C1  I4B d   1       1.566  -1.744  -2.328  0.00  0.00    -0.075 A 
ATOM      2  C2  I4B d   1       1.770  -0.400  -2.518  0.00  0.00     0.003 A 
ATOM      3  C3  I4B d   1       2.447   0.364  -1.537  0.00  0.00     0.002 A 
ATOM      4  C4  I4B d   1       2.854  -0.241  -0.366  0.00  0.00    -0.004 A 
ATOM      5  C5  I4B d   1       2.667  -1.608  -0.184  0.00  0.00     0.002 A 
ATOM      6  C6  I4B d   1       2.029  -2.367  -1.177  0.00  0.00     0.003 A 
ENDROOT
BRANCH   1   7
ATOM      7  C1' I4B d   1       0.819  -2.514  -3.370  0.00  0.00     0.060 C 
BRANCH   7   8
ATOM      8  C2' I4B d   1      -0.572  -2.793  -2.837  0.00  0.00    -0.013 C 
ATOM      9  C4' I4B d   1      -1.621  -2.514  -3.881  0.00  0.00     0.013 C 
ATOM     10  C3' I4B d   1      -0.618  -4.224  -2.391  0.00  0.00     0.013 C 
ENDBRANCH   7   8
ENDBRANCH   1   7
TORSDOF 2
ENDMDL
