MODEL 1
REMARK minimizedAffinity 20.0197468
REMARK minimizedRMSD -1
REMARK  2 active torsions:
REMARK  status: ('A' for Active; 'I' for Inactive)
REMARK    1  A    between atoms: C2'_3  and  C1'_4 
REMARK    2  A    between atoms: C1'_4  and  C1_5 
ROOT
ATOM      1  C1  I4B d   1      -3.415   0.024   4.784  0.00  0.00    -0.075 A 
ATOM      2  C2  I4B d   1      -3.723   0.324   3.480  0.00  0.00     0.003 A 
ATOM      3  C3  I4B d   1      -4.175   1.620   3.134  0.00  0.00     0.002 A 
ATOM      4  C4  I4B d   1      -4.353   2.565   4.124  0.00  0.00    -0.004 A 
ATOM      5  C5  I4B d   1      -4.019   2.266   5.442  0.00  0.00     0.002 A 
ATOM      6  C6  I4B d   1      -3.535   0.992   5.773  0.00  0.00     0.003 A 
ENDROOT
BRANCH   1   7
ATOM      7  C1' I4B d   1      -2.972  -1.365   5.119  0.00  0.00     0.060 C 
BRANCH   7   8
ATOM      8  C2' I4B d   1      -3.878  -2.334   4.388  0.00  0.00    -0.013 C 
ATOM      9  C4' I4B d   1      -3.240  -2.822   3.114  0.00  0.00     0.013 C 
ATOM     10  C3' I4B d   1      -4.181  -3.474   5.314  0.00  0.00     0.013 C 
ENDBRANCH   7   8
ENDBRANCH   1   7
TORSDOF 2
ENDMDL
