MODEL 1
REMARK minimizedAffinity 21.608757
REMARK minimizedRMSD -1
REMARK  2 active torsions:
REMARK  status: ('A' for Active; 'I' for Inactive)
REMARK    1  A    between atoms: C2'_3  and  C1'_4 
REMARK    2  A    between atoms: C1'_4  and  C1_5 
ROOT
ATOM      1  C1  I4B d   1      -3.273   0.627   4.294  0.00  0.00    -0.075 A 
ATOM      2  C2  I4B d   1      -3.941   1.372   3.355  0.00  0.00     0.003 A 
ATOM      3  C3  I4B d   1      -4.591   2.573   3.729  0.00  0.00     0.002 A 
ATOM      4  C4  I4B d   1      -4.592   2.962   5.053  0.00  0.00    -0.004 A 
ATOM      5  C5  I4B d   1      -3.895   2.217   6.000  0.00  0.00     0.002 A 
ATOM      6  C6  I4B d   1      -3.221   1.048   5.616  0.00  0.00     0.003 A 
ENDROOT
BRANCH   1   7
ATOM      7  C1' I4B d   1      -2.624  -0.653   3.871  0.00  0.00     0.060 C 
BRANCH   7   8
ATOM      8  C2' I4B d   1      -3.566  -1.789   4.212  0.00  0.00    -0.013 C 
ATOM      9  C4' I4B d   1      -3.159  -3.062   3.519  0.00  0.00     0.013 C 
ATOM     10  C3' I4B d   1      -3.564  -1.960   5.702  0.00  0.00     0.013 C 
ENDBRANCH   7   8
ENDBRANCH   1   7
TORSDOF 2
ENDMDL
