MODEL 1
REMARK minimizedAffinity 16.9953651
REMARK minimizedRMSD -1
REMARK  2 active torsions:
REMARK  status: ('A' for Active; 'I' for Inactive)
REMARK    1  A    between atoms: C2'_3  and  C1'_4 
REMARK    2  A    between atoms: C1'_4  and  C1_5 
ROOT
ATOM      1  C1  I4B d   1      -4.208   1.180   3.766  0.00  0.00    -0.075 A 
ATOM      2  C2  I4B d   1      -5.326   1.976   3.756  0.00  0.00     0.003 A 
ATOM      3  C3  I4B d   1      -5.637   2.782   4.877  0.00  0.00     0.002 A 
ATOM      4  C4  I4B d   1      -4.837   2.723   6.000  0.00  0.00    -0.004 A 
ATOM      5  C5  I4B d   1      -3.691   1.932   6.000  0.00  0.00     0.002 A 
ATOM      6  C6  I4B d   1      -3.367   1.165   4.872  0.00  0.00     0.003 A 
ENDROOT
BRANCH   1   7
ATOM      7  C1' I4B d   1      -3.927   0.316   2.577  0.00  0.00     0.060 C 
BRANCH   7   8
ATOM      8  C2' I4B d   1      -4.183  -1.123   2.974  0.00  0.00    -0.013 C 
ATOM      9  C4' I4B d   1      -3.915  -1.340   4.440  0.00  0.00     0.013 C 
ATOM     10  C3' I4B d   1      -5.605  -1.452   2.630  0.00  0.00     0.013 C 
ENDBRANCH   7   8
ENDBRANCH   1   7
TORSDOF 2
ENDMDL
