MODEL 1
REMARK minimizedAffinity 7.18377733
REMARK minimizedRMSD -1
REMARK  2 active torsions:
REMARK  status: ('A' for Active; 'I' for Inactive)
REMARK    1  A    between atoms: C2'_3  and  C1'_4 
REMARK    2  A    between atoms: C1'_4  and  C1_5 
ROOT
ATOM      1  C1  I4B d   1       2.376  -1.408  -1.579  0.00  0.00    -0.075 A 
ATOM      2  C2  I4B d   1       2.587  -2.227  -0.498  0.00  0.00     0.003 A 
ATOM      3  C3  I4B d   1       2.257  -3.602  -0.570  0.00  0.00     0.002 A 
ATOM      4  C4  I4B d   1       1.676  -4.103  -1.717  0.00  0.00    -0.004 A 
ATOM      5  C5  I4B d   1       1.484  -3.276  -2.820  0.00  0.00     0.002 A 
ATOM      6  C6  I4B d   1       1.847  -1.923  -2.756  0.00  0.00     0.003 A 
ENDROOT
BRANCH   1   7
ATOM      7  C1' I4B d   1       2.705   0.046  -1.458  0.00  0.00     0.060 C 
BRANCH   7   8
ATOM      8  C2' I4B d   1       3.476   0.243  -0.168  0.00  0.00    -0.013 C 
ATOM      9  C4' I4B d   1       4.752   1.007  -0.407  0.00  0.00     0.013 C 
ATOM     10  C3' I4B d   1       2.585   0.967   0.797  0.00  0.00     0.013 C 
ENDBRANCH   7   8
ENDBRANCH   1   7
TORSDOF 2
ENDMDL
