MODEL 1
REMARK minimizedAffinity 14.5455704
REMARK minimizedRMSD -1
REMARK  2 active torsions:
REMARK  status: ('A' for Active; 'I' for Inactive)
REMARK    1  A    between atoms: C2'_3  and  C1'_4 
REMARK    2  A    between atoms: C1'_4  and  C1_5 
ROOT
ATOM      1  C1  I4B d   1       2.179  -1.016  -0.931  0.00  0.00    -0.075 A 
ATOM      2  C2  I4B d   1       1.516  -1.378  -2.077  0.00  0.00     0.003 A 
ATOM      3  C3  I4B d   1       1.286  -2.744  -2.367  0.00  0.00     0.002 A 
ATOM      4  C4  I4B d   1       1.777  -3.712  -1.514  0.00  0.00    -0.004 A 
ATOM      5  C5  I4B d   1       2.429  -3.343  -0.341  0.00  0.00     0.002 A 
ATOM      6  C6  I4B d   1       2.620  -1.987  -0.041  0.00  0.00     0.003 A 
ENDROOT
BRANCH   1   7
ATOM      7  C1' I4B d   1       2.434   0.435  -0.672  0.00  0.00     0.060 C 
BRANCH   7   8
ATOM      8  C2' I4B d   1       3.288   0.544   0.574  0.00  0.00    -0.013 C 
ATOM      9  C4' I4B d   1       4.555   1.311   0.302  0.00  0.00     0.013 C 
ATOM     10  C3' I4B d   1       2.470   1.211   1.639  0.00  0.00     0.013 C 
ENDBRANCH   7   8
ENDBRANCH   1   7
TORSDOF 2
ENDMDL
