MODEL 1
REMARK minimizedAffinity 20.8967285
REMARK minimizedRMSD -1
REMARK  2 active torsions:
REMARK  status: ('A' for Active; 'I' for Inactive)
REMARK    1  A    between atoms: C2'_3  and  C1'_4 
REMARK    2  A    between atoms: C1'_4  and  C1_5 
ROOT
ATOM      1  C1  I4B d   1      -4.463  -0.210   3.386  0.00  0.00    -0.075 A 
ATOM      2  C2  I4B d   1      -3.632  -0.877   4.251  0.00  0.00     0.003 A 
ATOM      3  C3  I4B d   1      -3.766  -2.275   4.433  0.00  0.00     0.002 A 
ATOM      4  C4  I4B d   1      -4.769  -2.953   3.772  0.00  0.00    -0.004 A 
ATOM      5  C5  I4B d   1      -5.596  -2.280   2.878  0.00  0.00     0.002 A 
ATOM      6  C6  I4B d   1      -5.435  -0.902   2.674  0.00  0.00     0.003 A 
ENDROOT
BRANCH   1   7
ATOM      7  C1' I4B d   1      -4.316   1.271   3.243  0.00  0.00     0.060 C 
BRANCH   7   8
ATOM      8  C2' I4B d   1      -5.396   1.930   4.076  0.00  0.00    -0.013 C 
ATOM      9  C4' I4B d   1      -4.841   2.450   5.376  0.00  0.00     0.013 C 
ATOM     10  C3' I4B d   1      -5.997   3.038   3.263  0.00  0.00     0.013 C 
ENDBRANCH   7   8
ENDBRANCH   1   7
TORSDOF 2
ENDMDL
