MODEL 1
REMARK minimizedAffinity 14.7641573
REMARK minimizedRMSD -1
REMARK  2 active torsions:
REMARK  status: ('A' for Active; 'I' for Inactive)
REMARK    1  A    between atoms: C2'_3  and  C1'_4 
REMARK    2  A    between atoms: C1'_4  and  C1_5 
ROOT
ATOM      1  C1  I4B d   1      -2.153   3.550  -5.094  0.00  0.00    -0.075 A 
ATOM      2  C2  I4B d   1      -1.835   4.386  -4.053  0.00  0.00     0.003 A 
ATOM      3  C3  I4B d   1      -2.512   5.620  -3.897  0.00  0.00     0.002 A 
ATOM      4  C4  I4B d   1      -3.456   6.000  -4.829  0.00  0.00    -0.004 A 
ATOM      5  C5  I4B d   1      -3.793   5.141  -5.872  0.00  0.00     0.002 A 
ATOM      6  C6  I4B d   1      -3.146   3.903  -5.998  0.00  0.00     0.003 A 
ENDROOT
BRANCH   1   7
ATOM      7  C1' I4B d   1      -1.396   2.269  -5.247  0.00  0.00     0.060 C 
BRANCH   7   8
ATOM      8  C2' I4B d   1      -0.747   1.949  -3.916  0.00  0.00    -0.013 C 
ATOM      9  C4' I4B d   1      -1.403   0.761  -3.262  0.00  0.00     0.013 C 
ATOM     10  C3' I4B d   1       0.711   1.696  -4.160  0.00  0.00     0.013 C 
ENDBRANCH   7   8
ENDBRANCH   1   7
TORSDOF 2
ENDMDL
