MODEL 1
REMARK minimizedAffinity 21.6255589
REMARK minimizedRMSD -1
REMARK  2 active torsions:
REMARK  status: ('A' for Active; 'I' for Inactive)
REMARK    1  A    between atoms: C2'_3  and  C1'_4 
REMARK    2  A    between atoms: C1'_4  and  C1_5 
ROOT
ATOM      1  C1  I4B d   1      -1.937   0.722   2.286  0.00  0.00    -0.075 A 
ATOM      2  C2  I4B d   1      -1.674   1.975   2.780  0.00  0.00     0.003 A 
ATOM      3  C3  I4B d   1      -0.349   2.345   3.117  0.00  0.00     0.002 A 
ATOM      4  C4  I4B d   1       0.667   1.419   2.993  0.00  0.00    -0.004 A 
ATOM      5  C5  I4B d   1       0.402   0.157   2.470  0.00  0.00     0.002 A 
ATOM      6  C6  I4B d   1      -0.906  -0.191   2.103  0.00  0.00     0.003 A 
ENDROOT
BRANCH   1   7
ATOM      7  C1' I4B d   1      -3.352   0.354   1.972  0.00  0.00     0.060 C 
BRANCH   7   8
ATOM      8  C2' I4B d   1      -3.622  -1.013   2.566  0.00  0.00    -0.013 C 
ATOM      9  C4' I4B d   1      -3.671  -0.953   4.071  0.00  0.00     0.013 C 
ATOM     10  C3' I4B d   1      -4.917  -1.516   2.002  0.00  0.00     0.013 C 
ENDBRANCH   7   8
ENDBRANCH   1   7
TORSDOF 2
ENDMDL
