MODEL 1
REMARK minimizedAffinity 19.8136215
REMARK minimizedRMSD -1
REMARK  2 active torsions:
REMARK  status: ('A' for Active; 'I' for Inactive)
REMARK    1  A    between atoms: C2'_3  and  C1'_4 
REMARK    2  A    between atoms: C1'_4  and  C1_5 
ROOT
ATOM      1  C1  I4B d   1      -4.450  -1.367   3.176  0.00  0.00    -0.075 A 
ATOM      2  C2  I4B d   1      -3.552  -1.730   4.149  0.00  0.00     0.003 A 
ATOM      3  C3  I4B d   1      -3.866  -2.774   5.053  0.00  0.00     0.002 A 
ATOM      4  C4  I4B d   1      -5.100  -3.387   4.982  0.00  0.00    -0.004 A 
ATOM      5  C5  I4B d   1      -5.999  -3.033   3.980  0.00  0.00     0.002 A 
ATOM      6  C6  I4B d   1      -5.668  -2.025   3.064  0.00  0.00     0.003 A 
ENDROOT
BRANCH   1   7
ATOM      7  C1' I4B d   1      -4.100  -0.239   2.258  0.00  0.00     0.060 C 
BRANCH   7   8
ATOM      8  C2' I4B d   1      -3.262   0.755   3.037  0.00  0.00    -0.013 C 
ATOM      9  C4' I4B d   1      -2.069   1.208   2.237  0.00  0.00     0.013 C 
ATOM     10  C3' I4B d   1      -4.140   1.914   3.404  0.00  0.00     0.013 C 
ENDBRANCH   7   8
ENDBRANCH   1   7
TORSDOF 2
ENDMDL
