MODEL 1
REMARK minimizedAffinity 3.94489264
REMARK minimizedRMSD -1
REMARK  0 active torsions:
REMARK  status: ('A' for Active; 'I' for Inactive)
ROOT
ATOM      1  C1  DEN d   1      -6.000   1.487  -0.945  0.00  0.00     0.130 A 
ATOM      2  C2  DEN d   1      -6.000   0.937   0.407  0.00  0.00    -0.031 A 
ATOM      3  C3  DEN d   1      -5.520   1.988   1.327  0.00  0.00     0.027 A 
ATOM      4  C4  DEN d   1      -4.787   4.402   0.792  0.00  0.00     0.027 A 
ATOM      5  C5  DEN d   1      -4.604   5.322  -0.217  0.00  0.00    -0.003 A 
ATOM      6  C6  DEN d   1      -4.839   5.020  -1.532  0.00  0.00     0.001 A 
ATOM      7  C7  DEN d   1      -5.314   3.780  -1.869  0.00  0.00     0.017 A 
ATOM      8  C8  DEN d   1      -5.494   2.845  -0.859  0.00  0.00    -0.094 A 
ATOM      9  C9  DEN d   1      -5.262   3.173   0.466  0.00  0.00    -0.072 A 
ENDROOT
TORSDOF 0
ENDMDL
