MODEL 1
REMARK minimizedAffinity 6.75916433
REMARK minimizedRMSD -1
REMARK  0 active torsions:
REMARK  status: ('A' for Active; 'I' for Inactive)
ROOT
ATOM      1  C1  DEN d   1       0.921   4.091  -2.693  0.00  0.00     0.130 A 
ATOM      2  C2  DEN d   1       2.244   3.742  -3.202  0.00  0.00    -0.031 A 
ATOM      3  C3  DEN d   1       2.341   4.228  -4.593  0.00  0.00     0.027 A 
ATOM      4  C4  DEN d   1       0.582   5.487  -5.998  0.00  0.00     0.027 A 
ATOM      5  C5  DEN d   1      -0.697   5.999  -5.999  0.00  0.00    -0.003 A 
ATOM      6  C6  DEN d   1      -1.531   5.882  -4.919  0.00  0.00     0.001 A 
ATOM      7  C7  DEN d   1      -1.080   5.277  -3.776  0.00  0.00     0.017 A 
ATOM      8  C8  DEN d   1       0.205   4.752  -3.770  0.00  0.00    -0.094 A 
ATOM      9  C9  DEN d   1       1.038   4.891  -4.867  0.00  0.00    -0.072 A 
ENDROOT
TORSDOF 0
ENDMDL
