MODEL 1
REMARK minimizedAffinity 2.84550285
REMARK minimizedRMSD -1
REMARK  0 active torsions:
REMARK  status: ('A' for Active; 'I' for Inactive)
ROOT
ATOM      1  C1  DEN d   1      -0.947   5.033  -4.931  0.00  0.00     0.130 A 
ATOM      2  C2  DEN d   1      -0.324   5.824  -5.988  0.00  0.00    -0.031 A 
ATOM      3  C3  DEN d   1       1.135   5.825  -5.759  0.00  0.00     0.027 A 
ATOM      4  C4  DEN d   1       2.483   4.680  -3.882  0.00  0.00     0.027 A 
ATOM      5  C5  DEN d   1       2.392   3.906  -2.746  0.00  0.00    -0.003 A 
ATOM      6  C6  DEN d   1       1.189   3.485  -2.244  0.00  0.00     0.001 A 
ATOM      7  C7  DEN d   1       0.031   3.798  -2.905  0.00  0.00     0.017 A 
ATOM      8  C8  DEN d   1       0.114   4.585  -4.046  0.00  0.00    -0.094 A 
ATOM      9  C9  DEN d   1       1.340   4.990  -4.545  0.00  0.00    -0.072 A 
ENDROOT
TORSDOF 0
ENDMDL
