MODEL 1
REMARK minimizedAffinity 12.1624565
REMARK minimizedRMSD -1
REMARK  0 active torsions:
REMARK  status: ('A' for Active; 'I' for Inactive)
ROOT
ATOM      1  C1  DEN d   1      -5.462  -3.959  -4.885  0.00  0.00     0.130 A 
ATOM      2  C2  DEN d   1      -5.997  -5.003  -5.754  0.00  0.00    -0.031 A 
ATOM      3  C3  DEN d   1      -4.924  -5.988  -5.997  0.00  0.00     0.027 A 
ATOM      4  C4  DEN d   1      -2.501  -6.000  -5.113  0.00  0.00     0.027 A 
ATOM      5  C5  DEN d   1      -1.582  -5.315  -4.349  0.00  0.00    -0.003 A 
ATOM      6  C6  DEN d   1      -1.878  -4.123  -3.743  0.00  0.00     0.001 A 
ATOM      7  C7  DEN d   1      -3.140  -3.602  -3.854  0.00  0.00     0.017 A 
ATOM      8  C8  DEN d   1      -4.070  -4.282  -4.628  0.00  0.00    -0.094 A 
ATOM      9  C9  DEN d   1      -3.755  -5.492  -5.223  0.00  0.00    -0.072 A 
ENDROOT
TORSDOF 0
ENDMDL
