MODEL 1
REMARK minimizedAffinity 6.03190756
REMARK minimizedRMSD -1
REMARK  0 active torsions:
REMARK  status: ('A' for Active; 'I' for Inactive)
ROOT
ATOM      1  C1  DEN d   1      -5.301  -0.317   2.161  0.00  0.00     0.130 A 
ATOM      2  C2  DEN d   1      -4.953  -0.875   0.857  0.00  0.00    -0.031 A 
ATOM      3  C3  DEN d   1      -3.513  -1.201   0.870  0.00  0.00     0.027 A 
ATOM      4  C4  DEN d   1      -1.799  -0.903   2.774  0.00  0.00     0.027 A 
ATOM      5  C5  DEN d   1      -1.622  -0.458   4.066  0.00  0.00    -0.003 A 
ATOM      6  C6  DEN d   1      -2.643   0.091   4.795  0.00  0.00     0.001 A 
ATOM      7  C7  DEN d   1      -3.898   0.169   4.253  0.00  0.00     0.017 A 
ATOM      8  C8  DEN d   1      -4.083  -0.270   2.949  0.00  0.00    -0.094 A 
ATOM      9  C9  DEN d   1      -3.041  -0.834   2.232  0.00  0.00    -0.072 A 
ENDROOT
TORSDOF 0
ENDMDL
