MODEL 1
REMARK minimizedAffinity 3.69442177
REMARK minimizedRMSD -1
REMARK  0 active torsions:
REMARK  status: ('A' for Active; 'I' for Inactive)
ROOT
ATOM      1  C1  DEN d   1       0.759   3.814  -2.575  0.00  0.00     0.130 A 
ATOM      2  C2  DEN d   1       2.092   3.308  -2.891  0.00  0.00    -0.031 A 
ATOM      3  C3  DEN d   1       2.467   3.812  -4.227  0.00  0.00     0.027 A 
ATOM      4  C4  DEN d   1       1.123   5.325  -5.826  0.00  0.00     0.027 A 
ATOM      5  C5  DEN d   1      -0.065   6.000  -6.000  0.00  0.00    -0.003 A 
ATOM      6  C6  DEN d   1      -1.067   5.966  -5.067  0.00  0.00     0.001 A 
ATOM      7  C7  DEN d   1      -0.882   5.279  -3.896  0.00  0.00     0.017 A 
ATOM      8  C8  DEN d   1       0.311   4.590  -3.717  0.00  0.00    -0.094 A 
ATOM      9  C9  DEN d   1       1.316   4.647  -4.667  0.00  0.00    -0.072 A 
ENDROOT
TORSDOF 0
ENDMDL
