MODEL 1
REMARK minimizedAffinity 7.0966506
REMARK minimizedRMSD -1
REMARK  0 active torsions:
REMARK  status: ('A' for Active; 'I' for Inactive)
ROOT
ATOM      1  C1  DEN d   1      -5.966   0.948  -1.859  0.00  0.00     0.130 A 
ATOM      2  C2  DEN d   1      -5.988  -0.511  -1.908  0.00  0.00    -0.031 A 
ATOM      3  C3  DEN d   1      -5.999  -0.921  -3.327  0.00  0.00     0.027 A 
ATOM      4  C4  DEN d   1      -5.981   0.556  -5.442  0.00  0.00     0.027 A 
ATOM      5  C5  DEN d   1      -5.975   1.853  -5.905  0.00  0.00    -0.003 A 
ATOM      6  C6  DEN d   1      -6.000   2.930  -5.060  0.00  0.00     0.001 A 
ATOM      7  C7  DEN d   1      -5.986   2.730  -3.705  0.00  0.00     0.017 A 
ATOM      8  C8  DEN d   1      -6.000   1.426  -3.230  0.00  0.00    -0.094 A 
ATOM      9  C9  DEN d   1      -5.962   0.349  -4.100  0.00  0.00    -0.072 A 
ENDROOT
TORSDOF 0
ENDMDL
