MODEL 1
REMARK minimizedAffinity 7.85296917
REMARK minimizedRMSD -1
REMARK  0 active torsions:
REMARK  status: ('A' for Active; 'I' for Inactive)
ROOT
ATOM      1  C1  DEN d   1      -0.926   5.127  -4.127  0.00  0.00     0.130 A 
ATOM      2  C2  DEN d   1      -1.057   5.953  -5.324  0.00  0.00    -0.031 A 
ATOM      3  C3  DEN d   1       0.255   5.990  -6.000  0.00  0.00     0.027 A 
ATOM      4  C4  DEN d   1       2.465   4.850  -5.315  0.00  0.00     0.027 A 
ATOM      5  C5  DEN d   1       3.072   4.055  -4.368  0.00  0.00    -0.003 A 
ATOM      6  C6  DEN d   1       2.403   3.593  -3.266  0.00  0.00     0.001 A 
ATOM      7  C7  DEN d   1       1.075   3.886  -3.106  0.00  0.00     0.017 A 
ATOM      8  C8  DEN d   1       0.458   4.693  -4.052  0.00  0.00    -0.094 A 
ATOM      9  C9  DEN d   1       1.148   5.140  -5.167  0.00  0.00    -0.072 A 
ENDROOT
TORSDOF 0
ENDMDL
