MODEL 1
REMARK minimizedAffinity 8.30403137
REMARK minimizedRMSD -1
REMARK  0 active torsions:
REMARK  status: ('A' for Active; 'I' for Inactive)
ROOT
ATOM      1  C1  DEN d   1      -2.265  -5.135  -3.541  0.00  0.00     0.130 A 
ATOM      2  C2  DEN d   1      -1.384  -5.562  -4.625  0.00  0.00    -0.031 A 
ATOM      3  C3  DEN d   1      -2.229  -5.977  -5.763  0.00  0.00     0.027 A 
ATOM      4  C4  DEN d   1      -4.801  -5.996  -5.952  0.00  0.00     0.027 A 
ATOM      5  C5  DEN d   1      -5.978  -5.735  -5.285  0.00  0.00    -0.003 A 
ATOM      6  C6  DEN d   1      -6.000  -5.291  -3.990  0.00  0.00     0.001 A 
ATOM      7  C7  DEN d   1      -4.821  -5.052  -3.334  0.00  0.00     0.017 A 
ATOM      8  C8  DEN d   1      -3.631  -5.321  -3.997  0.00  0.00    -0.094 A 
ATOM      9  C9  DEN d   1      -3.629  -5.757  -5.311  0.00  0.00    -0.072 A 
ENDROOT
TORSDOF 0
ENDMDL
