MODEL 1
REMARK minimizedAffinity 4.22776747
REMARK minimizedRMSD -1
REMARK  0 active torsions:
REMARK  status: ('A' for Active; 'I' for Inactive)
ROOT
ATOM      1  C1  DEN d   1       0.061   3.339  -2.823  0.00  0.00     0.130 A 
ATOM      2  C2  DEN d   1       1.502   3.255  -2.599  0.00  0.00    -0.031 A 
ATOM      3  C3  DEN d   1       2.168   4.133  -3.583  0.00  0.00     0.027 A 
ATOM      4  C4  DEN d   1       1.114   5.608  -5.417  0.00  0.00     0.027 A 
ATOM      5  C5  DEN d   1      -0.072   5.998  -6.000  0.00  0.00    -0.003 A 
ATOM      6  C6  DEN d   1      -1.283   5.508  -5.590  0.00  0.00     0.001 A 
ATOM      7  C7  DEN d   1      -1.341   4.632  -4.539  0.00  0.00     0.017 A 
ATOM      8  C8  DEN d   1      -0.149   4.228  -3.951  0.00  0.00    -0.094 A 
ATOM      9  C9  DEN d   1       1.065   4.745  -4.371  0.00  0.00    -0.072 A 
ENDROOT
TORSDOF 0
ENDMDL
