MODEL 1
REMARK minimizedAffinity 9.88094521
REMARK minimizedRMSD -1
REMARK  0 active torsions:
REMARK  status: ('A' for Active; 'I' for Inactive)
ROOT
ATOM      1  C1  DEN d   1      -2.637  -2.535   1.405  0.00  0.00     0.130 A 
ATOM      2  C2  DEN d   1      -1.623  -3.088   0.512  0.00  0.00    -0.031 A 
ATOM      3  C3  DEN d   1      -1.826  -4.549   0.439  0.00  0.00     0.027 A 
ATOM      4  C4  DEN d   1      -3.607  -6.000   1.611  0.00  0.00     0.027 A 
ATOM      5  C5  DEN d   1      -4.677  -5.981   2.478  0.00  0.00    -0.003 A 
ATOM      6  C6  DEN d   1      -5.118  -4.827   3.069  0.00  0.00     0.001 A 
ATOM      7  C7  DEN d   1      -4.514  -3.635   2.766  0.00  0.00     0.017 A 
ATOM      8  C8  DEN d   1      -3.429  -3.647   1.899  0.00  0.00    -0.094 A 
ATOM      9  C9  DEN d   1      -3.006  -4.823   1.302  0.00  0.00    -0.072 A 
ENDROOT
TORSDOF 0
ENDMDL
