MODEL 1
REMARK minimizedAffinity 4.45529318
REMARK minimizedRMSD -1
REMARK  0 active torsions:
REMARK  status: ('A' for Active; 'I' for Inactive)
ROOT
ATOM      1  C1  DEN d   1      -1.155   4.744  -5.319  0.00  0.00     0.130 A 
ATOM      2  C2  DEN d   1      -0.488   5.873  -5.961  0.00  0.00    -0.031 A 
ATOM      3  C3  DEN d   1       0.865   5.993  -5.382  0.00  0.00     0.027 A 
ATOM      4  C4  DEN d   1       1.988   4.544  -3.567  0.00  0.00     0.027 A 
ATOM      5  C5  DEN d   1       1.812   3.476  -2.716  0.00  0.00    -0.003 A 
ATOM      6  C6  DEN d   1       0.633   2.782  -2.648  0.00  0.00     0.001 A 
ATOM      7  C7  DEN d   1      -0.402   3.121  -3.479  0.00  0.00     0.017 A 
ATOM      8  C8  DEN d   1      -0.235   4.201  -4.336  0.00  0.00    -0.094 A 
ATOM      9  C9  DEN d   1       0.969   4.882  -4.398  0.00  0.00    -0.072 A 
ENDROOT
TORSDOF 0
ENDMDL
