MODEL 1
REMARK minimizedAffinity 9.47794151
REMARK minimizedRMSD -1
REMARK  0 active torsions:
REMARK  status: ('A' for Active; 'I' for Inactive)
ROOT
ATOM      1  C1  DEN d   1      -5.815   3.344  -3.793  0.00  0.00     0.130 A 
ATOM      2  C2  DEN d   1      -5.852   3.248  -2.337  0.00  0.00    -0.031 A 
ATOM      3  C3  DEN d   1      -5.933   1.818  -1.976  0.00  0.00     0.027 A 
ATOM      4  C4  DEN d   1      -5.997  -0.245  -3.523  0.00  0.00     0.027 A 
ATOM      5  C5  DEN d   1      -5.999  -0.664  -4.835  0.00  0.00    -0.003 A 
ATOM      6  C6  DEN d   1      -5.975   0.217  -5.883  0.00  0.00     0.001 A 
ATOM      7  C7  DEN d   1      -5.901   1.563  -5.638  0.00  0.00     0.017 A 
ATOM      8  C8  DEN d   1      -5.906   1.994  -4.318  0.00  0.00    -0.094 A 
ATOM      9  C9  DEN d   1      -5.919   1.087  -3.271  0.00  0.00    -0.072 A 
ENDROOT
TORSDOF 0
ENDMDL
