MODEL 1
REMARK minimizedAffinity 3.22370005
REMARK minimizedRMSD -1
REMARK  0 active torsions:
REMARK  status: ('A' for Active; 'I' for Inactive)
ROOT
ATOM      1  C1  DEN d   1      -5.723   2.235  -3.555  0.00  0.00     0.130 A 
ATOM      2  C2  DEN d   1      -5.997   0.812  -3.377  0.00  0.00    -0.031 A 
ATOM      3  C3  DEN d   1      -6.000   0.526  -1.928  0.00  0.00     0.027 A 
ATOM      4  C4  DEN d   1      -5.614   2.142   0.046  0.00  0.00     0.027 A 
ATOM      5  C5  DEN d   1      -5.334   3.445   0.391  0.00  0.00    -0.003 A 
ATOM      6  C6  DEN d   1      -5.131   4.422  -0.548  0.00  0.00     0.001 A 
ATOM      7  C7  DEN d   1      -5.251   4.119  -1.879  0.00  0.00     0.017 A 
ATOM      8  C8  DEN d   1      -5.526   2.805  -2.235  0.00  0.00    -0.094 A 
ATOM      9  C9  DEN d   1      -5.740   1.835  -1.270  0.00  0.00    -0.072 A 
ENDROOT
TORSDOF 0
ENDMDL
