MODEL 1
REMARK minimizedAffinity -1.85796309
REMARK minimizedRMSD -1
REMARK  0 active torsions:
REMARK  status: ('A' for Active; 'I' for Inactive)
ROOT
ATOM      1  C1  DEN d   1      -4.482  -1.631   0.984  0.00  0.00     0.130 A 
ATOM      2  C2  DEN d   1      -5.242  -0.456   1.400  0.00  0.00    -0.031 A 
ATOM      3  C3  DEN d   1      -4.397   0.333   2.318  0.00  0.00     0.027 A 
ATOM      4  C4  DEN d   1      -1.995  -0.144   3.128  0.00  0.00     0.027 A 
ATOM      5  C5  DEN d   1      -0.941  -1.028   3.056  0.00  0.00    -0.003 A 
ATOM      6  C6  DEN d   1      -1.005  -2.183   2.321  0.00  0.00     0.001 A 
ATOM      7  C7  DEN d   1      -2.131  -2.462   1.593  0.00  0.00     0.017 A 
ATOM      8  C8  DEN d   1      -3.201  -1.579   1.666  0.00  0.00    -0.094 A 
ATOM      9  C9  DEN d   1      -3.112  -0.411   2.405  0.00  0.00    -0.072 A 
ENDROOT
TORSDOF 0
ENDMDL
