MODEL 1
REMARK minimizedAffinity -3.61916041
REMARK minimizedRMSD -1
REMARK  0 active torsions:
REMARK  status: ('A' for Active; 'I' for Inactive)
ROOT
ATOM      1  C4' PXY d   1      -2.396   0.393  -1.428  0.00  0.00     0.077 C 
ATOM      2  C1' PXY d   1       2.643  -0.028   1.375  0.00  0.00     0.077 C 
ATOM      3  C1  PXY d   1       1.320   0.069   0.640  0.00  0.00    -0.082 A 
ATOM      4  C2  PXY d   1       1.054   1.142  -0.088  0.00  0.00     0.003 A 
ATOM      5  C3  PXY d   1      -0.150   1.261  -0.733  0.00  0.00     0.003 A 
ATOM      6  C4  PXY d   1      -1.069   0.248  -0.676  0.00  0.00    -0.082 A 
ATOM      7  C5  PXY d   1      -0.801  -0.855   0.055  0.00  0.00     0.003 A 
ATOM      8  C6  PXY d   1       0.410  -0.938   0.736  0.00  0.00     0.003 A 
ENDROOT
TORSDOF 0
ENDMDL
