MODEL 1
REMARK minimizedAffinity -5.05736732
REMARK minimizedRMSD -1
REMARK  0 active torsions:
REMARK  status: ('A' for Active; 'I' for Inactive)
ROOT
ATOM      1  C4' PXY d   1      -2.446   0.197  -0.022  0.00  0.00     0.077 C 
ATOM      2  C1' PXY d   1       3.296  -0.372   0.315  0.00  0.00     0.077 C 
ATOM      3  C1  PXY d   1       1.791  -0.211   0.233  0.00  0.00    -0.082 A 
ATOM      4  C2  PXY d   1       1.027  -1.280   0.078  0.00  0.00     0.003 A 
ATOM      5  C3  PXY d   1      -0.334  -1.150  -0.030  0.00  0.00     0.003 A 
ATOM      6  C4  PXY d   1      -0.923   0.082   0.075  0.00  0.00    -0.082 A 
ATOM      7  C5  PXY d   1      -0.150   1.176   0.245  0.00  0.00     0.003 A 
ATOM      8  C6  PXY d   1       1.232   1.027   0.311  0.00  0.00     0.003 A 
ENDROOT
TORSDOF 0
ENDMDL
