MODEL 1
REMARK minimizedAffinity -5.03503418
REMARK minimizedRMSD -1
REMARK  0 active torsions:
REMARK  status: ('A' for Active; 'I' for Inactive)
ROOT
ATOM      1  C4' PXY d   1       0.667  -3.605   2.727  0.00  0.00     0.077 C 
ATOM      2  C1' PXY d   1       2.569   1.067  -0.098  0.00  0.00     0.077 C 
ATOM      3  C1  PXY d   1       2.082  -0.162   0.645  0.00  0.00    -0.082 A 
ATOM      4  C2  PXY d   1       0.863  -0.623   0.418  0.00  0.00     0.003 A 
ATOM      5  C3  PXY d   1       0.395  -1.715   1.105  0.00  0.00     0.003 A 
ATOM      6  C4  PXY d   1       1.204  -2.372   1.993  0.00  0.00    -0.082 A 
ATOM      7  C5  PXY d   1       2.453  -1.915   2.221  0.00  0.00     0.003 A 
ATOM      8  C6  PXY d   1       2.894  -0.781   1.545  0.00  0.00     0.003 A 
ENDROOT
TORSDOF 0
ENDMDL
