MODEL 1
REMARK minimizedAffinity -3.6166234
REMARK minimizedRMSD -1
REMARK  0 active torsions:
REMARK  status: ('A' for Active; 'I' for Inactive)
ROOT
ATOM      1  C4' PXY d   1       0.521  -2.899   1.601  0.00  0.00     0.077 C 
ATOM      2  C1' PXY d   1       0.609   2.627  -0.093  0.00  0.00     0.077 C 
ATOM      3  C1  PXY d   1       0.574   1.179   0.357  0.00  0.00    -0.082 A 
ATOM      4  C2  PXY d   1       1.708   0.516   0.514  0.00  0.00     0.003 A 
ATOM      5  C3  PXY d   1       1.694  -0.803   0.890  0.00  0.00     0.003 A 
ATOM      6  C4  PXY d   1       0.509  -1.434   1.158  0.00  0.00    -0.082 A 
ATOM      7  C5  PXY d   1      -0.652  -0.761   1.009  0.00  0.00     0.003 A 
ATOM      8  C6  PXY d   1      -0.618   0.565   0.588  0.00  0.00     0.003 A 
ENDROOT
TORSDOF 0
ENDMDL
