MODEL 1
REMARK minimizedAffinity 3.32928944
REMARK minimizedRMSD -1
REMARK  0 active torsions:
REMARK  status: ('A' for Active; 'I' for Inactive)
ROOT
ATOM      1  C4' PXY d   1      -2.032   0.819  -0.740  0.00  0.00     0.077 C 
ATOM      2  C1' PXY d   1       3.160   0.494   1.779  0.00  0.00     0.077 C 
ATOM      3  C1  PXY d   1       1.802   0.569   1.111  0.00  0.00    -0.082 A 
ATOM      4  C2  PXY d   1       1.149   1.719   1.083  0.00  0.00     0.003 A 
ATOM      5  C3  PXY d   1      -0.095   1.798   0.511  0.00  0.00     0.003 A 
ATOM      6  C4  PXY d   1      -0.654   0.699  -0.085  0.00  0.00    -0.082 A 
ATOM      7  C5  PXY d   1       0.010  -0.476  -0.070  0.00  0.00     0.003 A 
ATOM      8  C6  PXY d   1       1.254  -0.545   0.552  0.00  0.00     0.003 A 
ENDROOT
TORSDOF 0
ENDMDL
