MODEL 1
REMARK minimizedAffinity -3.78162146
REMARK minimizedRMSD -1
REMARK  0 active torsions:
REMARK  status: ('A' for Active; 'I' for Inactive)
ROOT
ATOM      1  C4' PXY d   1      -1.921   0.138  -0.412  0.00  0.00     0.077 C 
ATOM      2  C1' PXY d   1       3.178  -1.192   1.964  0.00  0.00     0.077 C 
ATOM      3  C1  PXY d   1       1.844  -0.830   1.342  0.00  0.00    -0.082 A 
ATOM      4  C2  PXY d   1       0.839  -1.689   1.403  0.00  0.00     0.003 A 
ATOM      5  C3  PXY d   1      -0.365  -1.392   0.818  0.00  0.00     0.003 A 
ATOM      6  C4  PXY d   1      -0.559  -0.181   0.210  0.00  0.00    -0.082 A 
ATOM      7  C5  PXY d   1       0.458   0.705   0.153  0.00  0.00     0.003 A 
ATOM      8  C6  PXY d   1       1.685   0.368   0.717  0.00  0.00     0.003 A 
ENDROOT
TORSDOF 0
ENDMDL
