MODEL 1
REMARK minimizedAffinity -4.78907871
REMARK minimizedRMSD -1
REMARK  0 active torsions:
REMARK  status: ('A' for Active; 'I' for Inactive)
ROOT
ATOM      1  C4' PXY d   1       1.594   2.232  -0.921  0.00  0.00     0.077 C 
ATOM      2  C1' PXY d   1       1.439  -2.384   2.556  0.00  0.00     0.077 C 
ATOM      3  C1  PXY d   1       1.492  -1.171   1.648  0.00  0.00    -0.082 A 
ATOM      4  C2  PXY d   1       0.365  -0.599   1.255  0.00  0.00     0.003 A 
ATOM      5  C3  PXY d   1       0.394   0.480   0.408  0.00  0.00     0.003 A 
ATOM      6  C4  PXY d   1       1.589   1.011   0.003  0.00  0.00    -0.082 A 
ATOM      7  C5  PXY d   1       2.743   0.439   0.408  0.00  0.00     0.003 A 
ATOM      8  C6  PXY d   1       2.691  -0.680   1.234  0.00  0.00     0.003 A 
ENDROOT
TORSDOF 0
ENDMDL
