MODEL 1
REMARK minimizedAffinity -3.01091599
REMARK minimizedRMSD -1
REMARK  0 active torsions:
REMARK  status: ('A' for Active; 'I' for Inactive)
ROOT
ATOM      1  C4' PXY d   1      -1.910  -0.032  -0.705  0.00  0.00     0.077 C 
ATOM      2  C1' PXY d   1       3.663  -0.875   0.576  0.00  0.00     0.077 C 
ATOM      3  C1  PXY d   1       2.201  -0.645   0.249  0.00  0.00    -0.082 A 
ATOM      4  C2  PXY d   1       1.495  -1.614  -0.310  0.00  0.00     0.003 A 
ATOM      5  C3  PXY d   1       0.180  -1.412  -0.641  0.00  0.00     0.003 A 
ATOM      6  C4  PXY d   1      -0.433  -0.223  -0.349  0.00  0.00    -0.082 A 
ATOM      7  C5  PXY d   1       0.277   0.767   0.232  0.00  0.00     0.003 A 
ATOM      8  C6  PXY d   1       1.622   0.556   0.523  0.00  0.00     0.003 A 
ENDROOT
TORSDOF 0
ENDMDL
