MODEL 1
REMARK minimizedAffinity -4.67891932
REMARK minimizedRMSD -1
REMARK  0 active torsions:
REMARK  status: ('A' for Active; 'I' for Inactive)
ROOT
ATOM      1  C4' PXY d   1      -2.247   0.212  -1.143  0.00  0.00     0.077 C 
ATOM      2  C1' PXY d   1       3.149   0.098   0.926  0.00  0.00     0.077 C 
ATOM      3  C1  PXY d   1       1.735   0.115   0.380  0.00  0.00    -0.082 A 
ATOM      4  C2  PXY d   1       1.208   1.256  -0.034  0.00  0.00     0.003 A 
ATOM      5  C3  PXY d   1      -0.081   1.295  -0.500  0.00  0.00     0.003 A 
ATOM      6  C4  PXY d   1      -0.820   0.146  -0.593  0.00  0.00    -0.082 A 
ATOM      7  C5  PXY d   1      -0.285  -1.023  -0.183  0.00  0.00     0.003 A 
ATOM      8  C6  PXY d   1       1.011  -1.035   0.326  0.00  0.00     0.003 A 
ENDROOT
TORSDOF 0
ENDMDL
