MODEL 1
REMARK minimizedAffinity -3.89126492
REMARK minimizedRMSD -1
REMARK  0 active torsions:
REMARK  status: ('A' for Active; 'I' for Inactive)
ROOT
ATOM      1  C   UNL d   1      -3.035   1.126   1.933  0.00  0.00    -0.002 A 
ATOM      2  C1  UNL d   1      -3.151   1.098   0.550  0.00  0.00     0.010 A 
ATOM      3  C2  UNL d   1      -2.052   0.777  -0.249  0.00  0.00     0.041 A 
ATOM      4  C3  UNL d   1      -0.822   0.480   0.371  0.00  0.00    -0.075 A 
ATOM      5  S   UNL d   1       0.659   0.059  -0.405  0.00  0.00     0.015 SA
ATOM      6  C4  UNL d   1       1.480  -0.095   1.080  0.00  0.00     0.022 A 
ATOM      7  C5  UNL d   1       0.660   0.165   2.152  0.00  0.00     0.026 A 
ATOM      8  C6  UNL d   1      -0.681   0.500   1.761  0.00  0.00    -0.082 A 
ATOM      9  C7  UNL d   1      -1.813   0.830   2.544  0.00  0.00     0.045 A 
ENDROOT
TORSDOF 0
ENDMDL
