MODEL 1
REMARK minimizedAffinity 1.42297518
REMARK minimizedRMSD -1
REMARK  0 active torsions:
REMARK  status: ('A' for Active; 'I' for Inactive)
ROOT
ATOM      1  C   UNL d   1       0.223  -0.600  -2.991  0.00  0.00    -0.002 A 
ATOM      2  C1  UNL d   1       0.720  -1.852  -3.322  0.00  0.00     0.010 A 
ATOM      3  C2  UNL d   1       2.058  -2.010  -3.691  0.00  0.00     0.041 A 
ATOM      4  C3  UNL d   1       2.895  -0.877  -3.718  0.00  0.00    -0.075 A 
ATOM      5  S   UNL d   1       4.567  -0.831  -4.137  0.00  0.00     0.015 SA
ATOM      6  C4  UNL d   1       4.660   0.852  -3.885  0.00  0.00     0.022 A 
ATOM      7  C5  UNL d   1       3.454   1.382  -3.491  0.00  0.00     0.026 A 
ATOM      8  C6  UNL d   1       2.417   0.394  -3.388  0.00  0.00    -0.082 A 
ATOM      9  C7  UNL d   1       1.056   0.521  -3.019  0.00  0.00     0.045 A 
ENDROOT
TORSDOF 0
ENDMDL
