MODEL 1
REMARK minimizedAffinity -0.711720705
REMARK minimizedRMSD -1
REMARK  0 active torsions:
REMARK  status: ('A' for Active; 'I' for Inactive)
ROOT
ATOM      1  C   UNL d   1      -2.395   0.668   2.514  0.00  0.00    -0.002 A 
ATOM      2  C1  UNL d   1      -1.235   0.764   3.270  0.00  0.00     0.010 A 
ATOM      3  C2  UNL d   1       0.019   0.695   2.660  0.00  0.00     0.041 A 
ATOM      4  C3  UNL d   1       0.088   0.527   1.263  0.00  0.00    -0.075 A 
ATOM      5  S   UNL d   1       1.514   0.417   0.299  0.00  0.00     0.015 SA
ATOM      6  C4  UNL d   1       0.617   0.241  -1.140  0.00  0.00     0.022 A 
ATOM      7  C5  UNL d   1      -0.738   0.263  -0.909  0.00  0.00     0.026 A 
ATOM      8  C6  UNL d   1      -1.065   0.429   0.480  0.00  0.00    -0.082 A 
ATOM      9  C7  UNL d   1      -2.322   0.502   1.128  0.00  0.00     0.045 A 
ENDROOT
TORSDOF 0
ENDMDL
