MODEL 1
REMARK minimizedAffinity -3.42860031
REMARK minimizedRMSD -1
REMARK  0 active torsions:
REMARK  status: ('A' for Active; 'I' for Inactive)
ROOT
ATOM      1  C   UNL d   1       0.669   0.348  -0.972  0.00  0.00    -0.002 A 
ATOM      2  C1  UNL d   1      -0.600   0.565  -1.490  0.00  0.00     0.010 A 
ATOM      3  C2  UNL d   1      -1.689   0.767  -0.640  0.00  0.00     0.041 A 
ATOM      4  C3  UNL d   1      -1.479   0.749   0.753  0.00  0.00    -0.075 A 
ATOM      5  S   UNL d   1      -2.664   0.974   1.985  0.00  0.00     0.015 SA
ATOM      6  C4  UNL d   1      -1.513   0.789   3.229  0.00  0.00     0.022 A 
ATOM      7  C5  UNL d   1      -0.251   0.560   2.734  0.00  0.00     0.026 A 
ATOM      8  C6  UNL d   1      -0.211   0.534   1.299  0.00  0.00    -0.082 A 
ATOM      9  C7  UNL d   1       0.873   0.331   0.411  0.00  0.00     0.045 A 
ENDROOT
TORSDOF 0
ENDMDL
