MODEL 1
REMARK minimizedAffinity 0.926615953
REMARK minimizedRMSD -1
REMARK  0 active torsions:
REMARK  status: ('A' for Active; 'I' for Inactive)
ROOT
ATOM      1  C   UNL d   1      -0.496   0.710   0.418  0.00  0.00    -0.002 A 
ATOM      2  C1  UNL d   1       0.810   0.464   0.818  0.00  0.00     0.010 A 
ATOM      3  C2  UNL d   1       1.743  -0.054  -0.083  0.00  0.00     0.041 A 
ATOM      4  C3  UNL d   1       1.337  -0.320  -1.406  0.00  0.00    -0.075 A 
ATOM      5  S   UNL d   1       2.307  -0.954  -2.683  0.00  0.00     0.015 SA
ATOM      6  C4  UNL d   1       1.011  -0.911  -3.789  0.00  0.00     0.022 A 
ATOM      7  C5  UNL d   1      -0.141  -0.428  -3.215  0.00  0.00     0.026 A 
ATOM      8  C6  UNL d   1       0.028  -0.079  -1.832  0.00  0.00    -0.082 A 
ATOM      9  C7  UNL d   1      -0.894   0.445  -0.895  0.00  0.00     0.045 A 
ENDROOT
TORSDOF 0
ENDMDL
