MODEL 1
REMARK minimizedAffinity 2.65597844
REMARK minimizedRMSD -1
REMARK  0 active torsions:
REMARK  status: ('A' for Active; 'I' for Inactive)
ROOT
ATOM      1  C   UNL d   1      -0.793   0.551  -0.819  0.00  0.00    -0.002 A 
ATOM      2  C1  UNL d   1       0.466   1.001  -0.445  0.00  0.00     0.010 A 
ATOM      3  C2  UNL d   1       1.602   0.598  -1.150  0.00  0.00     0.041 A 
ATOM      4  C3  UNL d   1       1.450  -0.270  -2.249  0.00  0.00    -0.075 A 
ATOM      5  S   UNL d   1       2.698  -0.895  -3.261  0.00  0.00     0.015 SA
ATOM      6  C4  UNL d   1       1.590  -1.772  -4.214  0.00  0.00     0.022 A 
ATOM      7  C5  UNL d   1       0.295  -1.604  -3.784  0.00  0.00     0.026 A 
ATOM      8  C6  UNL d   1       0.193  -0.736  -2.645  0.00  0.00    -0.082 A 
ATOM      9  C7  UNL d   1      -0.939  -0.310  -1.909  0.00  0.00     0.045 A 
ENDROOT
TORSDOF 0
ENDMDL
