MODEL 1
REMARK minimizedAffinity -1.82838917
REMARK minimizedRMSD -1
REMARK  0 active torsions:
REMARK  status: ('A' for Active; 'I' for Inactive)
ROOT
ATOM      1  C   UNL d   1       0.361   0.625   2.811  0.00  0.00    -0.002 A 
ATOM      2  C1  UNL d   1       1.236   0.419   1.754  0.00  0.00     0.010 A 
ATOM      3  C2  UNL d   1       0.758   0.318   0.446  0.00  0.00     0.041 A 
ATOM      4  C3  UNL d   1      -0.628   0.431   0.216  0.00  0.00    -0.075 A 
ATOM      5  S   UNL d   1      -1.441   0.340  -1.301  0.00  0.00     0.015 SA
ATOM      6  C4  UNL d   1      -2.968   0.574  -0.582  0.00  0.00     0.022 A 
ATOM      7  C5  UNL d   1      -2.878   0.719   0.782  0.00  0.00     0.026 A 
ATOM      8  C6  UNL d   1      -1.528   0.640   1.265  0.00  0.00    -0.082 A 
ATOM      9  C7  UNL d   1      -1.012   0.737   2.580  0.00  0.00     0.045 A 
ENDROOT
TORSDOF 0
ENDMDL
