MODEL 1
REMARK minimizedAffinity 1.9004997
REMARK minimizedRMSD -1
REMARK  0 active torsions:
REMARK  status: ('A' for Active; 'I' for Inactive)
ROOT
ATOM      1  C   UNL d   1      -2.903   2.681   3.113  0.00  0.00    -0.002 A 
ATOM      2  C1  UNL d   1      -3.179   1.444   2.547  0.00  0.00     0.010 A 
ATOM      3  C2  UNL d   1      -2.147   0.550   2.257  0.00  0.00     0.041 A 
ATOM      4  C3  UNL d   1      -0.820   0.923   2.549  0.00  0.00    -0.075 A 
ATOM      5  S   UNL d   1       0.605  -0.010   2.281  0.00  0.00     0.015 SA
ATOM      6  C4  UNL d   1       1.613   1.211   2.912  0.00  0.00     0.022 A 
ATOM      7  C5  UNL d   1       0.897   2.310   3.321  0.00  0.00     0.026 A 
ATOM      8  C6  UNL d   1      -0.517   2.162   3.120  0.00  0.00    -0.082 A 
ATOM      9  C7  UNL d   1      -1.586   3.047   3.401  0.00  0.00     0.045 A 
ENDROOT
TORSDOF 0
ENDMDL
