MODEL 1
REMARK minimizedAffinity -2.27676988
REMARK minimizedRMSD -1
REMARK  0 active torsions:
REMARK  status: ('A' for Active; 'I' for Inactive)
ROOT
ATOM      1  C   UNL d   1      -0.599   0.298   3.205  0.00  0.00    -0.002 A 
ATOM      2  C1  UNL d   1      -1.911   0.468   2.788  0.00  0.00     0.010 A 
ATOM      3  C2  UNL d   1      -2.220   0.550   1.429  0.00  0.00     0.041 A 
ATOM      4  C3  UNL d   1      -1.177   0.454   0.486  0.00  0.00    -0.075 A 
ATOM      5  S   UNL d   1      -1.318   0.526  -1.231  0.00  0.00     0.015 SA
ATOM      6  C4  UNL d   1       0.361   0.331  -1.451  0.00  0.00     0.022 A 
ATOM      7  C5  UNL d   1       1.028   0.213  -0.255  0.00  0.00     0.026 A 
ATOM      8  C6  UNL d   1       0.152   0.281   0.881  0.00  0.00    -0.082 A 
ATOM      9  C7  UNL d   1       0.433   0.203   2.267  0.00  0.00     0.045 A 
ENDROOT
TORSDOF 0
ENDMDL
