MODEL 1
REMARK minimizedAffinity -0.452334434
REMARK minimizedRMSD -1
REMARK  0 active torsions:
REMARK  status: ('A' for Active; 'I' for Inactive)
ROOT
ATOM      1  C   UNL d   1       1.414  -2.671  -3.363  0.00  0.00    -0.002 A 
ATOM      2  C1  UNL d   1       1.751  -1.495  -4.017  0.00  0.00     0.010 A 
ATOM      3  C2  UNL d   1       1.609  -0.261  -3.378  0.00  0.00     0.041 A 
ATOM      4  C3  UNL d   1       1.118  -0.230  -2.058  0.00  0.00    -0.075 A 
ATOM      5  S   UNL d   1       0.861   1.164  -1.077  0.00  0.00     0.015 SA
ATOM      6  C4  UNL d   1       0.298   0.231   0.233  0.00  0.00     0.022 A 
ATOM      7  C5  UNL d   1       0.299  -1.114  -0.054  0.00  0.00     0.026 A 
ATOM      8  C6  UNL d   1       0.772  -1.402  -1.378  0.00  0.00    -0.082 A 
ATOM      9  C7  UNL d   1       0.927  -2.636  -2.054  0.00  0.00     0.045 A 
ENDROOT
TORSDOF 0
ENDMDL
