MODEL 1
REMARK minimizedAffinity 0.473626643
REMARK minimizedRMSD -1
REMARK  0 active torsions:
REMARK  status: ('A' for Active; 'I' for Inactive)
ROOT
ATOM      1  C   UNL d   1       1.230   0.310   2.200  0.00  0.00    -0.002 A 
ATOM      2  C1  UNL d   1       0.997  -0.099   0.894  0.00  0.00     0.010 A 
ATOM      3  C2  UNL d   1      -0.286  -0.034   0.348  0.00  0.00     0.041 A 
ATOM      4  C3  UNL d   1      -1.342   0.455   1.143  0.00  0.00    -0.075 A 
ATOM      5  S   UNL d   1      -2.995   0.625   0.686  0.00  0.00     0.015 SA
ATOM      6  C4  UNL d   1      -3.431   1.245   2.213  0.00  0.00     0.022 A 
ATOM      7  C5  UNL d   1      -2.354   1.326   3.063  0.00  0.00     0.026 A 
ATOM      8  C6  UNL d   1      -1.132   0.873   2.460  0.00  0.00    -0.082 A 
ATOM      9  C7  UNL d   1       0.181   0.794   2.986  0.00  0.00     0.045 A 
ENDROOT
TORSDOF 0
ENDMDL
