MODEL 1
REMARK minimizedAffinity -2.30412817
REMARK minimizedRMSD -1
REMARK  0 active torsions:
REMARK  status: ('A' for Active; 'I' for Inactive)
ROOT
ATOM      1  C   UNL d   1      -3.110   1.008   2.495  0.00  0.00    -0.002 A 
ATOM      2  C1  UNL d   1      -3.541   0.796   1.193  0.00  0.00     0.010 A 
ATOM      3  C2  UNL d   1      -2.625   0.500   0.181  0.00  0.00     0.041 A 
ATOM      4  C3  UNL d   1      -1.256   0.419   0.503  0.00  0.00    -0.075 A 
ATOM      5  S   UNL d   1       0.046   0.070  -0.572  0.00  0.00     0.015 SA
ATOM      6  C4  UNL d   1       1.204   0.193   0.672  0.00  0.00     0.022 A 
ATOM      7  C5  UNL d   1       0.630   0.493   1.884  0.00  0.00     0.026 A 
ATOM      8  C6  UNL d   1      -0.798   0.628   1.807  0.00  0.00    -0.082 A 
ATOM      9  C7  UNL d   1      -1.751   0.927   2.810  0.00  0.00     0.045 A 
ENDROOT
TORSDOF 0
ENDMDL
