MODEL 1
REMARK minimizedAffinity -2.22001767
REMARK minimizedRMSD -1
REMARK  0 active torsions:
REMARK  status: ('A' for Active; 'I' for Inactive)
ROOT
ATOM      1  C   UNL d   1       0.286   0.003   2.728  0.00  0.00    -0.002 A 
ATOM      2  C1  UNL d   1      -1.088   0.100   2.556  0.00  0.00     0.010 A 
ATOM      3  C2  UNL d   1      -1.632   0.295   1.285  0.00  0.00     0.041 A 
ATOM      4  C3  UNL d   1      -0.765   0.389   0.179  0.00  0.00    -0.075 A 
ATOM      5  S   UNL d   1      -1.206   0.625  -1.471  0.00  0.00     0.015 SA
ATOM      6  C4  UNL d   1       0.418   0.601  -1.986  0.00  0.00     0.022 A 
ATOM      7  C5  UNL d   1       1.289   0.418  -0.938  0.00  0.00     0.026 A 
ATOM      8  C6  UNL d   1       0.622   0.292   0.327  0.00  0.00    -0.082 A 
ATOM      9  C7  UNL d   1       1.143   0.096   1.628  0.00  0.00     0.045 A 
ENDROOT
TORSDOF 0
ENDMDL
