MODEL 1
REMARK minimizedAffinity -2.90177131
REMARK minimizedRMSD -1
REMARK  0 active torsions:
REMARK  status: ('A' for Active; 'I' for Inactive)
ROOT
ATOM      1  C   UNL d   1      -3.319   0.861   2.178  0.00  0.00    -0.002 A 
ATOM      2  C1  UNL d   1      -3.528   0.877   0.806  0.00  0.00     0.010 A 
ATOM      3  C2  UNL d   1      -2.457   0.725  -0.077  0.00  0.00     0.041 A 
ATOM      4  C3  UNL d   1      -1.161   0.553   0.447  0.00  0.00    -0.075 A 
ATOM      5  S   UNL d   1       0.301   0.348  -0.443  0.00  0.00     0.015 SA
ATOM      6  C4  UNL d   1       1.237   0.233   0.976  0.00  0.00     0.022 A 
ATOM      7  C5  UNL d   1       0.469   0.347   2.111  0.00  0.00     0.026 A 
ATOM      8  C6  UNL d   1      -0.926   0.533   1.824  0.00  0.00    -0.082 A 
ATOM      9  C7  UNL d   1      -2.032   0.690   2.694  0.00  0.00     0.045 A 
ENDROOT
TORSDOF 0
ENDMDL
