MODEL 1
REMARK minimizedAffinity -0.682452917
REMARK minimizedRMSD -1
REMARK  0 active torsions:
REMARK  status: ('A' for Active; 'I' for Inactive)
ROOT
ATOM      1  C   UNL d   1       0.063  -0.448   0.828  0.00  0.00    -0.002 A 
ATOM      2  C1  UNL d   1       0.831   0.694   0.648  0.00  0.00     0.010 A 
ATOM      3  C2  UNL d   1       1.379   0.992  -0.601  0.00  0.00     0.041 A 
ATOM      4  C3  UNL d   1       1.139   0.115  -1.678  0.00  0.00    -0.075 A 
ATOM      5  S   UNL d   1       1.708   0.276  -3.297  0.00  0.00     0.015 SA
ATOM      6  C4  UNL d   1       0.945  -1.166  -3.788  0.00  0.00     0.022 A 
ATOM      7  C5  UNL d   1       0.268  -1.769  -2.755  0.00  0.00     0.026 A 
ATOM      8  C6  UNL d   1       0.368  -1.041  -1.521  0.00  0.00    -0.082 A 
ATOM      9  C7  UNL d   1      -0.173  -1.315  -0.242  0.00  0.00     0.045 A 
ENDROOT
TORSDOF 0
ENDMDL
