MODEL 1
REMARK minimizedAffinity -3.52476215
REMARK minimizedRMSD -1
REMARK  0 active torsions:
REMARK  status: ('A' for Active; 'I' for Inactive)
ROOT
ATOM      1  O1  BZF d   1       1.341   1.728   0.648  0.00  0.00    -0.204 OA
ATOM      2  C2  BZF d   1       1.131   2.319   1.880  0.00  0.00     0.174 A 
ATOM      3  C3  BZF d   1       0.171   1.666   2.566  0.00  0.00    -0.012 A 
ATOM      4  C3A BZF d   1      -0.180   0.546   1.748  0.00  0.00    -0.107 A 
ATOM      5  C4  BZF d   1      -1.066  -0.484   1.896  0.00  0.00     0.055 A 
ATOM      6  C5  BZF d   1      -1.220  -1.373   0.880  0.00  0.00    -0.016 A 
ATOM      7  C6  BZF d   1      -0.510  -1.260  -0.298  0.00  0.00     0.022 A 
ATOM      8  C7  BZF d   1       0.383  -0.259  -0.489  0.00  0.00     0.029 A 
ATOM      9  C7A BZF d   1       0.565   0.622   0.549  0.00  0.00     0.058 A 
ENDROOT
TORSDOF 0
ENDMDL
