MODEL 1
REMARK minimizedAffinity -3.54520607
REMARK minimizedRMSD -1
REMARK  0 active torsions:
REMARK  status: ('A' for Active; 'I' for Inactive)
ROOT
ATOM      1  O1  BZF d   1      -0.019   0.818  -0.817  0.00  0.00    -0.204 OA
ATOM      2  C2  BZF d   1      -0.508  -0.432  -0.489  0.00  0.00     0.174 A 
ATOM      3  C3  BZF d   1      -0.347  -0.678   0.827  0.00  0.00    -0.012 A 
ATOM      4  C3A BZF d   1       0.198   0.528   1.372  0.00  0.00    -0.107 A 
ATOM      5  C4  BZF d   1       0.561   0.909   2.632  0.00  0.00     0.055 A 
ATOM      6  C5  BZF d   1       1.128   2.130   2.815  0.00  0.00    -0.016 A 
ATOM      7  C6  BZF d   1       1.351   2.993   1.761  0.00  0.00     0.022 A 
ATOM      8  C7  BZF d   1       1.002   2.661   0.494  0.00  0.00     0.029 A 
ATOM      9  C7A BZF d   1       0.399   1.441   0.311  0.00  0.00     0.058 A 
ENDROOT
TORSDOF 0
ENDMDL
