MODEL 1
REMARK minimizedAffinity -4.65462351
REMARK minimizedRMSD -1
REMARK  0 active torsions:
REMARK  status: ('A' for Active; 'I' for Inactive)
ROOT
ATOM      1  O1  BZF d   1      -0.001   0.314  -1.601  0.00  0.00    -0.204 OA
ATOM      2  C2  BZF d   1      -0.419  -0.995  -1.457  0.00  0.00     0.174 A 
ATOM      3  C3  BZF d   1      -0.600  -1.298  -0.155  0.00  0.00    -0.012 A 
ATOM      4  C3A BZF d   1      -0.365  -0.077   0.552  0.00  0.00    -0.107 A 
ATOM      5  C4  BZF d   1      -0.409   0.266   1.873  0.00  0.00     0.055 A 
ATOM      6  C5  BZF d   1      -0.054   1.526   2.241  0.00  0.00    -0.016 A 
ATOM      7  C6  BZF d   1       0.353   2.465   1.315  0.00  0.00     0.022 A 
ATOM      8  C7  BZF d   1       0.407   2.173  -0.007  0.00  0.00     0.029 A 
ATOM      9  C7A BZF d   1       0.018   0.911  -0.385  0.00  0.00     0.058 A 
ENDROOT
TORSDOF 0
ENDMDL
