MODEL 1
REMARK minimizedAffinity -4.39545059
REMARK minimizedRMSD -1
REMARK  0 active torsions:
REMARK  status: ('A' for Active; 'I' for Inactive)
ROOT
ATOM      1  O1  BZF d   1       0.353   0.086  -1.561  0.00  0.00    -0.204 OA
ATOM      2  C2  BZF d   1      -0.335  -1.102  -1.410  0.00  0.00     0.174 A 
ATOM      3  C3  BZF d   1      -0.633  -1.321  -0.113  0.00  0.00    -0.012 A 
ATOM      4  C3A BZF d   1      -0.178  -0.155   0.580  0.00  0.00    -0.107 A 
ATOM      5  C4  BZF d   1      -0.206   0.229   1.890  0.00  0.00     0.055 A 
ATOM      6  C5  BZF d   1       0.389   1.398   2.248  0.00  0.00    -0.016 A 
ATOM      7  C6  BZF d   1       1.024   2.202   1.325  0.00  0.00     0.022 A 
ATOM      8  C7  BZF d   1       1.072   1.866   0.013  0.00  0.00     0.029 A 
ATOM      9  C7A BZF d   1       0.444   0.702  -0.358  0.00  0.00     0.058 A 
ENDROOT
TORSDOF 0
ENDMDL
