MODEL 1
REMARK minimizedAffinity -3.8830905
REMARK minimizedRMSD -1
REMARK  0 active torsions:
REMARK  status: ('A' for Active; 'I' for Inactive)
ROOT
ATOM      1  O1  BZF d   1       0.651  -0.087  -1.003  0.00  0.00    -0.204 OA
ATOM      2  C2  BZF d   1      -0.232  -1.147  -1.073  0.00  0.00     0.174 A 
ATOM      3  C3  BZF d   1      -0.889  -1.299   0.095  0.00  0.00    -0.012 A 
ATOM      4  C3A BZF d   1      -0.452  -0.213   0.918  0.00  0.00    -0.107 A 
ATOM      5  C4  BZF d   1      -0.759   0.186   2.187  0.00  0.00     0.055 A 
ATOM      6  C5  BZF d   1      -0.101   1.248   2.723  0.00  0.00    -0.016 A 
ATOM      7  C6  BZF d   1       0.872   1.929   2.021  0.00  0.00     0.022 A 
ATOM      8  C7  BZF d   1       1.208   1.572   0.757  0.00  0.00     0.029 A 
ATOM      9  C7A BZF d   1       0.521   0.521   0.201  0.00  0.00     0.058 A 
ENDROOT
TORSDOF 0
ENDMDL
