MODEL 1
REMARK minimizedAffinity -1.29387343
REMARK minimizedRMSD -1
REMARK  0 active torsions:
REMARK  status: ('A' for Active; 'I' for Inactive)
ROOT
ATOM      1  O1  BZF d   1       0.880  -0.907  -1.053  0.00  0.00    -0.204 OA
ATOM      2  C2  BZF d   1      -0.314  -1.601  -1.088  0.00  0.00     0.174 A 
ATOM      3  C3  BZF d   1      -1.157  -1.150  -0.136  0.00  0.00    -0.012 A 
ATOM      4  C3A BZF d   1      -0.480  -0.047   0.474  0.00  0.00    -0.107 A 
ATOM      5  C4  BZF d   1      -0.813   0.820   1.475  0.00  0.00     0.055 A 
ATOM      6  C5  BZF d   1       0.102   1.739   1.883  0.00  0.00    -0.016 A 
ATOM      7  C6  BZF d   1       1.358   1.814   1.318  0.00  0.00     0.022 A 
ATOM      8  C7  BZF d   1       1.731   0.978   0.319  0.00  0.00     0.029 A 
ATOM      9  C7A BZF d   1       0.798   0.070  -0.118  0.00  0.00     0.058 A 
ENDROOT
TORSDOF 0
ENDMDL
