MODEL 1
REMARK minimizedAffinity -2.24084711
REMARK minimizedRMSD -1
REMARK  0 active torsions:
REMARK  status: ('A' for Active; 'I' for Inactive)
ROOT
ATOM      1  O1  BZF d   1       0.087  -0.339  -2.109  0.00  0.00    -0.204 OA
ATOM      2  C2  BZF d   1       0.386  -0.331  -0.760  0.00  0.00     0.174 A 
ATOM      3  C3  BZF d   1      -0.496  -1.083  -0.070  0.00  0.00    -0.012 A 
ATOM      4  C3A BZF d   1      -1.348  -1.667  -1.061  0.00  0.00    -0.107 A 
ATOM      5  C4  BZF d   1      -2.409  -2.524  -0.999  0.00  0.00     0.055 A 
ATOM      6  C5  BZF d   1      -3.069  -2.843  -2.144  0.00  0.00    -0.016 A 
ATOM      7  C6  BZF d   1      -2.698  -2.318  -3.365  0.00  0.00     0.022 A 
ATOM      8  C7  BZF d   1      -1.648  -1.468  -3.477  0.00  0.00     0.029 A 
ATOM      9  C7A BZF d   1      -0.960  -1.170  -2.327  0.00  0.00     0.058 A 
ENDROOT
TORSDOF 0
ENDMDL
