MODEL 1
REMARK minimizedAffinity 1.54965746
REMARK minimizedRMSD -1
REMARK  0 active torsions:
REMARK  status: ('A' for Active; 'I' for Inactive)
ROOT
ATOM      1  O1  BZF d   1       2.281   1.160  -0.606  0.00  0.00    -0.204 OA
ATOM      2  C2  BZF d   1       1.879   2.176   0.240  0.00  0.00     0.174 A 
ATOM      3  C3  BZF d   1       0.677   1.897   0.784  0.00  0.00    -0.012 A 
ATOM      4  C3A BZF d   1       0.346   0.586   0.315  0.00  0.00    -0.107 A 
ATOM      5  C4  BZF d   1      -0.718  -0.244   0.523  0.00  0.00     0.055 A 
ATOM      6  C5  BZF d   1      -0.770  -1.429  -0.140  0.00  0.00    -0.016 A 
ATOM      7  C6  BZF d   1       0.221  -1.812  -1.021  0.00  0.00     0.022 A 
ATOM      8  C7  BZF d   1       1.298  -1.024  -1.255  0.00  0.00     0.029 A 
ATOM      9  C7A BZF d   1       1.370   0.159  -0.561  0.00  0.00     0.058 A 
ENDROOT
TORSDOF 0
ENDMDL
