MODEL 1
REMARK minimizedAffinity -5.68311501
REMARK minimizedRMSD -1
REMARK  0 active torsions:
REMARK  status: ('A' for Active; 'I' for Inactive)
ROOT
ATOM      1  O1  BZF d   1       1.868   2.622   1.585  0.00  0.00    -0.204 OA
ATOM      2  C2  BZF d   1       2.727   2.368   0.533  0.00  0.00     0.174 A 
ATOM      3  C3  BZF d   1       2.243   1.386  -0.254  0.00  0.00    -0.012 A 
ATOM      4  C3A BZF d   1       0.960   1.065   0.291  0.00  0.00    -0.107 A 
ATOM      5  C4  BZF d   1      -0.015   0.176  -0.063  0.00  0.00     0.055 A 
ATOM      6  C5  BZF d   1      -1.118   0.059   0.722  0.00  0.00    -0.016 A 
ATOM      7  C6  BZF d   1      -1.277   0.810   1.868  0.00  0.00     0.022 A 
ATOM      8  C7  BZF d   1      -0.340   1.708   2.257  0.00  0.00     0.029 A 
ATOM      9  C7A BZF d   1       0.761   1.852   1.449  0.00  0.00     0.058 A 
ENDROOT
TORSDOF 0
ENDMDL
