MODEL 1
REMARK minimizedAffinity -3.30612326
REMARK minimizedRMSD -1
REMARK  0 active torsions:
REMARK  status: ('A' for Active; 'I' for Inactive)
ROOT
ATOM      1  O1  BZF d   1       0.045   0.772   2.346  0.00  0.00    -0.204 OA
ATOM      2  C2  BZF d   1       0.775   1.781   1.747  0.00  0.00     0.174 A 
ATOM      3  C3  BZF d   1       0.986   1.508   0.443  0.00  0.00    -0.012 A 
ATOM      4  C3A BZF d   1       0.270   0.296   0.191  0.00  0.00    -0.107 A 
ATOM      5  C4  BZF d   1       0.085  -0.471  -0.924  0.00  0.00     0.055 A 
ATOM      6  C5  BZF d   1      -0.609  -1.635  -0.817  0.00  0.00    -0.016 A 
ATOM      7  C6  BZF d   1      -1.125  -2.065   0.387  0.00  0.00     0.022 A 
ATOM      8  C7  BZF d   1      -0.971  -1.336   1.520  0.00  0.00     0.029 A 
ATOM      9  C7A BZF d   1      -0.300  -0.143   1.409  0.00  0.00     0.058 A 
ENDROOT
TORSDOF 0
ENDMDL
