MODEL 1
REMARK minimizedAffinity -3.66253877
REMARK minimizedRMSD -1
REMARK  0 active torsions:
REMARK  status: ('A' for Active; 'I' for Inactive)
ROOT
ATOM      1  O1  BZF d   1       0.906   1.771   2.471  0.00  0.00    -0.204 OA
ATOM      2  C2  BZF d   1       0.279   0.903   3.344  0.00  0.00     0.174 A 
ATOM      3  C3  BZF d   1      -0.362  -0.074   2.670  0.00  0.00    -0.012 A 
ATOM      4  C3A BZF d   1      -0.043   0.147   1.293  0.00  0.00    -0.107 A 
ATOM      5  C4  BZF d   1      -0.370  -0.502   0.137  0.00  0.00     0.055 A 
ATOM      6  C5  BZF d   1       0.044   0.013  -1.050  0.00  0.00    -0.016 A 
ATOM      7  C6  BZF d   1       0.781   1.178  -1.119  0.00  0.00     0.022 A 
ATOM      8  C7  BZF d   1       1.134   1.855   0.001  0.00  0.00     0.029 A 
ATOM      9  C7A BZF d   1       0.745   1.318   1.204  0.00  0.00     0.058 A 
ENDROOT
TORSDOF 0
ENDMDL
