MODEL 1
REMARK minimizedAffinity -5.19413662
REMARK minimizedRMSD -1
REMARK  0 active torsions:
REMARK  status: ('A' for Active; 'I' for Inactive)
ROOT
ATOM      1  O1  BZF d   1       1.628  -0.879  -0.660  0.00  0.00    -0.204 OA
ATOM      2  C2  BZF d   1       0.296  -1.230  -0.769  0.00  0.00     0.174 A 
ATOM      3  C3  BZF d   1      -0.490  -0.317  -0.162  0.00  0.00    -0.012 A 
ATOM      4  C3A BZF d   1       0.400   0.713   0.278  0.00  0.00    -0.107 A 
ATOM      5  C4  BZF d   1       0.215   1.896   0.934  0.00  0.00     0.055 A 
ATOM      6  C5  BZF d   1       1.301   2.636   1.280  0.00  0.00    -0.016 A 
ATOM      7  C6  BZF d   1       2.584   2.221   0.992  0.00  0.00     0.022 A 
ATOM      8  C7  BZF d   1       2.818   1.057   0.338  0.00  0.00     0.029 A 
ATOM      9  C7A BZF d   1       1.721   0.323  -0.042  0.00  0.00     0.058 A 
ENDROOT
TORSDOF 0
ENDMDL
