MODEL 1
REMARK minimizedAffinity -5.31199551
REMARK minimizedRMSD -1
REMARK  0 active torsions:
REMARK  status: ('A' for Active; 'I' for Inactive)
ROOT
ATOM      1  O1  BZF d   1       1.176  -0.608  -0.691  0.00  0.00    -0.204 OA
ATOM      2  C2  BZF d   1       0.038  -1.380  -0.558  0.00  0.00     0.174 A 
ATOM      3  C3  BZF d   1      -0.835  -0.803   0.293  0.00  0.00    -0.012 A 
ATOM      4  C3A BZF d   1      -0.242   0.451   0.647  0.00  0.00    -0.107 A 
ATOM      5  C4  BZF d   1      -0.637   1.482   1.450  0.00  0.00     0.055 A 
ATOM      6  C5  BZF d   1       0.206   2.531   1.641  0.00  0.00    -0.016 A 
ATOM      7  C6  BZF d   1       1.452   2.578   1.050  0.00  0.00     0.022 A 
ATOM      8  C7  BZF d   1       1.886   1.580   0.242  0.00  0.00     0.029 A 
ATOM      9  C7A BZF d   1       1.023   0.535   0.020  0.00  0.00     0.058 A 
ENDROOT
TORSDOF 0
ENDMDL
