MODEL 1
REMARK minimizedAffinity -5.43028736
REMARK minimizedRMSD -1
REMARK  0 active torsions:
REMARK  status: ('A' for Active; 'I' for Inactive)
ROOT
ATOM      1  O1  BZF d   1       1.468  -1.082  -0.364  0.00  0.00    -0.204 OA
ATOM      2  C2  BZF d   1       0.150  -1.494  -0.362  0.00  0.00     0.174 A 
ATOM      3  C3  BZF d   1      -0.639  -0.572   0.228  0.00  0.00    -0.012 A 
ATOM      4  C3A BZF d   1       0.229   0.523   0.536  0.00  0.00    -0.107 A 
ATOM      5  C4  BZF d   1       0.031   1.743   1.117  0.00  0.00     0.055 A 
ATOM      6  C5  BZF d   1       1.101   2.550   1.340  0.00  0.00    -0.016 A 
ATOM      7  C6  BZF d   1       2.382   2.168   1.000  0.00  0.00     0.022 A 
ATOM      8  C7  BZF d   1       2.628   0.969   0.417  0.00  0.00     0.029 A 
ATOM      9  C7A BZF d   1       1.544   0.165   0.160  0.00  0.00     0.058 A 
ENDROOT
TORSDOF 0
ENDMDL
