MODEL 1
REMARK minimizedAffinity -3.64061379
REMARK minimizedRMSD -1
REMARK  0 active torsions:
REMARK  status: ('A' for Active; 'I' for Inactive)
ROOT
ATOM      1  O1  BZF d   1      -0.730  -1.016   0.622  0.00  0.00    -0.204 OA
ATOM      2  C2  BZF d   1      -0.307  -1.134  -0.688  0.00  0.00     0.174 A 
ATOM      3  C3  BZF d   1       0.295  -0.000  -1.101  0.00  0.00    -0.012 A 
ATOM      4  C3A BZF d   1       0.328   0.848   0.051  0.00  0.00    -0.107 A 
ATOM      5  C4  BZF d   1       0.816   2.104   0.278  0.00  0.00     0.055 A 
ATOM      6  C5  BZF d   1       0.622   2.677   1.495  0.00  0.00    -0.016 A 
ATOM      7  C6  BZF d   1      -0.057   2.026   2.504  0.00  0.00     0.022 A 
ATOM      8  C7  BZF d   1      -0.554   0.778   2.328  0.00  0.00     0.029 A 
ATOM      9  C7A BZF d   1      -0.332   0.183   1.110  0.00  0.00     0.058 A 
ENDROOT
TORSDOF 0
ENDMDL
