MODEL 1
REMARK minimizedAffinity -3.60181928
REMARK minimizedRMSD -1
REMARK  0 active torsions:
REMARK  status: ('A' for Active; 'I' for Inactive)
ROOT
ATOM      1  O1  BZF d   1      -1.012  -0.467   0.898  0.00  0.00    -0.204 OA
ATOM      2  C2  BZF d   1      -0.812  -1.269  -0.209  0.00  0.00     0.174 A 
ATOM      3  C3  BZF d   1       0.112  -0.729  -1.030  0.00  0.00    -0.012 A 
ATOM      4  C3A BZF d   1       0.582   0.439  -0.351  0.00  0.00    -0.107 A 
ATOM      5  C4  BZF d   1       1.516   1.389  -0.653  0.00  0.00     0.055 A 
ATOM      6  C5  BZF d   1       1.684   2.442   0.190  0.00  0.00    -0.016 A 
ATOM      7  C6  BZF d   1       0.931   2.580   1.338  0.00  0.00     0.022 A 
ATOM      8  C7  BZF d   1      -0.004   1.661   1.682  0.00  0.00     0.029 A 
ATOM      9  C7A BZF d   1      -0.152   0.579   0.849  0.00  0.00     0.058 A 
ENDROOT
TORSDOF 0
ENDMDL
