MODEL 1
REMARK minimizedAffinity -2.86128807
REMARK minimizedRMSD -1
REMARK  0 active torsions:
REMARK  status: ('A' for Active; 'I' for Inactive)
ROOT
ATOM      1  O1  BZF d   1      -1.480  -0.442  -1.841  0.00  0.00    -0.204 OA
ATOM      2  C2  BZF d   1      -1.454  -1.806  -1.627  0.00  0.00     0.174 A 
ATOM      3  C3  BZF d   1      -0.994  -2.088  -0.391  0.00  0.00    -0.012 A 
ATOM      4  C3A BZF d   1      -0.803  -0.817   0.238  0.00  0.00    -0.107 A 
ATOM      5  C4  BZF d   1      -0.376  -0.438   1.479  0.00  0.00     0.055 A 
ATOM      6  C5  BZF d   1      -0.232   0.885   1.752  0.00  0.00    -0.016 A 
ATOM      7  C6  BZF d   1      -0.499   1.855   0.807  0.00  0.00     0.022 A 
ATOM      8  C7  BZF d   1      -0.929   1.528  -0.436  0.00  0.00     0.029 A 
ATOM      9  C7A BZF d   1      -1.108   0.193  -0.704  0.00  0.00     0.058 A 
ENDROOT
TORSDOF 0
ENDMDL
