MODEL 1
REMARK minimizedAffinity -4.0585351
REMARK minimizedRMSD -1
REMARK  0 active torsions:
REMARK  status: ('A' for Active; 'I' for Inactive)
ROOT
ATOM      1  O1  BZF d   1      -1.061  -0.575   0.457  0.00  0.00    -0.204 OA
ATOM      2  C2  BZF d   1      -1.941  -0.235   1.466  0.00  0.00     0.174 A 
ATOM      3  C3  BZF d   1      -1.561   0.911   2.066  0.00  0.00    -0.012 A 
ATOM      4  C3A BZF d   1      -0.419   1.361   1.330  0.00  0.00    -0.107 A 
ATOM      5  C4  BZF d   1       0.395   2.452   1.435  0.00  0.00     0.055 A 
ATOM      6  C5  BZF d   1       1.467   2.558   0.605  0.00  0.00    -0.016 A 
ATOM      7  C6  BZF d   1       1.756   1.591  -0.335  0.00  0.00     0.022 A 
ATOM      8  C7  BZF d   1       0.974   0.494  -0.479  0.00  0.00     0.029 A 
ATOM      9  C7A BZF d   1      -0.128   0.399   0.335  0.00  0.00     0.058 A 
ENDROOT
TORSDOF 0
ENDMDL
