MODEL 1
REMARK minimizedAffinity -4.42933178
REMARK minimizedRMSD -1
REMARK  0 active torsions:
REMARK  status: ('A' for Active; 'I' for Inactive)
ROOT
ATOM      1  O1  BZF d   1       0.722  -0.722  -0.847  0.00  0.00    -0.204 OA
ATOM      2  C2  BZF d   1      -0.497  -1.258  -0.481  0.00  0.00     0.174 A 
ATOM      3  C3  BZF d   1      -1.030  -0.573   0.552  0.00  0.00    -0.012 A 
ATOM      4  C3A BZF d   1      -0.129   0.512   0.789  0.00  0.00    -0.107 A 
ATOM      5  C4  BZF d   1      -0.122   1.550   1.677  0.00  0.00     0.055 A 
ATOM      6  C5  BZF d   1       0.941   2.396   1.696  0.00  0.00    -0.016 A 
ATOM      7  C6  BZF d   1       2.016   2.231   0.846  0.00  0.00     0.022 A 
ATOM      8  C7  BZF d   1       2.052   1.219  -0.055  0.00  0.00     0.029 A 
ATOM      9  C7A BZF d   1       0.963   0.382  -0.099  0.00  0.00     0.058 A 
ENDROOT
TORSDOF 0
ENDMDL
