MODEL 1
REMARK minimizedAffinity -4.31518269
REMARK minimizedRMSD -1
REMARK  0 active torsions:
REMARK  status: ('A' for Active; 'I' for Inactive)
ROOT
ATOM      1  C   UNL d   1       2.205  -0.290  -4.443  0.00  0.00     0.020 A 
ATOM      2  C1  UNL d   1       2.870  -0.647  -3.271  0.00  0.00     0.020 A 
ATOM      3  C2  UNL d   1       2.180  -0.670  -2.057  0.00  0.00     0.034 A 
ATOM      4  C3  UNL d   1       0.822  -0.336  -2.012  0.00  0.00     0.017 A 
ATOM      5  C4  UNL d   1       0.155   0.022  -3.190  0.00  0.00     0.017 A 
ATOM      6  C5  UNL d   1       0.851   0.043  -4.403  0.00  0.00     0.034 A 
ATOM      7 Cl   UNL d   1      -1.520   0.446  -3.214  0.00  0.00    -0.070 Cl
ATOM      8 Cl1  UNL d   1       0.032  -0.387  -0.476  0.00  0.00    -0.070 Cl
ENDROOT
TORSDOF 0
ENDMDL
