MODEL 1
REMARK minimizedAffinity -3.82517171
REMARK minimizedRMSD -1
REMARK  0 active torsions:
REMARK  status: ('A' for Active; 'I' for Inactive)
ROOT
ATOM      1  C   UNL d   1      -5.257   3.716   5.985  0.00  0.00     0.020 A 
ATOM      2  C1  UNL d   1      -5.783   5.003   5.872  0.00  0.00     0.020 A 
ATOM      3  C2  UNL d   1      -5.998   5.561   4.610  0.00  0.00     0.034 A 
ATOM      4  C3  UNL d   1      -5.686   4.833   3.456  0.00  0.00     0.017 A 
ATOM      5  C4  UNL d   1      -5.158   3.542   3.570  0.00  0.00     0.017 A 
ATOM      6  C5  UNL d   1      -4.945   2.988   4.836  0.00  0.00     0.034 A 
ATOM      7 Cl   UNL d   1      -4.748   2.582   2.192  0.00  0.00    -0.070 Cl
ATOM      8 Cl1  UNL d   1      -5.978   5.585   1.928  0.00  0.00    -0.070 Cl
ENDROOT
TORSDOF 0
ENDMDL
