MODEL 1
REMARK minimizedAffinity 1.18983984
REMARK minimizedRMSD -1
REMARK  0 active torsions:
REMARK  status: ('A' for Active; 'I' for Inactive)
ROOT
ATOM      1  C   UNL d   1      -2.648  -2.489  -2.464  0.00  0.00     0.020 A 
ATOM      2  C1  UNL d   1      -2.655  -3.172  -1.249  0.00  0.00     0.020 A 
ATOM      3  C2  UNL d   1      -1.987  -2.640  -0.144  0.00  0.00     0.034 A 
ATOM      4  C3  UNL d   1      -1.308  -1.421  -0.252  0.00  0.00     0.017 A 
ATOM      5  C4  UNL d   1      -1.301  -0.736  -1.473  0.00  0.00     0.017 A 
ATOM      6  C5  UNL d   1      -1.972  -1.273  -2.576  0.00  0.00     0.034 A 
ATOM      7 Cl   UNL d   1      -0.485   0.773  -1.683  0.00  0.00    -0.070 Cl
ATOM      8 Cl1  UNL d   1      -0.503  -0.822   1.154  0.00  0.00    -0.070 Cl
ENDROOT
TORSDOF 0
ENDMDL
