MODEL 1
REMARK minimizedAffinity -1.0153724
REMARK minimizedRMSD -1
REMARK  0 active torsions:
REMARK  status: ('A' for Active; 'I' for Inactive)
ROOT
ATOM      1  C   UNL d   1      -4.314  -2.604   4.947  0.00  0.00     0.020 A 
ATOM      2  C1  UNL d   1      -5.247  -1.875   5.682  0.00  0.00     0.020 A 
ATOM      3  C2  UNL d   1      -4.997  -0.537   5.996  0.00  0.00     0.034 A 
ATOM      4  C3  UNL d   1      -3.811   0.075   5.575  0.00  0.00     0.017 A 
ATOM      5  C4  UNL d   1      -2.875  -0.659   4.837  0.00  0.00     0.017 A 
ATOM      6  C5  UNL d   1      -3.131  -1.997   4.525  0.00  0.00     0.034 A 
ATOM      7 Cl   UNL d   1      -1.389   0.028   4.282  0.00  0.00    -0.070 Cl
ATOM      8 Cl1  UNL d   1      -3.567   1.732   5.999  0.00  0.00    -0.070 Cl
ENDROOT
TORSDOF 0
ENDMDL
