MODEL 1
REMARK minimizedAffinity 3.74994755
REMARK minimizedRMSD -1
REMARK  0 active torsions:
REMARK  status: ('A' for Active; 'I' for Inactive)
ROOT
ATOM      1  C   UNL d   1       2.973   3.498   2.122  0.00  0.00     0.020 A 
ATOM      2  C1  UNL d   1       2.266   2.871   1.097  0.00  0.00     0.020 A 
ATOM      3  C2  UNL d   1       2.601   3.120  -0.236  0.00  0.00     0.034 A 
ATOM      4  C3  UNL d   1       3.645   3.999  -0.546  0.00  0.00     0.017 A 
ATOM      5  C4  UNL d   1       4.354   4.628   0.484  0.00  0.00     0.017 A 
ATOM      6  C5  UNL d   1       4.015   4.374   1.816  0.00  0.00     0.034 A 
ATOM      7 Cl   UNL d   1       5.655   5.724   0.179  0.00  0.00    -0.070 Cl
ATOM      8 Cl1  UNL d   1       4.005   4.261  -2.216  0.00  0.00    -0.070 Cl
ENDROOT
TORSDOF 0
ENDMDL
