MODEL 1
REMARK minimizedAffinity 5.216012
REMARK minimizedRMSD -1
REMARK  0 active torsions:
REMARK  status: ('A' for Active; 'I' for Inactive)
ROOT
ATOM      1  C   UNL d   1      -2.118  -2.310  -4.028  0.00  0.00     0.020 A 
ATOM      2  C1  UNL d   1      -3.201  -3.187  -4.077  0.00  0.00     0.020 A 
ATOM      3  C2  UNL d   1      -3.778  -3.650  -2.893  0.00  0.00     0.034 A 
ATOM      4  C3  UNL d   1      -3.273  -3.237  -1.655  0.00  0.00     0.017 A 
ATOM      5  C4  UNL d   1      -2.186  -2.357  -1.607  0.00  0.00     0.017 A 
ATOM      6  C5  UNL d   1      -1.612  -1.896  -2.796  0.00  0.00     0.034 A 
ATOM      7 Cl   UNL d   1      -1.508  -1.802  -0.117  0.00  0.00    -0.070 Cl
ATOM      8 Cl1  UNL d   1      -4.037  -3.849  -0.231  0.00  0.00    -0.070 Cl
ENDROOT
TORSDOF 0
ENDMDL
