MODEL 1
REMARK minimizedAffinity 2.90002632
REMARK minimizedRMSD -1
REMARK  0 active torsions:
REMARK  status: ('A' for Active; 'I' for Inactive)
ROOT
ATOM      1  C   UNL d   1      -1.225  -0.887  -0.333  0.00  0.00     0.020 A 
ATOM      2  C1  UNL d   1      -1.286   0.025  -1.386  0.00  0.00     0.020 A 
ATOM      3  C2  UNL d   1      -1.824  -0.363  -2.615  0.00  0.00     0.034 A 
ATOM      4  C3  UNL d   1      -2.303  -1.666  -2.795  0.00  0.00     0.017 A 
ATOM      5  C4  UNL d   1      -2.241  -2.581  -1.737  0.00  0.00     0.017 A 
ATOM      6  C5  UNL d   1      -1.702  -2.187  -0.508  0.00  0.00     0.034 A 
ATOM      7 Cl   UNL d   1      -2.812  -4.206  -1.882  0.00  0.00    -0.070 Cl
ATOM      8 Cl1  UNL d   1      -2.955  -2.077  -4.341  0.00  0.00    -0.070 Cl
ENDROOT
TORSDOF 0
ENDMDL
