MODEL 1
REMARK minimizedAffinity -3.92179608
REMARK minimizedRMSD -1
REMARK  0 active torsions:
REMARK  status: ('A' for Active; 'I' for Inactive)
ROOT
ATOM      1  C   UNL d   1      -4.889   5.501   2.979  0.00  0.00     0.020 A 
ATOM      2  C1  UNL d   1      -5.272   5.536   4.320  0.00  0.00     0.020 A 
ATOM      3  C2  UNL d   1      -5.237   4.368   5.085  0.00  0.00     0.034 A 
ATOM      4  C3  UNL d   1      -4.818   3.162   4.512  0.00  0.00     0.017 A 
ATOM      5  C4  UNL d   1      -4.434   3.129   3.166  0.00  0.00     0.017 A 
ATOM      6  C5  UNL d   1      -4.471   4.301   2.404  0.00  0.00     0.034 A 
ATOM      7 Cl   UNL d   1      -3.906   1.679   2.389  0.00  0.00    -0.070 Cl
ATOM      8 Cl1  UNL d   1      -4.800   1.758   5.518  0.00  0.00    -0.070 Cl
ENDROOT
TORSDOF 0
ENDMDL
