MODEL 1
REMARK minimizedAffinity 6.02826262
REMARK minimizedRMSD -1
REMARK  0 active torsions:
REMARK  status: ('A' for Active; 'I' for Inactive)
ROOT
ATOM      1  C   UNL d   1       1.319   1.395   4.955  0.00  0.00     0.020 A 
ATOM      2  C1  UNL d   1       0.638   1.271   3.744  0.00  0.00     0.020 A 
ATOM      3  C2  UNL d   1       1.166   1.844   2.585  0.00  0.00     0.034 A 
ATOM      4  C3  UNL d   1       2.377   2.543   2.633  0.00  0.00     0.017 A 
ATOM      5  C4  UNL d   1       3.060   2.667   3.849  0.00  0.00     0.017 A 
ATOM      6  C5  UNL d   1       2.527   2.091   5.007  0.00  0.00     0.034 A 
ATOM      7 Cl   UNL d   1       4.560   3.514   3.987  0.00  0.00    -0.070 Cl
ATOM      8 Cl1  UNL d   1       2.971   3.225   1.161  0.00  0.00    -0.070 Cl
ENDROOT
TORSDOF 0
ENDMDL
