MODEL 1
REMARK minimizedAffinity 4.37868738
REMARK minimizedRMSD -1
REMARK  0 active torsions:
REMARK  status: ('A' for Active; 'I' for Inactive)
ROOT
ATOM      1  C   UNL d   1      -1.342  -1.619   0.212  0.00  0.00     0.020 A 
ATOM      2  C1  UNL d   1      -1.363  -0.618  -0.758  0.00  0.00     0.020 A 
ATOM      3  C2  UNL d   1      -1.820   0.661  -0.432  0.00  0.00     0.034 A 
ATOM      4  C3  UNL d   1      -2.257   0.942   0.868  0.00  0.00     0.017 A 
ATOM      5  C4  UNL d   1      -2.236  -0.064   1.841  0.00  0.00     0.017 A 
ATOM      6  C5  UNL d   1      -1.777  -1.343   1.509  0.00  0.00     0.034 A 
ATOM      7 Cl   UNL d   1      -2.759   0.206   3.466  0.00  0.00    -0.070 Cl
ATOM      8 Cl1  UNL d   1      -2.809   2.545   1.201  0.00  0.00    -0.070 Cl
ENDROOT
TORSDOF 0
ENDMDL
