MODEL 1
REMARK minimizedAffinity 7.77545118
REMARK minimizedRMSD -1
REMARK  0 active torsions:
REMARK  status: ('A' for Active; 'I' for Inactive)
ROOT
ATOM      1  C   UNL d   1      -1.475   0.443  -1.201  0.00  0.00     0.020 A 
ATOM      2  C1  UNL d   1      -0.085   0.396  -1.297  0.00  0.00     0.020 A 
ATOM      3  C2  UNL d   1       0.678   0.009  -0.193  0.00  0.00     0.034 A 
ATOM      4  C3  UNL d   1       0.052  -0.333   1.011  0.00  0.00     0.017 A 
ATOM      5  C4  UNL d   1      -1.343  -0.286   1.106  0.00  0.00     0.017 A 
ATOM      6  C5  UNL d   1      -2.103   0.102  -0.002  0.00  0.00     0.034 A 
ATOM      7 Cl   UNL d   1      -2.187  -0.693   2.558  0.00  0.00    -0.070 Cl
ATOM      8 Cl1  UNL d   1       1.059  -0.803   2.335  0.00  0.00    -0.070 Cl
ENDROOT
TORSDOF 0
ENDMDL
