MODEL 1
REMARK minimizedAffinity 2.57742357
REMARK minimizedRMSD -1
REMARK  0 active torsions:
REMARK  status: ('A' for Active; 'I' for Inactive)
ROOT
ATOM      1  C   UNL d   1      -5.532   5.609   0.561  0.00  0.00     0.020 A 
ATOM      2  C1  UNL d   1      -4.507   4.674   0.416  0.00  0.00     0.020 A 
ATOM      3  C2  UNL d   1      -3.894   4.129   1.546  0.00  0.00     0.034 A 
ATOM      4  C3  UNL d   1      -4.305   4.519   2.826  0.00  0.00     0.017 A 
ATOM      5  C4  UNL d   1      -5.333   5.457   2.971  0.00  0.00     0.017 A 
ATOM      6  C5  UNL d   1      -5.943   6.000   1.836  0.00  0.00     0.034 A 
ATOM      7 Cl   UNL d   1      -5.894   5.987   4.517  0.00  0.00    -0.070 Cl
ATOM      8 Cl1  UNL d   1      -3.503   3.803   4.179  0.00  0.00    -0.070 Cl
ENDROOT
TORSDOF 0
ENDMDL
