MODEL 1
REMARK minimizedAffinity 2.22070909
REMARK minimizedRMSD -1
REMARK  0 active torsions:
REMARK  status: ('A' for Active; 'I' for Inactive)
ROOT
ATOM      1  C   UNL d   1      -4.341   4.088   2.666  0.00  0.00     0.020 A 
ATOM      2  C1  UNL d   1      -4.352   3.672   3.997  0.00  0.00     0.020 A 
ATOM      3  C2  UNL d   1      -4.023   2.354   4.319  0.00  0.00     0.034 A 
ATOM      4  C3  UNL d   1      -3.682   1.446   3.310  0.00  0.00     0.017 A 
ATOM      5  C4  UNL d   1      -3.671   1.865   1.974  0.00  0.00     0.017 A 
ATOM      6  C5  UNL d   1      -4.001   3.186   1.657  0.00  0.00     0.034 A 
ATOM      7 Cl   UNL d   1      -3.260   0.803   0.674  0.00  0.00    -0.070 Cl
ATOM      8 Cl1  UNL d   1      -3.286  -0.168   3.781  0.00  0.00    -0.070 Cl
ENDROOT
TORSDOF 0
ENDMDL
