MODEL 1
REMARK minimizedAffinity 3.67669439
REMARK minimizedRMSD -1
REMARK  0 active torsions:
REMARK  status: ('A' for Active; 'I' for Inactive)
ROOT
ATOM      1  C   UNL d   1      -3.335  -3.372  -4.209  0.00  0.00     0.020 A 
ATOM      2  C1  UNL d   1      -2.927  -2.086  -4.562  0.00  0.00     0.020 A 
ATOM      3  C2  UNL d   1      -2.277  -1.278  -3.627  0.00  0.00     0.034 A 
ATOM      4  C3  UNL d   1      -2.034  -1.754  -2.333  0.00  0.00     0.017 A 
ATOM      5  C4  UNL d   1      -2.444  -3.045  -1.979  0.00  0.00     0.017 A 
ATOM      6  C5  UNL d   1      -3.094  -3.850  -2.920  0.00  0.00     0.034 A 
ATOM      7 Cl   UNL d   1      -2.180  -3.702  -0.403  0.00  0.00    -0.070 Cl
ATOM      8 Cl1  UNL d   1      -1.225  -0.701  -1.228  0.00  0.00    -0.070 Cl
ENDROOT
TORSDOF 0
ENDMDL
