MODEL 1
REMARK minimizedAffinity 2.64284515
REMARK minimizedRMSD -1
REMARK  0 active torsions:
REMARK  status: ('A' for Active; 'I' for Inactive)
ROOT
ATOM      1  C   UNL d   1       3.693   2.701   3.560  0.00  0.00     0.020 A 
ATOM      2  C1  UNL d   1       2.542   3.374   3.153  0.00  0.00     0.020 A 
ATOM      3  C2  UNL d   1       1.284   2.871   3.489  0.00  0.00     0.034 A 
ATOM      4  C3  UNL d   1       1.173   1.692   4.234  0.00  0.00     0.017 A 
ATOM      5  C4  UNL d   1       2.329   1.017   4.642  0.00  0.00     0.017 A 
ATOM      6  C5  UNL d   1       3.587   1.525   4.303  0.00  0.00     0.034 A 
ATOM      7 Cl   UNL d   1       2.273  -0.444   5.564  0.00  0.00    -0.070 Cl
ATOM      8 Cl1  UNL d   1      -0.415   1.127   4.614  0.00  0.00    -0.070 Cl
ENDROOT
TORSDOF 0
ENDMDL
