MODEL 1
REMARK minimizedAffinity 2.71876144
REMARK minimizedRMSD -1
REMARK  0 active torsions:
REMARK  status: ('A' for Active; 'I' for Inactive)
ROOT
ATOM      1  C4' PXY d   1      -5.502   4.081   1.484  0.00  0.00     0.077 C 
ATOM      2  C1' PXY d   1      -5.221  -1.036  -1.190  0.00  0.00     0.077 C 
ATOM      3  C1  PXY d   1      -5.306   0.302  -0.482  0.00  0.00    -0.082 A 
ATOM      4  C2  PXY d   1      -4.778   1.375  -1.048  0.00  0.00     0.003 A 
ATOM      5  C3  PXY d   1      -4.816   2.587  -0.407  0.00  0.00     0.003 A 
ATOM      6  C4  PXY d   1      -5.449   2.711   0.801  0.00  0.00    -0.082 A 
ATOM      7  C5  PXY d   1      -6.000   1.623   1.379  0.00  0.00     0.003 A 
ATOM      8  C6  PXY d   1      -5.913   0.394   0.732  0.00  0.00     0.003 A 
ENDROOT
TORSDOF 0
ENDMDL
