MODEL 1
REMARK minimizedAffinity 4.20498133
REMARK minimizedRMSD -1
REMARK  0 active torsions:
REMARK  status: ('A' for Active; 'I' for Inactive)
ROOT
ATOM      1  C4' PXY d   1       5.746   4.164   0.279  0.00  0.00     0.077 C 
ATOM      2  C1' PXY d   1       3.726  -0.891  -1.667  0.00  0.00     0.077 C 
ATOM      3  C1  PXY d   1       4.268   0.430  -1.158  0.00  0.00    -0.082 A 
ATOM      4  C2  PXY d   1       3.536   1.164  -0.336  0.00  0.00     0.003 A 
ATOM      5  C3  PXY d   1       3.997   2.377   0.108  0.00  0.00     0.003 A 
ATOM      6  C4  PXY d   1       5.243   2.818  -0.251  0.00  0.00    -0.082 A 
ATOM      7  C5  PXY d   1       6.000   2.070  -1.082  0.00  0.00     0.003 A 
ATOM      8  C6  PXY d   1       5.497   0.862  -1.554  0.00  0.00     0.003 A 
ENDROOT
TORSDOF 0
ENDMDL
