MODEL 1
REMARK minimizedAffinity -2.8143723
REMARK minimizedRMSD -1
REMARK  0 active torsions:
REMARK  status: ('A' for Active; 'I' for Inactive)
ROOT
ATOM      1  C4' PXY d   1      -3.000   4.094  -2.968  0.00  0.00     0.077 C 
ATOM      2  C1' PXY d   1      -6.000  -0.478  -4.841  0.00  0.00     0.077 C 
ATOM      3  C1  PXY d   1      -5.224   0.728  -4.350  0.00  0.00    -0.082 A 
ATOM      4  C2  PXY d   1      -3.915   0.783  -4.534  0.00  0.00     0.003 A 
ATOM      5  C3  PXY d   1      -3.193   1.852  -4.069  0.00  0.00     0.003 A 
ATOM      6  C4  PXY d   1      -3.825   2.900  -3.455  0.00  0.00    -0.082 A 
ATOM      7  C5  PXY d   1      -5.162   2.857  -3.273  0.00  0.00     0.003 A 
ATOM      8  C6  PXY d   1      -5.871   1.744  -3.717  0.00  0.00     0.003 A 
ENDROOT
TORSDOF 0
ENDMDL
