MODEL 1
REMARK minimizedAffinity -1.44504106
REMARK minimizedRMSD -1
REMARK  0 active torsions:
REMARK  status: ('A' for Active; 'I' for Inactive)
ROOT
ATOM      1  C4' PXY d   1      -6.000  -0.384  -5.597  0.00  0.00     0.077 C 
ATOM      2  C1' PXY d   1      -3.390   3.902  -2.726  0.00  0.00     0.077 C 
ATOM      3  C1  PXY d   1      -4.063   2.775  -3.485  0.00  0.00    -0.082 A 
ATOM      4  C2  PXY d   1      -5.368   2.819  -3.699  0.00  0.00     0.003 A 
ATOM      5  C3  PXY d   1      -5.998   1.793  -4.355  0.00  0.00     0.003 A 
ATOM      6  C4  PXY d   1      -5.277   0.736  -4.844  0.00  0.00    -0.082 A 
ATOM      7  C5  PXY d   1      -3.943   0.690  -4.639  0.00  0.00     0.003 A 
ATOM      8  C6  PXY d   1      -3.329   1.721  -3.934  0.00  0.00     0.003 A 
ENDROOT
TORSDOF 0
ENDMDL
