MODEL 1
REMARK minimizedAffinity 7.42484522
REMARK minimizedRMSD -1
REMARK  0 active torsions:
REMARK  status: ('A' for Active; 'I' for Inactive)
ROOT
ATOM      1  C4' PXY d   1      -1.526  -0.727  -4.041  0.00  0.00     0.077 C 
ATOM      2  C1' PXY d   1      -5.807   3.152  -3.842  0.00  0.00     0.077 C 
ATOM      3  C1  PXY d   1      -4.693   2.126  -3.897  0.00  0.00    -0.082 A 
ATOM      4  C2  PXY d   1      -3.583   2.327  -3.206  0.00  0.00     0.003 A 
ATOM      5  C3  PXY d   1      -2.553   1.424  -3.270  0.00  0.00     0.003 A 
ATOM      6  C4  PXY d   1      -2.681   0.278  -4.007  0.00  0.00    -0.082 A 
ATOM      7  C5  PXY d   1      -3.815   0.060  -4.707  0.00  0.00     0.003 A 
ATOM      8  C6  PXY d   1      -4.832   1.008  -4.661  0.00  0.00     0.003 A 
ENDROOT
TORSDOF 0
ENDMDL
