MODEL 1
REMARK minimizedAffinity 7.86540413
REMARK minimizedRMSD -1
REMARK  0 active torsions:
REMARK  status: ('A' for Active; 'I' for Inactive)
ROOT
ATOM      1  C4' PXY d   1      -0.654  -5.998  -0.952  0.00  0.00     0.077 C 
ATOM      2  C1' PXY d   1      -4.960  -5.753  -4.800  0.00  0.00     0.077 C 
ATOM      3  C1  PXY d   1      -3.823  -5.822  -3.800  0.00  0.00    -0.082 A 
ATOM      4  C2  PXY d   1      -4.092  -5.853  -2.505  0.00  0.00     0.003 A 
ATOM      5  C3  PXY d   1      -3.075  -5.884  -1.586  0.00  0.00     0.003 A 
ATOM      6  C4  PXY d   1      -1.771  -5.937  -1.998  0.00  0.00    -0.082 A 
ATOM      7  C5  PXY d   1      -1.488  -5.916  -3.318  0.00  0.00     0.003 A 
ATOM      8  C6  PXY d   1      -2.534  -5.843  -4.234  0.00  0.00     0.003 A 
ENDROOT
TORSDOF 0
ENDMDL
