MODEL 1
REMARK minimizedAffinity 4.50733423
REMARK minimizedRMSD -1
REMARK  0 active torsions:
REMARK  status: ('A' for Active; 'I' for Inactive)
ROOT
ATOM      1  C4' PXY d   1      -6.000  -0.883  -4.931  0.00  0.00     0.077 C 
ATOM      2  C1' PXY d   1      -3.368   3.725  -2.638  0.00  0.00     0.077 C 
ATOM      3  C1  PXY d   1      -4.048   2.514  -3.246  0.00  0.00    -0.082 A 
ATOM      4  C2  PXY d   1      -5.369   2.451  -3.275  0.00  0.00     0.003 A 
ATOM      5  C3  PXY d   1      -6.000   1.349  -3.793  0.00  0.00     0.003 A 
ATOM      6  C4  PXY d   1      -5.271   0.325  -4.335  0.00  0.00    -0.082 A 
ATOM      7  C5  PXY d   1      -3.923   0.386  -4.319  0.00  0.00     0.003 A 
ATOM      8  C6  PXY d   1      -3.301   1.495  -3.752  0.00  0.00     0.003 A 
ENDROOT
TORSDOF 0
ENDMDL
