MODEL 1
REMARK minimizedAffinity -1.15659654
REMARK minimizedRMSD -1
REMARK  0 active torsions:
REMARK  status: ('A' for Active; 'I' for Inactive)
ROOT
ATOM      1  C4' PXY d   1       1.448  -2.805  -0.773  0.00  0.00     0.077 C 
ATOM      2  C1' PXY d   1       4.931   1.807  -0.673  0.00  0.00     0.077 C 
ATOM      3  C1  PXY d   1       4.015   0.600  -0.712  0.00  0.00    -0.082 A 
ATOM      4  C2  PXY d   1       3.501   0.133   0.414  0.00  0.00     0.003 A 
ATOM      5  C3  PXY d   1       2.696  -0.977   0.401  0.00  0.00     0.003 A 
ATOM      6  C4  PXY d   1       2.371  -1.583  -0.783  0.00  0.00    -0.082 A 
ATOM      7  C5  PXY d   1       2.882  -1.106  -1.937  0.00  0.00     0.003 A 
ATOM      8  C6  PXY d   1       3.731  -0.003  -1.898  0.00  0.00     0.003 A 
ENDROOT
TORSDOF 0
ENDMDL
