MODEL 1
REMARK minimizedAffinity 0.667188406
REMARK minimizedRMSD -1
REMARK  0 active torsions:
REMARK  status: ('A' for Active; 'I' for Inactive)
ROOT
ATOM      1  C4' PXY d   1      -5.999  -0.735  -4.513  0.00  0.00     0.077 C 
ATOM      2  C1' PXY d   1      -2.530   3.569  -2.821  0.00  0.00     0.077 C 
ATOM      3  C1  PXY d   1      -3.450   2.445  -3.257  0.00  0.00    -0.082 A 
ATOM      4  C2  PXY d   1      -2.932   1.294  -3.654  0.00  0.00     0.003 A 
ATOM      5  C3  PXY d   1      -3.748   0.279  -4.083  0.00  0.00     0.003 A 
ATOM      6  C4  PXY d   1      -5.109   0.424  -4.055  0.00  0.00    -0.082 A 
ATOM      7  C5  PXY d   1      -5.645   1.592  -3.641  0.00  0.00     0.003 A 
ATOM      8  C6  PXY d   1      -4.798   2.625  -3.249  0.00  0.00     0.003 A 
ENDROOT
TORSDOF 0
ENDMDL
