MODEL 1
REMARK minimizedAffinity 2.33703065
REMARK minimizedRMSD -1
REMARK  0 active torsions:
REMARK  status: ('A' for Active; 'I' for Inactive)
ROOT
ATOM      1  C4' PXY d   1      -5.985   0.453   0.338  0.00  0.00     0.077 C 
ATOM      2  C1' PXY d   1      -4.295   0.404  -5.190  0.00  0.00     0.077 C 
ATOM      3  C1  PXY d   1      -4.740   0.430  -3.741  0.00  0.00    -0.082 A 
ATOM      4  C2  PXY d   1      -4.340  -0.525  -2.916  0.00  0.00     0.003 A 
ATOM      5  C3  PXY d   1      -4.759  -0.535  -1.611  0.00  0.00     0.003 A 
ATOM      6  C4  PXY d   1      -5.553   0.473  -1.131  0.00  0.00    -0.082 A 
ATOM      7  C5  PXY d   1      -5.957   1.456  -1.963  0.00  0.00     0.003 A 
ATOM      8  C6  PXY d   1      -5.554   1.425  -3.295  0.00  0.00     0.003 A 
ENDROOT
TORSDOF 0
ENDMDL
