MODEL 1
REMARK minimizedAffinity 8.62898254
REMARK minimizedRMSD -1
REMARK  0 active torsions:
REMARK  status: ('A' for Active; 'I' for Inactive)
ROOT
ATOM      1  C4' PXY d   1      -5.963   5.636   5.955  0.00  0.00     0.077 C 
ATOM      2  C1' PXY d   1      -5.516   3.802   0.491  0.00  0.00     0.077 C 
ATOM      3  C1  PXY d   1      -5.640   4.273   1.927  0.00  0.00    -0.082 A 
ATOM      4  C2  PXY d   1      -5.526   5.561   2.206  0.00  0.00     0.003 A 
ATOM      5  C3  PXY d   1      -5.604   6.000   3.502  0.00  0.00     0.003 A 
ATOM      6  C4  PXY d   1      -5.854   5.117   4.519  0.00  0.00    -0.082 A 
ATOM      7  C5  PXY d   1      -5.982   3.802   4.242  0.00  0.00     0.003 A 
ATOM      8  C6  PXY d   1      -5.859   3.372   2.924  0.00  0.00     0.003 A 
ENDROOT
TORSDOF 0
ENDMDL
