MODEL 1
REMARK minimizedAffinity 2.48192286
REMARK minimizedRMSD -1
REMARK  0 active torsions:
REMARK  status: ('A' for Active; 'I' for Inactive)
ROOT
ATOM      1  C4' PXY d   1      -1.052  -3.987  -1.559  0.00  0.00     0.077 C 
ATOM      2  C1' PXY d   1       1.466   1.053  -0.265  0.00  0.00     0.077 C 
ATOM      3  C1  PXY d   1       0.817  -0.274  -0.606  0.00  0.00    -0.082 A 
ATOM      4  C2  PXY d   1      -0.412  -0.295  -1.095  0.00  0.00     0.003 A 
ATOM      5  C3  PXY d   1      -1.026  -1.488  -1.379  0.00  0.00     0.003 A 
ATOM      6  C4  PXY d   1      -0.355  -2.670  -1.210  0.00  0.00    -0.082 A 
ATOM      7  C5  PXY d   1       0.904  -2.656  -0.721  0.00  0.00     0.003 A 
ATOM      8  C6  PXY d   1       1.494  -1.437  -0.401  0.00  0.00     0.003 A 
ENDROOT
TORSDOF 0
ENDMDL
