MODEL 1
REMARK minimizedAffinity -0.824481547
REMARK minimizedRMSD -1
REMARK  3 active torsions:
REMARK  status: ('A' for Active; 'I' for Inactive)
REMARK    1  A    between atoms: C3'_2  and  C2'_3 
REMARK    2  A    between atoms: C2'_3  and  C1'_4 
REMARK    3  A    between atoms: C1'_4  and  C1_5 
ROOT
ATOM      1  C1  N4B d   1      -0.413   0.576   1.562  0.00  0.00    -0.075 A 
ATOM      2  C2  N4B d   1      -0.083   0.978   0.248  0.00  0.00     0.002 A 
ATOM      3  C3  N4B d   1      -0.789   1.987  -0.359  0.00  0.00     0.002 A 
ATOM      4  C4  N4B d   1      -1.836   2.595   0.318  0.00  0.00    -0.004 A 
ATOM      5  C5  N4B d   1      -2.132   2.219   1.595  0.00  0.00     0.002 A 
ATOM      6  C6  N4B d   1      -1.429   1.208   2.219  0.00  0.00     0.002 A 
ENDROOT
BRANCH   1   7
ATOM      7  C1' N4B d   1       0.274  -0.580   2.235  0.00  0.00     0.057 C 
BRANCH   7   8
ATOM      8  C2' N4B d   1      -0.779  -1.560   2.744  0.00  0.00     0.009 C 
BRANCH   8   9
ATOM      9  C3' N4B d   1      -0.198  -2.942   2.989  0.00  0.00     0.004 C 
ATOM     10  C4' N4B d   1      -0.771  -3.606   4.206  0.00  0.00     0.003 C 
ENDBRANCH   8   9
ENDBRANCH   7   8
ENDBRANCH   1   7
TORSDOF 3
ENDMDL
