MODEL 1
REMARK minimizedAffinity 7.2190609
REMARK minimizedRMSD -1
REMARK  3 active torsions:
REMARK  status: ('A' for Active; 'I' for Inactive)
REMARK    1  A    between atoms: C3'_2  and  C2'_3 
REMARK    2  A    between atoms: C2'_3  and  C1'_4 
REMARK    3  A    between atoms: C1'_4  and  C1_5 
ROOT
ATOM      1  C1  N4B d   1      -1.019   2.100   0.878  0.00  0.00    -0.075 A 
ATOM      2  C2  N4B d   1      -2.418   2.183   1.046  0.00  0.00     0.002 A 
ATOM      3  C3  N4B d   1      -3.010   1.634   2.157  0.00  0.00     0.002 A 
ATOM      4  C4  N4B d   1      -2.228   0.983   3.099  0.00  0.00    -0.004 A 
ATOM      5  C5  N4B d   1      -0.874   0.929   2.942  0.00  0.00     0.002 A 
ATOM      6  C6  N4B d   1      -0.265   1.480   1.832  0.00  0.00     0.002 A 
ENDROOT
BRANCH   1   7
ATOM      7  C1' N4B d   1      -0.336   2.611  -0.362  0.00  0.00     0.057 C 
BRANCH   7   8
ATOM      8  C2' N4B d   1       0.403   1.459  -1.037  0.00  0.00     0.009 C 
BRANCH   8   9
ATOM      9  C3' N4B d   1       1.251   1.935  -2.204  0.00  0.00     0.004 C 
ATOM     10  C4' N4B d   1       0.983   3.364  -2.572  0.00  0.00     0.003 C 
ENDBRANCH   8   9
ENDBRANCH   7   8
ENDBRANCH   1   7
TORSDOF 3
ENDMDL
