MODEL 1
REMARK minimizedAffinity 6.61132812
REMARK minimizedRMSD -1
REMARK  3 active torsions:
REMARK  status: ('A' for Active; 'I' for Inactive)
REMARK    1  A    between atoms: C3'_2  and  C2'_3 
REMARK    2  A    between atoms: C2'_3  and  C1'_4 
REMARK    3  A    between atoms: C1'_4  and  C1_5 
ROOT
ATOM      1  C1  N4B d   1      -0.652   1.819  -0.351  0.00  0.00    -0.075 A 
ATOM      2  C2  N4B d   1      -0.225   1.488   0.954  0.00  0.00     0.002 A 
ATOM      3  C3  N4B d   1      -1.072   1.665   2.020  0.00  0.00     0.002 A 
ATOM      4  C4  N4B d   1      -2.339   2.189   1.810  0.00  0.00    -0.004 A 
ATOM      5  C5  N4B d   1      -2.753   2.482   0.543  0.00  0.00     0.002 A 
ATOM      6  C6  N4B d   1      -1.914   2.305  -0.538  0.00  0.00     0.002 A 
ENDROOT
BRANCH   1   7
ATOM      7  C1' N4B d   1       0.268   1.722  -1.536  0.00  0.00     0.057 C 
BRANCH   7   8
ATOM      8  C2' N4B d   1       1.084   0.437  -1.434  0.00  0.00     0.009 C 
BRANCH   8   9
ATOM      9  C3' N4B d   1       0.510  -0.670  -2.302  0.00  0.00     0.004 C 
ATOM     10  C4' N4B d   1       1.403  -1.029  -3.452  0.00  0.00     0.003 C 
ENDBRANCH   8   9
ENDBRANCH   7   8
ENDBRANCH   1   7
TORSDOF 3
ENDMDL
