MODEL 1
REMARK minimizedAffinity 9.29994869
REMARK minimizedRMSD -1
REMARK  3 active torsions:
REMARK  status: ('A' for Active; 'I' for Inactive)
REMARK    1  A    between atoms: C3'_2  and  C2'_3 
REMARK    2  A    between atoms: C2'_3  and  C1'_4 
REMARK    3  A    between atoms: C1'_4  and  C1_5 
ROOT
ATOM      1  C1  N4B d   1      -3.054   1.396  -0.725  0.00  0.00    -0.075 A 
ATOM      2  C2  N4B d   1      -2.765   0.634  -1.878  0.00  0.00     0.002 A 
ATOM      3  C3  N4B d   1      -3.599  -0.392  -2.249  0.00  0.00     0.002 A 
ATOM      4  C4  N4B d   1      -4.712  -0.685  -1.476  0.00  0.00    -0.004 A 
ATOM      5  C5  N4B d   1      -4.999   0.073  -0.379  0.00  0.00     0.002 A 
ATOM      6  C6  N4B d   1      -4.172   1.110   0.004  0.00  0.00     0.002 A 
ENDROOT
BRANCH   1   7
ATOM      7  C1' N4B d   1      -2.126   2.472  -0.231  0.00  0.00     0.057 C 
BRANCH   7   8
ATOM      8  C2' N4B d   1      -2.488   2.824   1.209  0.00  0.00     0.009 C 
BRANCH   8   9
ATOM      9  C3' N4B d   1      -1.369   2.479   2.177  0.00  0.00     0.004 C 
ATOM     10  C4' N4B d   1      -1.505   1.102   2.755  0.00  0.00     0.003 C 
ENDBRANCH   8   9
ENDBRANCH   7   8
ENDBRANCH   1   7
TORSDOF 3
ENDMDL
