MODEL 1
REMARK minimizedAffinity 5.83615923
REMARK minimizedRMSD -1
REMARK  3 active torsions:
REMARK  status: ('A' for Active; 'I' for Inactive)
REMARK    1  A    between atoms: C3'_2  and  C2'_3 
REMARK    2  A    between atoms: C2'_3  and  C1'_4 
REMARK    3  A    between atoms: C1'_4  and  C1_5 
ROOT
ATOM      1  C1  N4B d   1      -1.198   0.944   1.899  0.00  0.00    -0.075 A 
ATOM      2  C2  N4B d   1      -0.734   1.139   0.579  0.00  0.00     0.002 A 
ATOM      3  C3  N4B d   1      -1.333   2.077  -0.226  0.00  0.00     0.002 A 
ATOM      4  C4  N4B d   1      -2.404   2.813   0.257  0.00  0.00    -0.004 A 
ATOM      5  C5  N4B d   1      -2.829   2.636   1.542  0.00  0.00     0.002 A 
ATOM      6  C6  N4B d   1      -2.234   1.700   2.364  0.00  0.00     0.002 A 
ENDROOT
BRANCH   1   7
ATOM      7  C1' N4B d   1      -0.631  -0.129   2.789  0.00  0.00     0.057 C 
BRANCH   7   8
ATOM      8  C2' N4B d   1      -1.777  -0.897   3.440  0.00  0.00     0.009 C 
BRANCH   8   9
ATOM      9  C3' N4B d   1      -1.436  -2.364   3.641  0.00  0.00     0.004 C 
ATOM     10  C4' N4B d   1      -2.647  -3.211   3.896  0.00  0.00     0.003 C 
ENDBRANCH   8   9
ENDBRANCH   7   8
ENDBRANCH   1   7
TORSDOF 3
ENDMDL
