MODEL 1
REMARK minimizedAffinity 8.47691917
REMARK minimizedRMSD -1
REMARK  3 active torsions:
REMARK  status: ('A' for Active; 'I' for Inactive)
REMARK    1  A    between atoms: C3'_2  and  C2'_3 
REMARK    2  A    between atoms: C2'_3  and  C1'_4 
REMARK    3  A    between atoms: C1'_4  and  C1_5 
ROOT
ATOM      1  C1  N4B d   1       5.376  -4.900  -1.065  0.00  0.00    -0.075 A 
ATOM      2  C2  N4B d   1       5.427  -5.162   0.322  0.00  0.00     0.002 A 
ATOM      3  C3  N4B d   1       5.729  -4.150   1.201  0.00  0.00     0.002 A 
ATOM      4  C4  N4B d   1       6.000  -2.879   0.717  0.00  0.00    -0.004 A 
ATOM      5  C5  N4B d   1       5.923  -2.629  -0.622  0.00  0.00     0.002 A 
ATOM      6  C6  N4B d   1       5.618  -3.635  -1.517  0.00  0.00     0.002 A 
ENDROOT
BRANCH   1   7
ATOM      7  C1' N4B d   1       5.135  -5.992  -2.071  0.00  0.00     0.057 C 
BRANCH   7   8
ATOM      8  C2' N4B d   1       4.983  -5.372  -3.457  0.00  0.00     0.009 C 
BRANCH   8   9
ATOM      9  C3' N4B d   1       5.932  -5.995  -4.466  0.00  0.00     0.004 C 
ATOM     10  C4' N4B d   1       5.388  -5.977  -5.863  0.00  0.00     0.003 C 
ENDBRANCH   8   9
ENDBRANCH   7   8
ENDBRANCH   1   7
TORSDOF 3
ENDMDL
