MODEL 1
REMARK minimizedAffinity 2.39177799
REMARK minimizedRMSD -1
REMARK  3 active torsions:
REMARK  status: ('A' for Active; 'I' for Inactive)
REMARK    1  A    between atoms: C3'_2  and  C2'_3 
REMARK    2  A    between atoms: C2'_3  and  C1'_4 
REMARK    3  A    between atoms: C1'_4  and  C1_5 
ROOT
ATOM      1  C1  N4B d   1       3.591  -3.467   0.717  0.00  0.00    -0.075 A 
ATOM      2  C2  N4B d   1       4.885  -4.033   0.716  0.00  0.00     0.002 A 
ATOM      3  C3  N4B d   1       5.985  -3.231   0.892  0.00  0.00     0.002 A 
ATOM      4  C4  N4B d   1       5.819  -1.863   1.052  0.00  0.00    -0.004 A 
ATOM      5  C5  N4B d   1       4.565  -1.327   1.077  0.00  0.00     0.002 A 
ATOM      6  C6  N4B d   1       3.449  -2.122   0.905  0.00  0.00     0.002 A 
ENDROOT
BRANCH   1   7
ATOM      7  C1' N4B d   1       2.363  -4.291   0.442  0.00  0.00     0.057 C 
BRANCH   7   8
ATOM      8  C2' N4B d   1       2.157  -4.395  -1.066  0.00  0.00     0.009 C 
BRANCH   8   9
ATOM      9  C3' N4B d   1       3.214  -5.263  -1.726  0.00  0.00     0.004 C 
ATOM     10  C4' N4B d   1       3.984  -4.536  -2.787  0.00  0.00     0.003 C 
ENDBRANCH   8   9
ENDBRANCH   7   8
ENDBRANCH   1   7
TORSDOF 3
ENDMDL
