MODEL 1
REMARK minimizedAffinity 1.07035303
REMARK minimizedRMSD -1
REMARK  0 active torsions:
REMARK  status: ('A' for Active; 'I' for Inactive)
ROOT
ATOM      1  C4' PXY d   1       6.000   3.750  -4.829  0.00  0.00     0.077 C 
ATOM      2  C1' PXY d   1       0.753   5.966  -5.820  0.00  0.00     0.077 C 
ATOM      3  C1  PXY d   1       2.125   5.378  -5.549  0.00  0.00    -0.082 A 
ATOM      4  C2  PXY d   1       3.203   5.999  -6.000  0.00  0.00     0.003 A 
ATOM      5  C3  PXY d   1       4.448   5.465  -5.792  0.00  0.00     0.003 A 
ATOM      6  C4  PXY d   1       4.596   4.311  -5.070  0.00  0.00    -0.082 A 
ATOM      7  C5  PXY d   1       3.501   3.678  -4.598  0.00  0.00     0.003 A 
ATOM      8  C6  PXY d   1       2.243   4.214  -4.855  0.00  0.00     0.003 A 
ENDROOT
TORSDOF 0
ENDMDL
