MODEL 1
REMARK minimizedAffinity 7.41741228
REMARK minimizedRMSD -1
REMARK  0 active torsions:
REMARK  status: ('A' for Active; 'I' for Inactive)
ROOT
ATOM      1  C4' PXY d   1       1.510   2.773  -0.516  0.00  0.00     0.077 C 
ATOM      2  C1' PXY d   1      -1.615  -1.332   2.092  0.00  0.00     0.077 C 
ATOM      3  C1  PXY d   1      -0.804  -0.255   1.398  0.00  0.00    -0.082 A 
ATOM      4  C2  PXY d   1       0.472  -0.096   1.709  0.00  0.00     0.003 A 
ATOM      5  C3  PXY d   1       1.212   0.894   1.114  0.00  0.00     0.003 A 
ATOM      6  C4  PXY d   1       0.655   1.693   0.153  0.00  0.00    -0.082 A 
ATOM      7  C5  PXY d   1      -0.644   1.529  -0.178  0.00  0.00     0.003 A 
ATOM      8  C6  PXY d   1      -1.389   0.547   0.467  0.00  0.00     0.003 A 
ENDROOT
TORSDOF 0
ENDMDL
