MODEL 1
REMARK minimizedAffinity 2.46325302
REMARK minimizedRMSD -1
REMARK  0 active torsions:
REMARK  status: ('A' for Active; 'I' for Inactive)
ROOT
ATOM      1  C4' PXY d   1      -5.624   5.990  -3.469  0.00  0.00     0.077 C 
ATOM      2  C1' PXY d   1      -0.438   5.987  -0.916  0.00  0.00     0.077 C 
ATOM      3  C1  PXY d   1      -1.803   5.983  -1.575  0.00  0.00    -0.082 A 
ATOM      4  C2  PXY d   1      -1.892   5.971  -2.895  0.00  0.00     0.003 A 
ATOM      5  C3  PXY d   1      -3.119   6.000  -3.507  0.00  0.00     0.003 A 
ATOM      6  C4  PXY d   1      -4.267   5.986  -2.761  0.00  0.00    -0.082 A 
ATOM      7  C5  PXY d   1      -4.184   5.986  -1.414  0.00  0.00     0.003 A 
ATOM      8  C6  PXY d   1      -2.929   5.999  -0.811  0.00  0.00     0.003 A 
ENDROOT
TORSDOF 0
ENDMDL
