MODEL 1
REMARK minimizedAffinity -1.66883242
REMARK minimizedRMSD -1
REMARK  0 active torsions:
REMARK  status: ('A' for Active; 'I' for Inactive)
ROOT
ATOM      1  C4' PXY d   1      -3.753   5.975  -1.861  0.00  0.00     0.077 C 
ATOM      2  C1' PXY d   1       0.915   5.999  -5.270  0.00  0.00     0.077 C 
ATOM      3  C1  PXY d   1      -0.302   5.988  -4.367  0.00  0.00    -0.082 A 
ATOM      4  C2  PXY d   1      -1.513   5.974  -4.900  0.00  0.00     0.003 A 
ATOM      5  C3  PXY d   1      -2.624   5.996  -4.098  0.00  0.00     0.003 A 
ATOM      6  C4  PXY d   1      -2.496   5.977  -2.735  0.00  0.00    -0.082 A 
ATOM      7  C5  PXY d   1      -1.264   5.980  -2.183  0.00  0.00     0.003 A 
ATOM      8  C6  PXY d   1      -0.148   6.000  -3.015  0.00  0.00     0.003 A 
ENDROOT
TORSDOF 0
ENDMDL
