MODEL 1
REMARK minimizedAffinity 7.04869938
REMARK minimizedRMSD -1
REMARK  0 active torsions:
REMARK  status: ('A' for Active; 'I' for Inactive)
ROOT
ATOM      1  C4' PXY d   1       4.906   3.055  -4.568  0.00  0.00     0.077 C 
ATOM      2  C1' PXY d   1       0.142   6.000  -6.000  0.00  0.00     0.077 C 
ATOM      3  C1  PXY d   1       1.398   5.233  -5.634  0.00  0.00    -0.082 A 
ATOM      4  C2  PXY d   1       1.297   4.088  -4.980  0.00  0.00     0.003 A 
ATOM      5  C3  PXY d   1       2.424   3.397  -4.613  0.00  0.00     0.003 A 
ATOM      6  C4  PXY d   1       3.664   3.858  -4.966  0.00  0.00    -0.082 A 
ATOM      7  C5  PXY d   1       3.774   5.021  -5.643  0.00  0.00     0.003 A 
ATOM      8  C6  PXY d   1       2.620   5.727  -5.970  0.00  0.00     0.003 A 
ENDROOT
TORSDOF 0
ENDMDL
