MODEL 1
REMARK minimizedAffinity 3.34060574
REMARK minimizedRMSD -1
REMARK  0 active torsions:
REMARK  status: ('A' for Active; 'I' for Inactive)
ROOT
ATOM      1  C4' PXY d   1      -0.693  -0.381   1.131  0.00  0.00     0.077 C 
ATOM      2  C1' PXY d   1      -3.883  -2.892   5.245  0.00  0.00     0.077 C 
ATOM      3  C1  PXY d   1      -3.056  -2.224   4.165  0.00  0.00    -0.082 A 
ATOM      4  C2  PXY d   1      -2.182  -2.939   3.474  0.00  0.00     0.003 A 
ATOM      5  C3  PXY d   1      -1.403  -2.344   2.516  0.00  0.00     0.003 A 
ATOM      6  C4  PXY d   1      -1.556  -1.015   2.224  0.00  0.00    -0.082 A 
ATOM      7  C5  PXY d   1      -2.453  -0.282   2.917  0.00  0.00     0.003 A 
ATOM      8  C6  PXY d   1      -3.205  -0.895   3.914  0.00  0.00     0.003 A 
ENDROOT
TORSDOF 0
ENDMDL
