MODEL 1
REMARK minimizedAffinity 0.270014048
REMARK minimizedRMSD -1
REMARK  0 active torsions:
REMARK  status: ('A' for Active; 'I' for Inactive)
ROOT
ATOM      1  C4' PXY d   1       1.128   5.999  -4.700  0.00  0.00     0.077 C 
ATOM      2  C1' PXY d   1      -3.597   5.979  -1.370  0.00  0.00     0.077 C 
ATOM      3  C1  PXY d   1      -2.351   5.990  -2.234  0.00  0.00    -0.082 A 
ATOM      4  C2  PXY d   1      -2.469   5.999  -3.551  0.00  0.00     0.003 A 
ATOM      5  C3  PXY d   1      -1.353   5.977  -4.348  0.00  0.00     0.003 A 
ATOM      6  C4  PXY d   1      -0.103   5.998  -3.789  0.00  0.00    -0.082 A 
ATOM      7  C5  PXY d   1       0.026   5.999  -2.445  0.00  0.00     0.003 A 
ATOM      8  C6  PXY d   1      -1.120   5.980  -1.655  0.00  0.00     0.003 A 
ENDROOT
TORSDOF 0
ENDMDL
