MODEL 1
REMARK minimizedAffinity 2.0122354
REMARK minimizedRMSD -1
REMARK  0 active torsions:
REMARK  status: ('A' for Active; 'I' for Inactive)
ROOT
ATOM      1  C4' PXY d   1      -0.154  -1.814   0.691  0.00  0.00     0.077 C 
ATOM      2  C1' PXY d   1       1.721   3.652   0.833  0.00  0.00     0.077 C 
ATOM      3  C1  PXY d   1       1.231   2.218   0.809  0.00  0.00    -0.082 A 
ATOM      4  C2  PXY d   1       1.371   1.497  -0.292  0.00  0.00     0.003 A 
ATOM      5  C3  PXY d   1       0.904   0.209  -0.341  0.00  0.00     0.003 A 
ATOM      6  C4  PXY d   1       0.335  -0.365   0.764  0.00  0.00    -0.082 A 
ATOM      7  C5  PXY d   1       0.198   0.361   1.894  0.00  0.00     0.003 A 
ATOM      8  C6  PXY d   1       0.641   1.680   1.911  0.00  0.00     0.003 A 
ENDROOT
TORSDOF 0
ENDMDL
