MODEL 1
REMARK minimizedAffinity 1.06437778
REMARK minimizedRMSD -1
REMARK  0 active torsions:
REMARK  status: ('A' for Active; 'I' for Inactive)
ROOT
ATOM      1  C4' PXY d   1      -0.076   5.945  -4.079  0.00  0.00     0.077 C 
ATOM      2  C1' PXY d   1      -4.055   6.000   0.114  0.00  0.00     0.077 C 
ATOM      3  C1  PXY d   1      -3.002   5.991  -0.978  0.00  0.00    -0.082 A 
ATOM      4  C2  PXY d   1      -3.377   5.972  -2.247  0.00  0.00     0.003 A 
ATOM      5  C3  PXY d   1      -2.438   5.931  -3.246  0.00  0.00     0.003 A 
ATOM      6  C4  PXY d   1      -1.103   5.964  -2.944  0.00  0.00    -0.082 A 
ATOM      7  C5  PXY d   1      -0.714   5.995  -1.652  0.00  0.00     0.003 A 
ATOM      8  C6  PXY d   1      -1.681   5.994  -0.652  0.00  0.00     0.003 A 
ENDROOT
TORSDOF 0
ENDMDL
