MODEL 1
REMARK minimizedAffinity -0.950666785
REMARK minimizedRMSD -1
REMARK  0 active torsions:
REMARK  status: ('A' for Active; 'I' for Inactive)
ROOT
ATOM      1  C4' PXY d   1      -2.405   5.970  -0.877  0.00  0.00     0.077 C 
ATOM      2  C1' PXY d   1       1.151   5.997  -5.433  0.00  0.00     0.077 C 
ATOM      3  C1  PXY d   1       0.209   5.995  -4.246  0.00  0.00    -0.082 A 
ATOM      4  C2  PXY d   1       0.704   5.989  -3.019  0.00  0.00     0.003 A 
ATOM      5  C3  PXY d   1      -0.134   5.955  -1.933  0.00  0.00     0.003 A 
ATOM      6  C4  PXY d   1      -1.492   5.981  -2.105  0.00  0.00    -0.082 A 
ATOM      7  C5  PXY d   1      -2.004   5.999  -3.354  0.00  0.00     0.003 A 
ATOM      8  C6  PXY d   1      -1.137   5.992  -4.443  0.00  0.00     0.003 A 
ENDROOT
TORSDOF 0
ENDMDL
