MODEL 1
REMARK minimizedAffinity 2.58956456
REMARK minimizedRMSD -1
REMARK  0 active torsions:
REMARK  status: ('A' for Active; 'I' for Inactive)
ROOT
ATOM      1  C4' PXY d   1      -3.535   6.000  -0.562  0.00  0.00     0.077 C 
ATOM      2  C1' PXY d   1      -0.044   5.979  -5.170  0.00  0.00     0.077 C 
ATOM      3  C1  PXY d   1      -0.950   5.979  -3.954  0.00  0.00    -0.082 A 
ATOM      4  C2  PXY d   1      -2.263   5.967  -4.117  0.00  0.00     0.003 A 
ATOM      5  C3  PXY d   1      -3.097   6.000  -3.029  0.00  0.00     0.003 A 
ATOM      6  C4  PXY d   1      -2.582   5.990  -1.760  0.00  0.00    -0.082 A 
ATOM      7  C5  PXY d   1      -1.243   5.991  -1.586  0.00  0.00     0.003 A 
ATOM      8  C6  PXY d   1      -0.414   6.000  -2.704  0.00  0.00     0.003 A 
ENDROOT
TORSDOF 0
ENDMDL
