MODEL 1
REMARK minimizedAffinity -1.14995062
REMARK minimizedRMSD -1
REMARK  0 active torsions:
REMARK  status: ('A' for Active; 'I' for Inactive)
ROOT
ATOM      1  C4' PXY d   1      -2.896   6.000  -3.249  0.00  0.00     0.077 C 
ATOM      2  C1' PXY d   1       2.219   5.980  -5.942  0.00  0.00     0.077 C 
ATOM      3  C1  PXY d   1       0.872   5.990  -5.246  0.00  0.00    -0.082 A 
ATOM      4  C2  PXY d   1       0.819   6.000  -3.924  0.00  0.00     0.003 A 
ATOM      5  C3  PXY d   1      -0.390   5.977  -3.279  0.00  0.00     0.003 A 
ATOM      6  C4  PXY d   1      -1.558   5.999  -3.994  0.00  0.00    -0.082 A 
ATOM      7  C5  PXY d   1      -1.512   6.000  -5.343  0.00  0.00     0.003 A 
ATOM      8  C6  PXY d   1      -0.274   5.981  -5.979  0.00  0.00     0.003 A 
ENDROOT
TORSDOF 0
ENDMDL
