MODEL 1
REMARK minimizedAffinity 2.16379213
REMARK minimizedRMSD -1
REMARK  0 active torsions:
REMARK  status: ('A' for Active; 'I' for Inactive)
ROOT
ATOM      1  C4' PXY d   1       1.455   2.929   0.377  0.00  0.00     0.077 C 
ATOM      2  C1' PXY d   1      -1.061  -1.266   3.457  0.00  0.00     0.077 C 
ATOM      3  C1  PXY d   1      -0.393  -0.175   2.644  0.00  0.00    -0.082 A 
ATOM      4  C2  PXY d   1      -0.393   1.069   3.094  0.00  0.00     0.003 A 
ATOM      5  C3  PXY d   1       0.178   2.074   2.356  0.00  0.00     0.003 A 
ATOM      6  C4  PXY d   1       0.802   1.793   1.170  0.00  0.00    -0.082 A 
ATOM      7  C5  PXY d   1       0.815   0.525   0.709  0.00  0.00     0.003 A 
ATOM      8  C6  PXY d   1       0.194  -0.474   1.453  0.00  0.00     0.003 A 
ENDROOT
TORSDOF 0
ENDMDL
