MODEL 1
REMARK minimizedAffinity -1.78092659
REMARK minimizedRMSD -1
REMARK  0 active torsions:
REMARK  status: ('A' for Active; 'I' for Inactive)
ROOT
ATOM      1  C4' PXY d   1       4.926   5.289  -4.968  0.00  0.00     0.077 C 
ATOM      2  C1' PXY d   1      -0.845   5.605  -4.867  0.00  0.00     0.077 C 
ATOM      3  C1  PXY d   1       0.668   5.512  -4.901  0.00  0.00    -0.082 A 
ATOM      4  C2  PXY d   1       1.376   5.993  -3.892  0.00  0.00     0.003 A 
ATOM      5  C3  PXY d   1       2.746   5.946  -3.922  0.00  0.00     0.003 A 
ATOM      6  C4  PXY d   1       3.396   5.353  -4.971  0.00  0.00    -0.082 A 
ATOM      7  C5  PXY d   1       2.680   4.850  -5.999  0.00  0.00     0.003 A 
ATOM      8  C6  PXY d   1       1.292   4.945  -5.969  0.00  0.00     0.003 A 
ENDROOT
TORSDOF 0
ENDMDL
