MODEL 1
REMARK minimizedAffinity 4.09226322
REMARK minimizedRMSD -1
REMARK  0 active torsions:
REMARK  status: ('A' for Active; 'I' for Inactive)
ROOT
ATOM      1  C4' PXY d   1      -0.299   3.640  -4.611  0.00  0.00     0.077 C 
ATOM      2  C1' PXY d   1       4.809   5.966  -5.997  0.00  0.00     0.077 C 
ATOM      3  C1  PXY d   1       3.464   5.368  -5.634  0.00  0.00    -0.082 A 
ATOM      4  C2  PXY d   1       3.414   4.225  -4.968  0.00  0.00     0.003 A 
ATOM      5  C3  PXY d   1       2.206   3.654  -4.660  0.00  0.00     0.003 A 
ATOM      6  C4  PXY d   1       1.037   4.286  -4.990  0.00  0.00    -0.082 A 
ATOM      7  C5  PXY d   1       1.080   5.457  -5.660  0.00  0.00     0.003 A 
ATOM      8  C6  PXY d   1       2.315   6.000  -5.999  0.00  0.00     0.003 A 
ENDROOT
TORSDOF 0
ENDMDL
