MODEL 1
REMARK minimizedAffinity 4.86434126
REMARK minimizedRMSD -1
REMARK  0 active torsions:
REMARK  status: ('A' for Active; 'I' for Inactive)
ROOT
ATOM      1  C4' PXY d   1       3.722   0.353   1.915  0.00  0.00     0.077 C 
ATOM      2  C1' PXY d   1      -2.035   0.535   2.401  0.00  0.00     0.077 C 
ATOM      3  C1  PXY d   1      -0.524   0.493   2.285  0.00  0.00    -0.082 A 
ATOM      4  C2  PXY d   1       0.038   0.411   1.090  0.00  0.00     0.003 A 
ATOM      5  C3  PXY d   1       1.402   0.340   0.969  0.00  0.00     0.003 A 
ATOM      6  C4  PXY d   1       2.200   0.407   2.079  0.00  0.00    -0.082 A 
ATOM      7  C5  PXY d   1       1.635   0.501   3.301  0.00  0.00     0.003 A 
ATOM      8  C6  PXY d   1       0.247   0.531   3.406  0.00  0.00     0.003 A 
ENDROOT
TORSDOF 0
ENDMDL
