MODEL 1
REMARK minimizedAffinity 3.30024004
REMARK minimizedRMSD -1
REMARK  0 active torsions:
REMARK  status: ('A' for Active; 'I' for Inactive)
ROOT
ATOM      1  C4' PXY d   1       1.300   2.733   0.842  0.00  0.00     0.077 C 
ATOM      2  C1' PXY d   1      -1.093  -2.517   0.476  0.00  0.00     0.077 C 
ATOM      3  C1  PXY d   1      -0.477  -1.135   0.574  0.00  0.00    -0.082 A 
ATOM      4  C2  PXY d   1       0.674  -0.887  -0.030  0.00  0.00     0.003 A 
ATOM      5  C3  PXY d   1       1.260   0.348   0.075  0.00  0.00     0.003 A 
ATOM      6  C4  PXY d   1       0.637   1.355   0.761  0.00  0.00    -0.082 A 
ATOM      7  C5  PXY d   1      -0.543   1.113   1.372  0.00  0.00     0.003 A 
ATOM      8  C6  PXY d   1      -1.101  -0.159   1.288  0.00  0.00     0.003 A 
ENDROOT
TORSDOF 0
ENDMDL
