MODEL 1
REMARK minimizedAffinity 1.38929474
REMARK minimizedRMSD -1
REMARK  0 active torsions:
REMARK  status: ('A' for Active; 'I' for Inactive)
ROOT
ATOM      1  C4' PXY d   1       6.000   3.733  -3.918  0.00  0.00     0.077 C 
ATOM      2  C1' PXY d   1       1.070   5.987  -5.925  0.00  0.00     0.077 C 
ATOM      3  C1  PXY d   1       2.369   5.401  -5.409  0.00  0.00    -0.082 A 
ATOM      4  C2  PXY d   1       2.339   4.346  -4.611  0.00  0.00     0.003 A 
ATOM      5  C3  PXY d   1       3.503   3.823  -4.110  0.00  0.00     0.003 A 
ATOM      6  C4  PXY d   1       4.713   4.352  -4.471  0.00  0.00    -0.082 A 
ATOM      7  C5  PXY d   1       4.752   5.422  -5.293  0.00  0.00     0.003 A 
ATOM      8  C6  PXY d   1       3.558   5.964  -5.758  0.00  0.00     0.003 A 
ENDROOT
TORSDOF 0
ENDMDL
