MODEL 1
REMARK minimizedAffinity 0.891979039
REMARK minimizedRMSD -1
REMARK  0 active torsions:
REMARK  status: ('A' for Active; 'I' for Inactive)
ROOT
ATOM      1  C4' PXY d   1       2.996   5.970  -4.940  0.00  0.00     0.077 C 
ATOM      2  C1' PXY d   1      -2.669   5.994  -3.791  0.00  0.00     0.077 C 
ATOM      3  C1  PXY d   1      -1.186   5.982  -4.104  0.00  0.00    -0.082 A 
ATOM      4  C2  PXY d   1      -0.308   5.977  -3.114  0.00  0.00     0.003 A 
ATOM      5  C3  PXY d   1       1.037   5.999  -3.379  0.00  0.00     0.003 A 
ATOM      6  C4  PXY d   1       1.489   5.972  -4.671  0.00  0.00    -0.082 A 
ATOM      7  C5  PXY d   1       0.600   5.967  -5.687  0.00  0.00     0.003 A 
ATOM      8  C6  PXY d   1      -0.761   5.986  -5.397  0.00  0.00     0.003 A 
ENDROOT
TORSDOF 0
ENDMDL
