MODEL 1
REMARK minimizedAffinity 0.987307072
REMARK minimizedRMSD -1
REMARK  0 active torsions:
REMARK  status: ('A' for Active; 'I' for Inactive)
ROOT
ATOM      1  C4' PXY d   1       1.478  -1.254  -2.288  0.00  0.00     0.077 C 
ATOM      2  C1' PXY d   1       1.820   3.510   0.969  0.00  0.00     0.077 C 
ATOM      3  C1  PXY d   1       1.732   2.253   0.125  0.00  0.00    -0.082 A 
ATOM      4  C2  PXY d   1       2.047   2.304  -1.159  0.00  0.00     0.003 A 
ATOM      5  C3  PXY d   1       1.942   1.184  -1.943  0.00  0.00     0.003 A 
ATOM      6  C4  PXY d   1       1.561  -0.012  -1.396  0.00  0.00    -0.082 A 
ATOM      7  C5  PXY d   1       1.248  -0.074  -0.085  0.00  0.00     0.003 A 
ATOM      8  C6  PXY d   1       1.322   1.083   0.686  0.00  0.00     0.003 A 
ENDROOT
TORSDOF 0
ENDMDL
