MODEL 1
REMARK minimizedAffinity -5.89329815
REMARK minimizedRMSD -1
REMARK  1 active torsions:
REMARK  status: ('A' for Active; 'I' for Inactive)
REMARK    1  A    between atoms: C1_2  and  C2_3 
ROOT
ATOM      1  C2  UNL d   1      -0.058  -0.400   0.648  0.00  0.00    -0.077 A 
ATOM      2  C3  UNL d   1      -1.044  -0.145  -0.315  0.00  0.00     0.002 A 
ATOM      3  C4  UNL d   1      -2.242  -0.862  -0.307  0.00  0.00     0.002 A 
ATOM      4  C5  UNL d   1      -2.466  -1.836   0.664  0.00  0.00    -0.004 A 
ATOM      5  C6  UNL d   1      -1.490  -2.099   1.625  0.00  0.00     0.002 A 
ATOM      6  C7  UNL d   1      -0.292  -1.384   1.617  0.00  0.00     0.002 A 
ENDROOT
BRANCH   1   7
ATOM      7  C1  UNL d   1       1.214   0.406   0.670  0.00  0.00     0.055 C 
ATOM      8  C   UNL d   1       1.462   1.011   2.045  0.00  0.00     0.019 C 
ENDBRANCH   1   7
TORSDOF 1
ENDMDL
