MODEL 1
REMARK minimizedAffinity 1.69846845
REMARK minimizedRMSD -1
REMARK  1 active torsions:
REMARK  status: ('A' for Active; 'I' for Inactive)
REMARK    1  A    between atoms: C1_2  and  C2_3 
ROOT
ATOM      1  C2  UNL d   1       0.136  -0.083  -1.214  0.00  0.00    -0.077 A 
ATOM      2  C3  UNL d   1      -1.095  -0.676  -0.902  0.00  0.00     0.002 A 
ATOM      3  C4  UNL d   1      -1.277  -1.327   0.320  0.00  0.00     0.002 A 
ATOM      4  C5  UNL d   1      -0.234  -1.387   1.241  0.00  0.00    -0.004 A 
ATOM      5  C6  UNL d   1       0.996  -0.802   0.940  0.00  0.00     0.002 A 
ATOM      6  C7  UNL d   1       1.180  -0.153  -0.282  0.00  0.00     0.002 A 
ENDROOT
BRANCH   1   7
ATOM      7  C1  UNL d   1       0.319   0.661  -2.510  0.00  0.00     0.055 C 
ATOM      8  C   UNL d   1      -0.587   1.882  -2.580  0.00  0.00     0.019 C 
ENDBRANCH   1   7
TORSDOF 1
ENDMDL
