MODEL 1
REMARK minimizedAffinity -4.36575842
REMARK minimizedRMSD -1
REMARK  1 active torsions:
REMARK  status: ('A' for Active; 'I' for Inactive)
REMARK    1  A    between atoms: C1_2  and  C2_3 
ROOT
ATOM      1  C2  UNL d   1       0.285  -0.246   0.046  0.00  0.00    -0.077 A 
ATOM      2  C3  UNL d   1       0.839  -1.391   0.634  0.00  0.00     0.002 A 
ATOM      3  C4  UNL d   1       1.470  -1.312   1.877  0.00  0.00     0.002 A 
ATOM      4  C5  UNL d   1       1.548  -0.092   2.544  0.00  0.00    -0.004 A 
ATOM      5  C6  UNL d   1       1.001   1.054   1.967  0.00  0.00     0.002 A 
ATOM      6  C7  UNL d   1       0.371   0.977   0.724  0.00  0.00     0.002 A 
ENDROOT
BRANCH   1   7
ATOM      7  C1  UNL d   1      -0.439  -0.338  -1.272  0.00  0.00     0.055 C 
ATOM      8  C   UNL d   1      -1.947  -0.266  -1.082  0.00  0.00     0.019 C 
ENDBRANCH   1   7
TORSDOF 1
ENDMDL
