MODEL 1
REMARK minimizedAffinity -3.02898145
REMARK minimizedRMSD -1
REMARK  1 active torsions:
REMARK  status: ('A' for Active; 'I' for Inactive)
REMARK    1  A    between atoms: C1_2  and  C2_3 
ROOT
ATOM      1  C2  UNL d   1       1.259   1.273  -0.435  0.00  0.00    -0.077 A 
ATOM      2  C3  UNL d   1       1.092   0.117   0.340  0.00  0.00     0.002 A 
ATOM      3  C4  UNL d   1       0.081  -0.797   0.037  0.00  0.00     0.002 A 
ATOM      4  C5  UNL d   1      -0.767  -0.567  -1.044  0.00  0.00    -0.004 A 
ATOM      5  C6  UNL d   1      -0.611   0.581  -1.820  0.00  0.00     0.002 A 
ATOM      6  C7  UNL d   1       0.398   1.496  -1.517  0.00  0.00     0.002 A 
ENDROOT
BRANCH   1   7
ATOM      7  C1  UNL d   1       2.379   2.235  -0.139  0.00  0.00     0.055 C 
ATOM      8  C   UNL d   1       2.130   3.590  -0.785  0.00  0.00     0.019 C 
ENDBRANCH   1   7
TORSDOF 1
ENDMDL
