MODEL 1
REMARK minimizedAffinity -1.99640548
REMARK minimizedRMSD -1
REMARK  1 active torsions:
REMARK  status: ('A' for Active; 'I' for Inactive)
REMARK    1  A    between atoms: C1_2  and  C2_3 
ROOT
ATOM      1  C2  UNL d   1      -0.434  -0.433   0.547  0.00  0.00    -0.077 A 
ATOM      2  C3  UNL d   1       0.329   0.432  -0.249  0.00  0.00     0.002 A 
ATOM      3  C4  UNL d   1      -0.071   0.729  -1.553  0.00  0.00     0.002 A 
ATOM      4  C5  UNL d   1      -1.238   0.169  -2.070  0.00  0.00    -0.004 A 
ATOM      5  C6  UNL d   1      -2.003  -0.693  -1.287  0.00  0.00     0.002 A 
ATOM      6  C7  UNL d   1      -1.604  -0.993   0.017  0.00  0.00     0.002 A 
ENDROOT
BRANCH   1   7
ATOM      7  C1  UNL d   1      -0.031  -0.716   1.971  0.00  0.00     0.055 C 
ATOM      8  C   UNL d   1      -0.085  -2.206   2.276  0.00  0.00     0.019 C 
ENDBRANCH   1   7
TORSDOF 1
ENDMDL
