MODEL 1
REMARK minimizedAffinity -4.58277464
REMARK minimizedRMSD -1
REMARK  1 active torsions:
REMARK  status: ('A' for Active; 'I' for Inactive)
REMARK    1  A    between atoms: C1_2  and  C2_3 
ROOT
ATOM      1  C2  UNL d   1       1.541   1.332   1.770  0.00  0.00    -0.077 A 
ATOM      2  C3  UNL d   1       1.449   1.048   0.400  0.00  0.00     0.002 A 
ATOM      3  C4  UNL d   1       0.734  -0.066  -0.043  0.00  0.00     0.002 A 
ATOM      4  C5  UNL d   1       0.102  -0.901   0.875  0.00  0.00    -0.004 A 
ATOM      5  C6  UNL d   1       0.189  -0.629   2.240  0.00  0.00     0.002 A 
ATOM      6  C7  UNL d   1       0.905   0.483   2.685  0.00  0.00     0.002 A 
ENDROOT
BRANCH   1   7
ATOM      7  C1  UNL d   1       2.271   2.560   2.248  0.00  0.00     0.055 C 
ATOM      8  C   UNL d   1       2.396   3.596   1.140  0.00  0.00     0.019 C 
ENDBRANCH   1   7
TORSDOF 1
ENDMDL
