MODEL 1
REMARK minimizedAffinity -0.961356819
REMARK minimizedRMSD -1
REMARK  1 active torsions:
REMARK  status: ('A' for Active; 'I' for Inactive)
REMARK    1  A    between atoms: C1_2  and  C2_3 
ROOT
ATOM      1  C2  UNL d   1      -0.950   0.108  -0.885  0.00  0.00    -0.077 A 
ATOM      2  C3  UNL d   1       0.348  -0.395  -0.720  0.00  0.00     0.002 A 
ATOM      3  C4  UNL d   1       1.320   0.361  -0.063  0.00  0.00     0.002 A 
ATOM      4  C5  UNL d   1       1.004   1.623   0.436  0.00  0.00    -0.004 A 
ATOM      5  C6  UNL d   1      -0.283   2.133   0.275  0.00  0.00     0.002 A 
ATOM      6  C7  UNL d   1      -1.256   1.379  -0.382  0.00  0.00     0.002 A 
ENDROOT
BRANCH   1   7
ATOM      7  C1  UNL d   1      -2.014  -0.726  -1.549  0.00  0.00     0.055 C 
ATOM      8  C   UNL d   1      -3.075  -1.168  -0.551  0.00  0.00     0.019 C 
ENDBRANCH   1   7
TORSDOF 1
ENDMDL
