MODEL 1
REMARK minimizedAffinity -6.24589491
REMARK minimizedRMSD -1
REMARK  1 active torsions:
REMARK  status: ('A' for Active; 'I' for Inactive)
REMARK    1  A    between atoms: C1_2  and  C2_3 
ROOT
ATOM      1  C2  UNL d   1      -0.830  -0.840   1.064  0.00  0.00    -0.077 A 
ATOM      2  C3  UNL d   1      -1.106  -2.092   1.632  0.00  0.00     0.002 A 
ATOM      3  C4  UNL d   1      -2.146  -2.879   1.135  0.00  0.00     0.002 A 
ATOM      4  C5  UNL d   1      -2.917  -2.425   0.066  0.00  0.00    -0.004 A 
ATOM      5  C6  UNL d   1      -2.652  -1.180  -0.503  0.00  0.00     0.002 A 
ATOM      6  C7  UNL d   1      -1.613  -0.391  -0.007  0.00  0.00     0.002 A 
ENDROOT
BRANCH   1   7
ATOM      7  C1  UNL d   1       0.323  -0.011   1.567  0.00  0.00     0.055 C 
ATOM      8  C   UNL d   1       1.462   0.022   0.558  0.00  0.00     0.019 C 
ENDBRANCH   1   7
TORSDOF 1
ENDMDL
