MODEL 1
REMARK minimizedAffinity -4.52019024
REMARK minimizedRMSD -1
REMARK  1 active torsions:
REMARK  status: ('A' for Active; 'I' for Inactive)
REMARK    1  A    between atoms: C1_2  and  C2_3 
ROOT
ATOM      1  C2  UNL d   1       1.298   1.735   1.391  0.00  0.00    -0.077 A 
ATOM      2  C3  UNL d   1      -0.100   1.680   1.291  0.00  0.00     0.002 A 
ATOM      3  C4  UNL d   1      -0.732   0.504   0.882  0.00  0.00     0.002 A 
ATOM      4  C5  UNL d   1       0.023  -0.626   0.575  0.00  0.00    -0.004 A 
ATOM      5  C6  UNL d   1       1.414  -0.580   0.670  0.00  0.00     0.002 A 
ATOM      6  C7  UNL d   1       2.048   0.594   1.077  0.00  0.00     0.002 A 
ENDROOT
BRANCH   1   7
ATOM      7  C1  UNL d   1       1.979   2.987   1.879  0.00  0.00     0.055 C 
ATOM      8  C   UNL d   1       3.256   3.262   1.098  0.00  0.00     0.019 C 
ENDBRANCH   1   7
TORSDOF 1
ENDMDL
