MODEL 1
REMARK minimizedAffinity -5.82776928
REMARK minimizedRMSD -1
REMARK  1 active torsions:
REMARK  status: ('A' for Active; 'I' for Inactive)
REMARK    1  A    between atoms: C1_2  and  C2_3 
ROOT
ATOM      1  C2  UNL d   1      -1.216   0.035  -0.237  0.00  0.00    -0.077 A 
ATOM      2  C3  UNL d   1      -0.327   0.617  -1.151  0.00  0.00     0.002 A 
ATOM      3  C4  UNL d   1       1.019   0.783  -0.819  0.00  0.00     0.002 A 
ATOM      4  C5  UNL d   1       1.488   0.366   0.424  0.00  0.00    -0.004 A 
ATOM      5  C6  UNL d   1       0.611  -0.213   1.341  0.00  0.00     0.002 A 
ATOM      6  C7  UNL d   1      -0.735  -0.378   1.012  0.00  0.00     0.002 A 
ENDROOT
BRANCH   1   7
ATOM      7  C1  UNL d   1      -2.658  -0.190  -0.612  0.00  0.00     0.055 C 
ATOM      8  C   UNL d   1      -3.170  -1.516  -0.070  0.00  0.00     0.019 C 
ENDBRANCH   1   7
TORSDOF 1
ENDMDL
