MODEL 1
REMARK minimizedAffinity -3.62796783
REMARK minimizedRMSD -1
REMARK  1 active torsions:
REMARK  status: ('A' for Active; 'I' for Inactive)
REMARK    1  A    between atoms: C1_2  and  C2_3 
ROOT
ATOM      1  C2  UNL d   1       1.182   0.958   1.029  0.00  0.00    -0.077 A 
ATOM      2  C3  UNL d   1       1.234   1.094  -0.365  0.00  0.00     0.002 A 
ATOM      3  C4  UNL d   1       0.329   0.405  -1.176  0.00  0.00     0.002 A 
ATOM      4  C5  UNL d   1      -0.636  -0.419  -0.602  0.00  0.00    -0.004 A 
ATOM      5  C6  UNL d   1      -0.695  -0.562   0.784  0.00  0.00     0.002 A 
ATOM      6  C7  UNL d   1       0.209   0.124   1.596  0.00  0.00     0.002 A 
ENDROOT
BRANCH   1   7
ATOM      7  C1  UNL d   1       2.125   1.738   1.907  0.00  0.00     0.055 C 
ATOM      8  C   UNL d   1       1.971   3.237   1.691  0.00  0.00     0.019 C 
ENDBRANCH   1   7
TORSDOF 1
ENDMDL
