MODEL 1
REMARK minimizedAffinity -5.3909893
REMARK minimizedRMSD -1
REMARK  1 active torsions:
REMARK  status: ('A' for Active; 'I' for Inactive)
REMARK    1  A    between atoms: C1_2  and  C2_3 
ROOT
ATOM      1  C2  UNL d   1      -0.440  -0.226   0.021  0.00  0.00    -0.077 A 
ATOM      2  C3  UNL d   1       0.080  -1.108   0.980  0.00  0.00     0.002 A 
ATOM      3  C4  UNL d   1      -0.672  -2.199   1.418  0.00  0.00     0.002 A 
ATOM      4  C5  UNL d   1      -1.947  -2.421   0.901  0.00  0.00    -0.004 A 
ATOM      5  C6  UNL d   1      -2.474  -1.549  -0.050  0.00  0.00     0.002 A 
ATOM      6  C7  UNL d   1      -1.724  -0.457  -0.489  0.00  0.00     0.002 A 
ENDROOT
BRANCH   1   7
ATOM      7  C1  UNL d   1       0.389   0.923  -0.489  0.00  0.00     0.055 C 
ATOM      8  C   UNL d   1       1.413   1.369   0.545  0.00  0.00     0.019 C 
ENDBRANCH   1   7
TORSDOF 1
ENDMDL
