MODEL 1
REMARK minimizedAffinity -5.25493383
REMARK minimizedRMSD -1
REMARK  1 active torsions:
REMARK  status: ('A' for Active; 'I' for Inactive)
REMARK    1  A    between atoms: C1_2  and  C2_3 
ROOT
ATOM      1  C2  UNL d   1      -1.173  -0.273   0.461  0.00  0.00    -0.077 A 
ATOM      2  C3  UNL d   1      -0.196   0.203  -0.424  0.00  0.00     0.002 A 
ATOM      3  C4  UNL d   1       1.158   0.117  -0.094  0.00  0.00     0.002 A 
ATOM      4  C5  UNL d   1       1.547  -0.447   1.119  0.00  0.00    -0.004 A 
ATOM      5  C6  UNL d   1       0.582  -0.922   2.007  0.00  0.00     0.002 A 
ATOM      6  C7  UNL d   1      -0.772  -0.836   1.680  0.00  0.00     0.002 A 
ENDROOT
BRANCH   1   7
ATOM      7  C1  UNL d   1      -2.631  -0.226   0.086  0.00  0.00     0.055 C 
ATOM      8  C   UNL d   1      -2.902  -1.025  -1.181  0.00  0.00     0.019 C 
ENDBRANCH   1   7
TORSDOF 1
ENDMDL
