MODEL 1
REMARK minimizedAffinity 14.7990942
REMARK minimizedRMSD -1
REMARK  0 active torsions:
REMARK  status: ('A' for Active; 'I' for Inactive)
ROOT
ATOM      1  C   UNL d   1      -3.352   2.943  -2.351  0.00  0.00     0.124 A 
ATOM      2  C1  UNL d   1      -3.705   2.846  -3.690  0.00  0.00     0.062 A 
ATOM      3  C2  UNL d   1      -4.141   1.632  -4.212  0.00  0.00     0.162 A 
ATOM      4  C3  UNL d   1      -4.228   0.505  -3.395  0.00  0.00    -0.034 A 
ATOM      5  C4  UNL d   1      -3.871   0.610  -2.050  0.00  0.00     0.162 A 
ATOM      6  C5  UNL d   1      -3.435   1.826  -1.533  0.00  0.00     0.062 A 
ATOM      7  F   UNL d   1      -3.094   1.918  -0.239  0.00  0.00    -0.097 F 
ATOM      8  F1  UNL d   1      -3.942  -0.454  -1.236  0.00  0.00    -0.096 F 
ATOM      9  I   UNL d   1      -4.880  -1.313  -4.172  0.00  0.00    -0.060 I 
ATOM     10  F2  UNL d   1      -4.476   1.566  -5.509  0.00  0.00    -0.096 F 
ATOM     11  F3  UNL d   1      -3.625   3.924  -4.483  0.00  0.00    -0.097 F 
ATOM     12  F4  UNL d   1      -2.931   4.113  -1.852  0.00  0.00    -0.092 F 
ENDROOT
TORSDOF 0
ENDMDL
