MODEL 1
REMARK minimizedAffinity 21.6006145
REMARK minimizedRMSD -1
REMARK  0 active torsions:
REMARK  status: ('A' for Active; 'I' for Inactive)
ROOT
ATOM      1  C   UNL d   1      -4.890   2.611  -2.609  0.00  0.00     0.124 A 
ATOM      2  C1  UNL d   1      -3.831   1.759  -2.889  0.00  0.00     0.062 A 
ATOM      3  C2  UNL d   1      -2.858   1.512  -1.925  0.00  0.00     0.162 A 
ATOM      4  C3  UNL d   1      -2.939   2.117  -0.671  0.00  0.00    -0.034 A 
ATOM      5  C4  UNL d   1      -4.007   2.974  -0.397  0.00  0.00     0.162 A 
ATOM      6  C5  UNL d   1      -4.977   3.218  -1.363  0.00  0.00     0.062 A 
ATOM      7  F   UNL d   1      -6.000   4.041  -1.091  0.00  0.00    -0.097 F 
ATOM      8  F1  UNL d   1      -4.116   3.572   0.799  0.00  0.00    -0.096 F 
ATOM      9  I   UNL d   1      -1.486   1.749   0.773  0.00  0.00    -0.060 I 
ATOM     10  F2  UNL d   1      -1.845   0.684  -2.223  0.00  0.00    -0.096 F 
ATOM     11  F3  UNL d   1      -3.744   1.173  -4.091  0.00  0.00    -0.097 F 
ATOM     12  F4  UNL d   1      -5.824   2.848  -3.538  0.00  0.00    -0.092 F 
ENDROOT
TORSDOF 0
ENDMDL
