MODEL 1
REMARK minimizedAffinity 18.3114986
REMARK minimizedRMSD -1
REMARK  0 active torsions:
REMARK  status: ('A' for Active; 'I' for Inactive)
ROOT
ATOM      1  C   UNL d   1      -3.064   1.461  -2.252  0.00  0.00     0.124 A 
ATOM      2  C1  UNL d   1      -2.834   1.954  -0.976  0.00  0.00     0.062 A 
ATOM      3  C2  UNL d   1      -3.670   2.929  -0.440  0.00  0.00     0.162 A 
ATOM      4  C3  UNL d   1      -4.747   3.418  -1.181  0.00  0.00    -0.034 A 
ATOM      5  C4  UNL d   1      -4.972   2.918  -2.465  0.00  0.00     0.162 A 
ATOM      6  C5  UNL d   1      -4.133   1.943  -2.996  0.00  0.00     0.062 A 
ATOM      7  F   UNL d   1      -4.357   1.469  -4.230  0.00  0.00    -0.097 F 
ATOM      8  F1  UNL d   1      -5.997   3.365  -3.205  0.00  0.00    -0.096 F 
ATOM      9  I   UNL d   1      -6.000   4.875  -0.384  0.00  0.00    -0.060 I 
ATOM     10  F2  UNL d   1      -3.424   3.387   0.796  0.00  0.00    -0.096 F 
ATOM     11  F3  UNL d   1      -1.802   1.491  -0.256  0.00  0.00    -0.097 F 
ATOM     12  F4  UNL d   1      -2.257   0.524  -2.766  0.00  0.00    -0.092 F 
ENDROOT
TORSDOF 0
ENDMDL
