MODEL 1
REMARK minimizedAffinity 25.2805653
REMARK minimizedRMSD -1
REMARK  0 active torsions:
REMARK  status: ('A' for Active; 'I' for Inactive)
ROOT
ATOM      1  C   UNL d   1      -2.616   1.077  -1.584  0.00  0.00     0.124 A 
ATOM      2  C1  UNL d   1      -2.513   1.380  -0.233  0.00  0.00     0.062 A 
ATOM      3  C2  UNL d   1      -3.406   2.272   0.354  0.00  0.00     0.162 A 
ATOM      4  C3  UNL d   1      -4.411   2.867  -0.409  0.00  0.00    -0.034 A 
ATOM      5  C4  UNL d   1      -4.508   2.557  -1.766  0.00  0.00     0.162 A 
ATOM      6  C5  UNL d   1      -3.614   1.665  -2.349  0.00  0.00     0.062 A 
ATOM      7  F   UNL d   1      -3.715   1.373  -3.654  0.00  0.00    -0.097 F 
ATOM      8  F1  UNL d   1      -5.463   3.111  -2.529  0.00  0.00    -0.096 F 
ATOM      9  I   UNL d   1      -5.748   4.201   0.466  0.00  0.00    -0.060 I 
ATOM     10  F2  UNL d   1      -3.282   2.547   1.661  0.00  0.00    -0.096 F 
ATOM     11  F3  UNL d   1      -1.550   0.814   0.508  0.00  0.00    -0.097 F 
ATOM     12  F4  UNL d   1      -1.756   0.219  -2.147  0.00  0.00    -0.092 F 
ENDROOT
TORSDOF 0
ENDMDL
