MODEL 1
REMARK minimizedAffinity 10.459259
REMARK minimizedRMSD -1
REMARK  0 active torsions:
REMARK  status: ('A' for Active; 'I' for Inactive)
ROOT
ATOM      1  C   UNL d   1       1.445  -1.875   2.878  0.00  0.00     0.124 A 
ATOM      2  C1  UNL d   1       2.500  -1.375   2.127  0.00  0.00     0.062 A 
ATOM      3  C2  UNL d   1       3.802  -1.798   2.380  0.00  0.00     0.162 A 
ATOM      4  C3  UNL d   1       4.055  -2.729   3.388  0.00  0.00    -0.034 A 
ATOM      5  C4  UNL d   1       2.989  -3.227   4.139  0.00  0.00     0.162 A 
ATOM      6  C5  UNL d   1       1.690  -2.800   3.882  0.00  0.00     0.062 A 
ATOM      7  F   UNL d   1       0.672  -3.284   4.608  0.00  0.00    -0.097 F 
ATOM      8  F1  UNL d   1       3.198  -4.123   5.115  0.00  0.00    -0.096 F 
ATOM      9  I   UNL d   1       6.000  -3.365   3.769  0.00  0.00    -0.060 I 
ATOM     10  F2  UNL d   1       4.802  -1.298   1.640  0.00  0.00    -0.096 F 
ATOM     11  F3  UNL d   1       2.266  -0.480   1.157  0.00  0.00    -0.097 F 
ATOM     12  F4  UNL d   1       0.194  -1.464   2.633  0.00  0.00    -0.092 F 
ENDROOT
TORSDOF 0
ENDMDL
