MODEL 1
REMARK minimizedAffinity 7.44875479
REMARK minimizedRMSD -1
REMARK  0 active torsions:
REMARK  status: ('A' for Active; 'I' for Inactive)
ROOT
ATOM      1  C   UNL d   1       1.988  -0.095   3.272  0.00  0.00     0.124 A 
ATOM      2  C1  UNL d   1       1.512  -1.204   2.586  0.00  0.00     0.062 A 
ATOM      3  C2  UNL d   1       1.857  -1.403   1.252  0.00  0.00     0.162 A 
ATOM      4  C3  UNL d   1       2.683  -0.491   0.595  0.00  0.00    -0.034 A 
ATOM      5  C4  UNL d   1       3.157   0.622   1.291  0.00  0.00     0.162 A 
ATOM      6  C5  UNL d   1       2.810   0.817   2.624  0.00  0.00     0.062 A 
ATOM      7  F   UNL d   1       3.271   1.889   3.285  0.00  0.00    -0.097 F 
ATOM      8  F1  UNL d   1       3.953   1.518   0.689  0.00  0.00    -0.096 F 
ATOM      9  I   UNL d   1       3.200  -0.785  -1.400  0.00  0.00    -0.060 I 
ATOM     10  F2  UNL d   1       1.382  -2.483   0.614  0.00  0.00    -0.096 F 
ATOM     11  F3  UNL d   1       0.718  -2.086   3.209  0.00  0.00    -0.097 F 
ATOM     12  F4  UNL d   1       1.655   0.095   4.555  0.00  0.00    -0.092 F 
ENDROOT
TORSDOF 0
ENDMDL
