MODEL 1
REMARK minimizedAffinity 9.31322289
REMARK minimizedRMSD -1
REMARK  0 active torsions:
REMARK  status: ('A' for Active; 'I' for Inactive)
ROOT
ATOM      1  C   UNL d   1       1.565  -2.841   3.485  0.00  0.00     0.124 A 
ATOM      2  C1  UNL d   1       2.688  -2.165   3.028  0.00  0.00     0.062 A 
ATOM      3  C2  UNL d   1       3.955  -2.533   3.471  0.00  0.00     0.162 A 
ATOM      4  C3  UNL d   1       4.107  -3.585   4.374  0.00  0.00    -0.034 A 
ATOM      5  C4  UNL d   1       2.973  -4.260   4.830  0.00  0.00     0.162 A 
ATOM      6  C5  UNL d   1       1.709  -3.888   4.385  0.00  0.00     0.062 A 
ATOM      7  F   UNL d   1       0.625  -4.542   4.828  0.00  0.00    -0.097 F 
ATOM      8  F1  UNL d   1       3.083  -5.275   5.699  0.00  0.00    -0.096 F 
ATOM      9  I   UNL d   1       6.000  -4.139   5.038  0.00  0.00    -0.060 I 
ATOM     10  F2  UNL d   1       5.022  -1.862   3.012  0.00  0.00    -0.096 F 
ATOM     11  F3  UNL d   1       2.552  -1.153   2.159  0.00  0.00    -0.097 F 
ATOM     12  F4  UNL d   1       0.347  -2.484   3.059  0.00  0.00    -0.092 F 
ENDROOT
TORSDOF 0
ENDMDL
