MODEL 1
REMARK minimizedAffinity 16.0537281
REMARK minimizedRMSD -1
REMARK  0 active torsions:
REMARK  status: ('A' for Active; 'I' for Inactive)
ROOT
ATOM      1  C   UNL d   1       3.543  -4.258   4.786  0.00  0.00     0.124 A 
ATOM      2  C1  UNL d   1       2.268  -3.783   4.511  0.00  0.00     0.062 A 
ATOM      3  C2  UNL d   1       2.087  -2.762   3.583  0.00  0.00     0.162 A 
ATOM      4  C3  UNL d   1       3.184  -2.208   2.923  0.00  0.00    -0.034 A 
ATOM      5  C4  UNL d   1       4.463  -2.690   3.206  0.00  0.00     0.162 A 
ATOM      6  C5  UNL d   1       4.639  -3.712   4.134  0.00  0.00     0.062 A 
ATOM      7  F   UNL d   1       5.871  -4.169   4.398  0.00  0.00    -0.097 F 
ATOM      8  F1  UNL d   1       5.540  -2.181   2.589  0.00  0.00    -0.096 F 
ATOM      9  I   UNL d   1       2.917  -0.680   1.535  0.00  0.00    -0.060 I 
ATOM     10  F2  UNL d   1       0.844  -2.322   3.337  0.00  0.00    -0.096 F 
ATOM     11  F3  UNL d   1       1.207  -4.309   5.140  0.00  0.00    -0.097 F 
ATOM     12  F4  UNL d   1       3.714  -5.241   5.680  0.00  0.00    -0.092 F 
ENDROOT
TORSDOF 0
ENDMDL
