MODEL 1
REMARK minimizedAffinity 12.5546551
REMARK minimizedRMSD -1
REMARK  0 active torsions:
REMARK  status: ('A' for Active; 'I' for Inactive)
ROOT
ATOM      1  C   UNL d   1      -3.564   1.148  -3.357  0.00  0.00     0.124 A 
ATOM      2  C1  UNL d   1      -3.276   1.294  -2.007  0.00  0.00     0.062 A 
ATOM      3  C2  UNL d   1      -3.906   2.285  -1.260  0.00  0.00     0.162 A 
ATOM      4  C3  UNL d   1      -4.832   3.138  -1.862  0.00  0.00    -0.034 A 
ATOM      5  C4  UNL d   1      -5.115   2.986  -3.220  0.00  0.00     0.162 A 
ATOM      6  C5  UNL d   1      -4.483   1.994  -3.962  0.00  0.00     0.062 A 
ATOM      7  F   UNL d   1      -4.762   1.855  -5.266  0.00  0.00    -0.097 F 
ATOM      8  F1  UNL d   1      -5.999   3.790  -3.830  0.00  0.00    -0.096 F 
ATOM      9  I   UNL d   1      -5.776   4.622  -0.748  0.00  0.00    -0.060 I 
ATOM     10  F2  UNL d   1      -3.609   2.403   0.042  0.00  0.00    -0.096 F 
ATOM     11  F3  UNL d   1      -2.388   0.478  -1.421  0.00  0.00    -0.097 F 
ATOM     12  F4  UNL d   1      -2.956   0.194  -4.074  0.00  0.00    -0.092 F 
ENDROOT
TORSDOF 0
ENDMDL
