MODEL 1
REMARK minimizedAffinity 8.56786346
REMARK minimizedRMSD -1
REMARK  2 active torsions:
REMARK  status: ('A' for Active; 'I' for Inactive)
REMARK    1  A    between atoms: C2'_3  and  C1'_4 
REMARK    2  A    between atoms: C1'_4  and  C1_5 
ROOT
ATOM      1  C1  I4B d   1      -2.803   1.341  -1.062  0.00  0.00    -0.075 A 
ATOM      2  C2  I4B d   1      -1.613   1.192  -1.729  0.00  0.00     0.003 A 
ATOM      3  C3  I4B d   1      -0.461   1.893  -1.296  0.00  0.00     0.002 A 
ATOM      4  C4  I4B d   1      -0.556   2.765  -0.230  0.00  0.00    -0.004 A 
ATOM      5  C5  I4B d   1      -1.759   2.897   0.459  0.00  0.00     0.002 A 
ATOM      6  C6  I4B d   1      -2.887   2.171   0.048  0.00  0.00     0.003 A 
ENDROOT
BRANCH   1   7
ATOM      7  C1' I4B d   1      -4.008   0.611  -1.567  0.00  0.00     0.060 C 
BRANCH   7   8
ATOM      8  C2' I4B d   1      -5.161   0.912  -0.632  0.00  0.00    -0.013 C 
ATOM      9  C4' I4B d   1      -5.999   2.051  -1.150  0.00  0.00     0.013 C 
ATOM     10  C3' I4B d   1      -5.977  -0.338  -0.486  0.00  0.00     0.013 C 
ENDBRANCH   7   8
ENDBRANCH   1   7
TORSDOF 2
ENDMDL
