MODEL 1
REMARK minimizedAffinity 3.63757205
REMARK minimizedRMSD -1
REMARK  2 active torsions:
REMARK  status: ('A' for Active; 'I' for Inactive)
REMARK    1  A    between atoms: C2'_3  and  C1'_4 
REMARK    2  A    between atoms: C1'_4  and  C1_5 
ROOT
ATOM      1  C1  I4B d   1      -0.502   0.486   2.500  0.00  0.00    -0.075 A 
ATOM      2  C2  I4B d   1       0.746   0.502   1.929  0.00  0.00     0.003 A 
ATOM      3  C3  I4B d   1       0.907   0.888   0.576  0.00  0.00     0.002 A 
ATOM      4  C4  I4B d   1      -0.206   1.200  -0.178  0.00  0.00    -0.004 A 
ATOM      5  C5  I4B d   1      -1.468   1.206   0.408  0.00  0.00     0.002 A 
ATOM      6  C6  I4B d   1      -1.616   0.859   1.759  0.00  0.00     0.003 A 
ENDROOT
BRANCH   1   7
ATOM      7  C1' I4B d   1      -0.639   0.041   3.921  0.00  0.00     0.060 C 
BRANCH   7   8
ATOM      8  C2' I4B d   1       0.721  -0.429   4.396  0.00  0.00    -0.013 C 
ATOM      9  C4' I4B d   1       0.963  -0.038   5.830  0.00  0.00     0.013 C 
ATOM     10  C3' I4B d   1       0.783  -1.917   4.223  0.00  0.00     0.013 C 
ENDBRANCH   7   8
ENDBRANCH   1   7
TORSDOF 2
ENDMDL
