MODEL 1
REMARK minimizedAffinity 1.50867569
REMARK minimizedRMSD -1
REMARK  2 active torsions:
REMARK  status: ('A' for Active; 'I' for Inactive)
REMARK    1  A    between atoms: C2'_3  and  C1'_4 
REMARK    2  A    between atoms: C1'_4  and  C1_5 
ROOT
ATOM      1  C1  I4B d   1       0.759   1.381   1.277  0.00  0.00    -0.075 A 
ATOM      2  C2  I4B d   1      -0.019   1.279   2.403  0.00  0.00     0.003 A 
ATOM      3  C3  I4B d   1      -1.431   1.264   2.294  0.00  0.00     0.002 A 
ATOM      4  C4  I4B d   1      -2.019   1.402   1.053  0.00  0.00    -0.004 A 
ATOM      5  C5  I4B d   1      -1.227   1.481  -0.089  0.00  0.00     0.002 A 
ATOM      6  C6  I4B d   1       0.170   1.458   0.021  0.00  0.00     0.003 A 
ENDROOT
BRANCH   1   7
ATOM      7  C1' I4B d   1       2.247   1.427   1.431  0.00  0.00     0.060 C 
BRANCH   7   8
ATOM      8  C2' I4B d   1       2.865   1.103   0.086  0.00  0.00    -0.013 C 
ATOM      9  C4' I4B d   1       4.247   1.690  -0.033  0.00  0.00     0.013 C 
ATOM     10  C3' I4B d   1       2.896  -0.389  -0.062  0.00  0.00     0.013 C 
ENDBRANCH   7   8
ENDBRANCH   1   7
TORSDOF 2
ENDMDL
