MODEL 1
REMARK minimizedAffinity 7.79445505
REMARK minimizedRMSD -1
REMARK  2 active torsions:
REMARK  status: ('A' for Active; 'I' for Inactive)
REMARK    1  A    between atoms: C2'_3  and  C1'_4 
REMARK    2  A    between atoms: C1'_4  and  C1_5 
ROOT
ATOM      1  C1  I4B d   1       0.386   1.197   1.926  0.00  0.00    -0.075 A 
ATOM      2  C2  I4B d   1       0.919   1.007   0.675  0.00  0.00     0.003 A 
ATOM      3  C3  I4B d   1       0.132   1.244  -0.478  0.00  0.00     0.002 A 
ATOM      4  C4  I4B d   1      -1.189   1.617  -0.334  0.00  0.00    -0.004 A 
ATOM      5  C5  I4B d   1      -1.721   1.831   0.934  0.00  0.00     0.002 A 
ATOM      6  C6  I4B d   1      -0.925   1.631   2.072  0.00  0.00     0.003 A 
ENDROOT
BRANCH   1   7
ATOM      7  C1' I4B d   1       1.235   0.906   3.123  0.00  0.00     0.060 C 
BRANCH   7   8
ATOM      8  C2' I4B d   1       0.472  -0.053   4.015  0.00  0.00    -0.013 C 
ATOM      9  C4' I4B d   1       1.352  -1.184   4.477  0.00  0.00     0.013 C 
ATOM     10  C3' I4B d   1      -0.065   0.726   5.178  0.00  0.00     0.013 C 
ENDBRANCH   7   8
ENDBRANCH   1   7
TORSDOF 2
ENDMDL
