MODEL 1
REMARK minimizedAffinity 10.5341053
REMARK minimizedRMSD -1
REMARK  2 active torsions:
REMARK  status: ('A' for Active; 'I' for Inactive)
REMARK    1  A    between atoms: C2'_3  and  C1'_4 
REMARK    2  A    between atoms: C1'_4  and  C1_5 
ROOT
ATOM      1  C1  I4B d   1       1.007   0.964   0.713  0.00  0.00    -0.075 A 
ATOM      2  C2  I4B d   1       0.809   0.809   2.062  0.00  0.00     0.003 A 
ATOM      3  C3  I4B d   1      -0.504   0.809   2.594  0.00  0.00     0.002 A 
ATOM      4  C4  I4B d   1      -1.578   1.016   1.754  0.00  0.00    -0.004 A 
ATOM      5  C5  I4B d   1      -1.377   1.150   0.383  0.00  0.00     0.002 A 
ATOM      6  C6  I4B d   1      -0.077   1.112  -0.143  0.00  0.00     0.003 A 
ENDROOT
BRANCH   1   7
ATOM      7  C1' I4B d   1       2.408   0.991   0.189  0.00  0.00     0.060 C 
BRANCH   7   8
ATOM      8  C2' I4B d   1       2.505  -0.017  -0.938  0.00  0.00    -0.013 C 
ATOM      9  C4' I4B d   1       3.675   0.281  -1.837  0.00  0.00     0.013 C 
ATOM     10  C3' I4B d   1       2.625  -1.382  -0.328  0.00  0.00     0.013 C 
ENDBRANCH   7   8
ENDBRANCH   1   7
TORSDOF 2
ENDMDL
