MODEL 1
REMARK minimizedAffinity 2.47538114
REMARK minimizedRMSD -1
REMARK  2 active torsions:
REMARK  status: ('A' for Active; 'I' for Inactive)
REMARK    1  A    between atoms: C2'_3  and  C1'_4 
REMARK    2  A    between atoms: C1'_4  and  C1_5 
ROOT
ATOM      1  C1  I4B d   1       0.655   0.900   1.200  0.00  0.00    -0.075 A 
ATOM      2  C2  I4B d   1       0.167   1.139  -0.061  0.00  0.00     0.003 A 
ATOM      3  C3  I4B d   1      -1.185   1.518  -0.242  0.00  0.00     0.002 A 
ATOM      4  C4  I4B d   1      -2.021   1.598   0.853  0.00  0.00    -0.004 A 
ATOM      5  C5  I4B d   1      -1.519   1.378   2.133  0.00  0.00     0.002 A 
ATOM      6  C6  I4B d   1      -0.170   1.038   2.309  0.00  0.00     0.003 A 
ENDROOT
BRANCH   1   7
ATOM      7  C1' I4B d   1       2.079   0.468   1.352  0.00  0.00     0.060 C 
BRANCH   7   8
ATOM      8  C2' I4B d   1       2.685   0.364  -0.033  0.00  0.00    -0.013 C 
ATOM      9  C4' I4B d   1       4.049   1.000  -0.080  0.00  0.00     0.013 C 
ATOM     10  C3' I4B d   1       2.752  -1.088  -0.401  0.00  0.00     0.013 C 
ENDBRANCH   7   8
ENDBRANCH   1   7
TORSDOF 2
ENDMDL
