MODEL 1
REMARK minimizedAffinity 7.03708887
REMARK minimizedRMSD -1
REMARK  2 active torsions:
REMARK  status: ('A' for Active; 'I' for Inactive)
REMARK    1  A    between atoms: C2'_3  and  C1'_4 
REMARK    2  A    between atoms: C1'_4  and  C1_5 
ROOT
ATOM      1  C1  I4B d   1       3.617  -0.672   0.243  0.00  0.00    -0.075 A 
ATOM      2  C2  I4B d   1       2.809   0.437   0.236  0.00  0.00     0.003 A 
ATOM      3  C3  I4B d   1       3.377   1.732   0.164  0.00  0.00     0.002 A 
ATOM      4  C4  I4B d   1       4.750   1.872   0.151  0.00  0.00    -0.004 A 
ATOM      5  C5  I4B d   1       5.567   0.746   0.135  0.00  0.00     0.002 A 
ATOM      6  C6  I4B d   1       4.997  -0.535   0.169  0.00  0.00     0.003 A 
ENDROOT
BRANCH   1   7
ATOM      7  C1' I4B d   1       2.985  -2.023   0.354  0.00  0.00     0.060 C 
BRANCH   7   8
ATOM      8  C2' I4B d   1       2.341  -2.348  -0.978  0.00  0.00    -0.013 C 
ATOM      9  C4' I4B d   1       3.358  -2.861  -1.964  0.00  0.00     0.013 C 
ATOM     10  C3' I4B d   1       1.263  -3.362  -0.737  0.00  0.00     0.013 C 
ENDBRANCH   7   8
ENDBRANCH   1   7
TORSDOF 2
ENDMDL
