MODEL 1
REMARK minimizedAffinity -1.28628182
REMARK minimizedRMSD -1
REMARK  2 active torsions:
REMARK  status: ('A' for Active; 'I' for Inactive)
REMARK    1  A    between atoms: C2'_3  and  C1'_4 
REMARK    2  A    between atoms: C1'_4  and  C1_5 
ROOT
ATOM      1  C1  I4B d   1       2.488  -0.358   0.386  0.00  0.00    -0.075 A 
ATOM      2  C2  I4B d   1       2.296  -1.709   0.232  0.00  0.00     0.003 A 
ATOM      3  C3  I4B d   1       2.967  -2.411  -0.798  0.00  0.00     0.002 A 
ATOM      4  C4  I4B d   1       3.776  -1.719  -1.676  0.00  0.00    -0.004 A 
ATOM      5  C5  I4B d   1       3.988  -0.354  -1.504  0.00  0.00     0.002 A 
ATOM      6  C6  I4B d   1       3.350   0.329  -0.459  0.00  0.00     0.003 A 
ENDROOT
BRANCH   1   7
ATOM      7  C1' I4B d   1       1.738   0.358   1.464  0.00  0.00     0.060 C 
BRANCH   7   8
ATOM      8  C2' I4B d   1       1.006  -0.679   2.292  0.00  0.00    -0.013 C 
ATOM      9  C4' I4B d   1       1.894  -1.243   3.369  0.00  0.00     0.013 C 
ATOM     10  C3' I4B d   1      -0.211  -0.029   2.878  0.00  0.00     0.013 C 
ENDBRANCH   7   8
ENDBRANCH   1   7
TORSDOF 2
ENDMDL
