MODEL 1
REMARK minimizedAffinity 3.62145853
REMARK minimizedRMSD -1
REMARK  2 active torsions:
REMARK  status: ('A' for Active; 'I' for Inactive)
REMARK    1  A    between atoms: C2'_3  and  C1'_4 
REMARK    2  A    between atoms: C1'_4  and  C1_5 
ROOT
ATOM      1  C1  I4B d   1       0.898   1.061   0.939  0.00  0.00    -0.075 A 
ATOM      2  C2  I4B d   1      -0.462   1.118   0.759  0.00  0.00     0.003 A 
ATOM      3  C3  I4B d   1      -1.333   1.006   1.870  0.00  0.00     0.002 A 
ATOM      4  C4  I4B d   1      -0.807   0.789   3.127  0.00  0.00    -0.004 A 
ATOM      5  C5  I4B d   1       0.572   0.754   3.311  0.00  0.00     0.002 A 
ATOM      6  C6  I4B d   1       1.431   0.903   2.212  0.00  0.00     0.003 A 
ENDROOT
BRANCH   1   7
ATOM      7  C1' I4B d   1       1.787   1.149  -0.260  0.00  0.00     0.060 C 
BRANCH   7   8
ATOM      8  C2' I4B d   1       3.098   0.468   0.079  0.00  0.00    -0.013 C 
ATOM      9  C4' I4B d   1       3.092  -0.973  -0.357  0.00  0.00     0.013 C 
ATOM     10  C3' I4B d   1       4.203   1.231  -0.587  0.00  0.00     0.013 C 
ENDBRANCH   7   8
ENDBRANCH   1   7
TORSDOF 2
ENDMDL
