MODEL 1
REMARK minimizedAffinity -3.22320318
REMARK minimizedRMSD -1
REMARK  0 active torsions:
REMARK  status: ('A' for Active; 'I' for Inactive)
ROOT
ATOM      1  C   UNL d   1       0.006   0.301  -0.062  0.00  0.00     0.172 C 
ATOM      2  N   UNL d   1       0.431  -1.028   0.308  0.00  0.00    -0.070 N 
ATOM      3  C1  UNL d   1       1.562  -1.337   1.016  0.00  0.00    -0.004 A 
ATOM      4  C2  UNL d   1       1.608  -2.706   1.162  0.00  0.00    -0.047 A 
ATOM      5  C3  UNL d   1       0.465  -3.239   0.520  0.00  0.00    -0.047 A 
ATOM      6  C4  UNL d   1      -0.246  -2.179   0.000  0.00  0.00    -0.004 A 
ENDROOT
TORSDOF 0
ENDMDL
