MODEL 1
REMARK minimizedAffinity -3.66862321
REMARK minimizedRMSD -1
REMARK  0 active torsions:
REMARK  status: ('A' for Active; 'I' for Inactive)
ROOT
ATOM      1  C   UNL d   1      -0.698   0.728  -0.656  0.00  0.00     0.172 C 
ATOM      2  N   UNL d   1       0.306  -0.105  -0.035  0.00  0.00    -0.070 N 
ATOM      3  C1  UNL d   1       0.065  -1.254   0.670  0.00  0.00    -0.004 A 
ATOM      4  C2  UNL d   1       1.278  -1.750   1.096  0.00  0.00    -0.047 A 
ATOM      5  C3  UNL d   1       2.283  -0.868   0.631  0.00  0.00    -0.047 A 
ATOM      6  C4  UNL d   1       1.653   0.142  -0.066  0.00  0.00    -0.004 A 
ENDROOT
TORSDOF 0
ENDMDL
