MODEL 1
REMARK minimizedAffinity 0.619528651
REMARK minimizedRMSD -1
REMARK  0 active torsions:
REMARK  status: ('A' for Active; 'I' for Inactive)
ROOT
ATOM      1  C   UNL d   1      -0.498  -1.530   0.885  0.00  0.00     0.172 C 
ATOM      2  N   UNL d   1      -0.302  -0.240   0.264  0.00  0.00    -0.070 N 
ATOM      3  C1  UNL d   1      -1.234   0.760   0.191  0.00  0.00    -0.004 A 
ATOM      4  C2  UNL d   1      -0.662   1.822  -0.475  0.00  0.00    -0.047 A 
ATOM      5  C3  UNL d   1       0.659   1.447  -0.815  0.00  0.00    -0.047 A 
ATOM      6  C4  UNL d   1       0.856   0.165  -0.345  0.00  0.00    -0.004 A 
ENDROOT
TORSDOF 0
ENDMDL
