MODEL 1
REMARK minimizedAffinity -3.81739831
REMARK minimizedRMSD -1
REMARK  0 active torsions:
REMARK  status: ('A' for Active; 'I' for Inactive)
ROOT
ATOM      1  C   UNL d   1      -1.011  -0.483   1.701  0.00  0.00     0.172 C 
ATOM      2  N   UNL d   1       0.057  -1.219   1.066  0.00  0.00    -0.070 N 
ATOM      3  C1  UNL d   1       1.081  -0.672   0.340  0.00  0.00    -0.004 A 
ATOM      4  C2  UNL d   1       1.887  -1.702  -0.094  0.00  0.00    -0.047 A 
ATOM      5  C3  UNL d   1       1.328  -2.910   0.387  0.00  0.00    -0.047 A 
ATOM      6  C4  UNL d   1       0.195  -2.581   1.102  0.00  0.00    -0.004 A 
ENDROOT
TORSDOF 0
ENDMDL
