MODEL 1
REMARK minimizedAffinity -3.09951735
REMARK minimizedRMSD -1
REMARK  0 active torsions:
REMARK  status: ('A' for Active; 'I' for Inactive)
ROOT
ATOM      1  C   UNL d   1      -0.696   0.972  -0.092  0.00  0.00     0.172 C 
ATOM      2  N   UNL d   1       0.130  -0.189   0.139  0.00  0.00    -0.070 N 
ATOM      3  C1  UNL d   1       1.494  -0.187   0.264  0.00  0.00    -0.004 A 
ATOM      4  C2  UNL d   1       1.900  -1.487   0.476  0.00  0.00    -0.047 A 
ATOM      5  C3  UNL d   1       0.741  -2.298   0.477  0.00  0.00    -0.047 A 
ATOM      6  C4  UNL d   1      -0.341  -1.469   0.266  0.00  0.00    -0.004 A 
ENDROOT
TORSDOF 0
ENDMDL
