MODEL 1
REMARK minimizedAffinity -2.99785638
REMARK minimizedRMSD -1
REMARK  0 active torsions:
REMARK  status: ('A' for Active; 'I' for Inactive)
ROOT
ATOM      1  C   UNL d   1      -0.085   0.730  -0.538  0.00  0.00     0.172 C 
ATOM      2  N   UNL d   1       0.157  -0.529   0.126  0.00  0.00    -0.070 N 
ATOM      3  C1  UNL d   1      -0.757  -1.229   0.867  0.00  0.00    -0.004 A 
ATOM      4  C2  UNL d   1      -0.140  -2.371   1.329  0.00  0.00    -0.047 A 
ATOM      5  C3  UNL d   1       1.192  -2.357   0.849  0.00  0.00    -0.047 A 
ATOM      6  C4  UNL d   1       1.348  -1.205   0.108  0.00  0.00    -0.004 A 
ENDROOT
TORSDOF 0
ENDMDL
