MODEL 1
REMARK minimizedAffinity -3.87281752
REMARK minimizedRMSD -1
REMARK  0 active torsions:
REMARK  status: ('A' for Active; 'I' for Inactive)
ROOT
ATOM      1  C   UNL d   1      -0.720   0.968  -0.068  0.00  0.00     0.172 C 
ATOM      2  N   UNL d   1       0.003  -0.219   0.324  0.00  0.00    -0.070 N 
ATOM      3  C1  UNL d   1      -0.501  -1.250   1.072  0.00  0.00    -0.004 A 
ATOM      4  C2  UNL d   1       0.498  -2.187   1.226  0.00  0.00    -0.047 A 
ATOM      5  C3  UNL d   1       1.641  -1.703   0.548  0.00  0.00    -0.047 A 
ATOM      6  C4  UNL d   1       1.307  -0.483  -0.002  0.00  0.00    -0.004 A 
ENDROOT
TORSDOF 0
ENDMDL
