MODEL 1
REMARK minimizedAffinity -3.56766701
REMARK minimizedRMSD -1
REMARK  0 active torsions:
REMARK  status: ('A' for Active; 'I' for Inactive)
ROOT
ATOM      1  C   UNL d   1      -0.467   0.134  -0.017  0.00  0.00     0.172 C 
ATOM      2  N   UNL d   1       0.517  -0.843   0.386  0.00  0.00    -0.070 N 
ATOM      3  C1  UNL d   1       1.871  -0.726   0.223  0.00  0.00    -0.004 A 
ATOM      4  C2  UNL d   1       2.457  -1.863   0.736  0.00  0.00    -0.047 A 
ATOM      5  C3  UNL d   1       1.419  -2.693   1.223  0.00  0.00    -0.047 A 
ATOM      6  C4  UNL d   1       0.228  -2.037   0.993  0.00  0.00    -0.004 A 
ENDROOT
TORSDOF 0
ENDMDL
