MODEL 1
REMARK minimizedAffinity -3.52042508
REMARK minimizedRMSD -1
REMARK  0 active torsions:
REMARK  status: ('A' for Active; 'I' for Inactive)
ROOT
ATOM      1  C   UNL d   1      -0.584   0.534  -0.156  0.00  0.00     0.172 C 
ATOM      2  N   UNL d   1       0.254  -0.620   0.071  0.00  0.00    -0.070 N 
ATOM      3  C1  UNL d   1      -0.154  -1.926   0.019  0.00  0.00    -0.004 A 
ATOM      4  C2  UNL d   1       0.938  -2.721   0.292  0.00  0.00    -0.047 A 
ATOM      5  C3  UNL d   1       2.041  -1.863   0.516  0.00  0.00    -0.047 A 
ATOM      6  C4  UNL d   1       1.589  -0.568   0.373  0.00  0.00    -0.004 A 
ENDROOT
TORSDOF 0
ENDMDL
