MODEL 1
REMARK minimizedAffinity -3.40059876
REMARK minimizedRMSD -1
REMARK  0 active torsions:
REMARK  status: ('A' for Active; 'I' for Inactive)
ROOT
ATOM      1  C   UNL d   1       1.580   0.499  -0.265  0.00  0.00     0.172 C 
ATOM      2  N   UNL d   1       1.422  -0.729   0.477  0.00  0.00    -0.070 N 
ATOM      3  C1  UNL d   1       2.431  -1.585   0.830  0.00  0.00    -0.004 A 
ATOM      4  C2  UNL d   1       1.871  -2.634   1.526  0.00  0.00    -0.047 A 
ATOM      5  C3  UNL d   1       0.477  -2.402   1.593  0.00  0.00    -0.047 A 
ATOM      6  C4  UNL d   1       0.226  -1.216   0.936  0.00  0.00    -0.004 A 
ENDROOT
TORSDOF 0
ENDMDL
