MODEL 1
REMARK minimizedAffinity -3.74657774
REMARK minimizedRMSD -1
REMARK  0 active torsions:
REMARK  status: ('A' for Active; 'I' for Inactive)
ROOT
ATOM      1  C   UNL d   1       1.406  -2.475   0.758  0.00  0.00     0.172 C 
ATOM      2  N   UNL d   1       0.748  -1.211   0.527  0.00  0.00    -0.070 N 
ATOM      3  C1  UNL d   1       1.234  -0.187  -0.242  0.00  0.00    -0.004 A 
ATOM      4  C2  UNL d   1       0.314   0.838  -0.210  0.00  0.00    -0.047 A 
ATOM      5  C3  UNL d   1      -0.762   0.417   0.607  0.00  0.00    -0.047 A 
ATOM      6  C4  UNL d   1      -0.467  -0.855   1.050  0.00  0.00    -0.004 A 
ENDROOT
TORSDOF 0
ENDMDL
