MODEL 1
REMARK minimizedAffinity 0.630508661
REMARK minimizedRMSD -1
REMARK  0 active torsions:
REMARK  status: ('A' for Active; 'I' for Inactive)
ROOT
ATOM      1  C   UNL d   1       0.552   1.574   0.151  0.00  0.00     0.172 C 
ATOM      2  N   UNL d   1      -0.082   0.410   0.725  0.00  0.00    -0.070 N 
ATOM      3  C1  UNL d   1      -0.900   0.407   1.823  0.00  0.00    -0.004 A 
ATOM      4  C2  UNL d   1      -1.299  -0.893   2.049  0.00  0.00    -0.047 A 
ATOM      5  C3  UNL d   1      -0.698  -1.699   1.053  0.00  0.00    -0.047 A 
ATOM      6  C4  UNL d   1       0.050  -0.867   0.247  0.00  0.00    -0.004 A 
ENDROOT
TORSDOF 0
ENDMDL
