MODEL 1
REMARK minimizedAffinity -2.18898535
REMARK minimizedRMSD -1
REMARK  0 active torsions:
REMARK  status: ('A' for Active; 'I' for Inactive)
ROOT
ATOM      1  C   UNL d   1      -1.949   0.973  -2.036  0.00  0.00     0.172 C 
ATOM      2  N   UNL d   1      -0.950   0.471  -1.123  0.00  0.00    -0.070 N 
ATOM      3  C1  UNL d   1      -0.412   1.161  -0.070  0.00  0.00    -0.004 A 
ATOM      4  C2  UNL d   1       0.502   0.337   0.552  0.00  0.00    -0.047 A 
ATOM      5  C3  UNL d   1       0.514  -0.890  -0.153  0.00  0.00    -0.047 A 
ATOM      6  C4  UNL d   1      -0.394  -0.780  -1.185  0.00  0.00    -0.004 A 
ENDROOT
TORSDOF 0
ENDMDL
