MODEL 1
REMARK minimizedAffinity -2.34562731
REMARK minimizedRMSD -1
REMARK  0 active torsions:
REMARK  status: ('A' for Active; 'I' for Inactive)
ROOT
ATOM      1  C   UNL d   1      -0.442   0.930  -0.406  0.00  0.00     0.172 C 
ATOM      2  N   UNL d   1       0.147  -0.323   0.005  0.00  0.00    -0.070 N 
ATOM      3  C1  UNL d   1       1.483  -0.622  -0.017  0.00  0.00    -0.004 A 
ATOM      4  C2  UNL d   1       1.635  -1.910   0.451  0.00  0.00    -0.047 A 
ATOM      5  C3  UNL d   1       0.345  -2.401   0.764  0.00  0.00    -0.047 A 
ATOM      6  C4  UNL d   1      -0.557  -1.399   0.478  0.00  0.00    -0.004 A 
ENDROOT
TORSDOF 0
ENDMDL
