MODEL 1
REMARK minimizedAffinity -0.605065823
REMARK minimizedRMSD -1
REMARK  0 active torsions:
REMARK  status: ('A' for Active; 'I' for Inactive)
ROOT
ATOM      1  C4' PXY d   1       2.323   2.908  -5.975  0.00  0.00     0.077 C 
ATOM      2  C1' PXY d   1       1.819  -0.235  -1.150  0.00  0.00     0.077 C 
ATOM      3  C1  PXY d   1       1.963   0.592  -2.412  0.00  0.00    -0.082 A 
ATOM      4  C2  PXY d   1       0.885   1.095  -2.992  0.00  0.00     0.003 A 
ATOM      5  C3  PXY d   1       0.995   1.819  -4.151  0.00  0.00     0.003 A 
ATOM      6  C4  PXY d   1       2.226   2.075  -4.694  0.00  0.00    -0.082 A 
ATOM      7  C5  PXY d   1       3.331   1.574  -4.103  0.00  0.00     0.003 A 
ATOM      8  C6  PXY d   1       3.195   0.807  -2.949  0.00  0.00     0.003 A 
ENDROOT
TORSDOF 0
ENDMDL
