MODEL 1
REMARK minimizedAffinity 7.69764709
REMARK minimizedRMSD -1
REMARK  0 active torsions:
REMARK  status: ('A' for Active; 'I' for Inactive)
ROOT
ATOM      1  C4' PXY d   1       0.400   0.467  -2.258  0.00  0.00     0.077 C 
ATOM      2  C1' PXY d   1       4.261   3.106  -5.655  0.00  0.00     0.077 C 
ATOM      3  C1  PXY d   1       3.258   2.409  -4.757  0.00  0.00    -0.082 A 
ATOM      4  C2  PXY d   1       2.049   2.133  -5.217  0.00  0.00     0.003 A 
ATOM      5  C3  PXY d   1       1.119   1.532  -4.408  0.00  0.00     0.003 A 
ATOM      6  C4  PXY d   1       1.448   1.161  -3.132  0.00  0.00    -0.082 A 
ATOM      7  C5  PXY d   1       2.683   1.429  -2.659  0.00  0.00     0.003 A 
ATOM      8  C6  PXY d   1       3.599   2.077  -3.482  0.00  0.00     0.003 A 
ENDROOT
TORSDOF 0
ENDMDL
