MODEL 1
REMARK minimizedAffinity 1.28067625
REMARK minimizedRMSD -1
REMARK  0 active torsions:
REMARK  status: ('A' for Active; 'I' for Inactive)
ROOT
ATOM      1  C4' PXY d   1       5.558   5.209   5.521  0.00  0.00     0.077 C 
ATOM      2  C1' PXY d   1       4.794   4.876  -0.199  0.00  0.00     0.077 C 
ATOM      3  C1  PXY d   1       4.990   4.976   1.301  0.00  0.00    -0.082 A 
ATOM      4  C2  PXY d   1       5.834   4.155   1.906  0.00  0.00     0.003 A 
ATOM      5  C3  PXY d   1       6.000   4.210   3.266  0.00  0.00     0.003 A 
ATOM      6  C4  PXY d   1       5.335   5.150   4.007  0.00  0.00    -0.082 A 
ATOM      7  C5  PXY d   1       4.481   5.998   3.396  0.00  0.00     0.003 A 
ATOM      8  C6  PXY d   1       4.295   5.898   2.020  0.00  0.00     0.003 A 
ENDROOT
TORSDOF 0
ENDMDL
