MODEL 1
REMARK minimizedAffinity -0.678496957
REMARK minimizedRMSD -1
REMARK  0 active torsions:
REMARK  status: ('A' for Active; 'I' for Inactive)
ROOT
ATOM      1  C4' PXY d   1       3.319   2.683  -5.564  0.00  0.00     0.077 C 
ATOM      2  C1' PXY d   1       0.396  -0.078  -1.411  0.00  0.00     0.077 C 
ATOM      3  C1  PXY d   1       1.171   0.651  -2.491  0.00  0.00    -0.082 A 
ATOM      4  C2  PXY d   1       0.576   0.948  -3.635  0.00  0.00     0.003 A 
ATOM      5  C3  PXY d   1       1.271   1.578  -4.635  0.00  0.00     0.003 A 
ATOM      6  C4  PXY d   1       2.573   1.956  -4.442  0.00  0.00    -0.082 A 
ATOM      7  C5  PXY d   1       3.184   1.666  -3.273  0.00  0.00     0.003 A 
ATOM      8  C6  PXY d   1       2.473   0.989  -2.287  0.00  0.00     0.003 A 
ENDROOT
TORSDOF 0
ENDMDL
