MODEL 1
REMARK minimizedAffinity -2.37239194
REMARK minimizedRMSD -1
REMARK  0 active torsions:
REMARK  status: ('A' for Active; 'I' for Inactive)
ROOT
ATOM      1  C4' PXY d   1       3.215   2.255  -5.750  0.00  0.00     0.077 C 
ATOM      2  C1' PXY d   1       0.217   0.044  -1.331  0.00  0.00     0.077 C 
ATOM      3  C1  PXY d   1       1.011   0.630  -2.481  0.00  0.00    -0.082 A 
ATOM      4  C2  PXY d   1       0.433   0.790  -3.661  0.00  0.00     0.003 A 
ATOM      5  C3  PXY d   1       1.146   1.289  -4.721  0.00  0.00     0.003 A 
ATOM      6  C4  PXY d   1       2.449   1.677  -4.558  0.00  0.00    -0.082 A 
ATOM      7  C5  PXY d   1       3.043   1.526  -3.355  0.00  0.00     0.003 A 
ATOM      8  C6  PXY d   1       2.314   0.980  -2.303  0.00  0.00     0.003 A 
ENDROOT
TORSDOF 0
ENDMDL
