MODEL 1
REMARK minimizedAffinity 0.0996243507
REMARK minimizedRMSD -1
REMARK  0 active torsions:
REMARK  status: ('A' for Active; 'I' for Inactive)
ROOT
ATOM      1  C4' PXY d   1       3.242  -0.103  -0.842  0.00  0.00     0.077 C 
ATOM      2  C1' PXY d   1       0.372   2.342  -5.224  0.00  0.00     0.077 C 
ATOM      3  C1  PXY d   1       1.135   1.699  -4.082  0.00  0.00    -0.082 A 
ATOM      4  C2  PXY d   1       0.470   1.155  -3.075  0.00  0.00     0.003 A 
ATOM      5  C3  PXY d   1       1.144   0.598  -2.020  0.00  0.00     0.003 A 
ATOM      6  C4  PXY d   1       2.513   0.549  -2.020  0.00  0.00    -0.082 A 
ATOM      7  C5  PXY d   1       3.198   1.091  -3.049  0.00  0.00     0.003 A 
ATOM      8  C6  PXY d   1       2.495   1.689  -4.091  0.00  0.00     0.003 A 
ENDROOT
TORSDOF 0
ENDMDL
