MODEL 1
REMARK minimizedAffinity -3.5429821
REMARK minimizedRMSD -1
REMARK  0 active torsions:
REMARK  status: ('A' for Active; 'I' for Inactive)
ROOT
ATOM      1  C4' PXY d   1       0.101   1.577  -6.000  0.00  0.00     0.077 C 
ATOM      2  C1' PXY d   1       5.131   1.844  -3.165  0.00  0.00     0.077 C 
ATOM      3  C1  PXY d   1       3.807   1.767  -3.899  0.00  0.00    -0.082 A 
ATOM      4  C2  PXY d   1       3.780   1.896  -5.215  0.00  0.00     0.003 A 
ATOM      5  C3  PXY d   1       2.588   1.861  -5.891  0.00  0.00     0.003 A 
ATOM      6  C4  PXY d   1       1.416   1.638  -5.219  0.00  0.00    -0.082 A 
ATOM      7  C5  PXY d   1       1.437   1.495  -3.876  0.00  0.00     0.003 A 
ATOM      8  C6  PXY d   1       2.653   1.575  -3.204  0.00  0.00     0.003 A 
ENDROOT
TORSDOF 0
ENDMDL
