MODEL 1
REMARK minimizedAffinity -3.92961621
REMARK minimizedRMSD -1
REMARK  0 active torsions:
REMARK  status: ('A' for Active; 'I' for Inactive)
ROOT
ATOM      1  C4' PXY d   1      -0.204   2.977  -3.027  0.00  0.00     0.077 C 
ATOM      2  C1' PXY d   1       3.611  -0.981  -1.237  0.00  0.00     0.077 C 
ATOM      3  C1  PXY d   1       2.602   0.048  -1.709  0.00  0.00    -0.082 A 
ATOM      4  C2  PXY d   1       3.016   1.250  -2.076  0.00  0.00     0.003 A 
ATOM      5  C3  PXY d   1       2.114   2.202  -2.476  0.00  0.00     0.003 A 
ATOM      6  C4  PXY d   1       0.780   1.904  -2.552  0.00  0.00    -0.082 A 
ATOM      7  C5  PXY d   1       0.351   0.676  -2.189  0.00  0.00     0.003 A 
ATOM      8  C6  PXY d   1       1.278  -0.263  -1.747  0.00  0.00     0.003 A 
ENDROOT
TORSDOF 0
ENDMDL
