MODEL 1
REMARK minimizedAffinity -1.35376489
REMARK minimizedRMSD -1
REMARK  0 active torsions:
REMARK  status: ('A' for Active; 'I' for Inactive)
ROOT
ATOM      1  C4' PXY d   1      -0.314   0.760  -1.929  0.00  0.00     0.077 C 
ATOM      2  C1' PXY d   1       4.208   2.392  -5.138  0.00  0.00     0.077 C 
ATOM      3  C1  PXY d   1       3.014   1.972  -4.304  0.00  0.00    -0.082 A 
ATOM      4  C2  PXY d   1       3.200   1.544  -3.066  0.00  0.00     0.003 A 
ATOM      5  C3  PXY d   1       2.135   1.130  -2.308  0.00  0.00     0.003 A 
ATOM      6  C4  PXY d   1       0.861   1.203  -2.805  0.00  0.00    -0.082 A 
ATOM      7  C5  PXY d   1       0.662   1.648  -4.063  0.00  0.00     0.003 A 
ATOM      8  C6  PXY d   1       1.761   2.026  -4.830  0.00  0.00     0.003 A 
ENDROOT
TORSDOF 0
ENDMDL
