MODEL 1
REMARK minimizedAffinity -1.97747993
REMARK minimizedRMSD -1
REMARK  0 active torsions:
REMARK  status: ('A' for Active; 'I' for Inactive)
ROOT
ATOM      1  C4' PXY d   1       3.085  -1.589  -1.243  0.00  0.00     0.077 C 
ATOM      2  C1' PXY d   1       0.967   3.014  -4.024  0.00  0.00     0.077 C 
ATOM      3  C1  PXY d   1       1.532   1.807  -3.303  0.00  0.00    -0.082 A 
ATOM      4  C2  PXY d   1       0.720   1.003  -2.636  0.00  0.00     0.003 A 
ATOM      5  C3  PXY d   1       1.219  -0.075  -1.952  0.00  0.00     0.003 A 
ATOM      6  C4  PXY d   1       2.557  -0.364  -1.993  0.00  0.00    -0.082 A 
ATOM      7  C5  PXY d   1       3.391   0.446  -2.680  0.00  0.00     0.003 A 
ATOM      8  C6  PXY d   1       2.870   1.559  -3.334  0.00  0.00     0.003 A 
ENDROOT
TORSDOF 0
ENDMDL
