MODEL 1
REMARK minimizedAffinity 3.91849899
REMARK minimizedRMSD -1
REMARK  0 active torsions:
REMARK  status: ('A' for Active; 'I' for Inactive)
ROOT
ATOM      1  C4' PXY d   1       0.166   0.075  -1.465  0.00  0.00     0.077 C 
ATOM      2  C1' PXY d   1       3.293   2.464  -5.700  0.00  0.00     0.077 C 
ATOM      3  C1  PXY d   1       2.484   1.835  -4.583  0.00  0.00    -0.082 A 
ATOM      4  C2  PXY d   1       1.279   1.352  -4.840  0.00  0.00     0.003 A 
ATOM      5  C3  PXY d   1       0.521   0.809  -3.835  0.00  0.00     0.003 A 
ATOM      6  C4  PXY d   1       1.022   0.711  -2.564  0.00  0.00    -0.082 A 
ATOM      7  C5  PXY d   1       2.255   1.192  -2.297  0.00  0.00     0.003 A 
ATOM      8  C6  PXY d   1       2.992   1.777  -3.322  0.00  0.00     0.003 A 
ENDROOT
TORSDOF 0
ENDMDL
