MODEL 1
REMARK minimizedAffinity 8.15770054
REMARK minimizedRMSD -1
REMARK  0 active torsions:
REMARK  status: ('A' for Active; 'I' for Inactive)
ROOT
ATOM      1  C4' PXY d   1       2.260   5.226  -0.798  0.00  0.00     0.077 C 
ATOM      2  C1' PXY d   1       6.000   5.523   3.600  0.00  0.00     0.077 C 
ATOM      3  C1  PXY d   1       5.025   5.455   2.441  0.00  0.00    -0.082 A 
ATOM      4  C2  PXY d   1       3.856   4.858   2.604  0.00  0.00     0.003 A 
ATOM      5  C3  PXY d   1       2.975   4.760   1.557  0.00  0.00     0.003 A 
ATOM      6  C4  PXY d   1       3.272   5.326   0.347  0.00  0.00    -0.082 A 
ATOM      7  C5  PXY d   1       4.459   5.947   0.176  0.00  0.00     0.003 A 
ATOM      8  C6  PXY d   1       5.356   5.999   1.238  0.00  0.00     0.003 A 
ENDROOT
TORSDOF 0
ENDMDL
