MODEL 1
REMARK minimizedAffinity 6.55996275
REMARK minimizedRMSD -1
REMARK  0 active torsions:
REMARK  status: ('A' for Active; 'I' for Inactive)
ROOT
ATOM      1  C4' PXY d   1      -0.389   0.934  -2.079  0.00  0.00     0.077 C 
ATOM      2  C1' PXY d   1       4.165   2.559  -5.247  0.00  0.00     0.077 C 
ATOM      3  C1  PXY d   1       2.963   2.139  -4.425  0.00  0.00    -0.082 A 
ATOM      4  C2  PXY d   1       3.113   1.866  -3.139  0.00  0.00     0.003 A 
ATOM      5  C3  PXY d   1       2.043   1.454  -2.387  0.00  0.00     0.003 A 
ATOM      6  C4  PXY d   1       0.795   1.371  -2.946  0.00  0.00    -0.082 A 
ATOM      7  C5  PXY d   1       0.632   1.658  -4.255  0.00  0.00     0.003 A 
ATOM      8  C6  PXY d   1       1.739   2.035  -5.010  0.00  0.00     0.003 A 
ENDROOT
TORSDOF 0
ENDMDL
