MODEL 1
REMARK minimizedAffinity -4.49120998
REMARK minimizedRMSD -1
REMARK  0 active torsions:
REMARK  status: ('A' for Active; 'I' for Inactive)
ROOT
ATOM      1  C4' PXY d   1       1.068  -0.021  -1.130  0.00  0.00     0.077 C 
ATOM      2  C1' PXY d   1       2.944   2.721  -5.860  0.00  0.00     0.077 C 
ATOM      3  C1  PXY d   1       2.440   2.006  -4.622  0.00  0.00    -0.082 A 
ATOM      4  C2  PXY d   1       3.276   1.748  -3.630  0.00  0.00     0.003 A 
ATOM      5  C3  PXY d   1       2.844   1.074  -2.517  0.00  0.00     0.003 A 
ATOM      6  C4  PXY d   1       1.531   0.707  -2.395  0.00  0.00    -0.082 A 
ATOM      7  C5  PXY d   1       0.669   0.976  -3.399  0.00  0.00     0.003 A 
ATOM      8  C6  PXY d   1       1.136   1.625  -4.538  0.00  0.00     0.003 A 
ENDROOT
TORSDOF 0
ENDMDL
