MODEL 1
REMARK minimizedAffinity 1.78873575
REMARK minimizedRMSD -1
REMARK  0 active torsions:
REMARK  status: ('A' for Active; 'I' for Inactive)
ROOT
ATOM      1  C4' PXY d   1       4.796   5.641   0.217  0.00  0.00     0.077 C 
ATOM      2  C1' PXY d   1       4.753   5.611   5.998  0.00  0.00     0.077 C 
ATOM      3  C1  PXY d   1       4.777   5.620   4.482  0.00  0.00    -0.082 A 
ATOM      4  C2  PXY d   1       3.701   5.999   3.813  0.00  0.00     0.003 A 
ATOM      5  C3  PXY d   1       3.695   5.983   2.442  0.00  0.00     0.003 A 
ATOM      6  C4  PXY d   1       4.820   5.625   1.748  0.00  0.00    -0.082 A 
ATOM      7  C5  PXY d   1       5.926   5.247   2.424  0.00  0.00     0.003 A 
ATOM      8  C6  PXY d   1       5.898   5.231   3.815  0.00  0.00     0.003 A 
ENDROOT
TORSDOF 0
ENDMDL
