MODEL 1
REMARK minimizedAffinity 0.974384606
REMARK minimizedRMSD -1
REMARK  0 active torsions:
REMARK  status: ('A' for Active; 'I' for Inactive)
ROOT
ATOM      1  C4' PXY d   1       5.910   4.731   5.639  0.00  0.00     0.077 C 
ATOM      2  C1' PXY d   1       4.228   5.442   0.155  0.00  0.00     0.077 C 
ATOM      3  C1  PXY d   1       4.665   5.268   1.596  0.00  0.00    -0.082 A 
ATOM      4  C2  PXY d   1       5.615   4.395   1.890  0.00  0.00     0.003 A 
ATOM      5  C3  PXY d   1       6.000   4.202   3.192  0.00  0.00     0.003 A 
ATOM      6  C4  PXY d   1       5.444   4.947   4.197  0.00  0.00    -0.082 A 
ATOM      7  C5  PXY d   1       4.482   5.848   3.903  0.00  0.00     0.003 A 
ATOM      8  C6  PXY d   1       4.076   5.999   2.580  0.00  0.00     0.003 A 
ENDROOT
TORSDOF 0
ENDMDL
