MODEL 1
REMARK minimizedAffinity -1.93953013
REMARK minimizedRMSD -1
REMARK  0 active torsions:
REMARK  status: ('A' for Active; 'I' for Inactive)
ROOT
ATOM      1  C4' PXY d   1       4.548   5.430   0.349  0.00  0.00     0.077 C 
ATOM      2  C1' PXY d   1       5.657   4.754   5.982  0.00  0.00     0.077 C 
ATOM      3  C1  PXY d   1       5.378   4.926   4.502  0.00  0.00    -0.082 A 
ATOM      4  C2  PXY d   1       4.521   5.852   4.101  0.00  0.00     0.003 A 
ATOM      5  C3  PXY d   1       4.233   5.999   2.768  0.00  0.00     0.003 A 
ATOM      6  C4  PXY d   1       4.867   5.227   1.833  0.00  0.00    -0.082 A 
ATOM      7  C5  PXY d   1       5.750   4.288   2.233  0.00  0.00     0.003 A 
ATOM      8  C6  PXY d   1       5.998   4.126   3.593  0.00  0.00     0.003 A 
ENDROOT
TORSDOF 0
ENDMDL
