MODEL 1
REMARK minimizedAffinity 2.67468071
REMARK minimizedRMSD -1
REMARK  0 active torsions:
REMARK  status: ('A' for Active; 'I' for Inactive)
ROOT
ATOM      1  C4' PXY d   1       3.250   2.776  -6.000  0.00  0.00     0.077 C 
ATOM      2  C1' PXY d   1       0.326  -0.119  -1.940  0.00  0.00     0.077 C 
ATOM      3  C1  PXY d   1       1.099   0.646  -2.995  0.00  0.00    -0.082 A 
ATOM      4  C2  PXY d   1       0.588   0.786  -4.207  0.00  0.00     0.003 A 
ATOM      5  C3  PXY d   1       1.288   1.448  -5.183  0.00  0.00     0.003 A 
ATOM      6  C4  PXY d   1       2.500   2.019  -4.900  0.00  0.00    -0.082 A 
ATOM      7  C5  PXY d   1       3.023   1.890  -3.662  0.00  0.00     0.003 A 
ATOM      8  C6  PXY d   1       2.316   1.179  -2.698  0.00  0.00     0.003 A 
ENDROOT
TORSDOF 0
ENDMDL
