MODEL 1
REMARK minimizedAffinity -5.38883686
REMARK minimizedRMSD -1
REMARK  0 active torsions:
REMARK  status: ('A' for Active; 'I' for Inactive)
ROOT
ATOM      1  C4' PXY d   1      -0.195  -2.737   0.443  0.00  0.00     0.077 C 
ATOM      2  C1' PXY d   1       0.537   2.829  -0.936  0.00  0.00     0.077 C 
ATOM      3  C1  PXY d   1       0.355   1.366  -0.583  0.00  0.00    -0.082 A 
ATOM      4  C2  PXY d   1      -0.796   0.954  -0.076  0.00  0.00     0.003 A 
ATOM      5  C3  PXY d   1      -0.967  -0.359   0.279  0.00  0.00     0.003 A 
ATOM      6  C4  PXY d   1       0.031  -1.271   0.063  0.00  0.00    -0.082 A 
ATOM      7  C5  PXY d   1       1.204  -0.861  -0.463  0.00  0.00     0.003 A 
ATOM      8  C6  PXY d   1       1.373   0.485  -0.779  0.00  0.00     0.003 A 
ENDROOT
TORSDOF 0
ENDMDL
