MODEL 1
REMARK minimizedAffinity -4.4270668
REMARK minimizedRMSD -1
REMARK  1 active torsions:
REMARK  status: ('A' for Active; 'I' for Inactive)
REMARK    1  A    between atoms: C1_2  and  C2_3 
ROOT
ATOM      1  C2  UNL d   1      -0.468   1.270  -2.308  0.00  0.00    -0.077 A 
ATOM      2  C3  UNL d   1       0.537   1.917  -3.041  0.00  0.00     0.002 A 
ATOM      3  C4  UNL d   1       0.476   3.295  -3.259  0.00  0.00     0.002 A 
ATOM      4  C5  UNL d   1      -0.585   4.037  -2.744  0.00  0.00    -0.004 A 
ATOM      5  C6  UNL d   1      -1.590   3.402  -2.015  0.00  0.00     0.002 A 
ATOM      6  C7  UNL d   1      -1.531   2.025  -1.798  0.00  0.00     0.002 A 
ENDROOT
BRANCH   1   7
ATOM      7  C1  UNL d   1      -0.378  -0.208  -2.030  0.00  0.00     0.055 C 
ATOM      8  C   UNL d   1       0.191  -0.477  -0.645  0.00  0.00     0.019 C 
ENDBRANCH   1   7
TORSDOF 1
ENDMDL
