MODEL 1
REMARK minimizedAffinity -4.85008049
REMARK minimizedRMSD -1
REMARK  1 active torsions:
REMARK  status: ('A' for Active; 'I' for Inactive)
REMARK    1  A    between atoms: C1_2  and  C2_3 
ROOT
ATOM      1  C2  UNL d   1       0.475  -0.643   1.666  0.00  0.00    -0.077 A 
ATOM      2  C3  UNL d   1      -0.658  -0.059   1.082  0.00  0.00     0.002 A 
ATOM      3  C4  UNL d   1      -0.744   0.082  -0.305  0.00  0.00     0.002 A 
ATOM      4  C5  UNL d   1       0.296  -0.363  -1.118  0.00  0.00    -0.004 A 
ATOM      5  C6  UNL d   1       1.428  -0.944  -0.546  0.00  0.00     0.002 A 
ATOM      6  C7  UNL d   1       1.516  -1.084   0.840  0.00  0.00     0.002 A 
ENDROOT
BRANCH   1   7
ATOM      7  C1  UNL d   1       0.548  -0.841   3.158  0.00  0.00     0.055 C 
ATOM      8  C   UNL d   1       1.921  -1.341   3.583  0.00  0.00     0.019 C 
ENDBRANCH   1   7
TORSDOF 1
ENDMDL
