MODEL 1
REMARK minimizedAffinity -3.34604168
REMARK minimizedRMSD -1
REMARK  1 active torsions:
REMARK  status: ('A' for Active; 'I' for Inactive)
REMARK    1  A    between atoms: C1_2  and  C2_3 
ROOT
ATOM      1  C2  UNL d   1       0.385   0.073   1.670  0.00  0.00    -0.077 A 
ATOM      2  C3  UNL d   1      -0.923  -0.359   1.934  0.00  0.00     0.002 A 
ATOM      3  C4  UNL d   1      -1.870  -0.411   0.909  0.00  0.00     0.002 A 
ATOM      4  C5  UNL d   1      -1.519  -0.037  -0.386  0.00  0.00    -0.004 A 
ATOM      5  C6  UNL d   1      -0.222   0.396  -0.659  0.00  0.00     0.002 A 
ATOM      6  C7  UNL d   1       0.726   0.450   0.364  0.00  0.00     0.002 A 
ENDROOT
BRANCH   1   7
ATOM      7  C1  UNL d   1       1.421   0.083   2.763  0.00  0.00     0.055 C 
ATOM      8  C   UNL d   1       2.270  -1.179   2.733  0.00  0.00     0.019 C 
ENDBRANCH   1   7
TORSDOF 1
ENDMDL
