MODEL 1
REMARK minimizedAffinity 0.770669341
REMARK minimizedRMSD -1
REMARK  1 active torsions:
REMARK  status: ('A' for Active; 'I' for Inactive)
REMARK    1  A    between atoms: C1_2  and  C2_3 
ROOT
ATOM      1  C2  UNL d   1      -3.379   0.966  -3.376  0.00  0.00    -0.077 A 
ATOM      2  C3  UNL d   1      -4.401   0.486  -4.207  0.00  0.00     0.002 A 
ATOM      3  C4  UNL d   1      -4.728  -0.872  -4.212  0.00  0.00     0.002 A 
ATOM      4  C5  UNL d   1      -4.041  -1.759  -3.386  0.00  0.00    -0.004 A 
ATOM      5  C6  UNL d   1      -3.021  -1.292  -2.558  0.00  0.00     0.002 A 
ATOM      6  C7  UNL d   1      -2.692   0.065  -2.552  0.00  0.00     0.002 A 
ENDROOT
BRANCH   1   7
ATOM      7  C1  UNL d   1      -3.058   2.437  -3.333  0.00  0.00     0.055 C 
ATOM      8  C   UNL d   1      -1.599   2.675  -2.971  0.00  0.00     0.019 C 
ENDBRANCH   1   7
TORSDOF 1
ENDMDL
