MODEL 1
REMARK minimizedAffinity -2.83165336
REMARK minimizedRMSD -1
REMARK  1 active torsions:
REMARK  status: ('A' for Active; 'I' for Inactive)
REMARK    1  A    between atoms: C1_2  and  C2_3 
ROOT
ATOM      1  C2  UNL d   1      -0.156   0.432  -0.425  0.00  0.00    -0.077 A 
ATOM      2  C3  UNL d   1       0.984  -0.056   0.227  0.00  0.00     0.002 A 
ATOM      3  C4  UNL d   1       0.928  -0.414   1.576  0.00  0.00     0.002 A 
ATOM      4  C5  UNL d   1      -0.268  -0.292   2.281  0.00  0.00    -0.004 A 
ATOM      5  C6  UNL d   1      -1.407   0.194   1.641  0.00  0.00     0.002 A 
ATOM      6  C7  UNL d   1      -1.352   0.553   0.294  0.00  0.00     0.002 A 
ENDROOT
BRANCH   1   7
ATOM      7  C1  UNL d   1      -0.110   0.772  -1.892  0.00  0.00     0.055 C 
ATOM      8  C   UNL d   1      -0.810   2.093  -2.176  0.00  0.00     0.019 C 
ENDBRANCH   1   7
TORSDOF 1
ENDMDL
