MODEL 1
REMARK minimizedAffinity -5.21913099
REMARK minimizedRMSD -1
REMARK  1 active torsions:
REMARK  status: ('A' for Active; 'I' for Inactive)
REMARK    1  A    between atoms: C1_2  and  C2_3 
ROOT
ATOM      1  C2  UNL d   1       0.854  -0.258   1.026  0.00  0.00    -0.077 A 
ATOM      2  C3  UNL d   1       1.561  -0.649  -0.120  0.00  0.00     0.002 A 
ATOM      3  C4  UNL d   1       0.962  -0.575  -1.379  0.00  0.00     0.002 A 
ATOM      4  C5  UNL d   1      -0.344  -0.106  -1.505  0.00  0.00    -0.004 A 
ATOM      5  C6  UNL d   1      -1.056   0.284  -0.372  0.00  0.00     0.002 A 
ATOM      6  C7  UNL d   1      -0.460   0.209   0.888  0.00  0.00     0.002 A 
ENDROOT
BRANCH   1   7
ATOM      7  C1  UNL d   1       1.514  -0.291   2.379  0.00  0.00     0.055 C 
ATOM      8  C   UNL d   1       0.784  -1.229   3.329  0.00  0.00     0.019 C 
ENDBRANCH   1   7
TORSDOF 1
ENDMDL
