MODEL 1
REMARK minimizedAffinity -2.19470954
REMARK minimizedRMSD -1
REMARK  1 active torsions:
REMARK  status: ('A' for Active; 'I' for Inactive)
REMARK    1  A    between atoms: C1_2  and  C2_3 
ROOT
ATOM      1  C2  UNL d   1      -0.114   0.161  -0.628  0.00  0.00    -0.077 A 
ATOM      2  C3  UNL d   1       1.096  -0.145   0.011  0.00  0.00     0.002 A 
ATOM      3  C4  UNL d   1       1.105  -0.559   1.345  0.00  0.00     0.002 A 
ATOM      4  C5  UNL d   1      -0.091  -0.674   2.049  0.00  0.00    -0.004 A 
ATOM      5  C6  UNL d   1      -1.300  -0.370   1.423  0.00  0.00     0.002 A 
ATOM      6  C7  UNL d   1      -1.311   0.045   0.091  0.00  0.00     0.002 A 
ENDROOT
BRANCH   1   7
ATOM      7  C1  UNL d   1      -0.131   0.559  -2.080  0.00  0.00     0.055 C 
ATOM      8  C   UNL d   1      -0.939   1.830  -2.296  0.00  0.00     0.019 C 
ENDBRANCH   1   7
TORSDOF 1
ENDMDL
