MODEL 1
REMARK minimizedAffinity 17.5925579
REMARK minimizedRMSD -1
REMARK  0 active torsions:
REMARK  status: ('A' for Active; 'I' for Inactive)
ROOT
ATOM      1  C   UNL d   1       2.040   2.419   1.882  0.00  0.00     0.124 A 
ATOM      2  C1  UNL d   1       1.173   1.959   2.864  0.00  0.00     0.062 A 
ATOM      3  C2  UNL d   1      -0.200   1.947   2.637  0.00  0.00     0.162 A 
ATOM      4  C3  UNL d   1      -0.715   2.396   1.421  0.00  0.00    -0.034 A 
ATOM      5  C4  UNL d   1       0.163   2.859   0.438  0.00  0.00     0.162 A 
ATOM      6  C5  UNL d   1       1.534   2.869   0.671  0.00  0.00     0.062 A 
ATOM      7  F   UNL d   1       2.370   3.313  -0.279  0.00  0.00    -0.097 F 
ATOM      8  F1  UNL d   1      -0.299   3.297  -0.742  0.00  0.00    -0.096 F 
ATOM      9  I   UNL d   1      -2.768   2.380   1.076  0.00  0.00    -0.060 I 
ATOM     10  F2  UNL d   1      -1.013   1.497   3.603  0.00  0.00    -0.096 F 
ATOM     11  F3  UNL d   1       1.660   1.526   4.036  0.00  0.00    -0.097 F 
ATOM     12  F4  UNL d   1       3.361   2.431   2.105  0.00  0.00    -0.092 F 
ENDROOT
TORSDOF 0
ENDMDL
