MODEL 1
REMARK minimizedAffinity -0.237564743
REMARK minimizedRMSD -1
REMARK  0 active torsions:
REMARK  status: ('A' for Active; 'I' for Inactive)
ROOT
ATOM      1  C   UNL d   1       2.189   1.160   1.561  0.00  0.00     0.124 A 
ATOM      2  C1  UNL d   1       1.777   1.937   0.488  0.00  0.00     0.062 A 
ATOM      3  C2  UNL d   1       0.442   2.316   0.370  0.00  0.00     0.162 A 
ATOM      4  C3  UNL d   1      -0.489   1.918   1.329  0.00  0.00    -0.034 A 
ATOM      5  C4  UNL d   1      -0.067   1.136   2.405  0.00  0.00     0.162 A 
ATOM      6  C5  UNL d   1       1.268   0.761   2.519  0.00  0.00     0.062 A 
ATOM      7  F   UNL d   1       1.665   0.010   3.557  0.00  0.00    -0.097 F 
ATOM      8  F1  UNL d   1      -0.936   0.737   3.345  0.00  0.00    -0.096 F 
ATOM      9  I   UNL d   1      -2.485   2.482   1.156  0.00  0.00    -0.060 I 
ATOM     10  F2  UNL d   1       0.072   3.067  -0.678  0.00  0.00    -0.096 F 
ATOM     11  F3  UNL d   1       2.665   2.324  -0.439  0.00  0.00    -0.097 F 
ATOM     12  F4  UNL d   1       3.474   0.797   1.672  0.00  0.00    -0.092 F 
ENDROOT
TORSDOF 0
ENDMDL
