MODEL 1
REMARK minimizedAffinity 12.7046804
REMARK minimizedRMSD -1
REMARK  0 active torsions:
REMARK  status: ('A' for Active; 'I' for Inactive)
ROOT
ATOM      1  C   UNL d   1      -1.240   2.693   2.030  0.00  0.00     0.124 A 
ATOM      2  C1  UNL d   1      -0.873   1.459   2.549  0.00  0.00     0.062 A 
ATOM      3  C2  UNL d   1       0.174   0.743   1.977  0.00  0.00     0.162 A 
ATOM      4  C3  UNL d   1       0.863   1.259   0.879  0.00  0.00    -0.034 A 
ATOM      5  C4  UNL d   1       0.488   2.500   0.362  0.00  0.00     0.162 A 
ATOM      6  C5  UNL d   1      -0.559   3.213   0.938  0.00  0.00     0.062 A 
ATOM      7  F   UNL d   1      -0.912   4.405   0.435  0.00  0.00    -0.097 F 
ATOM      8  F1  UNL d   1       1.129   3.026  -0.692  0.00  0.00    -0.096 F 
ATOM      9  I   UNL d   1       2.429   0.190   0.021  0.00  0.00    -0.060 I 
ATOM     10  F2  UNL d   1       0.507  -0.447   2.499  0.00  0.00    -0.096 F 
ATOM     11  F3  UNL d   1      -1.530   0.955   3.604  0.00  0.00    -0.097 F 
ATOM     12  F4  UNL d   1      -2.248   3.381   2.582  0.00  0.00    -0.092 F 
ENDROOT
TORSDOF 0
ENDMDL
