MODEL 1
REMARK minimizedAffinity 13.9620838
REMARK minimizedRMSD -1
REMARK  0 active torsions:
REMARK  status: ('A' for Active; 'I' for Inactive)
ROOT
ATOM      1  C   UNL d   1       0.763   1.997   1.414  0.00  0.00     0.124 A 
ATOM      2  C1  UNL d   1      -0.049   1.342   2.329  0.00  0.00     0.062 A 
ATOM      3  C2  UNL d   1      -1.348   1.789   2.558  0.00  0.00     0.162 A 
ATOM      4  C3  UNL d   1      -1.843   2.896   1.869  0.00  0.00    -0.034 A 
ATOM      5  C4  UNL d   1      -1.020   3.550   0.951  0.00  0.00     0.162 A 
ATOM      6  C5  UNL d   1       0.277   3.100   0.726  0.00  0.00     0.062 A 
ATOM      7  F   UNL d   1       1.060   3.733  -0.159  0.00  0.00    -0.097 F 
ATOM      8  F1  UNL d   1      -1.464   4.618   0.271  0.00  0.00    -0.096 F 
ATOM      9  I   UNL d   1      -3.783   3.567   2.209  0.00  0.00    -0.060 I 
ATOM     10  F2  UNL d   1      -2.110   1.137   3.449  0.00  0.00    -0.096 F 
ATOM     11  F3  UNL d   1       0.418   0.277   2.996  0.00  0.00    -0.097 F 
ATOM     12  F4  UNL d   1       2.012   1.566   1.196  0.00  0.00    -0.092 F 
ENDROOT
TORSDOF 0
ENDMDL
