MODEL 1
REMARK minimizedAffinity 10.0957508
REMARK minimizedRMSD -1
REMARK  0 active torsions:
REMARK  status: ('A' for Active; 'I' for Inactive)
ROOT
ATOM      1  C   UNL d   1       1.965   0.539  -0.340  0.00  0.00     0.124 A 
ATOM      2  C1  UNL d   1       2.568  -0.670  -0.021  0.00  0.00     0.062 A 
ATOM      3  C2  UNL d   1       1.882  -1.866  -0.209  0.00  0.00     0.162 A 
ATOM      4  C3  UNL d   1       0.584  -1.860  -0.720  0.00  0.00    -0.034 A 
ATOM      5  C4  UNL d   1      -0.017  -0.641  -1.038  0.00  0.00     0.162 A 
ATOM      6  C5  UNL d   1       0.673   0.552  -0.848  0.00  0.00     0.062 A 
ATOM      7  F   UNL d   1       0.089   1.719  -1.156  0.00  0.00    -0.097 F 
ATOM      8  F1  UNL d   1      -1.263  -0.598  -1.531  0.00  0.00    -0.096 F 
ATOM      9  I   UNL d   1      -0.445  -3.647  -1.004  0.00  0.00    -0.060 I 
ATOM     10  F2  UNL d   1       2.490  -3.019   0.107  0.00  0.00    -0.096 F 
ATOM     11  F3  UNL d   1       3.815  -0.686   0.471  0.00  0.00    -0.097 F 
ATOM     12  F4  UNL d   1       2.627   1.688  -0.157  0.00  0.00    -0.092 F 
ENDROOT
TORSDOF 0
ENDMDL
