MODEL 1
REMARK minimizedAffinity 13.0365629
REMARK minimizedRMSD -1
REMARK  0 active torsions:
REMARK  status: ('A' for Active; 'I' for Inactive)
ROOT
ATOM      1  C   UNL d   1       1.296   2.455   0.143  0.00  0.00     0.124 A 
ATOM      2  C1  UNL d   1       0.214   1.718  -0.317  0.00  0.00     0.062 A 
ATOM      3  C2  UNL d   1       0.349   0.355  -0.562  0.00  0.00     0.162 A 
ATOM      4  C3  UNL d   1       1.571  -0.282  -0.346  0.00  0.00    -0.034 A 
ATOM      5  C4  UNL d   1       2.655   0.466   0.116  0.00  0.00     0.162 A 
ATOM      6  C5  UNL d   1       2.516   1.829   0.359  0.00  0.00     0.062 A 
ATOM      7  F   UNL d   1       3.563   2.539   0.803  0.00  0.00    -0.097 F 
ATOM      8  F1  UNL d   1       3.845  -0.114   0.334  0.00  0.00    -0.096 F 
ATOM      9  I   UNL d   1       1.776  -2.321  -0.710  0.00  0.00    -0.060 I 
ATOM     10  F2  UNL d   1      -0.714  -0.333  -1.006  0.00  0.00    -0.096 F 
ATOM     11  F3  UNL d   1      -0.965   2.321  -0.528  0.00  0.00    -0.097 F 
ATOM     12  F4  UNL d   1       1.164   3.767   0.376  0.00  0.00    -0.092 F 
ENDROOT
TORSDOF 0
ENDMDL
