MODEL 1
REMARK minimizedAffinity 12.8014469
REMARK minimizedRMSD -1
REMARK  0 active torsions:
REMARK  status: ('A' for Active; 'I' for Inactive)
ROOT
ATOM      1  C   UNL d   1      -0.215   2.800   1.573  0.00  0.00     0.124 A 
ATOM      2  C1  UNL d   1      -0.311   2.144   0.354  0.00  0.00     0.062 A 
ATOM      3  C2  UNL d   1      -1.559   1.818  -0.169  0.00  0.00     0.162 A 
ATOM      4  C3  UNL d   1      -2.722   2.148   0.527  0.00  0.00    -0.034 A 
ATOM      5  C4  UNL d   1      -2.617   2.807   1.753  0.00  0.00     0.162 A 
ATOM      6  C5  UNL d   1      -1.368   3.130   2.271  0.00  0.00     0.062 A 
ATOM      7  F   UNL d   1      -1.277   3.764   3.450  0.00  0.00    -0.097 F 
ATOM      8  F1  UNL d   1      -3.715   3.139   2.448  0.00  0.00    -0.096 F 
ATOM      9  I   UNL d   1      -4.590   1.662  -0.252  0.00  0.00    -0.060 I 
ATOM     10  F2  UNL d   1      -1.622   1.184  -1.350  0.00  0.00    -0.096 F 
ATOM     11  F3  UNL d   1       0.801   1.822  -0.323  0.00  0.00    -0.097 F 
ATOM     12  F4  UNL d   1       0.987   3.111   2.074  0.00  0.00    -0.092 F 
ENDROOT
TORSDOF 0
ENDMDL
