MODEL 1
REMARK minimizedAffinity 7.38956404
REMARK minimizedRMSD -1
REMARK  0 active torsions:
REMARK  status: ('A' for Active; 'I' for Inactive)
ROOT
ATOM      1  N1  IND d   1       4.717  -1.960   4.963  0.00  0.00    -0.196 N 
ATOM      2  C2  IND d   1       3.700  -1.878   4.054  0.00  0.00     0.054 A 
ATOM      3  C3  IND d   1       3.324  -3.114   3.655  0.00  0.00    -0.031 A 
ATOM      4  C4  IND d   1       4.173  -5.414   4.441  0.00  0.00     0.051 A 
ATOM      5  C5  IND d   1       5.120  -6.000   5.233  0.00  0.00    -0.031 A 
ATOM      6  C6  IND d   1       5.998  -5.253   5.993  0.00  0.00     0.015 A 
ATOM      7  C7  IND d   1       5.953  -3.888   5.998  0.00  0.00    -0.016 A 
ATOM      8  C8  IND d   1       4.997  -3.290   5.189  0.00  0.00    -0.047 A 
ATOM      9  C9  IND d   1       4.131  -4.041   4.383  0.00  0.00    -0.096 A 
ATOM     10  HN1 IND d   1       5.116  -1.293   5.332  0.00  0.00     0.298 HD
ENDROOT
TORSDOF 0
ENDMDL
