MODEL 1
REMARK minimizedAffinity 11.6561842
REMARK minimizedRMSD -1
REMARK  0 active torsions:
REMARK  status: ('A' for Active; 'I' for Inactive)
ROOT
ATOM      1  N1  IND d   1      -3.170   1.178   3.947  0.00  0.00    -0.196 N 
ATOM      2  C2  IND d   1      -4.302   1.532   3.267  0.00  0.00     0.054 A 
ATOM      3  C3  IND d   1      -4.472   0.734   2.189  0.00  0.00    -0.031 A 
ATOM      4  C4  IND d   1      -3.072  -1.280   1.408  0.00  0.00     0.051 A 
ATOM      5  C5  IND d   1      -1.923  -1.965   1.685  0.00  0.00    -0.031 A 
ATOM      6  C6  IND d   1      -1.115  -1.633   2.754  0.00  0.00     0.015 A 
ATOM      7  C7  IND d   1      -1.435  -0.605   3.595  0.00  0.00    -0.016 A 
ATOM      8  C8  IND d   1      -2.597   0.098   3.313  0.00  0.00    -0.047 A 
ATOM      9  C9  IND d   1      -3.399  -0.208   2.205  0.00  0.00    -0.096 A 
ATOM     10  HN1 IND d   1      -2.866   1.566   4.652  0.00  0.00     0.298 HD
ENDROOT
TORSDOF 0
ENDMDL
