MODEL 1
REMARK minimizedAffinity 20.0236874
REMARK minimizedRMSD -1
REMARK  0 active torsions:
REMARK  status: ('A' for Active; 'I' for Inactive)
ROOT
ATOM      1  N1  IND d   1      -1.028  -4.140   1.960  0.00  0.00    -0.196 N 
ATOM      2  C2  IND d   1      -1.565  -3.121   2.697  0.00  0.00     0.054 A 
ATOM      3  C3  IND d   1      -0.785  -2.020   2.616  0.00  0.00    -0.031 A 
ATOM      4  C4  IND d   1       1.362  -1.634   1.249  0.00  0.00     0.051 A 
ATOM      5  C5  IND d   1       2.260  -2.281   0.448  0.00  0.00    -0.031 A 
ATOM      6  C6  IND d   1       2.103  -3.608   0.100  0.00  0.00     0.015 A 
ATOM      7  C7  IND d   1       1.032  -4.336   0.534  0.00  0.00    -0.016 A 
ATOM      8  C8  IND d   1       0.121  -3.683   1.354  0.00  0.00    -0.047 A 
ATOM      9  C9  IND d   1       0.298  -2.350   1.744  0.00  0.00    -0.096 A 
ATOM     10  HN1 IND d   1      -1.354  -4.932   1.887  0.00  0.00     0.298 HD
ENDROOT
TORSDOF 0
ENDMDL
