MODEL 1
REMARK minimizedAffinity 16.994276
REMARK minimizedRMSD -1
REMARK  0 active torsions:
REMARK  status: ('A' for Active; 'I' for Inactive)
ROOT
ATOM      1  N1  IND d   1       0.910   0.051  -4.099  0.00  0.00    -0.196 N 
ATOM      2  C2  IND d   1       1.470   1.139  -4.708  0.00  0.00     0.054 A 
ATOM      3  C3  IND d   1       0.747   2.250  -4.442  0.00  0.00    -0.031 A 
ATOM      4  C4  IND d   1      -1.330   2.533  -2.948  0.00  0.00     0.051 A 
ATOM      5  C5  IND d   1      -2.231   1.818  -2.209  0.00  0.00    -0.031 A 
ATOM      6  C6  IND d   1      -2.127   0.450  -2.057  0.00  0.00     0.015 A 
ATOM      7  C7  IND d   1      -1.107  -0.255  -2.631  0.00  0.00    -0.016 A 
ATOM      8  C8  IND d   1      -0.195   0.467  -3.388  0.00  0.00    -0.047 A 
ATOM      9  C9  IND d   1      -0.319   1.848  -3.581  0.00  0.00    -0.096 A 
ATOM     10  HN1 IND d   1       1.199  -0.757  -4.150  0.00  0.00     0.298 HD
ENDROOT
TORSDOF 0
ENDMDL
