MODEL 1
REMARK minimizedAffinity 11.4624214
REMARK minimizedRMSD -1
REMARK  0 active torsions:
REMARK  status: ('A' for Active; 'I' for Inactive)
ROOT
ATOM      1  N1  IND d   1      -2.551   0.491   4.081  0.00  0.00    -0.196 N 
ATOM      2  C2  IND d   1      -2.286  -0.252   2.965  0.00  0.00     0.054 A 
ATOM      3  C3  IND d   1      -3.256  -0.074   2.040  0.00  0.00    -0.031 A 
ATOM      4  C4  IND d   1      -5.315   1.469   2.106  0.00  0.00     0.051 A 
ATOM      5  C5  IND d   1      -6.000   2.317   2.931  0.00  0.00    -0.031 A 
ATOM      6  C6  IND d   1      -5.560   2.608   4.206  0.00  0.00     0.015 A 
ATOM      7  C7  IND d   1      -4.407   2.068   4.702  0.00  0.00    -0.016 A 
ATOM      8  C8  IND d   1      -3.713   1.201   3.870  0.00  0.00    -0.047 A 
ATOM      9  C9  IND d   1      -4.177   0.869   2.591  0.00  0.00    -0.096 A 
ATOM     10  HN1 IND d   1      -2.072   0.513   4.795  0.00  0.00     0.298 HD
ENDROOT
TORSDOF 0
ENDMDL
