MODEL 1
REMARK minimizedAffinity 12.1714048
REMARK minimizedRMSD -1
REMARK  0 active torsions:
REMARK  status: ('A' for Active; 'I' for Inactive)
ROOT
ATOM      1  N1  IND d   1       1.578  -3.281  -0.424  0.00  0.00    -0.196 N 
ATOM      2  C2  IND d   1       2.937  -3.435  -0.416  0.00  0.00     0.054 A 
ATOM      3  C3  IND d   1       3.488  -2.696   0.572  0.00  0.00    -0.031 A 
ATOM      4  C4  IND d   1       2.343  -1.241   2.361  0.00  0.00     0.051 A 
ATOM      5  C5  IND d   1       1.120  -0.762   2.738  0.00  0.00    -0.031 A 
ATOM      6  C6  IND d   1      -0.037  -1.107   2.069  0.00  0.00     0.015 A 
ATOM      7  C7  IND d   1      -0.014  -1.957   1.000  0.00  0.00    -0.016 A 
ATOM      8  C8  IND d   1       1.227  -2.440   0.609  0.00  0.00    -0.047 A 
ATOM      9  C9  IND d   1       2.409  -2.060   1.258  0.00  0.00    -0.096 A 
ATOM     10  HN1 IND d   1       1.035  -3.648  -0.980  0.00  0.00     0.298 HD
ENDROOT
TORSDOF 0
ENDMDL
