MODEL 1
REMARK minimizedAffinity 12.5898952
REMARK minimizedRMSD -1
REMARK  0 active torsions:
REMARK  status: ('A' for Active; 'I' for Inactive)
ROOT
ATOM      1  N1  IND d   1       0.925  -3.405  -0.028  0.00  0.00    -0.196 N 
ATOM      2  C2  IND d   1       2.262  -3.121  -0.073  0.00  0.00     0.054 A 
ATOM      3  C3  IND d   1       2.549  -2.078   0.738  0.00  0.00    -0.031 A 
ATOM      4  C4  IND d   1       0.998  -0.755   2.311  0.00  0.00     0.051 A 
ATOM      5  C5  IND d   1      -0.314  -0.623   2.670  0.00  0.00    -0.031 A 
ATOM      6  C6  IND d   1      -1.299  -1.430   2.140  0.00  0.00     0.015 A 
ATOM      7  C7  IND d   1      -1.006  -2.411   1.235  0.00  0.00    -0.016 A 
ATOM      8  C8  IND d   1       0.324  -2.543   0.862  0.00  0.00    -0.047 A 
ATOM      9  C9  IND d   1       1.322  -1.699   1.365  0.00  0.00    -0.096 A 
ATOM     10  HN1 IND d   1       0.528  -4.019  -0.479  0.00  0.00     0.298 HD
ENDROOT
TORSDOF 0
ENDMDL
