MODEL 1
REMARK minimizedAffinity -1.30468011
REMARK minimizedRMSD -1
REMARK  0 active torsions:
REMARK  status: ('A' for Active; 'I' for Inactive)
ROOT
ATOM      1  C   UNL d   1       5.999   3.337   3.280  0.00  0.00     0.020 A 
ATOM      2  C1  UNL d   1       6.000   3.159   4.662  0.00  0.00     0.020 A 
ATOM      3  C2  UNL d   1       6.000   1.870   5.200  0.00  0.00     0.034 A 
ATOM      4  C3  UNL d   1       5.999   0.755   4.355  0.00  0.00     0.017 A 
ATOM      5  C4  UNL d   1       5.999   0.934   2.967  0.00  0.00     0.017 A 
ATOM      6  C5  UNL d   1       5.999   2.227   2.434  0.00  0.00     0.034 A 
ATOM      7 Cl   UNL d   1       5.998  -0.393   1.861  0.00  0.00    -0.070 Cl
ATOM      8 Cl1  UNL d   1       6.000  -0.810   5.089  0.00  0.00    -0.070 Cl
ENDROOT
TORSDOF 0
ENDMDL
