MODEL 1
REMARK minimizedAffinity -0.816259742
REMARK minimizedRMSD -1
REMARK  0 active torsions:
REMARK  status: ('A' for Active; 'I' for Inactive)
ROOT
ATOM      1  C   UNL d   1       5.997  -0.713   4.901  0.00  0.00     0.020 A 
ATOM      2  C1  UNL d   1       5.989   0.146   5.999  0.00  0.00     0.020 A 
ATOM      3  C2  UNL d   1       5.984   1.529   5.803  0.00  0.00     0.034 A 
ATOM      4  C3  UNL d   1       5.987   2.056   4.507  0.00  0.00     0.017 A 
ATOM      5  C4  UNL d   1       5.995   1.193   3.405  0.00  0.00     0.017 A 
ATOM      6  C5  UNL d   1       6.000  -0.191   3.607  0.00  0.00     0.034 A 
ATOM      7 Cl   UNL d   1       5.999   1.769   1.776  0.00  0.00    -0.070 Cl
ATOM      8 Cl1  UNL d   1       5.981   3.776   4.339  0.00  0.00    -0.070 Cl
ENDROOT
TORSDOF 0
ENDMDL
