MODEL 1
REMARK minimizedAffinity 8.0011282
REMARK minimizedRMSD -1
REMARK  0 active torsions:
REMARK  status: ('A' for Active; 'I' for Inactive)
ROOT
ATOM      1  C   UNL d   1       5.999   4.352   5.289  0.00  0.00     0.020 A 
ATOM      2  C1  UNL d   1       5.991   3.019   5.696  0.00  0.00     0.020 A 
ATOM      3  C2  UNL d   1       5.984   1.998   4.743  0.00  0.00     0.034 A 
ATOM      4  C3  UNL d   1       5.984   2.309   3.379  0.00  0.00     0.017 A 
ATOM      5  C4  UNL d   1       5.992   3.648   2.971  0.00  0.00     0.017 A 
ATOM      6  C5  UNL d   1       5.999   4.666   3.929  0.00  0.00     0.034 A 
ATOM      7 Cl   UNL d   1       5.993   4.110   1.305  0.00  0.00    -0.070 Cl
ATOM      8 Cl1  UNL d   1       5.975   0.996   2.255  0.00  0.00    -0.070 Cl
ENDROOT
TORSDOF 0
ENDMDL
