MODEL 1
REMARK minimizedAffinity 0.413703322
REMARK minimizedRMSD -1
REMARK  0 active torsions:
REMARK  status: ('A' for Active; 'I' for Inactive)
ROOT
ATOM      1  C   UNL d   1       5.996  -0.623   6.000  0.00  0.00     0.020 A 
ATOM      2  C1  UNL d   1       5.999  -1.438   4.868  0.00  0.00     0.020 A 
ATOM      3  C2  UNL d   1       5.992  -0.864   3.595  0.00  0.00     0.034 A 
ATOM      4  C3  UNL d   1       5.982   0.528   3.450  0.00  0.00     0.017 A 
ATOM      5  C4  UNL d   1       5.979   1.345   4.587  0.00  0.00     0.017 A 
ATOM      6  C5  UNL d   1       5.986   0.765   5.859  0.00  0.00     0.034 A 
ATOM      7 Cl   UNL d   1       5.966   3.070   4.488  0.00  0.00    -0.070 Cl
ATOM      8 Cl1  UNL d   1       5.974   1.169   1.846  0.00  0.00    -0.070 Cl
ENDROOT
TORSDOF 0
ENDMDL
