MODEL 1
REMARK minimizedAffinity -0.77964431
REMARK minimizedRMSD -1
REMARK  0 active torsions:
REMARK  status: ('A' for Active; 'I' for Inactive)
ROOT
ATOM      1  C   UNL d   1       5.316  -0.923   4.860  0.00  0.00     0.020 A 
ATOM      2  C1  UNL d   1       5.801  -0.281   5.999  0.00  0.00     0.020 A 
ATOM      3  C2  UNL d   1       5.999   1.101   5.991  0.00  0.00     0.034 A 
ATOM      4  C3  UNL d   1       5.712   1.846   4.842  0.00  0.00     0.017 A 
ATOM      5  C4  UNL d   1       5.225   1.202   3.699  0.00  0.00     0.017 A 
ATOM      6  C5  UNL d   1       5.029  -0.183   3.713  0.00  0.00     0.034 A 
ATOM      7 Cl   UNL d   1       4.848   2.054   2.244  0.00  0.00    -0.070 Cl
ATOM      8 Cl1  UNL d   1       5.981   3.552   4.903  0.00  0.00    -0.070 Cl
ENDROOT
TORSDOF 0
ENDMDL
