MODEL 1
REMARK minimizedAffinity -1.7058779
REMARK minimizedRMSD -1
REMARK  0 active torsions:
REMARK  status: ('A' for Active; 'I' for Inactive)
ROOT
ATOM      1  C   UNL d   1       5.653   3.355   4.894  0.00  0.00     0.020 A 
ATOM      2  C1  UNL d   1       6.000   2.580   5.999  0.00  0.00     0.020 A 
ATOM      3  C2  UNL d   1       5.799   1.198   5.974  0.00  0.00     0.034 A 
ATOM      4  C3  UNL d   1       5.249   0.587   4.841  0.00  0.00     0.017 A 
ATOM      5  C4  UNL d   1       4.902   1.367   3.731  0.00  0.00     0.017 A 
ATOM      6  C5  UNL d   1       5.105   2.750   3.762  0.00  0.00     0.034 A 
ATOM      7 Cl   UNL d   1       4.219   0.685   2.297  0.00  0.00    -0.070 Cl
ATOM      8 Cl1  UNL d   1       5.028  -1.126   4.879  0.00  0.00    -0.070 Cl
ENDROOT
TORSDOF 0
ENDMDL
