MODEL 1
REMARK minimizedAffinity 2.24270177
REMARK minimizedRMSD -1
REMARK  0 active torsions:
REMARK  status: ('A' for Active; 'I' for Inactive)
ROOT
ATOM      1  C   UNL d   1       5.256  -1.457   4.556  0.00  0.00     0.020 A 
ATOM      2  C1  UNL d   1       5.941  -0.662   5.474  0.00  0.00     0.020 A 
ATOM      3  C2  UNL d   1       5.996   0.722   5.293  0.00  0.00     0.034 A 
ATOM      4  C3  UNL d   1       5.366   1.314   4.193  0.00  0.00     0.017 A 
ATOM      5  C4  UNL d   1       4.679   0.514   3.272  0.00  0.00     0.017 A 
ATOM      6  C5  UNL d   1       4.626  -0.871   3.458  0.00  0.00     0.034 A 
ATOM      7 Cl   UNL d   1       3.876   1.172   1.890  0.00  0.00    -0.070 Cl
ATOM      8 Cl1  UNL d   1       5.474   3.031   4.032  0.00  0.00    -0.070 Cl
ENDROOT
TORSDOF 0
ENDMDL
