MODEL 1
REMARK minimizedAffinity 1.93356037
REMARK minimizedRMSD -1
REMARK  0 active torsions:
REMARK  status: ('A' for Active; 'I' for Inactive)
ROOT
ATOM      1  C   UNL d   1       5.995  -0.748   5.894  0.00  0.00     0.020 A 
ATOM      2  C1  UNL d   1       5.991  -1.417   4.671  0.00  0.00     0.020 A 
ATOM      3  C2  UNL d   1       5.986  -0.691   3.478  0.00  0.00     0.034 A 
ATOM      4  C3  UNL d   1       5.985   0.708   3.506  0.00  0.00     0.017 A 
ATOM      5  C4  UNL d   1       5.990   1.379   4.734  0.00  0.00     0.017 A 
ATOM      6  C5  UNL d   1       5.995   0.647   5.925  0.00  0.00     0.034 A 
ATOM      7 Cl   UNL d   1       5.990   3.104   4.848  0.00  0.00    -0.070 Cl
ATOM      8 Cl1  UNL d   1       5.980   1.541   1.992  0.00  0.00    -0.070 Cl
ENDROOT
TORSDOF 0
ENDMDL
