MODEL 1
REMARK minimizedAffinity 0.0571439825
REMARK minimizedRMSD -1
REMARK  0 active torsions:
REMARK  status: ('A' for Active; 'I' for Inactive)
ROOT
ATOM      1  C   UNL d   1       5.987  -0.942   5.398  0.00  0.00     0.020 A 
ATOM      2  C1  UNL d   1       5.992  -1.059   4.009  0.00  0.00     0.020 A 
ATOM      3  C2  UNL d   1       5.996   0.088   3.212  0.00  0.00     0.034 A 
ATOM      4  C3  UNL d   1       5.994   1.356   3.803  0.00  0.00     0.017 A 
ATOM      5  C4  UNL d   1       5.989   1.473   5.198  0.00  0.00     0.017 A 
ATOM      6  C5  UNL d   1       5.985   0.322   5.991  0.00  0.00     0.034 A 
ATOM      7 Cl   UNL d   1       5.986   3.004   6.000  0.00  0.00    -0.070 Cl
ATOM      8 Cl1  UNL d   1       6.000   2.731   2.756  0.00  0.00    -0.070 Cl
ENDROOT
TORSDOF 0
ENDMDL
