MODEL 1
REMARK minimizedAffinity -0.184702337
REMARK minimizedRMSD -1
REMARK  0 active torsions:
REMARK  status: ('A' for Active; 'I' for Inactive)
ROOT
ATOM      1  C   UNL d   1       5.964   0.042   5.971  0.00  0.00     0.020 A 
ATOM      2  C1  UNL d   1       5.940  -0.629   4.749  0.00  0.00     0.020 A 
ATOM      3  C2  UNL d   1       5.933   0.095   3.555  0.00  0.00     0.034 A 
ATOM      4  C3  UNL d   1       5.950   1.494   3.580  0.00  0.00     0.017 A 
ATOM      5  C4  UNL d   1       5.975   2.167   4.807  0.00  0.00     0.017 A 
ATOM      6  C5  UNL d   1       5.982   1.437   6.000  0.00  0.00     0.034 A 
ATOM      7 Cl   UNL d   1       5.997   3.892   4.918  0.00  0.00    -0.070 Cl
ATOM      8 Cl1  UNL d   1       5.941   2.325   2.065  0.00  0.00    -0.070 Cl
ENDROOT
TORSDOF 0
ENDMDL
