MODEL 1
REMARK minimizedAffinity -3.71373892
REMARK minimizedRMSD -1
REMARK  0 active torsions:
REMARK  status: ('A' for Active; 'I' for Inactive)
ROOT
ATOM      1  C   UNL d   1       5.443   1.534   5.990  0.00  0.00     0.020 A 
ATOM      2  C1  UNL d   1       5.607   2.223   4.789  0.00  0.00     0.020 A 
ATOM      3  C2  UNL d   1       5.778   1.516   3.597  0.00  0.00     0.034 A 
ATOM      4  C3  UNL d   1       5.784   0.117   3.603  0.00  0.00     0.017 A 
ATOM      5  C4  UNL d   1       5.619  -0.574   4.809  0.00  0.00     0.017 A 
ATOM      6  C5  UNL d   1       5.448   0.139   6.000  0.00  0.00     0.034 A 
ATOM      7 Cl   UNL d   1       5.616  -2.300   4.896  0.00  0.00    -0.070 Cl
ATOM      8 Cl1  UNL d   1       6.000  -0.692   2.091  0.00  0.00    -0.070 Cl
ENDROOT
TORSDOF 0
ENDMDL
