MODEL 1
REMARK minimizedAffinity 4.94224167
REMARK minimizedRMSD -1
REMARK  0 active torsions:
REMARK  status: ('A' for Active; 'I' for Inactive)
ROOT
ATOM      1  C   UNL d   1       5.993   2.021   5.629  0.00  0.00     0.020 A 
ATOM      2  C1  UNL d   1       5.994   2.605   4.362  0.00  0.00     0.020 A 
ATOM      3  C2  UNL d   1       5.996   1.799   3.222  0.00  0.00     0.034 A 
ATOM      4  C3  UNL d   1       5.996   0.405   3.345  0.00  0.00     0.017 A 
ATOM      5  C4  UNL d   1       5.995  -0.180   4.616  0.00  0.00     0.017 A 
ATOM      6  C5  UNL d   1       5.993   0.631   5.755  0.00  0.00     0.034 A 
ATOM      7 Cl   UNL d   1       5.995  -1.893   4.848  0.00  0.00    -0.070 Cl
ATOM      8 Cl1  UNL d   1       5.998  -0.530   1.892  0.00  0.00    -0.070 Cl
ENDROOT
TORSDOF 0
ENDMDL
