MODEL 1
REMARK minimizedAffinity -3.94830537
REMARK minimizedRMSD -1
REMARK  0 active torsions:
REMARK  status: ('A' for Active; 'I' for Inactive)
ROOT
ATOM      1  C   UNL d   1      -1.113   0.363   1.490  0.00  0.00     0.078 C 
ATOM      2  C1  UNL d   1      -1.279   1.477   2.480  0.00  0.00    -0.077 A 
ATOM      3  C2  UNL d   1      -2.437   2.264   2.492  0.00  0.00    -0.001 A 
ATOM      4  C3  UNL d   1      -2.574   3.305   3.413  0.00  0.00     0.003 A 
ATOM      5  C4  UNL d   1      -1.555   3.569   4.326  0.00  0.00    -0.005 A 
ATOM      6  C5  UNL d   1      -0.398   2.793   4.320  0.00  0.00     0.003 A 
ATOM      7  C6  UNL d   1      -0.260   1.752   3.400  0.00  0.00    -0.001 A 
ENDROOT
TORSDOF 0
ENDMDL
