MODEL 1
REMARK minimizedAffinity -5.00936651
REMARK minimizedRMSD -1
REMARK  0 active torsions:
REMARK  status: ('A' for Active; 'I' for Inactive)
ROOT
ATOM      1  C   UNL d   1       0.294  -0.050  -1.694  0.00  0.00     0.078 C 
ATOM      2  C1  UNL d   1       0.315  -0.157  -0.198  0.00  0.00    -0.077 A 
ATOM      3  C2  UNL d   1      -0.868  -0.339   0.528  0.00  0.00    -0.001 A 
ATOM      4  C3  UNL d   1      -0.835  -0.428   1.921  0.00  0.00     0.003 A 
ATOM      5  C4  UNL d   1       0.378  -0.333   2.599  0.00  0.00    -0.005 A 
ATOM      6  C5  UNL d   1       1.560  -0.149   1.885  0.00  0.00     0.003 A 
ATOM      7  C6  UNL d   1       1.529  -0.060   0.492  0.00  0.00    -0.001 A 
ENDROOT
TORSDOF 0
ENDMDL
