MODEL 1
REMARK minimizedAffinity -1.94967127
REMARK minimizedRMSD -1
REMARK  0 active torsions:
REMARK  status: ('A' for Active; 'I' for Inactive)
ROOT
ATOM      1  C   UNL d   1      -1.046  -0.309   3.372  0.00  0.00     0.078 C 
ATOM      2  C1  UNL d   1      -0.732  -0.156   1.914  0.00  0.00    -0.077 A 
ATOM      3  C2  UNL d   1      -1.701  -0.412   0.936  0.00  0.00    -0.001 A 
ATOM      4  C3  UNL d   1      -1.392  -0.274  -0.418  0.00  0.00     0.003 A 
ATOM      5  C4  UNL d   1      -0.113   0.119  -0.807  0.00  0.00    -0.005 A 
ATOM      6  C5  UNL d   1       0.859   0.374   0.158  0.00  0.00     0.003 A 
ATOM      7  C6  UNL d   1       0.551   0.237   1.513  0.00  0.00    -0.001 A 
ENDROOT
TORSDOF 0
ENDMDL
