MODEL 1
REMARK minimizedAffinity -5.16196012
REMARK minimizedRMSD -1
REMARK  0 active torsions:
REMARK  status: ('A' for Active; 'I' for Inactive)
ROOT
ATOM      1  C   UNL d   1      -3.819   0.236   0.921  0.00  0.00     0.078 C 
ATOM      2  C1  UNL d   1      -2.499   0.010   1.595  0.00  0.00    -0.077 A 
ATOM      3  C2  UNL d   1      -1.371  -0.377   0.861  0.00  0.00    -0.001 A 
ATOM      4  C3  UNL d   1      -0.151  -0.593   1.503  0.00  0.00     0.003 A 
ATOM      5  C4  UNL d   1      -0.047  -0.427   2.883  0.00  0.00    -0.005 A 
ATOM      6  C5  UNL d   1      -1.165  -0.045   3.622  0.00  0.00     0.003 A 
ATOM      7  C6  UNL d   1      -2.386   0.172   2.982  0.00  0.00    -0.001 A 
ENDROOT
TORSDOF 0
ENDMDL
