MODEL 1
REMARK minimizedAffinity -3.18366957
REMARK minimizedRMSD -1
REMARK  0 active torsions:
REMARK  status: ('A' for Active; 'I' for Inactive)
ROOT
ATOM      1  C   UNL d   1       0.381  -1.313  -1.495  0.00  0.00     0.078 C 
ATOM      2  C1  UNL d   1       0.066  -0.956  -0.073  0.00  0.00    -0.077 A 
ATOM      3  C2  UNL d   1      -0.419  -1.917   0.822  0.00  0.00    -0.001 A 
ATOM      4  C3  UNL d   1      -0.717  -1.568   2.140  0.00  0.00     0.003 A 
ATOM      5  C4  UNL d   1      -0.534  -0.256   2.575  0.00  0.00    -0.005 A 
ATOM      6  C5  UNL d   1      -0.054   0.708   1.691  0.00  0.00     0.003 A 
ATOM      7  C6  UNL d   1       0.245   0.360   0.373  0.00  0.00    -0.001 A 
ENDROOT
TORSDOF 0
ENDMDL
