MODEL 1
REMARK minimizedAffinity -4.86197376
REMARK minimizedRMSD -1
REMARK  0 active torsions:
REMARK  status: ('A' for Active; 'I' for Inactive)
ROOT
ATOM      1  C   UNL d   1      -0.397  -0.032   2.781  0.00  0.00     0.078 C 
ATOM      2  C1  UNL d   1      -0.217  -0.074   1.293  0.00  0.00    -0.077 A 
ATOM      3  C2  UNL d   1       0.801  -0.840   0.711  0.00  0.00    -0.001 A 
ATOM      4  C3  UNL d   1       0.963  -0.862  -0.675  0.00  0.00     0.003 A 
ATOM      5  C4  UNL d   1       0.111  -0.120  -1.491  0.00  0.00    -0.005 A 
ATOM      6  C5  UNL d   1      -0.904   0.646  -0.921  0.00  0.00     0.003 A 
ATOM      7  C6  UNL d   1      -1.067   0.670   0.465  0.00  0.00    -0.001 A 
ENDROOT
TORSDOF 0
ENDMDL
