MODEL 1
REMARK minimizedAffinity -5.31444597
REMARK minimizedRMSD -1
REMARK  0 active torsions:
REMARK  status: ('A' for Active; 'I' for Inactive)
ROOT
ATOM      1  C   UNL d   1      -1.255  -1.007   3.461  0.00  0.00     0.078 C 
ATOM      2  C1  UNL d   1      -0.620  -0.358   2.268  0.00  0.00    -0.077 A 
ATOM      3  C2  UNL d   1      -1.310  -0.248   1.054  0.00  0.00    -0.001 A 
ATOM      4  C3  UNL d   1      -0.703   0.350  -0.051  0.00  0.00     0.003 A 
ATOM      5  C4  UNL d   1       0.597   0.841   0.045  0.00  0.00    -0.005 A 
ATOM      6  C5  UNL d   1       1.292   0.735   1.247  0.00  0.00     0.003 A 
ATOM      7  C6  UNL d   1       0.687   0.138   2.354  0.00  0.00    -0.001 A 
ENDROOT
TORSDOF 0
ENDMDL
