MODEL 1
REMARK minimizedAffinity -4.86198759
REMARK minimizedRMSD -1
REMARK  0 active torsions:
REMARK  status: ('A' for Active; 'I' for Inactive)
ROOT
ATOM      1  C   UNL d   1       0.468  -0.026  -0.941  0.00  0.00     0.078 C 
ATOM      2  C1  UNL d   1       0.033   0.034   0.493  0.00  0.00    -0.077 A 
ATOM      3  C2  UNL d   1       0.908   0.473   1.494  0.00  0.00    -0.001 A 
ATOM      4  C3  UNL d   1       0.492   0.514   2.826  0.00  0.00     0.003 A 
ATOM      5  C4  UNL d   1      -0.799   0.118   3.169  0.00  0.00    -0.005 A 
ATOM      6  C5  UNL d   1      -1.676  -0.322   2.180  0.00  0.00     0.003 A 
ATOM      7  C6  UNL d   1      -1.262  -0.364   0.847  0.00  0.00    -0.001 A 
ENDROOT
TORSDOF 0
ENDMDL
