MODEL 1
REMARK minimizedAffinity -5.66987133
REMARK minimizedRMSD -1
REMARK  0 active torsions:
REMARK  status: ('A' for Active; 'I' for Inactive)
ROOT
ATOM      1  C   UNL d   1      -0.239   0.298  -1.616  0.00  0.00     0.078 C 
ATOM      2  C1  UNL d   1      -0.130   0.207  -0.124  0.00  0.00    -0.077 A 
ATOM      3  C2  UNL d   1       1.034   0.612   0.540  0.00  0.00    -0.001 A 
ATOM      4  C3  UNL d   1       1.126   0.513   1.929  0.00  0.00     0.003 A 
ATOM      5  C4  UNL d   1       0.057   0.009   2.667  0.00  0.00    -0.005 A 
ATOM      6  C5  UNL d   1      -1.105  -0.399   2.015  0.00  0.00     0.003 A 
ATOM      7  C6  UNL d   1      -1.199  -0.301   0.626  0.00  0.00    -0.001 A 
ENDROOT
TORSDOF 0
ENDMDL
