MODEL 1
REMARK minimizedAffinity -3.07222271
REMARK minimizedRMSD -1
REMARK  0 active torsions:
REMARK  status: ('A' for Active; 'I' for Inactive)
ROOT
ATOM      1  C   UNL d   1       0.491   0.141  -0.120  0.00  0.00     0.078 C 
ATOM      2  C1  UNL d   1       0.951  -0.719  -1.259  0.00  0.00    -0.077 A 
ATOM      3  C2  UNL d   1       0.030  -1.381  -2.079  0.00  0.00    -0.001 A 
ATOM      4  C3  UNL d   1       0.472  -2.186  -3.131  0.00  0.00     0.003 A 
ATOM      5  C4  UNL d   1       1.836  -2.337  -3.370  0.00  0.00    -0.005 A 
ATOM      6  C5  UNL d   1       2.760  -1.683  -2.558  0.00  0.00     0.003 A 
ATOM      7  C6  UNL d   1       2.320  -0.878  -1.506  0.00  0.00    -0.001 A 
ENDROOT
TORSDOF 0
ENDMDL
