MODEL 1
REMARK minimizedAffinity -2.49000335
REMARK minimizedRMSD -1
REMARK  0 active torsions:
REMARK  status: ('A' for Active; 'I' for Inactive)
ROOT
ATOM      1  C   UNL d   1      -2.249   0.149   0.064  0.00  0.00     0.078 C 
ATOM      2  C1  UNL d   1      -0.986   0.098   0.871  0.00  0.00    -0.077 A 
ATOM      3  C2  UNL d   1       0.259  -0.070   0.253  0.00  0.00    -0.001 A 
ATOM      4  C3  UNL d   1       1.425  -0.126   1.017  0.00  0.00     0.003 A 
ATOM      5  C4  UNL d   1       1.358  -0.016   2.405  0.00  0.00    -0.005 A 
ATOM      6  C5  UNL d   1       0.124   0.150   3.029  0.00  0.00     0.003 A 
ATOM      7  C6  UNL d   1      -1.044   0.206   2.266  0.00  0.00    -0.001 A 
ENDROOT
TORSDOF 0
ENDMDL
