MODEL 1
REMARK minimizedAffinity -4.89923429
REMARK minimizedRMSD -1
REMARK  0 active torsions:
REMARK  status: ('A' for Active; 'I' for Inactive)
ROOT
ATOM      1  C   UNL d   1       0.162   0.017  -1.607  0.00  0.00     0.078 C 
ATOM      2  C1  UNL d   1       0.150   0.047  -0.108  0.00  0.00    -0.077 A 
ATOM      3  C2  UNL d   1       1.202   0.628   0.610  0.00  0.00    -0.001 A 
ATOM      4  C3  UNL d   1       1.183   0.640   2.006  0.00  0.00     0.003 A 
ATOM      5  C4  UNL d   1       0.114   0.071   2.696  0.00  0.00    -0.005 A 
ATOM      6  C5  UNL d   1      -0.936  -0.512   1.990  0.00  0.00     0.003 A 
ATOM      7  C6  UNL d   1      -0.918  -0.525   0.594  0.00  0.00    -0.001 A 
ENDROOT
TORSDOF 0
ENDMDL
