MODEL 1
REMARK minimizedAffinity -3.36306334
REMARK minimizedRMSD -1
REMARK  0 active torsions:
REMARK  status: ('A' for Active; 'I' for Inactive)
ROOT
ATOM      1  C   UNL d   1      -1.217  -0.783   2.790  0.00  0.00     0.078 C 
ATOM      2  C1  UNL d   1      -0.635  -0.159   1.558  0.00  0.00    -0.077 A 
ATOM      3  C2  UNL d   1      -1.322  -0.194   0.338  0.00  0.00    -0.001 A 
ATOM      4  C3  UNL d   1      -0.764   0.383  -0.804  0.00  0.00     0.003 A 
ATOM      5  C4  UNL d   1       0.485   0.998  -0.737  0.00  0.00    -0.005 A 
ATOM      6  C5  UNL d   1       1.177   1.036   0.471  0.00  0.00     0.003 A 
ATOM      7  C6  UNL d   1       0.620   0.460   1.614  0.00  0.00    -0.001 A 
ENDROOT
TORSDOF 0
ENDMDL
