MODEL 1
REMARK minimizedAffinity -5.1821456
REMARK minimizedRMSD -1
REMARK  0 active torsions:
REMARK  status: ('A' for Active; 'I' for Inactive)
ROOT
ATOM      1  C   UNL d   1      -0.736  -0.997   2.969  0.00  0.00     0.078 C 
ATOM      2  C1  UNL d   1      -0.758  -0.330   1.626  0.00  0.00    -0.077 A 
ATOM      3  C2  UNL d   1      -1.959  -0.156   0.927  0.00  0.00    -0.001 A 
ATOM      4  C3  UNL d   1      -1.963   0.458  -0.327  0.00  0.00     0.003 A 
ATOM      5  C4  UNL d   1      -0.770   0.902  -0.892  0.00  0.00    -0.005 A 
ATOM      6  C5  UNL d   1       0.430   0.731  -0.205  0.00  0.00     0.003 A 
ATOM      7  C6  UNL d   1       0.437   0.118   1.048  0.00  0.00    -0.001 A 
ENDROOT
TORSDOF 0
ENDMDL
