MODEL 1
REMARK minimizedAffinity -4.64392996
REMARK minimizedRMSD -1
REMARK  0 active torsions:
REMARK  status: ('A' for Active; 'I' for Inactive)
ROOT
ATOM      1  C   UNL d   1       0.697   0.286  -0.835  0.00  0.00     0.078 C 
ATOM      2  C1  UNL d   1       0.248  -0.078   0.548  0.00  0.00    -0.077 A 
ATOM      3  C2  UNL d   1       1.102  -0.753   1.429  0.00  0.00    -0.001 A 
ATOM      4  C3  UNL d   1       0.667  -1.095   2.711  0.00  0.00     0.003 A 
ATOM      5  C4  UNL d   1      -0.623  -0.767   3.123  0.00  0.00    -0.005 A 
ATOM      6  C5  UNL d   1      -1.481  -0.097   2.252  0.00  0.00     0.003 A 
ATOM      7  C6  UNL d   1      -1.048   0.245   0.970  0.00  0.00    -0.001 A 
ENDROOT
TORSDOF 0
ENDMDL
