MODEL 1
REMARK minimizedAffinity 3.22129989
REMARK minimizedRMSD -1
REMARK  0 active torsions:
REMARK  status: ('A' for Active; 'I' for Inactive)
ROOT
ATOM      1  C   UNL d   1       1.497  -0.526   2.307  0.00  0.00     0.023 A 
ATOM      2  C1  UNL d   1       0.535   0.483   2.271  0.00  0.00     0.003 A 
ATOM      3  C2  UNL d   1      -0.024   0.873   1.052  0.00  0.00     0.048 A 
ATOM      4  C3  UNL d   1       0.383   0.250  -0.127  0.00  0.00     0.023 A 
ATOM      5  C4  UNL d   1       1.345  -0.761  -0.095  0.00  0.00     0.048 A 
ATOM      6  C5  UNL d   1       1.902  -1.147   1.125  0.00  0.00     0.003 A 
ATOM      7  I   UNL d   1      -0.447   0.829  -1.942  0.00  0.00    -0.146 I 
ENDROOT
TORSDOF 0
ENDMDL
