MODEL 1
REMARK minimizedAffinity 3.80630159
REMARK minimizedRMSD -1
REMARK  0 active torsions:
REMARK  status: ('A' for Active; 'I' for Inactive)
ROOT
ATOM      1  C   UNL d   1      -3.112  -0.701  -2.841  0.00  0.00     0.023 A 
ATOM      2  C1  UNL d   1      -3.884  -0.768  -4.002  0.00  0.00     0.003 A 
ATOM      3  C2  UNL d   1      -4.298   0.406  -4.635  0.00  0.00     0.048 A 
ATOM      4  C3  UNL d   1      -3.936   1.643  -4.103  0.00  0.00     0.023 A 
ATOM      5  C4  UNL d   1      -3.164   1.714  -2.942  0.00  0.00     0.048 A 
ATOM      6  C5  UNL d   1      -2.753   0.538  -2.312  0.00  0.00     0.003 A 
ATOM      7  I   UNL d   1      -4.552   3.391  -5.043  0.00  0.00    -0.146 I 
ENDROOT
TORSDOF 0
ENDMDL
