MODEL 1
REMARK minimizedAffinity 3.82654691
REMARK minimizedRMSD -1
REMARK  0 active torsions:
REMARK  status: ('A' for Active; 'I' for Inactive)
ROOT
ATOM      1  C   UNL d   1       1.777  -0.654   2.641  0.00  0.00     0.023 A 
ATOM      2  C1  UNL d   1       2.122  -0.982   1.329  0.00  0.00     0.003 A 
ATOM      3  C2  UNL d   1       1.460  -0.376   0.260  0.00  0.00     0.048 A 
ATOM      4  C3  UNL d   1       0.455   0.558   0.508  0.00  0.00     0.023 A 
ATOM      5  C4  UNL d   1       0.107   0.890   1.818  0.00  0.00     0.048 A 
ATOM      6  C5  UNL d   1       0.771   0.281   2.885  0.00  0.00     0.003 A 
ATOM      7  I   UNL d   1      -0.532   1.461  -1.083  0.00  0.00    -0.146 I 
ENDROOT
TORSDOF 0
ENDMDL
