MODEL 1
REMARK minimizedAffinity 4.28807259
REMARK minimizedRMSD -1
REMARK  0 active torsions:
REMARK  status: ('A' for Active; 'I' for Inactive)
ROOT
ATOM      1  C   UNL d   1      -0.189   1.350   0.117  0.00  0.00     0.023 A 
ATOM      2  C1  UNL d   1      -0.074   1.470   1.502  0.00  0.00     0.003 A 
ATOM      3  C2  UNL d   1       0.986   0.856   2.172  0.00  0.00     0.048 A 
ATOM      4  C3  UNL d   1       1.929   0.124   1.451  0.00  0.00     0.023 A 
ATOM      5  C4  UNL d   1       1.819   0.002   0.065  0.00  0.00     0.048 A 
ATOM      6  C5  UNL d   1       0.757   0.617  -0.601  0.00  0.00     0.003 A 
ATOM      7  I   UNL d   1       3.507  -0.791   2.446  0.00  0.00    -0.146 I 
ENDROOT
TORSDOF 0
ENDMDL
