MODEL 1
REMARK minimizedAffinity 2.11259246
REMARK minimizedRMSD -1
REMARK  0 active torsions:
REMARK  status: ('A' for Active; 'I' for Inactive)
ROOT
ATOM      1  C   UNL d   1      -0.797   1.733  -0.383  0.00  0.00     0.023 A 
ATOM      2  C1  UNL d   1       0.046   0.820  -1.018  0.00  0.00     0.003 A 
ATOM      3  C2  UNL d   1       0.947   0.062  -0.268  0.00  0.00     0.048 A 
ATOM      4  C3  UNL d   1       1.000   0.221   1.116  0.00  0.00     0.023 A 
ATOM      5  C4  UNL d   1       0.157   1.132   1.756  0.00  0.00     0.048 A 
ATOM      6  C5  UNL d   1      -0.742   1.888   1.002  0.00  0.00     0.003 A 
ATOM      7  I   UNL d   1       2.340  -0.907   2.235  0.00  0.00    -0.146 I 
ENDROOT
TORSDOF 0
ENDMDL
