MODEL 1
REMARK minimizedAffinity 2.40866256
REMARK minimizedRMSD -1
REMARK  0 active torsions:
REMARK  status: ('A' for Active; 'I' for Inactive)
ROOT
ATOM      1  C   UNL d   1       1.010   1.340   2.271  0.00  0.00     0.023 A 
ATOM      2  C1  UNL d   1       1.153   0.046   1.770  0.00  0.00     0.003 A 
ATOM      3  C2  UNL d   1       0.628  -0.281   0.517  0.00  0.00     0.048 A 
ATOM      4  C3  UNL d   1      -0.037   0.692  -0.229  0.00  0.00     0.023 A 
ATOM      5  C4  UNL d   1      -0.181   1.988   0.269  0.00  0.00     0.048 A 
ATOM      6  C5  UNL d   1       0.344   2.310   1.522  0.00  0.00     0.003 A 
ATOM      7  I   UNL d   1      -0.818   0.208  -2.093  0.00  0.00    -0.146 I 
ENDROOT
TORSDOF 0
ENDMDL
