MODEL 1
REMARK minimizedAffinity 11.317461
REMARK minimizedRMSD -1
REMARK  0 active torsions:
REMARK  status: ('A' for Active; 'I' for Inactive)
ROOT
ATOM      1  C   UNL d   1      -5.801  -1.907   5.485  0.00  0.00     0.023 A 
ATOM      2  C1  UNL d   1      -5.932  -2.707   4.350  0.00  0.00     0.003 A 
ATOM      3  C2  UNL d   1      -5.990  -2.122   3.084  0.00  0.00     0.048 A 
ATOM      4  C3  UNL d   1      -5.914  -0.735   2.959  0.00  0.00     0.023 A 
ATOM      5  C4  UNL d   1      -5.782   0.070   4.092  0.00  0.00     0.048 A 
ATOM      6  C5  UNL d   1      -5.726  -0.520   5.356  0.00  0.00     0.003 A 
ATOM      7  I   UNL d   1      -5.999   0.139   1.076  0.00  0.00    -0.146 I 
ENDROOT
TORSDOF 0
ENDMDL
