MODEL 1
REMARK minimizedAffinity -2.20519876
REMARK minimizedRMSD -1
REMARK  0 active torsions:
REMARK  status: ('A' for Active; 'I' for Inactive)
ROOT
ATOM      1  C   UNL d   1       1.056   0.739   2.437  0.00  0.00     0.023 A 
ATOM      2  C1  UNL d   1       1.316  -0.405   1.682  0.00  0.00     0.003 A 
ATOM      3  C2  UNL d   1       0.859  -0.494   0.366  0.00  0.00     0.048 A 
ATOM      4  C3  UNL d   1       0.143   0.565  -0.190  0.00  0.00     0.023 A 
ATOM      5  C4  UNL d   1      -0.119   1.713   0.561  0.00  0.00     0.048 A 
ATOM      6  C5  UNL d   1       0.339   1.796   1.877  0.00  0.00     0.003 A 
ATOM      7  I   UNL d   1      -0.539   0.436  -2.149  0.00  0.00    -0.146 I 
ENDROOT
TORSDOF 0
ENDMDL
