MODEL 1
REMARK minimizedAffinity 8.34884548
REMARK minimizedRMSD -1
REMARK  3 active torsions:
REMARK  status: ('A' for Active; 'I' for Inactive)
REMARK    1  A    between atoms: C3'_2  and  C2'_3 
REMARK    2  A    between atoms: C2'_3  and  C1'_4 
REMARK    3  A    between atoms: C1'_4  and  C1_5 
ROOT
ATOM      1  C1  N4B d   1       2.655  -0.635   0.296  0.00  0.00    -0.075 A 
ATOM      2  C2  N4B d   1       2.264   0.642   0.756  0.00  0.00     0.002 A 
ATOM      3  C3  N4B d   1       2.614   1.764   0.046  0.00  0.00     0.002 A 
ATOM      4  C4  N4B d   1       3.366   1.637  -1.112  0.00  0.00    -0.004 A 
ATOM      5  C5  N4B d   1       3.718   0.398  -1.563  0.00  0.00     0.002 A 
ATOM      6  C6  N4B d   1       3.371  -0.739  -0.862  0.00  0.00     0.002 A 
ENDROOT
BRANCH   1   7
ATOM      7  C1' N4B d   1       2.371  -1.885   1.083  0.00  0.00     0.057 C 
BRANCH   7   8
ATOM      8  C2' N4B d   1       3.607  -2.258   1.895  0.00  0.00     0.009 C 
BRANCH   8   9
ATOM      9  C3' N4B d   1       4.629  -1.134   1.922  0.00  0.00     0.004 C 
ATOM     10  C4' N4B d   1       6.000  -1.585   1.513  0.00  0.00     0.003 C 
ENDBRANCH   8   9
ENDBRANCH   7   8
ENDBRANCH   1   7
TORSDOF 3
ENDMDL
