MODEL 1
REMARK minimizedAffinity 10.8013191
REMARK minimizedRMSD -1
REMARK  3 active torsions:
REMARK  status: ('A' for Active; 'I' for Inactive)
REMARK    1  A    between atoms: C3'_2  and  C2'_3 
REMARK    2  A    between atoms: C2'_3  and  C1'_4 
REMARK    3  A    between atoms: C1'_4  and  C1_5 
ROOT
ATOM      1  C1  N4B d   1       2.830   0.961  -0.250  0.00  0.00    -0.075 A 
ATOM      2  C2  N4B d   1       3.204   1.552  -1.477  0.00  0.00     0.002 A 
ATOM      3  C3  N4B d   1       4.303   2.373  -1.537  0.00  0.00     0.002 A 
ATOM      4  C4  N4B d   1       5.029   2.632  -0.384  0.00  0.00    -0.004 A 
ATOM      5  C5  N4B d   1       4.676   2.037   0.792  0.00  0.00     0.002 A 
ATOM      6  C6  N4B d   1       3.577   1.206   0.866  0.00  0.00     0.002 A 
ENDROOT
BRANCH   1   7
ATOM      7  C1' N4B d   1       1.587   0.124  -0.117  0.00  0.00     0.057 C 
BRANCH   7   8
ATOM      8  C2' N4B d   1       1.650  -0.664   1.188  0.00  0.00     0.009 C 
BRANCH   8   9
ATOM      9  C3' N4B d   1       2.528  -1.897   1.065  0.00  0.00     0.004 C 
ATOM     10  C4' N4B d   1       2.135  -2.987   2.017  0.00  0.00     0.003 C 
ENDBRANCH   8   9
ENDBRANCH   7   8
ENDBRANCH   1   7
TORSDOF 3
ENDMDL
