MODEL 1
REMARK minimizedAffinity 15.0226736
REMARK minimizedRMSD -1
REMARK  3 active torsions:
REMARK  status: ('A' for Active; 'I' for Inactive)
REMARK    1  A    between atoms: C3'_2  and  C2'_3 
REMARK    2  A    between atoms: C2'_3  and  C1'_4 
REMARK    3  A    between atoms: C1'_4  and  C1_5 
ROOT
ATOM      1  C1  N4B d   1       3.857   0.725   0.644  0.00  0.00    -0.075 A 
ATOM      2  C2  N4B d   1       3.392   1.313  -0.553  0.00  0.00     0.002 A 
ATOM      3  C3  N4B d   1       2.321   0.765  -1.216  0.00  0.00     0.002 A 
ATOM      4  C4  N4B d   1       1.713  -0.376  -0.713  0.00  0.00    -0.004 A 
ATOM      5  C5  N4B d   1       2.153  -0.922   0.457  0.00  0.00     0.002 A 
ATOM      6  C6  N4B d   1       3.225  -0.380   1.136  0.00  0.00     0.002 A 
ENDROOT
BRANCH   1   7
ATOM      7  C1' N4B d   1       5.078   1.237   1.358  0.00  0.00     0.057 C 
BRANCH   7   8
ATOM      8  C2' N4B d   1       5.028   2.761   1.405  0.00  0.00     0.009 C 
BRANCH   8   9
ATOM      9  C3' N4B d   1       4.084   3.266   2.483  0.00  0.00     0.004 C 
ATOM     10  C4' N4B d   1       3.112   4.288   1.972  0.00  0.00     0.003 C 
ENDBRANCH   8   9
ENDBRANCH   7   8
ENDBRANCH   1   7
TORSDOF 3
ENDMDL
