MODEL 1
REMARK minimizedAffinity 3.09871864
REMARK minimizedRMSD -1
REMARK  3 active torsions:
REMARK  status: ('A' for Active; 'I' for Inactive)
REMARK    1  A    between atoms: C3'_2  and  C2'_3 
REMARK    2  A    between atoms: C2'_3  and  C1'_4 
REMARK    3  A    between atoms: C1'_4  and  C1_5 
ROOT
ATOM      1  C1  N4B d   1      -3.517   0.842  -0.262  0.00  0.00    -0.075 A 
ATOM      2  C2  N4B d   1      -3.776   0.170  -1.478  0.00  0.00     0.002 A 
ATOM      3  C3  N4B d   1      -2.769  -0.003  -2.395  0.00  0.00     0.002 A 
ATOM      4  C4  N4B d   1      -1.504   0.501  -2.128  0.00  0.00    -0.004 A 
ATOM      5  C5  N4B d   1      -1.256   1.125  -0.941  0.00  0.00     0.002 A 
ATOM      6  C6  N4B d   1      -2.258   1.303  -0.008  0.00  0.00     0.002 A 
ENDROOT
BRANCH   1   7
ATOM      7  C1' N4B d   1      -4.607   1.130   0.733  0.00  0.00     0.057 C 
BRANCH   7   8
ATOM      8  C2' N4B d   1      -4.513   2.589   1.170  0.00  0.00     0.009 C 
BRANCH   8   9
ATOM      9  C3' N4B d   1      -4.880   2.770   2.633  0.00  0.00     0.004 C 
ATOM     10  C4' N4B d   1      -6.000   3.747   2.834  0.00  0.00     0.003 C 
ENDBRANCH   8   9
ENDBRANCH   7   8
ENDBRANCH   1   7
TORSDOF 3
ENDMDL
