MODEL 1
REMARK minimizedAffinity 5.0489006
REMARK minimizedRMSD -1
REMARK  0 active torsions:
REMARK  status: ('A' for Active; 'I' for Inactive)
ROOT
ATOM      1  C   UNL d   1      -1.160  -2.084   3.119  0.00  0.00    -0.002 A 
ATOM      2  C1  UNL d   1      -0.393  -3.240   3.084  0.00  0.00     0.010 A 
ATOM      3  C2  UNL d   1       0.798  -3.280   2.357  0.00  0.00     0.041 A 
ATOM      4  C3  UNL d   1       1.211  -2.127   1.660  0.00  0.00    -0.075 A 
ATOM      5  S   UNL d   1       2.634  -1.944   0.704  0.00  0.00     0.015 SA
ATOM      6  C4  UNL d   1       2.257  -0.327   0.320  0.00  0.00     0.022 A 
ATOM      7  C5  UNL d   1       1.078   0.080   0.898  0.00  0.00     0.026 A 
ATOM      8  C6  UNL d   1       0.456  -0.951   1.680  0.00  0.00    -0.082 A 
ATOM      9  C7  UNL d   1      -0.747  -0.942   2.426  0.00  0.00     0.045 A 
ENDROOT
TORSDOF 0
ENDMDL
