MODEL 1
REMARK minimizedAffinity -0.291498065
REMARK minimizedRMSD -1
REMARK  0 active torsions:
REMARK  status: ('A' for Active; 'I' for Inactive)
ROOT
ATOM      1  C   UNL d   1       5.210  -4.254   1.594  0.00  0.00    -0.002 A 
ATOM      2  C1  UNL d   1       4.700  -4.101   2.876  0.00  0.00     0.010 A 
ATOM      3  C2  UNL d   1       3.554  -3.335   3.097  0.00  0.00     0.041 A 
ATOM      4  C3  UNL d   1       2.921  -2.721   1.999  0.00  0.00    -0.075 A 
ATOM      5  S   UNL d   1       1.505  -1.738   2.030  0.00  0.00     0.015 SA
ATOM      6  C4  UNL d   1       1.543  -1.499   0.343  0.00  0.00     0.022 A 
ATOM      7  C5  UNL d   1       2.604  -2.146  -0.246  0.00  0.00     0.026 A 
ATOM      8  C6  UNL d   1       3.415  -2.861   0.699  0.00  0.00    -0.082 A 
ATOM      9  C7  UNL d   1       4.580  -3.643   0.507  0.00  0.00     0.045 A 
ENDROOT
TORSDOF 0
ENDMDL
