MODEL 1
REMARK minimizedAffinity 2.52430367
REMARK minimizedRMSD -1
REMARK  0 active torsions:
REMARK  status: ('A' for Active; 'I' for Inactive)
ROOT
ATOM      1  C   UNL d   1      -1.121  -0.712   2.785  0.00  0.00    -0.002 A 
ATOM      2  C1  UNL d   1      -1.446   0.132   1.733  0.00  0.00     0.010 A 
ATOM      3  C2  UNL d   1      -0.645   0.181   0.589  0.00  0.00     0.041 A 
ATOM      4  C3  UNL d   1       0.496  -0.642   0.520  0.00  0.00    -0.075 A 
ATOM      5  S   UNL d   1       1.622  -0.750  -0.781  0.00  0.00     0.015 SA
ATOM      6  C4  UNL d   1       2.559  -1.920   0.029  0.00  0.00     0.022 A 
ATOM      7  C5  UNL d   1       2.040  -2.233   1.263  0.00  0.00     0.026 A 
ATOM      8  C6  UNL d   1       0.842  -1.501   1.566  0.00  0.00    -0.082 A 
ATOM      9  C7  UNL d   1       0.011  -1.527   2.712  0.00  0.00     0.045 A 
ENDROOT
TORSDOF 0
ENDMDL
