MODEL 1
REMARK minimizedAffinity 8.72471905
REMARK minimizedRMSD -1
REMARK  0 active torsions:
REMARK  status: ('A' for Active; 'I' for Inactive)
ROOT
ATOM      1  C   UNL d   1       0.895   5.483   4.947  0.00  0.00    -0.002 A 
ATOM      2  C1  UNL d   1       1.892   5.422   5.910  0.00  0.00     0.010 A 
ATOM      3  C2  UNL d   1       3.237   5.525   5.548  0.00  0.00     0.041 A 
ATOM      4  C3  UNL d   1       3.565   5.694   4.188  0.00  0.00    -0.075 A 
ATOM      5  S   UNL d   1       5.143   5.844   3.511  0.00  0.00     0.015 SA
ATOM      6  C4  UNL d   1       4.531   5.993   1.928  0.00  0.00     0.022 A 
ATOM      7  C5  UNL d   1       3.158   5.932   1.898  0.00  0.00     0.026 A 
ATOM      8  C6  UNL d   1       2.578   5.759   3.200  0.00  0.00    -0.082 A 
ATOM      9  C7  UNL d   1       1.225   5.650   3.600  0.00  0.00     0.045 A 
ENDROOT
TORSDOF 0
ENDMDL
