MODEL 1
REMARK minimizedAffinity -2.19316053
REMARK minimizedRMSD -1
REMARK  0 active torsions:
REMARK  status: ('A' for Active; 'I' for Inactive)
ROOT
ATOM      1  C1  DEN d   1       1.661  -1.164   0.536  0.00  0.00     0.130 A 
ATOM      2  C2  DEN d   1       0.947  -0.156   1.315  0.00  0.00    -0.031 A 
ATOM      3  C3  DEN d   1       0.076   0.600   0.393  0.00  0.00     0.027 A 
ATOM      4  C4  DEN d   1      -0.237   0.307  -2.150  0.00  0.00     0.027 A 
ATOM      5  C5  DEN d   1       0.164  -0.411  -3.256  0.00  0.00    -0.003 A 
ATOM      6  C6  DEN d   1       1.109  -1.399  -3.181  0.00  0.00     0.001 A 
ATOM      7  C7  DEN d   1       1.653  -1.727  -1.967  0.00  0.00     0.017 A 
ATOM      8  C8  DEN d   1       1.259  -1.003  -0.850  0.00  0.00    -0.094 A 
ATOM      9  C9  DEN d   1       0.293  -0.016  -0.944  0.00  0.00    -0.072 A 
ENDROOT
TORSDOF 0
ENDMDL
