MODEL 1
REMARK minimizedAffinity -3.33927608
REMARK minimizedRMSD -1
REMARK  0 active torsions:
REMARK  status: ('A' for Active; 'I' for Inactive)
ROOT
ATOM      1  C1  DEN d   1       0.695  -1.319   0.414  0.00  0.00     0.130 A 
ATOM      2  C2  DEN d   1       0.595  -0.074   1.170  0.00  0.00    -0.031 A 
ATOM      3  C3  DEN d   1       0.537   1.043   0.205  0.00  0.00     0.027 A 
ATOM      4  C4  DEN d   1       0.588   0.964  -2.372  0.00  0.00     0.027 A 
ATOM      5  C5  DEN d   1       0.677   0.135  -3.468  0.00  0.00    -0.003 A 
ATOM      6  C6  DEN d   1       0.811  -1.223  -3.348  0.00  0.00     0.001 A 
ATOM      7  C7  DEN d   1       0.815  -1.797  -2.104  0.00  0.00     0.017 A 
ATOM      8  C8  DEN d   1       0.733  -0.966  -0.994  0.00  0.00    -0.094 A 
ATOM      9  C9  DEN d   1       0.585   0.403  -1.137  0.00  0.00    -0.072 A 
ENDROOT
TORSDOF 0
ENDMDL
