MODEL 1
REMARK minimizedAffinity -4.98163462
REMARK minimizedRMSD -1
REMARK  0 active torsions:
REMARK  status: ('A' for Active; 'I' for Inactive)
ROOT
ATOM      1  C1  DEN d   1      -0.569   0.270   3.176  0.00  0.00     0.130 A 
ATOM      2  C2  DEN d   1      -1.983   0.621   3.285  0.00  0.00    -0.031 A 
ATOM      3  C3  DEN d   1      -2.532   0.734   1.919  0.00  0.00     0.027 A 
ATOM      4  C4  DEN d   1      -1.338   0.397  -0.342  0.00  0.00     0.027 A 
ATOM      5  C5  DEN d   1      -0.135   0.101  -0.943  0.00  0.00    -0.003 A 
ATOM      6  C6  DEN d   1       1.007  -0.123  -0.220  0.00  0.00     0.001 A 
ATOM      7  C7  DEN d   1       0.959  -0.101   1.148  0.00  0.00     0.017 A 
ATOM      8  C8  DEN d   1      -0.250   0.204   1.761  0.00  0.00    -0.094 A 
ATOM      9  C9  DEN d   1      -1.395   0.416   1.013  0.00  0.00    -0.072 A 
ENDROOT
TORSDOF 0
ENDMDL
