MODEL 1
REMARK minimizedAffinity -0.977431715
REMARK minimizedRMSD -1
REMARK  0 active torsions:
REMARK  status: ('A' for Active; 'I' for Inactive)
ROOT
ATOM      1  C1  DEN d   1       0.739   0.391  -0.950  0.00  0.00     0.130 A 
ATOM      2  C2  DEN d   1      -0.233   0.574  -2.024  0.00  0.00    -0.031 A 
ATOM      3  C3  DEN d   1      -1.567   0.733  -1.410  0.00  0.00     0.027 A 
ATOM      4  C4  DEN d   1      -2.217   0.718   1.085  0.00  0.00     0.027 A 
ATOM      5  C5  DEN d   1      -1.737   0.583   2.370  0.00  0.00    -0.003 A 
ATOM      6  C6  DEN d   1      -0.415   0.343   2.634  0.00  0.00     0.001 A 
ATOM      7  C7  DEN d   1       0.482   0.275   1.601  0.00  0.00     0.017 A 
ATOM      8  C8  DEN d   1       0.005   0.403   0.303  0.00  0.00    -0.094 A 
ATOM      9  C9  DEN d   1      -1.333   0.657   0.057  0.00  0.00    -0.072 A 
ENDROOT
TORSDOF 0
ENDMDL
