MODEL 1
REMARK minimizedAffinity -2.89134717
REMARK minimizedRMSD -1
REMARK  0 active torsions:
REMARK  status: ('A' for Active; 'I' for Inactive)
ROOT
ATOM      1  C1  DEN d   1      -1.561   0.409  -1.091  0.00  0.00     0.130 A 
ATOM      2  C2  DEN d   1      -0.222   0.101  -1.586  0.00  0.00    -0.031 A 
ATOM      3  C3  DEN d   1       0.675  -0.034  -0.421  0.00  0.00     0.027 A 
ATOM      4  C4  DEN d   1       0.124   0.197   2.088  0.00  0.00     0.027 A 
ATOM      5  C5  DEN d   1      -0.875   0.463   2.997  0.00  0.00    -0.003 A 
ATOM      6  C6  DEN d   1      -2.155   0.761   2.610  0.00  0.00     0.001 A 
ATOM      7  C7  DEN d   1      -2.480   0.755   1.280  0.00  0.00     0.017 A 
ATOM      8  C8  DEN d   1      -1.476   0.495   0.356  0.00  0.00    -0.094 A 
ATOM      9  C9  DEN d   1      -0.192   0.184   0.768  0.00  0.00    -0.072 A 
ENDROOT
TORSDOF 0
ENDMDL
