MODEL 1
REMARK minimizedAffinity -3.56814694
REMARK minimizedRMSD -1
REMARK  0 active torsions:
REMARK  status: ('A' for Active; 'I' for Inactive)
ROOT
ATOM      1  C1  DEN d   1       0.636   0.471  -2.658  0.00  0.00     0.130 A 
ATOM      2  C2  DEN d   1       0.736  -0.826  -3.322  0.00  0.00    -0.031 A 
ATOM      3  C3  DEN d   1       0.881  -1.862  -2.280  0.00  0.00     0.027 A 
ATOM      4  C4  DEN d   1       0.953  -1.587   0.283  0.00  0.00     0.027 A 
ATOM      5  C5  DEN d   1       0.917  -0.676   1.316  0.00  0.00    -0.003 A 
ATOM      6  C6  DEN d   1       0.820   0.672   1.097  0.00  0.00     0.001 A 
ATOM      7  C7  DEN d   1       0.710   1.146  -0.184  0.00  0.00     0.017 A 
ATOM      8  C8  DEN d   1       0.753   0.234  -1.231  0.00  0.00    -0.094 A 
ATOM      9  C9  DEN d   1       0.839  -1.126  -0.988  0.00  0.00    -0.072 A 
ENDROOT
TORSDOF 0
ENDMDL
