MODEL 1
REMARK minimizedAffinity -4.06723404
REMARK minimizedRMSD -1
REMARK  0 active torsions:
REMARK  status: ('A' for Active; 'I' for Inactive)
ROOT
ATOM      1  C1  DEN d   1       0.071   0.427  -0.206  0.00  0.00     0.130 A 
ATOM      2  C2  DEN d   1       0.887  -0.186   0.839  0.00  0.00    -0.031 A 
ATOM      3  C3  DEN d   1       1.725  -1.228   0.211  0.00  0.00     0.027 A 
ATOM      4  C4  DEN d   1       1.840  -1.944  -2.264  0.00  0.00     0.027 A 
ATOM      5  C5  DEN d   1       1.326  -1.721  -3.522  0.00  0.00    -0.003 A 
ATOM      6  C6  DEN d   1       0.342  -0.797  -3.756  0.00  0.00     0.001 A 
ATOM      7  C7  DEN d   1      -0.128  -0.030  -2.722  0.00  0.00     0.017 A 
ATOM      8  C8  DEN d   1       0.379  -0.255  -1.450  0.00  0.00    -0.094 A 
ATOM      9  C9  DEN d   1       1.383  -1.185  -1.236  0.00  0.00    -0.072 A 
ENDROOT
TORSDOF 0
ENDMDL
