MODEL 1
REMARK minimizedAffinity -4.75449181
REMARK minimizedRMSD -1
REMARK  0 active torsions:
REMARK  status: ('A' for Active; 'I' for Inactive)
ROOT
ATOM      1  C1  DEN d   1       0.827  -1.555   0.607  0.00  0.00     0.130 A 
ATOM      2  C2  DEN d   1       0.411  -0.593   1.624  0.00  0.00    -0.031 A 
ATOM      3  C3  DEN d   1      -0.281   0.520   0.943  0.00  0.00     0.027 A 
ATOM      4  C4  DEN d   1      -0.749   0.842  -1.573  0.00  0.00     0.027 A 
ATOM      5  C5  DEN d   1      -0.577   0.296  -2.826  0.00  0.00    -0.003 A 
ATOM      6  C6  DEN d   1       0.099  -0.879  -3.024  0.00  0.00     0.001 A 
ATOM      7  C7  DEN d   1       0.589  -1.569  -1.947  0.00  0.00     0.017 A 
ATOM      8  C8  DEN d   1       0.426  -1.021  -0.682  0.00  0.00    -0.094 A 
ATOM      9  C9  DEN d   1      -0.271   0.161  -0.501  0.00  0.00    -0.072 A 
ENDROOT
TORSDOF 0
ENDMDL
