MODEL 1
REMARK minimizedAffinity -3.93955612
REMARK minimizedRMSD -1
REMARK  0 active torsions:
REMARK  status: ('A' for Active; 'I' for Inactive)
ROOT
ATOM      1  C1  DEN d   1      -2.559   0.675   0.313  0.00  0.00     0.130 A 
ATOM      2  C2  DEN d   1      -3.361   0.804   1.527  0.00  0.00    -0.031 A 
ATOM      3  C3  DEN d   1      -2.446   0.759   2.685  0.00  0.00     0.027 A 
ATOM      4  C4  DEN d   1       0.120   0.509   2.717  0.00  0.00     0.027 A 
ATOM      5  C5  DEN d   1       1.243   0.354   1.934  0.00  0.00    -0.003 A 
ATOM      6  C6  DEN d   1       1.174   0.262   0.569  0.00  0.00     0.001 A 
ATOM      7  C7  DEN d   1      -0.039   0.370  -0.058  0.00  0.00     0.017 A 
ATOM      8  C8  DEN d   1      -1.176   0.518   0.725  0.00  0.00    -0.094 A 
ATOM      9  C9  DEN d   1      -1.084   0.621   2.103  0.00  0.00    -0.072 A 
ENDROOT
TORSDOF 0
ENDMDL
