MODEL 1
REMARK minimizedAffinity -0.436657995
REMARK minimizedRMSD -1
REMARK  0 active torsions:
REMARK  status: ('A' for Active; 'I' for Inactive)
ROOT
ATOM      1  C1  DEN d   1      -0.632  -0.019  -0.714  0.00  0.00     0.130 A 
ATOM      2  C2  DEN d   1       0.774  -0.390  -0.850  0.00  0.00    -0.031 A 
ATOM      3  C3  DEN d   1       1.376  -0.401   0.499  0.00  0.00     0.027 A 
ATOM      4  C4  DEN d   1       0.272   0.113   2.772  0.00  0.00     0.027 A 
ATOM      5  C5  DEN d   1      -0.900   0.487   3.392  0.00  0.00    -0.003 A 
ATOM      6  C6  DEN d   1      -2.046   0.749   2.690  0.00  0.00     0.001 A 
ATOM      7  C7  DEN d   1      -2.058   0.598   1.328  0.00  0.00     0.017 A 
ATOM      8  C8  DEN d   1      -0.878   0.228   0.695  0.00  0.00    -0.094 A 
ATOM      9  C9  DEN d   1       0.267  -0.044   1.424  0.00  0.00    -0.072 A 
ENDROOT
TORSDOF 0
ENDMDL
