MODEL 1
REMARK minimizedAffinity -0.331095129
REMARK minimizedRMSD -1
REMARK  0 active torsions:
REMARK  status: ('A' for Active; 'I' for Inactive)
ROOT
ATOM      1  C1  DEN d   1      -0.966   0.928  -0.861  0.00  0.00     0.130 A 
ATOM      2  C2  DEN d   1      -0.395   0.166  -1.968  0.00  0.00    -0.031 A 
ATOM      3  C3  DEN d   1       0.737  -0.624  -1.443  0.00  0.00     0.027 A 
ATOM      4  C4  DEN d   1       1.653  -0.743   0.965  0.00  0.00     0.027 A 
ATOM      5  C5  DEN d   1       1.503  -0.266   2.248  0.00  0.00    -0.003 A 
ATOM      6  C6  DEN d   1       0.549   0.661   2.575  0.00  0.00     0.001 A 
ATOM      7  C7  DEN d   1      -0.322   1.106   1.616  0.00  0.00     0.017 A 
ATOM      8  C8  DEN d   1      -0.172   0.635   0.319  0.00  0.00    -0.094 A 
ATOM      9  C9  DEN d   1       0.791  -0.311   0.011  0.00  0.00    -0.072 A 
ENDROOT
TORSDOF 0
ENDMDL
