MODEL 1
REMARK minimizedAffinity -4.7048192
REMARK minimizedRMSD -1
REMARK  0 active torsions:
REMARK  status: ('A' for Active; 'I' for Inactive)
ROOT
ATOM      1  C1  DEN d   1      -2.388   0.598   2.925  0.00  0.00     0.130 A 
ATOM      2  C2  DEN d   1      -3.463   0.812   1.960  0.00  0.00    -0.031 A 
ATOM      3  C3  DEN d   1      -2.889   0.697   0.604  0.00  0.00     0.027 A 
ATOM      4  C4  DEN d   1      -0.454   0.205  -0.091  0.00  0.00     0.027 A 
ATOM      5  C5  DEN d   1       0.819  -0.038   0.375  0.00  0.00    -0.003 A 
ATOM      6  C6  DEN d   1       1.117  -0.053   1.712  0.00  0.00     0.001 A 
ATOM      7  C7  DEN d   1       0.119   0.136   2.632  0.00  0.00     0.017 A 
ATOM      8  C8  DEN d   1      -1.166   0.389   2.169  0.00  0.00    -0.094 A 
ATOM      9  C9  DEN d   1      -1.449   0.387   0.814  0.00  0.00    -0.072 A 
ENDROOT
TORSDOF 0
ENDMDL
