MODEL 1
REMARK minimizedAffinity -2.21235824
REMARK minimizedRMSD -1
REMARK  0 active torsions:
REMARK  status: ('A' for Active; 'I' for Inactive)
ROOT
ATOM      1  C1  DEN d   1      -0.245  -1.255  -0.711  0.00  0.00     0.130 A 
ATOM      2  C2  DEN d   1      -0.095   0.087  -0.155  0.00  0.00    -0.031 A 
ATOM      3  C3  DEN d   1       0.602   0.920  -1.155  0.00  0.00     0.027 A 
ATOM      4  C4  DEN d   1       1.457   0.267  -3.500  0.00  0.00     0.027 A 
ATOM      5  C5  DEN d   1       1.570  -0.764  -4.406  0.00  0.00    -0.003 A 
ATOM      6  C6  DEN d   1       1.120  -2.029  -4.133  0.00  0.00     0.001 A 
ATOM      7  C7  DEN d   1       0.495  -2.285  -2.941  0.00  0.00     0.017 A 
ATOM      8  C8  DEN d   1       0.384  -1.252  -2.019  0.00  0.00    -0.094 A 
ATOM      9  C9  DEN d   1       0.834   0.022  -2.319  0.00  0.00    -0.072 A 
ENDROOT
TORSDOF 0
ENDMDL
