MODEL 1
REMARK minimizedAffinity -2.32962298
REMARK minimizedRMSD -1
REMARK  0 active torsions:
REMARK  status: ('A' for Active; 'I' for Inactive)
ROOT
ATOM      1  C1  DEN d   1      -2.358   0.527   0.091  0.00  0.00     0.130 A 
ATOM      2  C2  DEN d   1      -3.260   0.790   1.209  0.00  0.00    -0.031 A 
ATOM      3  C3  DEN d   1      -2.469   0.748   2.455  0.00  0.00     0.027 A 
ATOM      4  C4  DEN d   1       0.054   0.307   2.761  0.00  0.00     0.027 A 
ATOM      5  C5  DEN d   1       1.231   0.021   2.105  0.00  0.00    -0.003 A 
ATOM      6  C6  DEN d   1       1.288  -0.149   0.747  0.00  0.00     0.001 A 
ATOM      7  C7  DEN d   1       0.154   0.010  -0.005  0.00  0.00     0.017 A 
ATOM      8  C8  DEN d   1      -1.038   0.292   0.650  0.00  0.00    -0.094 A 
ATOM      9  C9  DEN d   1      -1.073   0.472   2.022  0.00  0.00    -0.072 A 
ENDROOT
TORSDOF 0
ENDMDL
