MODEL 1
REMARK minimizedAffinity -5.48379326
REMARK minimizedRMSD -1
REMARK  0 active torsions:
REMARK  status: ('A' for Active; 'I' for Inactive)
ROOT
ATOM      1  C1  DEN d   1       1.538  -0.880   0.395  0.00  0.00     0.130 A 
ATOM      2  C2  DEN d   1       0.373  -0.255   1.015  0.00  0.00    -0.031 A 
ATOM      3  C3  DEN d   1      -0.504   0.246  -0.063  0.00  0.00     0.027 A 
ATOM      4  C4  DEN d   1      -0.175   0.110  -2.617  0.00  0.00     0.027 A 
ATOM      5  C5  DEN d   1       0.666  -0.319  -3.619  0.00  0.00    -0.003 A 
ATOM      6  C6  DEN d   1       1.864  -0.930  -3.356  0.00  0.00     0.001 A 
ATOM      7  C7  DEN d   1       2.232  -1.169  -2.059  0.00  0.00     0.017 A 
ATOM      8  C8  DEN d   1       1.392  -0.733  -1.042  0.00  0.00    -0.094 A 
ATOM      9  C9  DEN d   1       0.180  -0.128  -1.330  0.00  0.00    -0.072 A 
ENDROOT
TORSDOF 0
ENDMDL
