MODEL 1
REMARK minimizedAffinity -6.09092951
REMARK minimizedRMSD -1
REMARK  2 active torsions:
REMARK  status: ('A' for Active; 'I' for Inactive)
REMARK    1  A    between atoms: C2'_3  and  C1'_4 
REMARK    2  A    between atoms: C1'_4  and  C1_5 
ROOT
ATOM      1  C1  I4B d   1      -0.378  -0.229   0.661  0.00  0.00    -0.075 A 
ATOM      2  C2  I4B d   1      -0.454  -1.567   0.364  0.00  0.00     0.003 A 
ATOM      3  C3  I4B d   1      -1.612  -2.307   0.702  0.00  0.00     0.002 A 
ATOM      4  C4  I4B d   1      -2.644  -1.685   1.376  0.00  0.00    -0.004 A 
ATOM      5  C5  I4B d   1      -2.575  -0.324   1.656  0.00  0.00     0.002 A 
ATOM      6  C6  I4B d   1      -1.440   0.413   1.286  0.00  0.00     0.003 A 
ENDROOT
BRANCH   1   7
ATOM      7  C1' I4B d   1       0.874   0.516   0.320  0.00  0.00     0.060 C 
BRANCH   7   8
ATOM      8  C2' I4B d   1       0.476   1.864  -0.245  0.00  0.00    -0.013 C 
ATOM      9  C4' I4B d   1       0.760   2.971   0.736  0.00  0.00     0.013 C 
ATOM     10  C3' I4B d   1       1.229   2.070  -1.525  0.00  0.00     0.013 C 
ENDBRANCH   7   8
ENDBRANCH   1   7
TORSDOF 2
ENDMDL
