MODEL 1
REMARK minimizedAffinity -5.41985846
REMARK minimizedRMSD -1
REMARK  2 active torsions:
REMARK  status: ('A' for Active; 'I' for Inactive)
REMARK    1  A    between atoms: C2'_3  and  C1'_4 
REMARK    2  A    between atoms: C1'_4  and  C1_5 
ROOT
ATOM      1  C1  I4B d   1       1.086   1.589  -1.420  0.00  0.00    -0.075 A 
ATOM      2  C2  I4B d   1       2.227   1.099  -2.006  0.00  0.00     0.003 A 
ATOM      3  C3  I4B d   1       2.556   1.457  -3.336  0.00  0.00     0.002 A 
ATOM      4  C4  I4B d   1       1.696   2.261  -4.055  0.00  0.00    -0.004 A 
ATOM      5  C5  I4B d   1       0.552   2.776  -3.452  0.00  0.00     0.002 A 
ATOM      6  C6  I4B d   1       0.251   2.448  -2.123  0.00  0.00     0.003 A 
ENDROOT
BRANCH   1   7
ATOM      7  C1' I4B d   1       0.752   1.164  -0.025  0.00  0.00     0.060 C 
BRANCH   7   8
ATOM      8  C2' I4B d   1       0.317  -0.286  -0.071  0.00  0.00    -0.013 C 
ATOM      9  C4' I4B d   1       1.276  -1.167   0.684  0.00  0.00     0.013 C 
ATOM     10  C3' I4B d   1      -1.065  -0.372   0.505  0.00  0.00     0.013 C 
ENDBRANCH   7   8
ENDBRANCH   1   7
TORSDOF 2
ENDMDL
