MODEL 1
REMARK minimizedAffinity -3.77985287
REMARK minimizedRMSD -1
REMARK  2 active torsions:
REMARK  status: ('A' for Active; 'I' for Inactive)
REMARK    1  A    between atoms: C2'_3  and  C1'_4 
REMARK    2  A    between atoms: C1'_4  and  C1_5 
ROOT
ATOM      1  C1  I4B d   1       0.743   0.529  -0.453  0.00  0.00    -0.075 A 
ATOM      2  C2  I4B d   1      -0.590   0.824  -0.312  0.00  0.00     0.003 A 
ATOM      3  C3  I4B d   1      -1.466  -0.110   0.291  0.00  0.00     0.002 A 
ATOM      4  C4  I4B d   1      -0.981  -1.339   0.691  0.00  0.00    -0.004 A 
ATOM      5  C5  I4B d   1       0.376  -1.627   0.568  0.00  0.00     0.002 A 
ATOM      6  C6  I4B d   1       1.246  -0.682   0.004  0.00  0.00     0.003 A 
ENDROOT
BRANCH   1   7
ATOM      7  C1' I4B d   1       1.634   1.525  -1.125  0.00  0.00     0.060 C 
BRANCH   7   8
ATOM      8  C2' I4B d   1       1.560   1.285  -2.619  0.00  0.00    -0.013 C 
ATOM      9  C4' I4B d   1       0.793   2.382  -3.310  0.00  0.00     0.013 C 
ATOM     10  C3' I4B d   1       2.962   1.191  -3.143  0.00  0.00     0.013 C 
ENDBRANCH   7   8
ENDBRANCH   1   7
TORSDOF 2
ENDMDL
