MODEL 1
REMARK minimizedAffinity -3.58274579
REMARK minimizedRMSD -1
REMARK  2 active torsions:
REMARK  status: ('A' for Active; 'I' for Inactive)
REMARK    1  A    between atoms: C2'_3  and  C1'_4 
REMARK    2  A    between atoms: C1'_4  and  C1_5 
ROOT
ATOM      1  C1  I4B d   1       0.470   1.693  -1.501  0.00  0.00    -0.075 A 
ATOM      2  C2  I4B d   1       1.810   1.739  -1.795  0.00  0.00     0.003 A 
ATOM      3  C3  I4B d   1       2.243   2.102  -3.094  0.00  0.00     0.002 A 
ATOM      4  C4  I4B d   1       1.307   2.362  -4.074  0.00  0.00    -0.004 A 
ATOM      5  C5  I4B d   1      -0.051   2.338  -3.768  0.00  0.00     0.002 A 
ATOM      6  C6  I4B d   1      -0.472   2.013  -2.470  0.00  0.00     0.003 A 
ENDROOT
BRANCH   1   7
ATOM      7  C1' I4B d   1       0.047   1.273  -0.129  0.00  0.00     0.060 C 
BRANCH   7   8
ATOM      8  C2' I4B d   1      -0.996   0.184  -0.275  0.00  0.00    -0.013 C 
ATOM      9  C4' I4B d   1      -0.420  -1.169   0.054  0.00  0.00     0.013 C 
ATOM     10  C3' I4B d   1      -2.144   0.518   0.629  0.00  0.00     0.013 C 
ENDBRANCH   7   8
ENDBRANCH   1   7
TORSDOF 2
ENDMDL
