MODEL 1
REMARK minimizedAffinity -2.96521306
REMARK minimizedRMSD -1
REMARK  2 active torsions:
REMARK  status: ('A' for Active; 'I' for Inactive)
REMARK    1  A    between atoms: C2'_3  and  C1'_4 
REMARK    2  A    between atoms: C1'_4  and  C1_5 
ROOT
ATOM      1  C1  I4B d   1       1.203   1.800  -2.638  0.00  0.00    -0.075 A 
ATOM      2  C2  I4B d   1       2.469   1.987  -2.142  0.00  0.00     0.003 A 
ATOM      3  C3  I4B d   1       3.396   2.798  -2.840  0.00  0.00     0.002 A 
ATOM      4  C4  I4B d   1       3.034   3.359  -4.047  0.00  0.00    -0.004 A 
ATOM      5  C5  I4B d   1       1.742   3.188  -4.538  0.00  0.00     0.002 A 
ATOM      6  C6  I4B d   1       0.817   2.414  -3.823  0.00  0.00     0.003 A 
ENDROOT
BRANCH   1   7
ATOM      7  C1' I4B d   1       0.260   0.910  -1.892  0.00  0.00     0.060 C 
BRANCH   7   8
ATOM      8  C2' I4B d   1       0.559   1.050  -0.413  0.00  0.00    -0.013 C 
ATOM      9  C4' I4B d   1      -0.569   1.739   0.308  0.00  0.00     0.013 C 
ATOM     10  C3' I4B d   1       0.797  -0.323   0.143  0.00  0.00     0.013 C 
ENDBRANCH   7   8
ENDBRANCH   1   7
TORSDOF 2
ENDMDL
