MODEL 1
REMARK minimizedAffinity -3.86403513
REMARK minimizedRMSD -1
REMARK  2 active torsions:
REMARK  status: ('A' for Active; 'I' for Inactive)
REMARK    1  A    between atoms: C2'_3  and  C1'_4 
REMARK    2  A    between atoms: C1'_4  and  C1_5 
ROOT
ATOM      1  C1  I4B d   1       0.481   0.366   0.179  0.00  0.00    -0.075 A 
ATOM      2  C2  I4B d   1       1.355  -0.683   0.043  0.00  0.00     0.003 A 
ATOM      3  C3  I4B d   1       1.015  -1.964   0.543  0.00  0.00     0.002 A 
ATOM      4  C4  I4B d   1      -0.180  -2.137   1.212  0.00  0.00    -0.004 A 
ATOM      5  C5  I4B d   1      -1.075  -1.077   1.328  0.00  0.00     0.002 A 
ATOM      6  C6  I4B d   1      -0.748   0.179   0.798  0.00  0.00     0.003 A 
ENDROOT
BRANCH   1   7
ATOM      7  C1' I4B d   1       0.886   1.713  -0.331  0.00  0.00     0.060 C 
BRANCH   7   8
ATOM      8  C2' I4B d   1       1.456   1.532  -1.723  0.00  0.00    -0.013 C 
ATOM      9  C4' I4B d   1       0.651   2.291  -2.745  0.00  0.00     0.013 C 
ATOM     10  C3' I4B d   1       2.882   1.997  -1.704  0.00  0.00     0.013 C 
ENDBRANCH   7   8
ENDBRANCH   1   7
TORSDOF 2
ENDMDL
