MODEL 1
REMARK minimizedAffinity -4.61207676
REMARK minimizedRMSD -1
REMARK  2 active torsions:
REMARK  status: ('A' for Active; 'I' for Inactive)
REMARK    1  A    between atoms: C2'_3  and  C1'_4 
REMARK    2  A    between atoms: C1'_4  and  C1_5 
ROOT
ATOM      1  C1  I4B d   1       0.450   0.675  -0.445  0.00  0.00    -0.075 A 
ATOM      2  C2  I4B d   1      -0.905   0.639  -0.229  0.00  0.00     0.003 A 
ATOM      3  C3  I4B d   1      -1.512  -0.529   0.293  0.00  0.00     0.002 A 
ATOM      4  C4  I4B d   1      -0.739  -1.647   0.536  0.00  0.00    -0.004 A 
ATOM      5  C5  I4B d   1       0.638  -1.600   0.338  0.00  0.00     0.002 A 
ATOM      6  C6  I4B d   1       1.239  -0.428  -0.144  0.00  0.00     0.003 A 
ENDROOT
BRANCH   1   7
ATOM      7  C1' I4B d   1       1.054   1.913  -1.028  0.00  0.00     0.060 C 
BRANCH   7   8
ATOM      8  C2' I4B d   1       1.543   1.582  -2.423  0.00  0.00    -0.013 C 
ATOM      9  C4' I4B d   1       0.692   2.247  -3.472  0.00  0.00     0.013 C 
ATOM     10  C3' I4B d   1       2.974   2.020  -2.528  0.00  0.00     0.013 C 
ENDBRANCH   7   8
ENDBRANCH   1   7
TORSDOF 2
ENDMDL
