MODEL 1
REMARK minimizedAffinity -2.33388948
REMARK minimizedRMSD -1
REMARK  2 active torsions:
REMARK  status: ('A' for Active; 'I' for Inactive)
REMARK    1  A    between atoms: C2'_3  and  C1'_4 
REMARK    2  A    between atoms: C1'_4  and  C1_5 
ROOT
ATOM      1  C1  I4B d   1       0.945   1.548  -1.506  0.00  0.00    -0.075 A 
ATOM      2  C2  I4B d   1       2.300   1.699  -1.666  0.00  0.00     0.003 A 
ATOM      3  C3  I4B d   1       2.820   2.240  -2.867  0.00  0.00     0.002 A 
ATOM      4  C4  I4B d   1       1.958   2.568  -3.893  0.00  0.00    -0.004 A 
ATOM      5  C5  I4B d   1       0.583   2.436  -3.720  0.00  0.00     0.002 A 
ATOM      6  C6  I4B d   1       0.072   1.934  -2.514  0.00  0.00     0.003 A 
ENDROOT
BRANCH   1   7
ATOM      7  C1' I4B d   1       0.433   0.942  -0.237  0.00  0.00     0.060 C 
BRANCH   7   8
ATOM      8  C2' I4B d   1       0.652  -0.555  -0.314  0.00  0.00    -0.013 C 
ATOM      9  C4' I4B d   1      -0.086  -1.271   0.787  0.00  0.00     0.013 C 
ATOM     10  C3' I4B d   1       0.196  -1.022  -1.664  0.00  0.00     0.013 C 
ENDBRANCH   7   8
ENDBRANCH   1   7
TORSDOF 2
ENDMDL
