MODEL 1
REMARK minimizedAffinity -2.50011587
REMARK minimizedRMSD -1
REMARK  2 active torsions:
REMARK  status: ('A' for Active; 'I' for Inactive)
REMARK    1  A    between atoms: C2'_3  and  C1'_4 
REMARK    2  A    between atoms: C1'_4  and  C1_5 
ROOT
ATOM      1  C1  I4B d   1       0.441   0.268  -0.113  0.00  0.00    -0.075 A 
ATOM      2  C2  I4B d   1       1.156  -0.875  -0.370  0.00  0.00     0.003 A 
ATOM      3  C3  I4B d   1       0.782  -2.101   0.234  0.00  0.00     0.002 A 
ATOM      4  C4  I4B d   1      -0.275  -2.127   1.120  0.00  0.00    -0.004 A 
ATOM      5  C5  I4B d   1      -1.013  -0.972   1.362  0.00  0.00     0.002 A 
ATOM      6  C6  I4B d   1      -0.661   0.231   0.732  0.00  0.00     0.003 A 
ENDROOT
BRANCH   1   7
ATOM      7  C1' I4B d   1       0.883   1.551  -0.741  0.00  0.00     0.060 C 
BRANCH   7   8
ATOM      8  C2' I4B d   1       1.365   1.242  -2.144  0.00  0.00    -0.013 C 
ATOM      9  C4' I4B d   1       0.314   1.581  -3.168  0.00  0.00     0.013 C 
ATOM     10  C3' I4B d   1       2.624   2.020  -2.382  0.00  0.00     0.013 C 
ENDBRANCH   7   8
ENDBRANCH   1   7
TORSDOF 2
ENDMDL
