MODEL 1
REMARK minimizedAffinity -5.65789032
REMARK minimizedRMSD -1
REMARK  2 active torsions:
REMARK  status: ('A' for Active; 'I' for Inactive)
REMARK    1  A    between atoms: C2'_3  and  C1'_4 
REMARK    2  A    between atoms: C1'_4  and  C1_5 
ROOT
ATOM      1  C1  I4B d   1       0.209   0.334  -0.074  0.00  0.00    -0.075 A 
ATOM      2  C2  I4B d   1      -1.077  -0.051   0.211  0.00  0.00     0.003 A 
ATOM      3  C3  I4B d   1      -1.350  -1.380   0.618  0.00  0.00     0.002 A 
ATOM      4  C4  I4B d   1      -0.320  -2.297   0.677  0.00  0.00    -0.004 A 
ATOM      5  C5  I4B d   1       0.986  -1.899   0.409  0.00  0.00     0.002 A 
ATOM      6  C6  I4B d   1       1.255  -0.572   0.044  0.00  0.00     0.003 A 
ENDROOT
BRANCH   1   7
ATOM      7  C1' I4B d   1       0.457   1.736  -0.532  0.00  0.00     0.060 C 
BRANCH   7   8
ATOM      8  C2' I4B d   1       1.067   1.674  -1.918  0.00  0.00    -0.013 C 
ATOM      9  C4' I4B d   1       0.057   2.033  -2.975  0.00  0.00     0.013 C 
ATOM     10  C3' I4B d   1       2.240   2.608  -1.950  0.00  0.00     0.013 C 
ENDBRANCH   7   8
ENDBRANCH   1   7
TORSDOF 2
ENDMDL
