MODEL 1
REMARK minimizedAffinity -3.79872656
REMARK minimizedRMSD -1
REMARK  2 active torsions:
REMARK  status: ('A' for Active; 'I' for Inactive)
REMARK    1  A    between atoms: C2'_3  and  C1'_4 
REMARK    2  A    between atoms: C1'_4  and  C1_5 
ROOT
ATOM      1  C1  I4B d   1       0.695   0.272  -0.480  0.00  0.00    -0.075 A 
ATOM      2  C2  I4B d   1       1.614   1.170   0.001  0.00  0.00     0.003 A 
ATOM      3  C3  I4B d   1       1.908   2.349  -0.726  0.00  0.00     0.002 A 
ATOM      4  C4  I4B d   1       1.300   2.563  -1.946  0.00  0.00    -0.004 A 
ATOM      5  C5  I4B d   1       0.351   1.663  -2.422  0.00  0.00     0.002 A 
ATOM      6  C6  I4B d   1       0.037   0.516  -1.679  0.00  0.00     0.003 A 
ENDROOT
BRANCH   1   7
ATOM      7  C1' I4B d   1       0.433  -0.979   0.298  0.00  0.00     0.060 C 
BRANCH   7   8
ATOM      8  C2' I4B d   1      -1.049  -1.282   0.210  0.00  0.00    -0.013 C 
ATOM      9  C4' I4B d   1      -1.382  -2.579   0.899  0.00  0.00     0.013 C 
ATOM     10  C3' I4B d   1      -1.793  -0.135   0.827  0.00  0.00     0.013 C 
ENDBRANCH   7   8
ENDBRANCH   1   7
TORSDOF 2
ENDMDL
