MODEL 1
REMARK minimizedAffinity 6.74220753
REMARK minimizedRMSD -1
REMARK  0 active torsions:
REMARK  status: ('A' for Active; 'I' for Inactive)
ROOT
ATOM      1  O1  BZF d   1      -0.324   0.852   4.714  0.00  0.00    -0.204 OA
ATOM      2  C2  BZF d   1       0.964   0.354   4.729  0.00  0.00     0.174 A 
ATOM      3  C3  BZF d   1       1.568   0.554   3.539  0.00  0.00    -0.012 A 
ATOM      4  C3A BZF d   1       0.628   1.301   2.761  0.00  0.00    -0.107 A 
ATOM      5  C4  BZF d   1       0.655   1.815   1.496  0.00  0.00     0.055 A 
ATOM      6  C5  BZF d   1      -0.455   2.429   1.009  0.00  0.00    -0.016 A 
ATOM      7  C6  BZF d   1      -1.609   2.543   1.757  0.00  0.00     0.022 A 
ATOM      8  C7  BZF d   1      -1.682   2.053   3.018  0.00  0.00     0.029 A 
ATOM      9  C7A BZF d   1      -0.551   1.461   3.525  0.00  0.00     0.058 A 
ENDROOT
TORSDOF 0
ENDMDL
