MODEL 1
REMARK minimizedAffinity -3.52009153
REMARK minimizedRMSD -1
REMARK  0 active torsions:
REMARK  status: ('A' for Active; 'I' for Inactive)
ROOT
ATOM      1  O1  BZF d   1       2.156   1.359   0.230  0.00  0.00    -0.204 OA
ATOM      2  C2  BZF d   1       1.053   2.165   0.438  0.00  0.00     0.174 A 
ATOM      3  C3  BZF d   1      -0.086   1.449   0.351  0.00  0.00    -0.012 A 
ATOM      4  C3A BZF d   1       0.334   0.094   0.164  0.00  0.00    -0.107 A 
ATOM      5  C4  BZF d   1      -0.337  -1.087   0.025  0.00  0.00     0.055 A 
ATOM      6  C5  BZF d   1       0.368  -2.223  -0.216  0.00  0.00    -0.016 A 
ATOM      7  C6  BZF d   1       1.742  -2.215  -0.329  0.00  0.00     0.022 A 
ATOM      8  C7  BZF d   1       2.453  -1.068  -0.194  0.00  0.00     0.029 A 
ATOM      9  C7A BZF d   1       1.746   0.076   0.083  0.00  0.00     0.058 A 
ENDROOT
TORSDOF 0
ENDMDL
