MODEL 1
REMARK minimizedAffinity 5.53244495
REMARK minimizedRMSD -1
REMARK  0 active torsions:
REMARK  status: ('A' for Active; 'I' for Inactive)
ROOT
ATOM      1  O1  BZF d   1       1.818   1.642  -0.510  0.00  0.00    -0.204 OA
ATOM      2  C2  BZF d   1       1.739   2.343   0.678  0.00  0.00     0.174 A 
ATOM      3  C3  BZF d   1       1.946   1.525   1.730  0.00  0.00    -0.012 A 
ATOM      4  C3A BZF d   1       2.260   0.251   1.161  0.00  0.00    -0.107 A 
ATOM      5  C4  BZF d   1       2.579  -0.964   1.697  0.00  0.00     0.055 A 
ATOM      6  C5  BZF d   1       2.757  -2.026   0.868  0.00  0.00    -0.016 A 
ATOM      7  C6  BZF d   1       2.619  -1.910  -0.500  0.00  0.00     0.022 A 
ATOM      8  C7  BZF d   1       2.308  -0.724  -1.078  0.00  0.00     0.029 A 
ATOM      9  C7A BZF d   1       2.160   0.358  -0.245  0.00  0.00     0.058 A 
ENDROOT
TORSDOF 0
ENDMDL
