MODEL 1
REMARK minimizedAffinity 3.78578186
REMARK minimizedRMSD -1
REMARK  0 active torsions:
REMARK  status: ('A' for Active; 'I' for Inactive)
ROOT
ATOM      1  O1  BZF d   1       1.801   1.420   1.304  0.00  0.00    -0.204 OA
ATOM      2  C2  BZF d   1       1.911   1.928   0.023  0.00  0.00     0.174 A 
ATOM      3  C3  BZF d   1       0.704   2.300  -0.449  0.00  0.00    -0.012 A 
ATOM      4  C3A BZF d   1      -0.205   2.092   0.636  0.00  0.00    -0.107 A 
ATOM      5  C4  BZF d   1      -1.547   2.292   0.788  0.00  0.00     0.055 A 
ATOM      6  C5  BZF d   1      -2.144   1.918   1.951  0.00  0.00    -0.016 A 
ATOM      7  C6  BZF d   1      -1.430   1.337   2.978  0.00  0.00     0.022 A 
ATOM      8  C7  BZF d   1      -0.096   1.123   2.876  0.00  0.00     0.029 A 
ATOM      9  C7A BZF d   1       0.516   1.530   1.716  0.00  0.00     0.058 A 
ENDROOT
TORSDOF 0
ENDMDL
