MODEL 1
REMARK minimizedAffinity -0.486495614
REMARK minimizedRMSD -1
REMARK  0 active torsions:
REMARK  status: ('A' for Active; 'I' for Inactive)
ROOT
ATOM      1  O1  BZF d   1       1.909  -2.937   0.341  0.00  0.00    -0.204 OA
ATOM      2  C2  BZF d   1       2.335  -1.652   0.066  0.00  0.00     0.174 A 
ATOM      3  C3  BZF d   1       1.589  -1.101  -0.913  0.00  0.00    -0.012 A 
ATOM      4  C3A BZF d   1       0.579  -2.069  -1.208  0.00  0.00    -0.107 A 
ATOM      5  C4  BZF d   1      -0.471  -2.095  -2.082  0.00  0.00     0.055 A 
ATOM      6  C5  BZF d   1      -1.225  -3.222  -2.175  0.00  0.00    -0.016 A 
ATOM      7  C6  BZF d   1      -0.955  -4.341  -1.414  0.00  0.00     0.022 A 
ATOM      8  C7  BZF d   1       0.072  -4.361  -0.530  0.00  0.00     0.029 A 
ATOM      9  C7A BZF d   1       0.815  -3.213  -0.410  0.00  0.00     0.058 A 
ENDROOT
TORSDOF 0
ENDMDL
