MODEL 1
REMARK minimizedAffinity 7.94931746
REMARK minimizedRMSD -1
REMARK  0 active torsions:
REMARK  status: ('A' for Active; 'I' for Inactive)
ROOT
ATOM      1  O1  BZF d   1       1.741  -2.400  -0.278  0.00  0.00    -0.204 OA
ATOM      2  C2  BZF d   1       1.946  -1.383   0.634  0.00  0.00     0.174 A 
ATOM      3  C3  BZF d   1       1.104  -0.355   0.402  0.00  0.00    -0.012 A 
ATOM      4  C3A BZF d   1       0.262  -0.793  -0.668  0.00  0.00    -0.107 A 
ATOM      5  C4  BZF d   1      -0.782  -0.219  -1.336  0.00  0.00     0.055 A 
ATOM      6  C5  BZF d   1      -1.342  -0.883  -2.381  0.00  0.00    -0.016 A 
ATOM      7  C6  BZF d   1      -0.881  -2.117  -2.789  0.00  0.00     0.022 A 
ATOM      8  C7  BZF d   1       0.149  -2.728  -2.154  0.00  0.00     0.029 A 
ATOM      9  C7A BZF d   1       0.696  -2.075  -1.077  0.00  0.00     0.058 A 
ENDROOT
TORSDOF 0
ENDMDL
