MODEL 1
REMARK minimizedAffinity 4.42535734
REMARK minimizedRMSD -1
REMARK  0 active torsions:
REMARK  status: ('A' for Active; 'I' for Inactive)
ROOT
ATOM      1  O1  BZF d   1      -2.833   1.404   0.893  0.00  0.00    -0.204 OA
ATOM      2  C2  BZF d   1      -4.098   1.234   1.423  0.00  0.00     0.174 A 
ATOM      3  C3  BZF d   1      -4.149   1.686   2.693  0.00  0.00    -0.012 A 
ATOM      4  C3A BZF d   1      -2.859   2.253   2.943  0.00  0.00    -0.107 A 
ATOM      5  C4  BZF d   1      -2.301   2.876   4.022  0.00  0.00     0.055 A 
ATOM      6  C5  BZF d   1      -0.994   3.246   3.968  0.00  0.00    -0.016 A 
ATOM      7  C6  BZF d   1      -0.217   3.005   2.854  0.00  0.00     0.022 A 
ATOM      8  C7  BZF d   1      -0.728   2.395   1.757  0.00  0.00     0.029 A 
ATOM      9  C7A BZF d   1      -2.057   2.049   1.796  0.00  0.00     0.058 A 
ENDROOT
TORSDOF 0
ENDMDL
