MODEL 1
REMARK minimizedAffinity 2.86883926
REMARK minimizedRMSD -1
REMARK  0 active torsions:
REMARK  status: ('A' for Active; 'I' for Inactive)
ROOT
ATOM      1  O1  BZF d   1      -0.492   1.342   1.121  0.00  0.00    -0.204 OA
ATOM      2  C2  BZF d   1       0.512   2.153   0.629  0.00  0.00     0.174 A 
ATOM      3  C3  BZF d   1       1.297   1.474  -0.232  0.00  0.00    -0.012 A 
ATOM      4  C3A BZF d   1       0.693   0.182  -0.351  0.00  0.00    -0.107 A 
ATOM      5  C4  BZF d   1       1.001  -0.935  -1.075  0.00  0.00     0.055 A 
ATOM      6  C5  BZF d   1       0.251  -2.056  -0.910  0.00  0.00    -0.016 A 
ATOM      7  C6  BZF d   1      -0.809  -2.097  -0.028  0.00  0.00     0.022 A 
ATOM      8  C7  BZF d   1      -1.156  -1.013   0.707  0.00  0.00     0.029 A 
ATOM      9  C7A BZF d   1      -0.420   0.131   0.519  0.00  0.00     0.058 A 
ENDROOT
TORSDOF 0
ENDMDL
