MODEL 1
REMARK minimizedAffinity 5.36742163
REMARK minimizedRMSD -1
REMARK  0 active torsions:
REMARK  status: ('A' for Active; 'I' for Inactive)
ROOT
ATOM      1  O1  BZF d   1       0.022   4.035   1.101  0.00  0.00    -0.204 OA
ATOM      2  C2  BZF d   1      -0.289   4.446   2.383  0.00  0.00     0.174 A 
ATOM      3  C3  BZF d   1      -0.040   3.464   3.273  0.00  0.00    -0.012 A 
ATOM      4  C3A BZF d   1       0.544   2.403   2.510  0.00  0.00    -0.107 A 
ATOM      5  C4  BZF d   1       1.020   1.165   2.835  0.00  0.00     0.055 A 
ATOM      6  C5  BZF d   1       1.458   0.345   1.843  0.00  0.00    -0.016 A 
ATOM      7  C6  BZF d   1       1.429   0.728   0.518  0.00  0.00     0.022 A 
ATOM      8  C7  BZF d   1       0.970   1.949   0.148  0.00  0.00     0.029 A 
ATOM      9  C7A BZF d   1       0.558   2.792   1.151  0.00  0.00     0.058 A 
ENDROOT
TORSDOF 0
ENDMDL
