MODEL 1
REMARK minimizedAffinity -2.61833596
REMARK minimizedRMSD -1
REMARK  0 active torsions:
REMARK  status: ('A' for Active; 'I' for Inactive)
ROOT
ATOM      1  C1  DEN d   1       2.227   2.074   2.189  0.00  0.00     0.130 A 
ATOM      2  C2  DEN d   1       2.820   3.211   1.491  0.00  0.00    -0.031 A 
ATOM      3  C3  DEN d   1       2.346   3.186   0.092  0.00  0.00     0.027 A 
ATOM      4  C4  DEN d   1       0.755   1.509  -1.052  0.00  0.00     0.027 A 
ATOM      5  C5  DEN d   1       0.006   0.368  -0.868  0.00  0.00    -0.003 A 
ATOM      6  C6  DEN d   1      -0.029  -0.298   0.328  0.00  0.00     0.001 A 
ATOM      7  C7  DEN d   1       0.665   0.197   1.401  0.00  0.00     0.017 A 
ATOM      8  C8  DEN d   1       1.429   1.343   1.221  0.00  0.00    -0.094 A 
ATOM      9  C9  DEN d   1       1.440   2.009   0.008  0.00  0.00    -0.072 A 
ENDROOT
TORSDOF 0
ENDMDL
