MODEL 1
REMARK minimizedAffinity 1.27803433
REMARK minimizedRMSD -1
REMARK  0 active torsions:
REMARK  status: ('A' for Active; 'I' for Inactive)
ROOT
ATOM      1  C1  DEN d   1       2.608   1.686  -0.056  0.00  0.00     0.130 A 
ATOM      2  C2  DEN d   1       2.724   2.284   1.271  0.00  0.00    -0.031 A 
ATOM      3  C3  DEN d   1       1.553   1.862   2.066  0.00  0.00     0.027 A 
ATOM      4  C4  DEN d   1      -0.415   0.344   1.376  0.00  0.00     0.027 A 
ATOM      5  C5  DEN d   1      -0.957  -0.392   0.345  0.00  0.00    -0.003 A 
ATOM      6  C6  DEN d   1      -0.372  -0.458  -0.891  0.00  0.00     0.001 A 
ATOM      7  C7  DEN d   1       0.816   0.186  -1.116  0.00  0.00     0.017 A 
ATOM      8  C8  DEN d   1       1.365   0.936  -0.084  0.00  0.00    -0.094 A 
ATOM      9  C9  DEN d   1       0.764   0.981   1.163  0.00  0.00    -0.072 A 
ENDROOT
TORSDOF 0
ENDMDL
