MODEL 1
REMARK minimizedAffinity -3.67703724
REMARK minimizedRMSD -1
REMARK  0 active torsions:
REMARK  status: ('A' for Active; 'I' for Inactive)
ROOT
ATOM      1  C1  DEN d   1      -1.105  -1.006  -2.504  0.00  0.00     0.130 A 
ATOM      2  C2  DEN d   1      -2.515  -1.378  -2.424  0.00  0.00    -0.031 A 
ATOM      3  C3  DEN d   1      -3.036  -0.916  -1.122  0.00  0.00     0.027 A 
ATOM      4  C4  DEN d   1      -1.805   0.339   0.766  0.00  0.00     0.027 A 
ATOM      5  C5  DEN d   1      -0.595   0.865   1.161  0.00  0.00    -0.003 A 
ATOM      6  C6  DEN d   1       0.529   0.775   0.383  0.00  0.00     0.001 A 
ATOM      7  C7  DEN d   1       0.455   0.185  -0.851  0.00  0.00     0.017 A 
ATOM      8  C8  DEN d   1      -0.760  -0.355  -1.253  0.00  0.00    -0.094 A 
ATOM      9  C9  DEN d   1      -1.888  -0.243  -0.457  0.00  0.00    -0.072 A 
ENDROOT
TORSDOF 0
ENDMDL
