MODEL 1
REMARK minimizedAffinity -3.47836828
REMARK minimizedRMSD -1
REMARK  0 active torsions:
REMARK  status: ('A' for Active; 'I' for Inactive)
ROOT
ATOM      1  C1  DEN d   1       0.617   3.047   0.509  0.00  0.00     0.130 A 
ATOM      2  C2  DEN d   1       1.751   2.949   1.423  0.00  0.00    -0.031 A 
ATOM      3  C3  DEN d   1       2.004   1.517   1.683  0.00  0.00     0.027 A 
ATOM      4  C4  DEN d   1       0.760  -0.545   0.760  0.00  0.00     0.027 A 
ATOM      5  C5  DEN d   1      -0.278  -0.963  -0.043  0.00  0.00    -0.003 A 
ATOM      6  C6  DEN d   1      -1.105  -0.081  -0.686  0.00  0.00     0.001 A 
ATOM      7  C7  DEN d   1      -0.880   1.266  -0.573  0.00  0.00     0.017 A 
ATOM      8  C8  DEN d   1       0.160   1.695   0.241  0.00  0.00    -0.094 A 
ATOM      9  C9  DEN d   1       0.993   0.787   0.873  0.00  0.00    -0.072 A 
ENDROOT
TORSDOF 0
ENDMDL
