MODEL 1
REMARK minimizedAffinity -4.87155724
REMARK minimizedRMSD -1
REMARK  0 active torsions:
REMARK  status: ('A' for Active; 'I' for Inactive)
ROOT
ATOM      1  C1  DEN d   1      -1.959  -1.027   0.911  0.00  0.00     0.130 A 
ATOM      2  C2  DEN d   1      -3.036  -0.929  -0.070  0.00  0.00    -0.031 A 
ATOM      3  C3  DEN d   1      -2.496  -0.269  -1.276  0.00  0.00     0.027 A 
ATOM      4  C4  DEN d   1      -0.109   0.601  -1.719  0.00  0.00     0.027 A 
ATOM      5  C5  DEN d   1       1.149   0.752  -1.178  0.00  0.00    -0.003 A 
ATOM      6  C6  DEN d   1       1.448   0.354   0.098  0.00  0.00     0.001 A 
ATOM      7  C7  DEN d   1       0.488  -0.255   0.861  0.00  0.00     0.017 A 
ATOM      8  C8  DEN d   1      -0.785  -0.404   0.326  0.00  0.00    -0.094 A 
ATOM      9  C9  DEN d   1      -1.064  -0.007  -0.970  0.00  0.00    -0.072 A 
ENDROOT
TORSDOF 0
ENDMDL
