MODEL 1
REMARK minimizedAffinity -2.50870943
REMARK minimizedRMSD -1
REMARK  0 active torsions:
REMARK  status: ('A' for Active; 'I' for Inactive)
ROOT
ATOM      1  C1  DEN d   1       0.020   0.058  -1.947  0.00  0.00     0.130 A 
ATOM      2  C2  DEN d   1       1.338   0.132  -1.323  0.00  0.00    -0.031 A 
ATOM      3  C3  DEN d   1       1.246  -0.493   0.012  0.00  0.00     0.027 A 
ATOM      4  C4  DEN d   1      -0.797  -1.567   1.164  0.00  0.00     0.027 A 
ATOM      5  C5  DEN d   1      -2.137  -1.855   1.031  0.00  0.00    -0.003 A 
ATOM      6  C6  DEN d   1      -2.854  -1.500  -0.080  0.00  0.00     0.001 A 
ATOM      7  C7  DEN d   1      -2.224  -0.874  -1.123  0.00  0.00     0.017 A 
ATOM      8  C8  DEN d   1      -0.874  -0.572  -0.993  0.00  0.00    -0.094 A 
ATOM      9  C9  DEN d   1      -0.164  -0.951   0.133  0.00  0.00    -0.072 A 
ENDROOT
TORSDOF 0
ENDMDL
