MODEL 1
REMARK minimizedAffinity -5.55853558
REMARK minimizedRMSD -1
REMARK  0 active torsions:
REMARK  status: ('A' for Active; 'I' for Inactive)
ROOT
ATOM      1  C1  DEN d   1      -1.467   1.813  -0.751  0.00  0.00     0.130 A 
ATOM      2  C2  DEN d   1      -2.332   0.638  -0.818  0.00  0.00    -0.031 A 
ATOM      3  C3  DEN d   1      -1.566  -0.521  -0.317  0.00  0.00     0.027 A 
ATOM      4  C4  DEN d   1       0.860  -0.610   0.555  0.00  0.00     0.027 A 
ATOM      5  C5  DEN d   1       1.995   0.133   0.792  0.00  0.00    -0.003 A 
ATOM      6  C6  DEN d   1       2.067   1.470   0.501  0.00  0.00     0.001 A 
ATOM      7  C7  DEN d   1       0.968   2.115  -0.001  0.00  0.00     0.017 A 
ATOM      8  C8  DEN d   1      -0.178   1.372  -0.249  0.00  0.00    -0.094 A 
ATOM      9  C9  DEN d   1      -0.235   0.024   0.063  0.00  0.00    -0.072 A 
ENDROOT
TORSDOF 0
ENDMDL
