MODEL 1
REMARK minimizedAffinity -6.25830507
REMARK minimizedRMSD -1
REMARK  0 active torsions:
REMARK  status: ('A' for Active; 'I' for Inactive)
ROOT
ATOM      1  C1  DEN d   1      -0.819  -1.179   1.360  0.00  0.00     0.130 A 
ATOM      2  C2  DEN d   1       0.589  -0.904   1.090  0.00  0.00    -0.031 A 
ATOM      3  C3  DEN d   1       0.685  -0.292  -0.251  0.00  0.00     0.027 A 
ATOM      4  C4  DEN d   1      -1.201   0.256  -1.923  0.00  0.00     0.027 A 
ATOM      5  C5  DEN d   1      -2.559   0.194  -2.143  0.00  0.00    -0.003 A 
ATOM      6  C6  DEN d   1      -3.422  -0.356  -1.233  0.00  0.00     0.001 A 
ATOM      7  C7  DEN d   1      -2.940  -0.826  -0.040  0.00  0.00     0.017 A 
ATOM      8  C8  DEN d   1      -1.571  -0.774   0.187  0.00  0.00    -0.094 A 
ATOM      9  C9  DEN d   1      -0.717  -0.202  -0.741  0.00  0.00    -0.072 A 
ENDROOT
TORSDOF 0
ENDMDL
