MODEL 1
REMARK minimizedAffinity -6.41893005
REMARK minimizedRMSD -1
REMARK  0 active torsions:
REMARK  status: ('A' for Active; 'I' for Inactive)
ROOT
ATOM      1  C1  DEN d   1       1.180   0.449  -0.467  0.00  0.00     0.130 A 
ATOM      2  C2  DEN d   1       1.002  -0.279   0.786  0.00  0.00    -0.031 A 
ATOM      3  C3  DEN d   1      -0.397  -0.750   0.846  0.00  0.00     0.027 A 
ATOM      4  C4  DEN d   1      -2.292  -0.428  -0.873  0.00  0.00     0.027 A 
ATOM      5  C5  DEN d   1      -2.624   0.133  -2.087  0.00  0.00    -0.003 A 
ATOM      6  C6  DEN d   1      -1.728   0.860  -2.824  0.00  0.00     0.001 A 
ATOM      7  C7  DEN d   1      -0.442   1.009  -2.375  0.00  0.00     0.017 A 
ATOM      8  C8  DEN d   1      -0.102   0.454  -1.148  0.00  0.00    -0.094 A 
ATOM      9  C9  DEN d   1      -1.019  -0.289  -0.424  0.00  0.00    -0.072 A 
ENDROOT
TORSDOF 0
ENDMDL
