MODEL 1
REMARK minimizedAffinity -1.85373914
REMARK minimizedRMSD -1
REMARK  0 active torsions:
REMARK  status: ('A' for Active; 'I' for Inactive)
ROOT
ATOM      1  C1  DEN d   1      -1.634   0.039  -1.848  0.00  0.00     0.130 A 
ATOM      2  C2  DEN d   1      -2.705  -0.941  -1.695  0.00  0.00    -0.031 A 
ATOM      3  C3  DEN d   1      -2.409  -1.759  -0.502  0.00  0.00     0.027 A 
ATOM      4  C4  DEN d   1      -0.409  -1.601   1.118  0.00  0.00     0.027 A 
ATOM      5  C5  DEN d   1       0.765  -0.933   1.391  0.00  0.00    -0.003 A 
ATOM      6  C6  DEN d   1       1.234   0.075   0.591  0.00  0.00     0.001 A 
ATOM      7  C7  DEN d   1       0.503   0.475  -0.497  0.00  0.00     0.017 A 
ATOM      8  C8  DEN d   1      -0.677  -0.199  -0.783  0.00  0.00    -0.094 A 
ATOM      9  C9  DEN d   1      -1.141  -1.207   0.045  0.00  0.00    -0.072 A 
ENDROOT
TORSDOF 0
ENDMDL
