MODEL 1
REMARK minimizedAffinity -2.08561945
REMARK minimizedRMSD -1
REMARK  0 active torsions:
REMARK  status: ('A' for Active; 'I' for Inactive)
ROOT
ATOM      1  C1  DEN d   1      -1.075  -1.442  -1.044  0.00  0.00     0.130 A 
ATOM      2  C2  DEN d   1      -2.337  -1.154  -1.719  0.00  0.00    -0.031 A 
ATOM      3  C3  DEN d   1      -2.548   0.307  -1.689  0.00  0.00     0.027 A 
ATOM      4  C4  DEN d   1      -1.047   2.142  -0.672  0.00  0.00     0.027 A 
ATOM      5  C5  DEN d   1       0.121   2.383   0.016  0.00  0.00    -0.003 A 
ATOM      6  C6  DEN d   1       0.949   1.371   0.426  0.00  0.00     0.001 A 
ATOM      7  C7  DEN d   1       0.643   0.074   0.111  0.00  0.00     0.017 A 
ATOM      8  C8  DEN d   1      -0.537  -0.177  -0.576  0.00  0.00    -0.094 A 
ATOM      9  C9  DEN d   1      -1.355   0.860  -0.992  0.00  0.00    -0.072 A 
ENDROOT
TORSDOF 0
ENDMDL
