MODEL 1
REMARK minimizedAffinity -5.31490898
REMARK minimizedRMSD -1
REMARK  0 active torsions:
REMARK  status: ('A' for Active; 'I' for Inactive)
ROOT
ATOM      1  C1  DEN d   1      -0.561   1.292   1.395  0.00  0.00     0.130 A 
ATOM      2  C2  DEN d   1       0.808   1.380   0.894  0.00  0.00    -0.031 A 
ATOM      3  C3  DEN d   1       0.860   0.695  -0.413  0.00  0.00     0.027 A 
ATOM      4  C4  DEN d   1      -1.037  -0.483  -1.705  0.00  0.00     0.027 A 
ATOM      5  C5  DEN d   1      -2.370  -0.827  -1.675  0.00  0.00    -0.003 A 
ATOM      6  C6  DEN d   1      -3.180  -0.521  -0.613  0.00  0.00     0.001 A 
ATOM      7  C7  DEN d   1      -2.673   0.189   0.444  0.00  0.00     0.017 A 
ATOM      8  C8  DEN d   1      -1.328   0.533   0.424  0.00  0.00    -0.094 A 
ATOM      9  C9  DEN d   1      -0.529   0.225  -0.664  0.00  0.00    -0.072 A 
ENDROOT
TORSDOF 0
ENDMDL
