MODEL 1
REMARK minimizedAffinity -5.18198538
REMARK minimizedRMSD -1
REMARK  0 active torsions:
REMARK  status: ('A' for Active; 'I' for Inactive)
ROOT
ATOM      1  C1  DEN d   1       1.502  -0.439   0.575  0.00  0.00     0.130 A 
ATOM      2  C2  DEN d   1       0.515  -0.801   1.588  0.00  0.00    -0.031 A 
ATOM      3  C3  DEN d   1       0.250   0.393   2.416  0.00  0.00     0.027 A 
ATOM      4  C4  DEN d   1       1.264   2.756   2.224  0.00  0.00     0.027 A 
ATOM      5  C5  DEN d   1       2.154   3.543   1.527  0.00  0.00    -0.003 A 
ATOM      6  C6  DEN d   1       2.907   3.053   0.493  0.00  0.00     0.001 A 
ATOM      7  C7  DEN d   1       2.752   1.751   0.098  0.00  0.00     0.017 A 
ATOM      8  C8  DEN d   1       1.862   0.949   0.802  0.00  0.00    -0.094 A 
ATOM      9  C9  DEN d   1       1.101   1.467   1.836  0.00  0.00    -0.072 A 
ENDROOT
TORSDOF 0
ENDMDL
