MODEL 1
REMARK minimizedAffinity -3.19369006
REMARK minimizedRMSD -1
REMARK  0 active torsions:
REMARK  status: ('A' for Active; 'I' for Inactive)
ROOT
ATOM      1  C1  DEN d   1      -0.335  -1.125   1.867  0.00  0.00     0.130 A 
ATOM      2  C2  DEN d   1      -1.758  -1.154   1.540  0.00  0.00    -0.031 A 
ATOM      3  C3  DEN d   1      -1.978  -0.266   0.380  0.00  0.00     0.027 A 
ATOM      4  C4  DEN d   1      -0.262   1.140  -0.935  0.00  0.00     0.027 A 
ATOM      5  C5  DEN d   1       1.065   1.498  -1.022  0.00  0.00    -0.003 A 
ATOM      6  C6  DEN d   1       2.005   1.037  -0.139  0.00  0.00     0.001 A 
ATOM      7  C7  DEN d   1       1.639   0.156   0.843  0.00  0.00     0.017 A 
ATOM      8  C8  DEN d   1       0.301  -0.204   0.942  0.00  0.00    -0.094 A 
ATOM      9  C9  DEN d   1      -0.632   0.263   0.032  0.00  0.00    -0.072 A 
ENDROOT
TORSDOF 0
ENDMDL
