MODEL 1
REMARK minimizedAffinity -2.25865793
REMARK minimizedRMSD -1
REMARK  0 active torsions:
REMARK  status: ('A' for Active; 'I' for Inactive)
ROOT
ATOM      1  C1  DEN d   1      -0.460  -1.081   0.088  0.00  0.00     0.130 A 
ATOM      2  C2  DEN d   1      -0.327   0.324   0.461  0.00  0.00    -0.031 A 
ATOM      3  C3  DEN d   1      -1.139   1.125  -0.477  0.00  0.00     0.027 A 
ATOM      4  C4  DEN d   1      -2.586   0.329  -2.457  0.00  0.00     0.027 A 
ATOM      5  C5  DEN d   1      -3.003  -0.772  -3.172  0.00  0.00    -0.003 A 
ATOM      6  C6  DEN d   1      -2.578  -2.040  -2.874  0.00  0.00     0.001 A 
ATOM      7  C7  DEN d   1      -1.745  -2.243  -1.805  0.00  0.00     0.017 A 
ATOM      8  C8  DEN d   1      -1.315  -1.136  -1.084  0.00  0.00    -0.094 A 
ATOM      9  C9  DEN d   1      -1.765   0.136  -1.394  0.00  0.00    -0.072 A 
ENDROOT
TORSDOF 0
ENDMDL
