MODEL 1
REMARK minimizedAffinity -0.888684332
REMARK minimizedRMSD -1
REMARK  1 active torsions:
REMARK  status: ('A' for Active; 'I' for Inactive)
REMARK    1  A    between atoms: C3_4  and  O_7 
ROOT
ATOM      1  C   UNL d   1       2.920   2.910   1.287  0.00  0.00    -0.033 A 
ATOM      2  C1  UNL d   1       2.159   2.328   2.303  0.00  0.00     0.039 A 
ATOM      3  C2  UNL d   1       1.319   1.250   2.018  0.00  0.00    -0.080 A 
ATOM      4  C3  UNL d   1       1.250   0.763   0.716  0.00  0.00     0.150 A 
ATOM      5  C4  UNL d   1       2.008   1.336  -0.300  0.00  0.00    -0.007 A 
ATOM      6  C5  UNL d   1       2.845   2.413  -0.014  0.00  0.00     0.039 A 
ENDROOT
BRANCH   4   7
ATOM      7  O   UNL d   1       0.441  -0.284   0.388  0.00  0.00    -0.526 OA
ATOM      8  H5  UNL d   1      -0.044  -0.559   1.184  0.00  0.00     0.418 HD
ENDBRANCH   4   7
TORSDOF 1
ENDMDL
