MODEL 1
REMARK minimizedAffinity -2.3289454
REMARK minimizedRMSD -1
REMARK  1 active torsions:
REMARK  status: ('A' for Active; 'I' for Inactive)
REMARK    1  A    between atoms: C3_4  and  O_7 
ROOT
ATOM      1  C   UNL d   1       0.817  -0.156   0.341  0.00  0.00    -0.033 A 
ATOM      2  C1  UNL d   1       0.516   0.432  -0.889  0.00  0.00     0.039 A 
ATOM      3  C2  UNL d   1      -0.783   0.369  -1.396  0.00  0.00    -0.080 A 
ATOM      4  C3  UNL d   1      -1.771  -0.284  -0.665  0.00  0.00     0.150 A 
ATOM      5  C4  UNL d   1      -1.480  -0.869   0.563  0.00  0.00    -0.007 A 
ATOM      6  C5  UNL d   1      -0.182  -0.805   1.068  0.00  0.00     0.039 A 
ENDROOT
BRANCH   4   7
ATOM      7  O   UNL d   1      -3.052  -0.376  -1.121  0.00  0.00    -0.526 OA
ATOM      8  H5  UNL d   1      -3.099   0.048  -1.995  0.00  0.00     0.418 HD
ENDBRANCH   4   7
TORSDOF 1
ENDMDL
