MODEL 1
REMARK minimizedAffinity -1.33907044
REMARK minimizedRMSD -1
REMARK  1 active torsions:
REMARK  status: ('A' for Active; 'I' for Inactive)
REMARK    1  A    between atoms: C3_4  and  O_7 
ROOT
ATOM      1  C   UNL d   1      -0.713  -0.212  -1.377  0.00  0.00    -0.033 A 
ATOM      2  C1  UNL d   1       0.326   0.078  -0.491  0.00  0.00     0.039 A 
ATOM      3  C2  UNL d   1       0.534  -0.727   0.631  0.00  0.00    -0.080 A 
ATOM      4  C3  UNL d   1      -0.302  -1.818   0.854  0.00  0.00     0.150 A 
ATOM      5  C4  UNL d   1      -1.337  -2.114  -0.026  0.00  0.00    -0.007 A 
ATOM      6  C5  UNL d   1      -1.544  -1.309  -1.146  0.00  0.00     0.039 A 
ENDROOT
BRANCH   4   7
ATOM      7  O   UNL d   1      -0.141  -2.629   1.938  0.00  0.00    -0.526 OA
ATOM      8  H5  UNL d   1       0.594  -2.286   2.473  0.00  0.00     0.418 HD
ENDBRANCH   4   7
TORSDOF 1
ENDMDL
