MODEL 1
REMARK minimizedAffinity -2.68370128
REMARK minimizedRMSD -1
REMARK  1 active torsions:
REMARK  status: ('A' for Active; 'I' for Inactive)
REMARK    1  A    between atoms: C3_4  and  O_7 
ROOT
ATOM      1  C   UNL d   1       1.010  -0.028  -0.188  0.00  0.00    -0.033 A 
ATOM      2  C1  UNL d   1       0.239  -0.735   0.737  0.00  0.00     0.039 A 
ATOM      3  C2  UNL d   1      -1.093  -1.039   0.451  0.00  0.00    -0.080 A 
ATOM      4  C3  UNL d   1      -1.641  -0.631  -0.762  0.00  0.00     0.150 A 
ATOM      5  C4  UNL d   1      -0.878   0.070  -1.690  0.00  0.00    -0.007 A 
ATOM      6  C5  UNL d   1       0.452   0.373  -1.402  0.00  0.00     0.039 A 
ENDROOT
BRANCH   4   7
ATOM      7  O   UNL d   1      -2.939  -0.900  -1.084  0.00  0.00    -0.526 OA
ATOM      8  H5  UNL d   1      -3.351  -1.364  -0.336  0.00  0.00     0.418 HD
ENDBRANCH   4   7
TORSDOF 1
ENDMDL
