MODEL 1
REMARK minimizedAffinity -3.46078134
REMARK minimizedRMSD -1
REMARK  1 active torsions:
REMARK  status: ('A' for Active; 'I' for Inactive)
REMARK    1  A    between atoms: C3_4  and  O_7 
ROOT
ATOM      1  C   UNL d   1       1.365   0.198  -0.133  0.00  0.00    -0.033 A 
ATOM      2  C1  UNL d   1       0.185   0.929   0.014  0.00  0.00     0.039 A 
ATOM      3  C2  UNL d   1       0.226   2.228   0.524  0.00  0.00    -0.080 A 
ATOM      4  C3  UNL d   1       1.451   2.784   0.882  0.00  0.00     0.150 A 
ATOM      5  C4  UNL d   1       2.631   2.063   0.734  0.00  0.00    -0.007 A 
ATOM      6  C5  UNL d   1       2.589   0.765   0.225  0.00  0.00     0.039 A 
ENDROOT
BRANCH   4   7
ATOM      7  O   UNL d   1       1.540   4.046   1.389  0.00  0.00    -0.526 OA
ATOM      8  H5  UNL d   1       0.643   4.413   1.461  0.00  0.00     0.418 HD
ENDBRANCH   4   7
TORSDOF 1
ENDMDL
