MODEL 1
REMARK minimizedAffinity -1.60762298
REMARK minimizedRMSD -1
REMARK  1 active torsions:
REMARK  status: ('A' for Active; 'I' for Inactive)
REMARK    1  A    between atoms: C3_4  and  O_7 
ROOT
ATOM      1  C   UNL d   1       0.505   1.305   0.726  0.00  0.00    -0.033 A 
ATOM      2  C1  UNL d   1       0.831   1.144   2.075  0.00  0.00     0.039 A 
ATOM      3  C2  UNL d   1       0.880  -0.134   2.635  0.00  0.00    -0.080 A 
ATOM      4  C3  UNL d   1       0.603  -1.240   1.837  0.00  0.00     0.150 A 
ATOM      5  C4  UNL d   1       0.281  -1.087   0.493  0.00  0.00    -0.007 A 
ATOM      6  C5  UNL d   1       0.232   0.189  -0.065  0.00  0.00     0.039 A 
ENDROOT
BRANCH   4   7
ATOM      7  O   UNL d   1       0.633  -2.507   2.341  0.00  0.00    -0.526 OA
ATOM      8  H5  UNL d   1       0.841  -2.457   3.288  0.00  0.00     0.418 HD
ENDBRANCH   4   7
TORSDOF 1
ENDMDL
