MODEL 1
REMARK minimizedAffinity -1.99207473
REMARK minimizedRMSD -1
REMARK  1 active torsions:
REMARK  status: ('A' for Active; 'I' for Inactive)
REMARK    1  A    between atoms: C3_4  and  O_7 
ROOT
ATOM      1  C   UNL d   1      -0.131   0.093  -2.161  0.00  0.00    -0.033 A 
ATOM      2  C1  UNL d   1      -1.156   0.655  -1.397  0.00  0.00     0.039 A 
ATOM      3  C2  UNL d   1      -0.964   0.892  -0.035  0.00  0.00    -0.080 A 
ATOM      4  C3  UNL d   1       0.255   0.564   0.551  0.00  0.00     0.150 A 
ATOM      5  C4  UNL d   1       1.282   0.007  -0.205  0.00  0.00    -0.007 A 
ATOM      6  C5  UNL d   1       1.088  -0.230  -1.565  0.00  0.00     0.039 A 
ENDROOT
BRANCH   4   7
ATOM      7  O   UNL d   1       0.488   0.772   1.878  0.00  0.00    -0.526 OA
ATOM      8  H5  UNL d   1      -0.320   1.135   2.278  0.00  0.00     0.418 HD
ENDBRANCH   4   7
TORSDOF 1
ENDMDL
