MODEL 1
REMARK minimizedAffinity -1.53708804
REMARK minimizedRMSD -1
REMARK  1 active torsions:
REMARK  status: ('A' for Active; 'I' for Inactive)
REMARK    1  A    between atoms: C3_4  and  O_7 
ROOT
ATOM      1  C   UNL d   1      -2.223   0.331  -1.532  0.00  0.00    -0.033 A 
ATOM      2  C1  UNL d   1      -2.023   0.763  -0.220  0.00  0.00     0.039 A 
ATOM      3  C2  UNL d   1      -0.750   0.705   0.350  0.00  0.00    -0.080 A 
ATOM      4  C3  UNL d   1       0.313   0.214  -0.403  0.00  0.00     0.150 A 
ATOM      5  C4  UNL d   1       0.122  -0.215  -1.712  0.00  0.00    -0.007 A 
ATOM      6  C5  UNL d   1      -1.151  -0.157  -2.279  0.00  0.00     0.039 A 
ENDROOT
BRANCH   4   7
ATOM      7  O   UNL d   1       1.573   0.133   0.112  0.00  0.00    -0.526 OA
ATOM      8  H5  UNL d   1       1.549   0.437   1.034  0.00  0.00     0.418 HD
ENDBRANCH   4   7
TORSDOF 1
ENDMDL
