MODEL 1
REMARK minimizedAffinity -2.52773666
REMARK minimizedRMSD -1
REMARK  1 active torsions:
REMARK  status: ('A' for Active; 'I' for Inactive)
REMARK    1  A    between atoms: C3_4  and  O_7 
ROOT
ATOM      1  C   UNL d   1      -2.152  -0.011  -1.889  0.00  0.00    -0.033 A 
ATOM      2  C1  UNL d   1      -2.008  -1.123  -1.056  0.00  0.00     0.039 A 
ATOM      3  C2  UNL d   1      -0.842  -1.289  -0.306  0.00  0.00    -0.080 A 
ATOM      4  C3  UNL d   1       0.170  -0.337  -0.396  0.00  0.00     0.150 A 
ATOM      5  C4  UNL d   1       0.032   0.775  -1.220  0.00  0.00    -0.007 A 
ATOM      6  C5  UNL d   1      -1.133   0.938  -1.969  0.00  0.00     0.039 A 
ENDROOT
BRANCH   4   7
ATOM      7  O   UNL d   1       1.328  -0.459   0.314  0.00  0.00    -0.526 OA
ATOM      8  H5  UNL d   1       1.294  -1.290   0.817  0.00  0.00     0.418 HD
ENDBRANCH   4   7
TORSDOF 1
ENDMDL
