MODEL 1
REMARK minimizedAffinity -2.10907984
REMARK minimizedRMSD -1
REMARK  1 active torsions:
REMARK  status: ('A' for Active; 'I' for Inactive)
REMARK    1  A    between atoms: C3_4  and  O_7 
ROOT
ATOM      1  C   UNL d   1      -2.231  -0.695  -1.452  0.00  0.00    -0.033 A 
ATOM      2  C1  UNL d   1      -1.764  -1.475  -0.392  0.00  0.00     0.039 A 
ATOM      3  C2  UNL d   1      -0.580  -1.129   0.262  0.00  0.00    -0.080 A 
ATOM      4  C3  UNL d   1       0.126  -0.002  -0.152  0.00  0.00     0.150 A 
ATOM      5  C4  UNL d   1      -0.336   0.781  -1.204  0.00  0.00    -0.007 A 
ATOM      6  C5  UNL d   1      -1.518   0.433  -1.857  0.00  0.00     0.039 A 
ENDROOT
BRANCH   4   7
ATOM      7  O   UNL d   1       1.289   0.372   0.453  0.00  0.00    -0.526 OA
ATOM      8  H5  UNL d   1       1.500  -0.278   1.143  0.00  0.00     0.418 HD
ENDBRANCH   4   7
TORSDOF 1
ENDMDL
