MODEL 1
REMARK minimizedAffinity -2.47997808
REMARK minimizedRMSD -1
REMARK  1 active torsions:
REMARK  status: ('A' for Active; 'I' for Inactive)
REMARK    1  A    between atoms: C3_4  and  O_7 
ROOT
ATOM      1  C   UNL d   1       0.255   0.164  -2.914  0.00  0.00    -0.033 A 
ATOM      2  C1  UNL d   1      -0.743   0.863  -2.233  0.00  0.00     0.039 A 
ATOM      3  C2  UNL d   1      -0.686   0.989  -0.844  0.00  0.00    -0.080 A 
ATOM      4  C3  UNL d   1       0.374   0.413  -0.149  0.00  0.00     0.150 A 
ATOM      5  C4  UNL d   1       1.374  -0.281  -0.821  0.00  0.00    -0.007 A 
ATOM      6  C5  UNL d   1       1.315  -0.407  -2.209  0.00  0.00     0.039 A 
ENDROOT
BRANCH   4   7
ATOM      7  O   UNL d   1       0.471   0.506   1.208  0.00  0.00    -0.526 OA
ATOM      8  H5  UNL d   1      -0.305   0.988   1.539  0.00  0.00     0.418 HD
ENDBRANCH   4   7
TORSDOF 1
ENDMDL
