MODEL 1
REMARK minimizedAffinity -2.96436119
REMARK minimizedRMSD -1
REMARK  1 active torsions:
REMARK  status: ('A' for Active; 'I' for Inactive)
REMARK    1  A    between atoms: C3_4  and  O_7 
ROOT
ATOM      1  C   UNL d   1       0.406   0.623  -1.171  0.00  0.00    -0.033 A 
ATOM      2  C1  UNL d   1      -0.796  -0.010  -0.852  0.00  0.00     0.039 A 
ATOM      3  C2  UNL d   1      -0.829  -0.990   0.143  0.00  0.00    -0.080 A 
ATOM      4  C3  UNL d   1       0.346  -1.325   0.810  0.00  0.00     0.150 A 
ATOM      5  C4  UNL d   1       1.547  -0.695   0.500  0.00  0.00    -0.007 A 
ATOM      6  C5  UNL d   1       1.577   0.282  -0.494  0.00  0.00     0.039 A 
ENDROOT
BRANCH   4   7
ATOM      7  O   UNL d   1       0.365  -2.278   1.785  0.00  0.00    -0.526 OA
ATOM      8  H5  UNL d   1      -0.530  -2.647   1.872  0.00  0.00     0.418 HD
ENDBRANCH   4   7
TORSDOF 1
ENDMDL
