MODEL 1
REMARK minimizedAffinity -2.02582288
REMARK minimizedRMSD -1
REMARK  1 active torsions:
REMARK  status: ('A' for Active; 'I' for Inactive)
REMARK    1  A    between atoms: C3_4  and  O_7 
ROOT
ATOM      1  C   UNL d   1       2.651   3.552   1.559  0.00  0.00    -0.033 A 
ATOM      2  C1  UNL d   1       2.866   3.138   0.243  0.00  0.00     0.039 A 
ATOM      3  C2  UNL d   1       2.457   1.868  -0.167  0.00  0.00    -0.080 A 
ATOM      4  C3  UNL d   1       1.834   1.023   0.747  0.00  0.00     0.150 A 
ATOM      5  C4  UNL d   1       1.613   1.430   2.059  0.00  0.00    -0.007 A 
ATOM      6  C5  UNL d   1       2.023   2.698   2.467  0.00  0.00     0.039 A 
ENDROOT
BRANCH   4   7
ATOM      7  O   UNL d   1       1.422  -0.228   0.395  0.00  0.00    -0.526 OA
ATOM      8  H5  UNL d   1       1.666  -0.383  -0.533  0.00  0.00     0.418 HD
ENDBRANCH   4   7
TORSDOF 1
ENDMDL
