MODEL 1
REMARK minimizedAffinity -1.49867785
REMARK minimizedRMSD -1
REMARK  1 active torsions:
REMARK  status: ('A' for Active; 'I' for Inactive)
REMARK    1  A    between atoms: C3_4  and  O_7 
ROOT
ATOM      1  C   UNL d   1      -2.513  -1.566  -1.343  0.00  0.00    -0.033 A 
ATOM      2  C1  UNL d   1      -2.564  -2.666  -0.485  0.00  0.00     0.039 A 
ATOM      3  C2  UNL d   1      -1.503  -2.927   0.383  0.00  0.00    -0.080 A 
ATOM      4  C3  UNL d   1      -0.397  -2.081   0.384  0.00  0.00     0.150 A 
ATOM      5  C4  UNL d   1      -0.341  -0.981  -0.465  0.00  0.00    -0.007 A 
ATOM      6  C5  UNL d   1      -1.402  -0.722  -1.332  0.00  0.00     0.039 A 
ENDROOT
BRANCH   4   7
ATOM      7  O   UNL d   1       0.665  -2.298   1.211  0.00  0.00    -0.526 OA
ATOM      8  H5  UNL d   1       0.499  -3.109   1.719  0.00  0.00     0.418 HD
ENDBRANCH   4   7
TORSDOF 1
ENDMDL
