MODEL 1
REMARK minimizedAffinity -4.90995502
REMARK minimizedRMSD -1
REMARK  1 active torsions:
REMARK  status: ('A' for Active; 'I' for Inactive)
REMARK    1  A    between atoms: C3_4  and  O_7 
ROOT
ATOM      1  C   UNL d   1       0.376  -1.549   1.125  0.00  0.00    -0.033 A 
ATOM      2  C1  UNL d   1       0.473  -0.534   0.171  0.00  0.00     0.039 A 
ATOM      3  C2  UNL d   1      -0.530  -0.376  -0.787  0.00  0.00    -0.080 A 
ATOM      4  C3  UNL d   1      -1.624  -1.237  -0.780  0.00  0.00     0.150 A 
ATOM      5  C4  UNL d   1      -1.728  -2.248   0.170  0.00  0.00    -0.007 A 
ATOM      6  C5  UNL d   1      -0.725  -2.405   1.125  0.00  0.00     0.039 A 
ENDROOT
BRANCH   4   7
ATOM      7  O   UNL d   1      -2.625  -1.125  -1.698  0.00  0.00    -0.526 OA
ATOM      8  H5  UNL d   1      -2.404  -0.402  -2.308  0.00  0.00     0.418 HD
ENDBRANCH   4   7
TORSDOF 1
ENDMDL
