MODEL 1
REMARK minimizedAffinity 0.731837809
REMARK minimizedRMSD -1
REMARK  1 active torsions:
REMARK  status: ('A' for Active; 'I' for Inactive)
REMARK    1  A    between atoms: C3_4  and  O_7 
ROOT
ATOM      1  C   UNL d   1       1.210  -0.143   0.514  0.00  0.00    -0.033 A 
ATOM      2  C1  UNL d   1       0.130  -0.843   1.056  0.00  0.00     0.039 A 
ATOM      3  C2  UNL d   1      -1.074  -0.923   0.354  0.00  0.00    -0.080 A 
ATOM      4  C3  UNL d   1      -1.185  -0.302  -0.887  0.00  0.00     0.150 A 
ATOM      5  C4  UNL d   1      -0.112   0.393  -1.434  0.00  0.00    -0.007 A 
ATOM      6  C5  UNL d   1       1.090   0.473  -0.732  0.00  0.00     0.039 A 
ENDROOT
BRANCH   4   7
ATOM      7  O   UNL d   1      -2.342  -0.349  -1.606  0.00  0.00    -0.526 OA
ATOM      8  H5  UNL d   1      -3.005  -0.838  -1.091  0.00  0.00     0.418 HD
ENDBRANCH   4   7
TORSDOF 1
ENDMDL
