MODEL 1
REMARK minimizedAffinity -1.38327312
REMARK minimizedRMSD -1
REMARK  1 active torsions:
REMARK  status: ('A' for Active; 'I' for Inactive)
REMARK    1  A    between atoms: C3_4  and  O_7 
ROOT
ATOM      1  C   UNL d   1       1.525  -0.787   1.225  0.00  0.00    -0.033 A 
ATOM      2  C1  UNL d   1       2.026  -0.032   0.163  0.00  0.00     0.039 A 
ATOM      3  C2  UNL d   1       1.155   0.499  -0.791  0.00  0.00    -0.080 A 
ATOM      4  C3  UNL d   1      -0.212   0.268  -0.671  0.00  0.00     0.150 A 
ATOM      5  C4  UNL d   1      -0.719  -0.480   0.387  0.00  0.00    -0.007 A 
ATOM      6  C5  UNL d   1       0.153  -1.009   1.338  0.00  0.00     0.039 A 
ENDROOT
BRANCH   4   7
ATOM      7  O   UNL d   1      -1.101   0.762  -1.579  0.00  0.00    -0.526 OA
ATOM      8  H5  UNL d   1      -0.605   1.233  -2.269  0.00  0.00     0.418 HD
ENDBRANCH   4   7
TORSDOF 1
ENDMDL
