MODEL 1
REMARK minimizedAffinity -4.28311682
REMARK minimizedRMSD -1
REMARK  2 active torsions:
REMARK  status: ('A' for Active; 'I' for Inactive)
REMARK    1  A    between atoms: C2'_3  and  C1'_4 
REMARK    2  A    between atoms: C1'_4  and  C1_5 
ROOT
ATOM      1  C1  I4B d   1      -0.809  -0.785   0.027  0.00  0.00    -0.075 A 
ATOM      2  C2  I4B d   1       0.450  -0.266   0.202  0.00  0.00     0.003 A 
ATOM      3  C3  I4B d   1       0.624   1.120   0.436  0.00  0.00     0.002 A 
ATOM      4  C4  I4B d   1      -0.477   1.952   0.438  0.00  0.00    -0.004 A 
ATOM      5  C5  I4B d   1      -1.755   1.420   0.284  0.00  0.00     0.002 A 
ATOM      6  C6  I4B d   1      -1.923   0.042   0.090  0.00  0.00     0.003 A 
ENDROOT
BRANCH   1   7
ATOM      7  C1' I4B d   1      -0.953  -2.247  -0.251  0.00  0.00     0.060 C 
BRANCH   7   8
ATOM      8  C2' I4B d   1      -0.999  -2.434  -1.754  0.00  0.00    -0.013 C 
ATOM      9  C4' I4B d   1       0.375  -2.688  -2.315  0.00  0.00     0.013 C 
ATOM     10  C3' I4B d   1      -1.925  -3.576  -2.050  0.00  0.00     0.013 C 
ENDBRANCH   7   8
ENDBRANCH   1   7
TORSDOF 2
ENDMDL
