MODEL 1
REMARK minimizedAffinity -4.36157417
REMARK minimizedRMSD -1
REMARK  2 active torsions:
REMARK  status: ('A' for Active; 'I' for Inactive)
REMARK    1  A    between atoms: C2'_3  and  C1'_4 
REMARK    2  A    between atoms: C1'_4  and  C1_5 
ROOT
ATOM      1  C1  I4B d   1      -0.332  -0.366   0.139  0.00  0.00    -0.075 A 
ATOM      2  C2  I4B d   1      -1.475   0.336   0.429  0.00  0.00     0.003 A 
ATOM      3  C3  I4B d   1      -1.412   1.729   0.680  0.00  0.00     0.002 A 
ATOM      4  C4  I4B d   1      -0.187   2.364   0.681  0.00  0.00    -0.004 A 
ATOM      5  C5  I4B d   1       0.968   1.656   0.364  0.00  0.00     0.002 A 
ATOM      6  C6  I4B d   1       0.894   0.284   0.079  0.00  0.00     0.003 A 
ENDROOT
BRANCH   1   7
ATOM      7  C1' I4B d   1      -0.430  -1.841  -0.088  0.00  0.00     0.060 C 
BRANCH   7   8
ATOM      8  C2' I4B d   1      -0.771  -2.066  -1.547  0.00  0.00    -0.013 C 
ATOM      9  C4' I4B d   1       0.341  -2.787  -2.262  0.00  0.00     0.013 C 
ATOM     10  C3' I4B d   1      -2.050  -2.848  -1.608  0.00  0.00     0.013 C 
ENDBRANCH   7   8
ENDBRANCH   1   7
TORSDOF 2
ENDMDL
