MODEL 1
REMARK minimizedAffinity -3.40686488
REMARK minimizedRMSD -1
REMARK  2 active torsions:
REMARK  status: ('A' for Active; 'I' for Inactive)
REMARK    1  A    between atoms: C2'_3  and  C1'_4 
REMARK    2  A    between atoms: C1'_4  and  C1_5 
ROOT
ATOM      1  C1  I4B d   1       0.578  -0.037   0.215  0.00  0.00    -0.075 A 
ATOM      2  C2  I4B d   1      -0.703   0.454   0.267  0.00  0.00     0.003 A 
ATOM      3  C3  I4B d   1      -0.932   1.816   0.578  0.00  0.00     0.002 A 
ATOM      4  C4  I4B d   1       0.138   2.634   0.877  0.00  0.00    -0.004 A 
ATOM      5  C5  I4B d   1       1.437   2.140   0.802  0.00  0.00     0.002 A 
ATOM      6  C6  I4B d   1       1.660   0.799   0.457  0.00  0.00     0.003 A 
ENDROOT
BRANCH   1   7
ATOM      7  C1' I4B d   1       0.782  -1.489  -0.084  0.00  0.00     0.060 C 
BRANCH   7   8
ATOM      8  C2' I4B d   1      -0.459  -1.999  -0.788  0.00  0.00    -0.013 C 
ATOM      9  C4' I4B d   1      -0.121  -2.577  -2.137  0.00  0.00     0.013 C 
ATOM     10  C3' I4B d   1      -1.103  -3.026   0.096  0.00  0.00     0.013 C 
ENDBRANCH   7   8
ENDBRANCH   1   7
TORSDOF 2
ENDMDL
