MODEL 1
REMARK minimizedAffinity -1.25129771
REMARK minimizedRMSD -1
REMARK  2 active torsions:
REMARK  status: ('A' for Active; 'I' for Inactive)
REMARK    1  A    between atoms: C2'_3  and  C1'_4 
REMARK    2  A    between atoms: C1'_4  and  C1_5 
ROOT
ATOM      1  C1  I4B d   1      -0.233  -1.394  -0.133  0.00  0.00    -0.075 A 
ATOM      2  C2  I4B d   1      -0.952  -0.262   0.159  0.00  0.00     0.003 A 
ATOM      3  C3  I4B d   1      -0.300   0.991   0.259  0.00  0.00     0.002 A 
ATOM      4  C4  I4B d   1       1.070   1.058   0.112  0.00  0.00    -0.004 A 
ATOM      5  C5  I4B d   1       1.795  -0.087  -0.206  0.00  0.00     0.002 A 
ATOM      6  C6  I4B d   1       1.138  -1.319  -0.342  0.00  0.00     0.003 A 
ENDROOT
BRANCH   1   7
ATOM      7  C1' I4B d   1      -0.949  -2.705  -0.199  0.00  0.00     0.060 C 
BRANCH   7   8
ATOM      8  C2' I4B d   1      -1.616  -2.805  -1.556  0.00  0.00    -0.013 C 
ATOM      9  C4' I4B d   1      -0.683  -3.393  -2.581  0.00  0.00     0.013 C 
ATOM     10  C3' I4B d   1      -2.851  -3.642  -1.404  0.00  0.00     0.013 C 
ENDBRANCH   7   8
ENDBRANCH   1   7
TORSDOF 2
ENDMDL
