MODEL 1
REMARK minimizedAffinity -4.03439951
REMARK minimizedRMSD -1
REMARK  2 active torsions:
REMARK  status: ('A' for Active; 'I' for Inactive)
REMARK    1  A    between atoms: C2'_3  and  C1'_4 
REMARK    2  A    between atoms: C1'_4  and  C1_5 
ROOT
ATOM      1  C1  I4B d   1      -0.226  -1.276   0.111  0.00  0.00    -0.075 A 
ATOM      2  C2  I4B d   1       1.066  -0.977   0.465  0.00  0.00     0.003 A 
ATOM      3  C3  I4B d   1       1.422   0.351   0.805  0.00  0.00     0.002 A 
ATOM      4  C4  I4B d   1       0.473   1.350   0.729  0.00  0.00    -0.004 A 
ATOM      5  C5  I4B d   1      -0.841   1.040   0.393  0.00  0.00     0.002 A 
ATOM      6  C6  I4B d   1      -1.196  -0.283   0.094  0.00  0.00     0.003 A 
ENDROOT
BRANCH   1   7
ATOM      7  C1' I4B d   1      -0.560  -2.683  -0.273  0.00  0.00     0.060 C 
BRANCH   7   8
ATOM      8  C2' I4B d   1      -1.099  -2.664  -1.689  0.00  0.00    -0.013 C 
ATOM      9  C4' I4B d   1      -0.145  -3.329  -2.645  0.00  0.00     0.013 C 
ATOM     10  C3' I4B d   1      -2.431  -3.353  -1.686  0.00  0.00     0.013 C 
ENDBRANCH   7   8
ENDBRANCH   1   7
TORSDOF 2
ENDMDL
