MODEL 1
REMARK minimizedAffinity -2.35404658
REMARK minimizedRMSD -1
REMARK  2 active torsions:
REMARK  status: ('A' for Active; 'I' for Inactive)
REMARK    1  A    between atoms: C2'_3  and  C1'_4 
REMARK    2  A    between atoms: C1'_4  and  C1_5 
ROOT
ATOM      1  C1  I4B d   1      -0.057   0.004   0.193  0.00  0.00    -0.075 A 
ATOM      2  C2  I4B d   1      -1.275   0.510  -0.186  0.00  0.00     0.003 A 
ATOM      3  C3  I4B d   1      -1.546   1.893  -0.050  0.00  0.00     0.002 A 
ATOM      4  C4  I4B d   1      -0.595   2.720   0.513  0.00  0.00    -0.004 A 
ATOM      5  C5  I4B d   1       0.648   2.209   0.875  0.00  0.00     0.002 A 
ATOM      6  C6  I4B d   1       0.924   0.845   0.703  0.00  0.00     0.003 A 
ENDROOT
BRANCH   1   7
ATOM      7  C1' I4B d   1       0.184  -1.467   0.066  0.00  0.00     0.060 C 
BRANCH   7   8
ATOM      8  C2' I4B d   1      -0.568  -1.959  -1.154  0.00  0.00    -0.013 C 
ATOM      9  C4' I4B d   1       0.366  -2.193  -2.312  0.00  0.00     0.013 C 
ATOM     10  C3' I4B d   1      -1.289  -3.219  -0.776  0.00  0.00     0.013 C 
ENDBRANCH   7   8
ENDBRANCH   1   7
TORSDOF 2
ENDMDL
