MODEL 1
REMARK minimizedAffinity -0.208716556
REMARK minimizedRMSD -1
REMARK  2 active torsions:
REMARK  status: ('A' for Active; 'I' for Inactive)
REMARK    1  A    between atoms: C2'_3  and  C1'_4 
REMARK    2  A    between atoms: C1'_4  and  C1_5 
ROOT
ATOM      1  C1  I4B d   1      -0.152  -0.224  -0.176  0.00  0.00    -0.075 A 
ATOM      2  C2  I4B d   1       0.674   0.628   0.514  0.00  0.00     0.003 A 
ATOM      3  C3  I4B d   1       0.200   1.894   0.937  0.00  0.00     0.002 A 
ATOM      4  C4  I4B d   1      -1.081   2.285   0.607  0.00  0.00    -0.004 A 
ATOM      5  C5  I4B d   1      -1.925   1.411  -0.072  0.00  0.00     0.002 A 
ATOM      6  C6  I4B d   1      -1.462   0.144  -0.456  0.00  0.00     0.003 A 
ENDROOT
BRANCH   1   7
ATOM      7  C1' I4B d   1       0.391  -1.539  -0.636  0.00  0.00     0.060 C 
BRANCH   7   8
ATOM      8  C2' I4B d   1      -0.744  -2.318  -1.268  0.00  0.00    -0.013 C 
ATOM      9  C4' I4B d   1      -0.329  -2.912  -2.589  0.00  0.00     0.013 C 
ATOM     10  C3' I4B d   1      -1.168  -3.385  -0.304  0.00  0.00     0.013 C 
ENDBRANCH   7   8
ENDBRANCH   1   7
TORSDOF 2
ENDMDL
