MODEL 1
REMARK minimizedAffinity -3.6981864
REMARK minimizedRMSD -1
REMARK  2 active torsions:
REMARK  status: ('A' for Active; 'I' for Inactive)
REMARK    1  A    between atoms: C1_2  and  C2_3 
REMARK    2  A    between atoms: C2_3  and  C3_4 
ROOT
ATOM      1  C3  UNL d   1       1.155  -0.096  -1.010  0.00  0.00    -0.075 A 
ATOM      2  C4  UNL d   1       0.025   0.699  -0.771  0.00  0.00     0.002 A 
ATOM      3  C5  UNL d   1      -0.395   0.960   0.534  0.00  0.00     0.002 A 
ATOM      4  C6  UNL d   1       0.301   0.422   1.614  0.00  0.00    -0.004 A 
ATOM      5  C7  UNL d   1       1.416  -0.383   1.388  0.00  0.00     0.002 A 
ATOM      6  C8  UNL d   1       1.841  -0.642   0.084  0.00  0.00     0.002 A 
ENDROOT
BRANCH   1   7
ATOM      7  C2  UNL d   1       1.632  -0.357  -2.418  0.00  0.00     0.056 C 
BRANCH   7   8
ATOM      8  C1  UNL d   1       3.143  -0.184  -2.607  0.00  0.00     0.007 C 
ATOM      9  C   UNL d   1       3.526   0.247  -4.017  0.00  0.00     0.009 C 
ENDBRANCH   7   8
ENDBRANCH   1   7
TORSDOF 2
ENDMDL
