MODEL 1
REMARK minimizedAffinity -3.75584102
REMARK minimizedRMSD -1
REMARK  2 active torsions:
REMARK  status: ('A' for Active; 'I' for Inactive)
REMARK    1  A    between atoms: C1_2  and  C2_3 
REMARK    2  A    between atoms: C2_3  and  C3_4 
ROOT
ATOM      1  C3  UNL d   1      -0.666   0.468   0.310  0.00  0.00    -0.075 A 
ATOM      2  C4  UNL d   1       0.399   1.199   0.856  0.00  0.00     0.002 A 
ATOM      3  C5  UNL d   1       0.376   1.592   2.194  0.00  0.00     0.002 A 
ATOM      4  C6  UNL d   1      -0.714   1.270   2.999  0.00  0.00    -0.004 A 
ATOM      5  C7  UNL d   1      -1.786   0.558   2.463  0.00  0.00     0.002 A 
ATOM      6  C8  UNL d   1      -1.763   0.160   1.125  0.00  0.00     0.002 A 
ENDROOT
BRANCH   1   7
ATOM      7  C2  UNL d   1      -0.634   0.015  -1.130  0.00  0.00     0.056 C 
BRANCH   7   8
ATOM      8  C1  UNL d   1       0.740  -0.477  -1.598  0.00  0.00     0.007 C 
ATOM      9  C   UNL d   1       0.911  -0.431  -3.111  0.00  0.00     0.009 C 
ENDBRANCH   7   8
ENDBRANCH   1   7
TORSDOF 2
ENDMDL
