MODEL 1
REMARK minimizedAffinity -3.68617344
REMARK minimizedRMSD -1
REMARK  2 active torsions:
REMARK  status: ('A' for Active; 'I' for Inactive)
REMARK    1  A    between atoms: C1_2  and  C2_3 
REMARK    2  A    between atoms: C2_3  and  C3_4 
ROOT
ATOM      1  C3  UNL d   1      -0.823   0.985   0.551  0.00  0.00    -0.075 A 
ATOM      2  C4  UNL d   1      -1.879   0.177   0.105  0.00  0.00     0.002 A 
ATOM      3  C5  UNL d   1      -1.641  -0.875  -0.781  0.00  0.00     0.002 A 
ATOM      4  C6  UNL d   1      -0.349  -1.124  -1.240  0.00  0.00    -0.004 A 
ATOM      5  C7  UNL d   1       0.704  -0.316  -0.817  0.00  0.00     0.002 A 
ATOM      6  C8  UNL d   1       0.470   0.733   0.073  0.00  0.00     0.002 A 
ENDROOT
BRANCH   1   7
ATOM      7  C2  UNL d   1      -1.069   2.106   1.532  0.00  0.00     0.056 C 
BRANCH   7   8
ATOM      8  C1  UNL d   1      -1.043   1.666   3.000  0.00  0.00     0.007 C 
ATOM      9  C   UNL d   1      -1.453   0.213   3.199  0.00  0.00     0.009 C 
ENDBRANCH   7   8
ENDBRANCH   1   7
TORSDOF 2
ENDMDL
