MODEL 1
REMARK minimizedAffinity -4.53577757
REMARK minimizedRMSD -1
REMARK  2 active torsions:
REMARK  status: ('A' for Active; 'I' for Inactive)
REMARK    1  A    between atoms: C1_2  and  C2_3 
REMARK    2  A    between atoms: C2_3  and  C3_4 
ROOT
ATOM      1  C3  UNL d   1       0.407  -0.122  -1.344  0.00  0.00    -0.075 A 
ATOM      2  C4  UNL d   1      -0.356   0.898  -0.757  0.00  0.00     0.002 A 
ATOM      3  C5  UNL d   1      -0.342   1.088   0.625  0.00  0.00     0.002 A 
ATOM      4  C6  UNL d   1       0.426   0.257   1.437  0.00  0.00    -0.004 A 
ATOM      5  C7  UNL d   1       1.176  -0.770   0.867  0.00  0.00     0.002 A 
ATOM      6  C8  UNL d   1       1.166  -0.959  -0.516  0.00  0.00     0.002 A 
ENDROOT
BRANCH   1   7
ATOM      7  C2  UNL d   1       0.418  -0.314  -2.842  0.00  0.00     0.056 C 
BRANCH   7   8
ATOM      8  C1  UNL d   1       1.671   0.237  -3.532  0.00  0.00     0.007 C 
ATOM      9  C   UNL d   1       1.359   1.046  -4.784  0.00  0.00     0.009 C 
ENDBRANCH   7   8
ENDBRANCH   1   7
TORSDOF 2
ENDMDL
