MODEL 1
REMARK minimizedAffinity -5.7996459
REMARK minimizedRMSD -1
REMARK  2 active torsions:
REMARK  status: ('A' for Active; 'I' for Inactive)
REMARK    1  A    between atoms: C1_2  and  C2_3 
REMARK    2  A    between atoms: C2_3  and  C3_4 
ROOT
ATOM      1  C3  UNL d   1       0.050   0.224  -0.983  0.00  0.00    -0.075 A 
ATOM      2  C4  UNL d   1       0.746  -0.742  -1.724  0.00  0.00     0.002 A 
ATOM      3  C5  UNL d   1       0.926  -0.587  -3.099  0.00  0.00     0.002 A 
ATOM      4  C6  UNL d   1       0.403   0.528  -3.751  0.00  0.00    -0.004 A 
ATOM      5  C7  UNL d   1      -0.305   1.485  -3.028  0.00  0.00     0.002 A 
ATOM      6  C8  UNL d   1      -0.482   1.335  -1.652  0.00  0.00     0.002 A 
ENDROOT
BRANCH   1   7
ATOM      7  C2  UNL d   1      -0.122   0.077   0.510  0.00  0.00     0.056 C 
BRANCH   7   8
ATOM      8  C1  UNL d   1      -1.497   0.515   1.026  0.00  0.00     0.007 C 
ATOM      9  C   UNL d   1      -1.507   0.828   2.516  0.00  0.00     0.009 C 
ENDBRANCH   7   8
ENDBRANCH   1   7
TORSDOF 2
ENDMDL
