MODEL 1
REMARK minimizedAffinity -2.756212
REMARK minimizedRMSD -1
REMARK  2 active torsions:
REMARK  status: ('A' for Active; 'I' for Inactive)
REMARK    1  A    between atoms: C1_2  and  C2_3 
REMARK    2  A    between atoms: C2_3  and  C3_4 
ROOT
ATOM      1  C3  UNL d   1      -0.784  -0.294   1.304  0.00  0.00    -0.075 A 
ATOM      2  C4  UNL d   1      -1.254  -0.932   0.147  0.00  0.00     0.002 A 
ATOM      3  C5  UNL d   1      -0.405  -1.737  -0.613  0.00  0.00     0.002 A 
ATOM      4  C6  UNL d   1       0.924  -1.906  -0.232  0.00  0.00    -0.004 A 
ATOM      5  C7  UNL d   1       1.406  -1.264   0.906  0.00  0.00     0.002 A 
ATOM      6  C8  UNL d   1       0.558  -0.461   1.671  0.00  0.00     0.002 A 
ENDROOT
BRANCH   1   7
ATOM      7  C2  UNL d   1      -1.706   0.555   2.146  0.00  0.00     0.056 C 
BRANCH   7   8
ATOM      8  C1  UNL d   1      -1.089   1.882   2.601  0.00  0.00     0.007 C 
ATOM      9  C   UNL d   1      -0.668   1.879   4.064  0.00  0.00     0.009 C 
ENDBRANCH   7   8
ENDBRANCH   1   7
TORSDOF 2
ENDMDL
