MODEL 1
REMARK minimizedAffinity -2.32024717
REMARK minimizedRMSD -1
REMARK  2 active torsions:
REMARK  status: ('A' for Active; 'I' for Inactive)
REMARK    1  A    between atoms: C1_2  and  C2_3 
REMARK    2  A    between atoms: C2_3  and  C3_4 
ROOT
ATOM      1  C3  UNL d   1      -0.109  -0.244  -0.201  0.00  0.00    -0.075 A 
ATOM      2  C4  UNL d   1       0.212  -0.419   1.153  0.00  0.00     0.002 A 
ATOM      3  C5  UNL d   1      -0.562   0.180   2.148  0.00  0.00     0.002 A 
ATOM      4  C6  UNL d   1      -1.658   0.968   1.802  0.00  0.00    -0.004 A 
ATOM      5  C7  UNL d   1      -1.976   1.162   0.459  0.00  0.00     0.002 A 
ATOM      6  C8  UNL d   1      -1.206   0.560  -0.538  0.00  0.00     0.002 A 
ENDROOT
BRANCH   1   7
ATOM      7  C2  UNL d   1       0.707  -0.914  -1.281  0.00  0.00     0.056 C 
BRANCH   7   8
ATOM      8  C1  UNL d   1       0.959  -0.033  -2.509  0.00  0.00     0.007 C 
ATOM      9  C   UNL d   1       0.771  -0.772  -3.827  0.00  0.00     0.009 C 
ENDBRANCH   7   8
ENDBRANCH   1   7
TORSDOF 2
ENDMDL
