MODEL 1
REMARK minimizedAffinity -5.20352125
REMARK minimizedRMSD -1
REMARK  2 active torsions:
REMARK  status: ('A' for Active; 'I' for Inactive)
REMARK    1  A    between atoms: C1_2  and  C2_3 
REMARK    2  A    between atoms: C2_3  and  C3_4 
ROOT
ATOM      1  C3  UNL d   1      -0.067  -0.134   1.491  0.00  0.00    -0.075 A 
ATOM      2  C4  UNL d   1       1.144  -0.712   1.896  0.00  0.00     0.002 A 
ATOM      3  C5  UNL d   1       1.504  -0.731   3.244  0.00  0.00     0.002 A 
ATOM      4  C6  UNL d   1       0.665  -0.164   4.201  0.00  0.00    -0.004 A 
ATOM      5  C7  UNL d   1      -0.533   0.428   3.807  0.00  0.00     0.002 A 
ATOM      6  C8  UNL d   1      -0.898   0.444   2.460  0.00  0.00     0.002 A 
ENDROOT
BRANCH   1   7
ATOM      7  C2  UNL d   1      -0.477  -0.136   0.038  0.00  0.00     0.056 C 
BRANCH   7   8
ATOM      8  C1  UNL d   1       0.425  -0.986  -0.863  0.00  0.00     0.007 C 
ATOM      9  C   UNL d   1       0.757  -0.314  -2.188  0.00  0.00     0.009 C 
ENDBRANCH   7   8
ENDBRANCH   1   7
TORSDOF 2
ENDMDL
