MODEL 1
REMARK minimizedAffinity -2.75585341
REMARK minimizedRMSD -1
REMARK  1 active torsions:
REMARK  status: ('A' for Active; 'I' for Inactive)
REMARK    1  A    between atoms: N_2  and  C1_3 
ROOT
ATOM      1  C1  UNL d   1       0.375   0.321  -0.270  0.00  0.00     0.143 A 
ATOM      2  C2  UNL d   1       1.273   0.319   0.803  0.00  0.00    -0.057 A 
ATOM      3  C3  UNL d   1       0.821   0.322   2.128  0.00  0.00     0.033 A 
ATOM      4  C4  UNL d   1      -0.541   0.356   2.405  0.00  0.00    -0.042 A 
ATOM      5  C5  UNL d   1      -1.452   0.384   1.354  0.00  0.00     0.033 A 
ATOM      6  C6  UNL d   1      -0.994   0.374   0.033  0.00  0.00    -0.057 A 
ENDROOT
BRANCH   1   7
ATOM      7  N   UNL d   1       0.763   0.418  -1.608  0.00  0.00    -0.732 N 
ATOM      8  C   UNL d   1       0.919  -0.771  -2.419  0.00  0.00     0.284 C 
ATOM      9  H3  UNL d   1       0.310   1.192  -2.089  0.00  0.00     0.395 HD
ENDBRANCH   1   7
TORSDOF 1
ENDMDL
