MODEL 1
REMARK minimizedAffinity -2.80154181
REMARK minimizedRMSD -1
REMARK  1 active torsions:
REMARK  status: ('A' for Active; 'I' for Inactive)
REMARK    1  A    between atoms: N_2  and  C1_3 
ROOT
ATOM      1  C1  UNL d   1       0.294   0.261  -0.550  0.00  0.00     0.143 A 
ATOM      2  C2  UNL d   1       1.136   0.170   0.563  0.00  0.00    -0.057 A 
ATOM      3  C3  UNL d   1       0.653   0.388   1.859  0.00  0.00     0.033 A 
ATOM      4  C4  UNL d   1      -0.680   0.730   2.062  0.00  0.00    -0.042 A 
ATOM      5  C5  UNL d   1      -1.530   0.851   0.968  0.00  0.00     0.033 A 
ATOM      6  C6  UNL d   1      -1.042   0.625  -0.323  0.00  0.00    -0.057 A 
ENDROOT
BRANCH   1   7
ATOM      7  N   UNL d   1       0.736   0.152  -1.871  0.00  0.00    -0.732 N 
ATOM      8  C   UNL d   1       0.730  -1.127  -2.548  0.00  0.00     0.284 C 
ATOM      9  H3  UNL d   1       0.427   0.930  -2.450  0.00  0.00     0.395 HD
ENDBRANCH   1   7
TORSDOF 1
ENDMDL
