MODEL 1
REMARK minimizedAffinity -0.905483723
REMARK minimizedRMSD -1
REMARK  1 active torsions:
REMARK  status: ('A' for Active; 'I' for Inactive)
REMARK    1  A    between atoms: N_2  and  C1_3 
ROOT
ATOM      1  C1  UNL d   1       0.305   0.313  -1.306  0.00  0.00     0.143 A 
ATOM      2  C2  UNL d   1      -1.019   0.435  -0.873  0.00  0.00    -0.057 A 
ATOM      3  C3  UNL d   1      -1.332   0.537   0.488  0.00  0.00     0.033 A 
ATOM      4  C4  UNL d   1      -0.324   0.488   1.445  0.00  0.00    -0.042 A 
ATOM      5  C5  UNL d   1       0.998   0.341   1.039  0.00  0.00     0.033 A 
ATOM      6  C6  UNL d   1       1.304   0.247  -0.322  0.00  0.00    -0.057 A 
ENDROOT
BRANCH   1   7
ATOM      7  N   UNL d   1       0.672   0.109  -2.638  0.00  0.00    -0.732 N 
ATOM      8  C   UNL d   1       0.538  -1.196  -3.248  0.00  0.00     0.284 C 
ATOM      9  H3  UNL d   1       0.393   0.880  -3.240  0.00  0.00     0.395 HD
ENDBRANCH   1   7
TORSDOF 1
ENDMDL
