MODEL 1
REMARK minimizedAffinity -3.42296934
REMARK minimizedRMSD -1
REMARK  1 active torsions:
REMARK  status: ('A' for Active; 'I' for Inactive)
REMARK    1  A    between atoms: N_2  and  C1_3 
ROOT
ATOM      1  C1  UNL d   1       0.664  -0.015  -0.885  0.00  0.00     0.143 A 
ATOM      2  C2  UNL d   1      -0.406   0.333  -0.054  0.00  0.00    -0.057 A 
ATOM      3  C3  UNL d   1      -0.250   0.411   1.336  0.00  0.00     0.033 A 
ATOM      4  C4  UNL d   1       0.975   0.112   1.922  0.00  0.00    -0.042 A 
ATOM      5  C5  UNL d   1       2.046  -0.260   1.117  0.00  0.00     0.033 A 
ATOM      6  C6  UNL d   1       1.886  -0.330  -0.270  0.00  0.00    -0.057 A 
ENDROOT
BRANCH   1   7
ATOM      7  N   UNL d   1       0.547  -0.205  -2.264  0.00  0.00    -0.732 N 
ATOM      8  C   UNL d   1       1.722  -0.428  -3.080  0.00  0.00     0.284 C 
ATOM      9  H3  UNL d   1      -0.247  -0.792  -2.510  0.00  0.00     0.395 HD
ENDBRANCH   1   7
TORSDOF 1
ENDMDL
