MODEL 1
REMARK minimizedAffinity -0.471428931
REMARK minimizedRMSD -1
REMARK  1 active torsions:
REMARK  status: ('A' for Active; 'I' for Inactive)
REMARK    1  A    between atoms: N_2  and  C1_3 
ROOT
ATOM      1  C1  UNL d   1       4.182  -4.662   3.796  0.00  0.00     0.143 A 
ATOM      2  C2  UNL d   1       3.738  -4.097   2.596  0.00  0.00    -0.057 A 
ATOM      3  C3  UNL d   1       4.118  -2.804   2.218  0.00  0.00     0.033 A 
ATOM      4  C4  UNL d   1       4.928  -2.039   3.052  0.00  0.00    -0.042 A 
ATOM      5  C5  UNL d   1       5.361  -2.571   4.261  0.00  0.00     0.033 A 
ATOM      6  C6  UNL d   1       4.983  -3.866   4.629  0.00  0.00    -0.057 A 
ENDROOT
BRANCH   1   7
ATOM      7  N   UNL d   1       3.759  -5.905   4.274  0.00  0.00    -0.732 N 
ATOM      8  C   UNL d   1       2.804  -5.993   5.358  0.00  0.00     0.284 C 
ATOM      9  H3  UNL d   1       3.601  -6.576   3.525  0.00  0.00     0.395 HD
ENDBRANCH   1   7
TORSDOF 1
ENDMDL
