MODEL 1
REMARK minimizedAffinity -5.33717489
REMARK minimizedRMSD -1
REMARK  1 active torsions:
REMARK  status: ('A' for Active; 'I' for Inactive)
REMARK    1  A    between atoms: N_2  and  C1_3 
ROOT
ATOM      1  C1  UNL d   1       0.058  -0.074   0.215  0.00  0.00     0.143 A 
ATOM      2  C2  UNL d   1       1.095   0.073   1.141  0.00  0.00    -0.057 A 
ATOM      3  C3  UNL d   1       0.868  -0.072   2.515  0.00  0.00     0.033 A 
ATOM      4  C4  UNL d   1      -0.411  -0.341   2.990  0.00  0.00    -0.042 A 
ATOM      5  C5  UNL d   1      -1.463  -0.467   2.089  0.00  0.00     0.033 A 
ATOM      6  C6  UNL d   1      -1.228  -0.327   0.717  0.00  0.00    -0.057 A 
ENDROOT
BRANCH   1   7
ATOM      7  N   UNL d   1       0.201   0.156  -1.156  0.00  0.00    -0.732 N 
ATOM      8  C   UNL d   1      -0.687   1.066  -1.847  0.00  0.00     0.284 C 
ATOM      9  H3  UNL d   1       1.175   0.232  -1.438  0.00  0.00     0.395 HD
ENDBRANCH   1   7
TORSDOF 1
ENDMDL
