MODEL 1
REMARK minimizedAffinity -1.26982546
REMARK minimizedRMSD -1
REMARK  1 active torsions:
REMARK  status: ('A' for Active; 'I' for Inactive)
REMARK    1  A    between atoms: N_2  and  C1_3 
ROOT
ATOM      1  C1  UNL d   1      -0.034   0.317   1.422  0.00  0.00     0.143 A 
ATOM      2  C2  UNL d   1       1.190   0.085   0.785  0.00  0.00    -0.057 A 
ATOM      3  C3  UNL d   1       1.267  -0.077  -0.603  0.00  0.00     0.033 A 
ATOM      4  C4  UNL d   1       0.114  -0.038  -1.379  0.00  0.00    -0.042 A 
ATOM      5  C5  UNL d   1      -1.117   0.168  -0.766  0.00  0.00     0.033 A 
ATOM      6  C6  UNL d   1      -1.187   0.335   0.621  0.00  0.00    -0.057 A 
ENDROOT
BRANCH   1   7
ATOM      7  N   UNL d   1      -0.189   0.388   2.808  0.00  0.00    -0.732 N 
ATOM      8  C   UNL d   1      -1.508   0.406   3.403  0.00  0.00     0.284 C 
ATOM      9  H3  UNL d   1       0.483  -0.194   3.304  0.00  0.00     0.395 HD
ENDBRANCH   1   7
TORSDOF 1
ENDMDL
