MODEL 1
REMARK minimizedAffinity -4.32637691
REMARK minimizedRMSD -1
REMARK  1 active torsions:
REMARK  status: ('A' for Active; 'I' for Inactive)
REMARK    1  A    between atoms: N_2  and  C1_3 
ROOT
ATOM      1  C1  UNL d   1       0.033  -0.299   0.327  0.00  0.00     0.143 A 
ATOM      2  C2  UNL d   1       0.932  -0.149   1.389  0.00  0.00    -0.057 A 
ATOM      3  C3  UNL d   1       0.482   0.111   2.689  0.00  0.00     0.033 A 
ATOM      4  C4  UNL d   1      -0.878   0.256   2.945  0.00  0.00    -0.042 A 
ATOM      5  C5  UNL d   1      -1.787   0.137   1.900  0.00  0.00     0.033 A 
ATOM      6  C6  UNL d   1      -1.332  -0.130   0.605  0.00  0.00    -0.057 A 
ENDROOT
BRANCH   1   7
ATOM      7  N   UNL d   1       0.423  -0.461  -1.005  0.00  0.00    -0.732 N 
ATOM      8  C   UNL d   1       0.041   0.509  -2.008  0.00  0.00     0.284 C 
ATOM      9  H3  UNL d   1       1.381  -0.793  -1.092  0.00  0.00     0.395 HD
ENDBRANCH   1   7
TORSDOF 1
ENDMDL
