MODEL 1
REMARK minimizedAffinity -4.11429548
REMARK minimizedRMSD -1
REMARK  1 active torsions:
REMARK  status: ('A' for Active; 'I' for Inactive)
REMARK    1  A    between atoms: C3_4  and  O_7 
ROOT
ATOM      1  C   UNL d   1       0.791   0.461   0.903  0.00  0.00    -0.033 A 
ATOM      2  C1  UNL d   1       0.715  -0.843   1.396  0.00  0.00     0.039 A 
ATOM      3  C2  UNL d   1       1.468  -1.859   0.806  0.00  0.00    -0.080 A 
ATOM      4  C3  UNL d   1       2.294  -1.559  -0.274  0.00  0.00     0.150 A 
ATOM      5  C4  UNL d   1       2.377  -0.261  -0.768  0.00  0.00    -0.007 A 
ATOM      6  C5  UNL d   1       1.623   0.753  -0.178  0.00  0.00     0.039 A 
ENDROOT
BRANCH   4   7
ATOM      7  O   UNL d   1       3.045  -2.518  -0.886  0.00  0.00    -0.526 OA
ATOM      8  H5  UNL d   1       2.864  -3.371  -0.457  0.00  0.00     0.418 HD
ENDBRANCH   4   7
TORSDOF 1
ENDMDL
