MODEL 1
REMARK minimizedAffinity -4.10427141
REMARK minimizedRMSD -1
REMARK  1 active torsions:
REMARK  status: ('A' for Active; 'I' for Inactive)
REMARK    1  A    between atoms: C3_4  and  O_7 
ROOT
ATOM      1  C   UNL d   1       3.630  -0.311  -1.765  0.00  0.00    -0.033 A 
ATOM      2  C1  UNL d   1       3.696  -1.454  -0.967  0.00  0.00     0.039 A 
ATOM      3  C2  UNL d   1       2.796  -1.627   0.086  0.00  0.00    -0.080 A 
ATOM      4  C3  UNL d   1       1.834  -0.650   0.329  0.00  0.00     0.150 A 
ATOM      5  C4  UNL d   1       1.759   0.490  -0.464  0.00  0.00    -0.007 A 
ATOM      6  C5  UNL d   1       2.660   0.661  -1.514  0.00  0.00     0.039 A 
ENDROOT
BRANCH   4   7
ATOM      7  O   UNL d   1       0.937  -0.772   1.348  0.00  0.00    -0.526 OA
ATOM      8  H5  UNL d   1       1.126  -1.595   1.828  0.00  0.00     0.418 HD
ENDBRANCH   4   7
TORSDOF 1
ENDMDL
