MODEL 1
REMARK minimizedAffinity -3.00943065
REMARK minimizedRMSD -1
REMARK  1 active torsions:
REMARK  status: ('A' for Active; 'I' for Inactive)
REMARK    1  A    between atoms: C3_4  and  O_7 
ROOT
ATOM      1  C   UNL d   1       3.612   0.156  -1.451  0.00  0.00    -0.033 A 
ATOM      2  C1  UNL d   1       2.786   1.201  -1.032  0.00  0.00     0.039 A 
ATOM      3  C2  UNL d   1       1.682   0.937  -0.219  0.00  0.00    -0.080 A 
ATOM      4  C3  UNL d   1       1.415  -0.373   0.167  0.00  0.00     0.150 A 
ATOM      5  C4  UNL d   1       2.236  -1.419  -0.243  0.00  0.00    -0.007 A 
ATOM      6  C5  UNL d   1       3.338  -1.154  -1.055  0.00  0.00     0.039 A 
ENDROOT
BRANCH   4   7
ATOM      7  O   UNL d   1       0.346  -0.680   0.956  0.00  0.00    -0.526 OA
ATOM      8  H5  UNL d   1      -0.147   0.137   1.138  0.00  0.00     0.418 HD
ENDBRANCH   4   7
TORSDOF 1
ENDMDL
