MODEL 1
REMARK minimizedAffinity -3.35602093
REMARK minimizedRMSD -1
REMARK  1 active torsions:
REMARK  status: ('A' for Active; 'I' for Inactive)
REMARK    1  A    between atoms: C3_4  and  O_7 
ROOT
ATOM      1  C   UNL d   1       0.742  -0.271   0.781  0.00  0.00    -0.033 A 
ATOM      2  C1  UNL d   1       1.647   0.762   0.533  0.00  0.00     0.039 A 
ATOM      3  C2  UNL d   1       2.762   0.537  -0.277  0.00  0.00    -0.080 A 
ATOM      4  C3  UNL d   1       2.959  -0.724  -0.833  0.00  0.00     0.150 A 
ATOM      5  C4  UNL d   1       2.058  -1.757  -0.594  0.00  0.00    -0.007 A 
ATOM      6  C5  UNL d   1       0.946  -1.530   0.216  0.00  0.00     0.039 A 
ENDROOT
BRANCH   4   7
ATOM      7  O   UNL d   1       4.034  -0.994  -1.626  0.00  0.00    -0.526 OA
ATOM      8  H5  UNL d   1       4.585  -0.195  -1.679  0.00  0.00     0.418 HD
ENDBRANCH   4   7
TORSDOF 1
ENDMDL
