MODEL 1
REMARK minimizedAffinity -1.75449753
REMARK minimizedRMSD -1
REMARK  1 active torsions:
REMARK  status: ('A' for Active; 'I' for Inactive)
REMARK    1  A    between atoms: C3_4  and  O_7 
ROOT
ATOM      1  C   UNL d   1       1.255  -0.176   0.264  0.00  0.00    -0.033 A 
ATOM      2  C1  UNL d   1       1.937   0.837  -0.414  0.00  0.00     0.039 A 
ATOM      3  C2  UNL d   1       3.117   0.547  -1.101  0.00  0.00    -0.080 A 
ATOM      4  C3  UNL d   1       3.603  -0.757  -1.104  0.00  0.00     0.150 A 
ATOM      5  C4  UNL d   1       2.927  -1.772  -0.434  0.00  0.00    -0.007 A 
ATOM      6  C5  UNL d   1       1.749  -1.480   0.252  0.00  0.00     0.039 A 
ENDROOT
BRANCH   4   7
ATOM      7  O   UNL d   1       4.754  -1.087  -1.756  0.00  0.00    -0.526 OA
ATOM      8  H5  UNL d   1       5.127  -0.281  -2.149  0.00  0.00     0.418 HD
ENDBRANCH   4   7
TORSDOF 1
ENDMDL
