MODEL 1
REMARK minimizedAffinity -0.417082429
REMARK minimizedRMSD -1
REMARK  1 active torsions:
REMARK  status: ('A' for Active; 'I' for Inactive)
REMARK    1  A    between atoms: C3_4  and  O_7 
ROOT
ATOM      1  C   UNL d   1       0.928  -0.139   0.467  0.00  0.00    -0.033 A 
ATOM      2  C1  UNL d   1       0.953  -1.497   0.143  0.00  0.00     0.039 A 
ATOM      3  C2  UNL d   1       1.988  -2.011  -0.640  0.00  0.00    -0.080 A 
ATOM      4  C3  UNL d   1       2.992  -1.158  -1.091  0.00  0.00     0.150 A 
ATOM      5  C4  UNL d   1       2.976   0.195  -0.769  0.00  0.00    -0.007 A 
ATOM      6  C5  UNL d   1       1.941   0.706   0.012  0.00  0.00     0.039 A 
ENDROOT
BRANCH   4   7
ATOM      7  O   UNL d   1       4.020  -1.613  -1.862  0.00  0.00    -0.526 OA
ATOM      8  H5  UNL d   1       3.885  -2.561  -2.028  0.00  0.00     0.418 HD
ENDBRANCH   4   7
TORSDOF 1
ENDMDL
