MODEL 1
REMARK minimizedAffinity -4.94498777
REMARK minimizedRMSD -1
REMARK  1 active torsions:
REMARK  status: ('A' for Active; 'I' for Inactive)
REMARK    1  A    between atoms: C3_4  and  O_7 
ROOT
ATOM      1  C   UNL d   1       2.947  -0.328  -1.183  0.00  0.00    -0.033 A 
ATOM      2  C1  UNL d   1       2.161   0.766  -0.816  0.00  0.00     0.039 A 
ATOM      3  C2  UNL d   1       1.221   0.640   0.208  0.00  0.00    -0.080 A 
ATOM      4  C3  UNL d   1       1.077  -0.583   0.857  0.00  0.00     0.150 A 
ATOM      5  C4  UNL d   1       1.859  -1.676   0.500  0.00  0.00    -0.007 A 
ATOM      6  C5  UNL d   1       2.797  -1.549  -0.524  0.00  0.00     0.039 A 
ENDROOT
BRANCH   4   7
ATOM      7  O   UNL d   1       0.169  -0.755   1.859  0.00  0.00    -0.526 OA
ATOM      8  H5  UNL d   1      -0.320   0.077   1.978  0.00  0.00     0.418 HD
ENDBRANCH   4   7
TORSDOF 1
ENDMDL
