MODEL 1
REMARK minimizedAffinity -2.46669149
REMARK minimizedRMSD -1
REMARK  1 active torsions:
REMARK  status: ('A' for Active; 'I' for Inactive)
REMARK    1  A    between atoms: C3_4  and  O_7 
ROOT
ATOM      1  C   UNL d   1       0.888  -1.055   0.916  0.00  0.00    -0.033 A 
ATOM      2  C1  UNL d   1       1.008  -2.071  -0.034  0.00  0.00     0.039 A 
ATOM      3  C2  UNL d   1       2.025  -2.019  -0.989  0.00  0.00    -0.080 A 
ATOM      4  C3  UNL d   1       2.915  -0.949  -0.982  0.00  0.00     0.150 A 
ATOM      5  C4  UNL d   1       2.803   0.065  -0.036  0.00  0.00    -0.007 A 
ATOM      6  C5  UNL d   1       1.786   0.012   0.916  0.00  0.00     0.039 A 
ENDROOT
BRANCH   4   7
ATOM      7  O   UNL d   1       3.921  -0.852  -1.898  0.00  0.00    -0.526 OA
ATOM      8  H5  UNL d   1       3.857  -1.608  -2.505  0.00  0.00     0.418 HD
ENDBRANCH   4   7
TORSDOF 1
ENDMDL
