MODEL 1
REMARK minimizedAffinity -4.0670023
REMARK minimizedRMSD -1
REMARK  1 active torsions:
REMARK  status: ('A' for Active; 'I' for Inactive)
REMARK    1  A    between atoms: C3_4  and  O_7 
ROOT
ATOM      1  C   UNL d   1       0.512  -0.595   0.353  0.00  0.00    -0.033 A 
ATOM      2  C1  UNL d   1       1.129  -1.844   0.261  0.00  0.00     0.039 A 
ATOM      3  C2  UNL d   1       2.374  -1.966  -0.359  0.00  0.00    -0.080 A 
ATOM      4  C3  UNL d   1       2.990  -0.833  -0.882  0.00  0.00     0.150 A 
ATOM      5  C4  UNL d   1       2.383   0.415  -0.790  0.00  0.00    -0.007 A 
ATOM      6  C5  UNL d   1       1.140   0.535  -0.171  0.00  0.00     0.039 A 
ENDROOT
BRANCH   4   7
ATOM      7  O   UNL d   1       4.203  -0.903  -1.500  0.00  0.00    -0.526 OA
ATOM      8  H5  UNL d   1       4.488  -1.832  -1.515  0.00  0.00     0.418 HD
ENDBRANCH   4   7
TORSDOF 1
ENDMDL
