MODEL 1
REMARK minimizedAffinity -4.55794859
REMARK minimizedRMSD -1
REMARK  1 active torsions:
REMARK  status: ('A' for Active; 'I' for Inactive)
REMARK    1  A    between atoms: C3_4  and  O_7 
ROOT
ATOM      1  C   UNL d   1       1.361  -1.320   0.500  0.00  0.00    -0.033 A 
ATOM      2  C1  UNL d   1       1.287  -0.021  -0.008  0.00  0.00     0.039 A 
ATOM      3  C2  UNL d   1       2.231   0.423  -0.935  0.00  0.00    -0.080 A 
ATOM      4  C3  UNL d   1       3.243  -0.440  -1.347  0.00  0.00     0.150 A 
ATOM      5  C4  UNL d   1       3.321  -1.736  -0.849  0.00  0.00    -0.007 A 
ATOM      6  C5  UNL d   1       2.378  -2.178   0.078  0.00  0.00     0.039 A 
ENDROOT
BRANCH   4   7
ATOM      7  O   UNL d   1       4.190  -0.050  -2.247  0.00  0.00    -0.526 OA
ATOM      8  H5  UNL d   1       4.027   0.879  -2.482  0.00  0.00     0.418 HD
ENDBRANCH   4   7
TORSDOF 1
ENDMDL
