MODEL 1
REMARK minimizedAffinity -3.97192454
REMARK minimizedRMSD -1
REMARK  1 active torsions:
REMARK  status: ('A' for Active; 'I' for Inactive)
REMARK    1  A    between atoms: C3_4  and  O_7 
ROOT
ATOM      1  C   UNL d   1       2.058   0.623   0.192  0.00  0.00    -0.033 A 
ATOM      2  C1  UNL d   1       3.139   0.114  -0.529  0.00  0.00     0.039 A 
ATOM      3  C2  UNL d   1       3.225  -1.256  -0.788  0.00  0.00    -0.080 A 
ATOM      4  C3  UNL d   1       2.223  -2.103  -0.323  0.00  0.00     0.150 A 
ATOM      5  C4  UNL d   1       1.141  -1.602   0.392  0.00  0.00    -0.007 A 
ATOM      6  C5  UNL d   1       1.057  -0.234   0.651  0.00  0.00     0.039 A 
ENDROOT
BRANCH   4   7
ATOM      7  O   UNL d   1       2.266  -3.447  -0.547  0.00  0.00    -0.526 OA
ATOM      8  H5  UNL d   1       3.085  -3.653  -1.028  0.00  0.00     0.418 HD
ENDBRANCH   4   7
TORSDOF 1
ENDMDL
