MODEL 1
REMARK minimizedAffinity -4.28065872
REMARK minimizedRMSD -1
REMARK  1 active torsions:
REMARK  status: ('A' for Active; 'I' for Inactive)
REMARK    1  A    between atoms: C3_4  and  O_7 
ROOT
ATOM      1  C   UNL d   1       0.749   0.029   0.492  0.00  0.00    -0.033 A 
ATOM      2  C1  UNL d   1       1.520   0.882  -0.301  0.00  0.00     0.039 A 
ATOM      3  C2  UNL d   1       2.651   0.394  -0.957  0.00  0.00    -0.080 A 
ATOM      4  C3  UNL d   1       3.000  -0.946  -0.814  0.00  0.00     0.150 A 
ATOM      5  C4  UNL d   1       2.234  -1.802  -0.029  0.00  0.00    -0.007 A 
ATOM      6  C5  UNL d   1       1.105  -1.313   0.626  0.00  0.00     0.039 A 
ENDROOT
BRANCH   4   7
ATOM      7  O   UNL d   1       4.099  -1.466  -1.432  0.00  0.00    -0.526 OA
ATOM      8  H5  UNL d   1       4.546  -0.753  -1.916  0.00  0.00     0.418 HD
ENDBRANCH   4   7
TORSDOF 1
ENDMDL
