MODEL 1
REMARK minimizedAffinity -3.47344089
REMARK minimizedRMSD -1
REMARK  1 active torsions:
REMARK  status: ('A' for Active; 'I' for Inactive)
REMARK    1  A    between atoms: C3_4  and  O_7 
ROOT
ATOM      1  C   UNL d   1       2.191  -0.273  -0.416  0.00  0.00    -0.033 A 
ATOM      2  C1  UNL d   1       2.605   0.969  -0.901  0.00  0.00     0.039 A 
ATOM      3  C2  UNL d   1       3.722   1.058  -1.734  0.00  0.00    -0.080 A 
ATOM      4  C3  UNL d   1       4.414  -0.101  -2.075  0.00  0.00     0.150 A 
ATOM      5  C4  UNL d   1       4.005  -1.342  -1.598  0.00  0.00    -0.007 A 
ATOM      6  C5  UNL d   1       2.890  -1.429  -0.765  0.00  0.00     0.039 A 
ENDROOT
BRANCH   4   7
ATOM      7  O   UNL d   1       5.513  -0.064  -2.881  0.00  0.00    -0.526 OA
ATOM      8  H5  UNL d   1       5.695   0.863  -3.110  0.00  0.00     0.418 HD
ENDBRANCH   4   7
TORSDOF 1
ENDMDL
