MODEL 1
REMARK minimizedAffinity -5.94602537
REMARK minimizedRMSD -1
REMARK  1 active torsions:
REMARK  status: ('A' for Active; 'I' for Inactive)
REMARK    1  A    between atoms: C3_4  and  O_7 
ROOT
ATOM      1  C   UNL d   1       0.969   0.085   0.306  0.00  0.00    -0.033 A 
ATOM      2  C1  UNL d   1       1.658  -1.119   0.142  0.00  0.00     0.039 A 
ATOM      3  C2  UNL d   1       2.785  -1.174  -0.679  0.00  0.00    -0.080 A 
ATOM      4  C3  UNL d   1       3.214  -0.021  -1.329  0.00  0.00     0.150 A 
ATOM      5  C4  UNL d   1       2.536   1.183  -1.168  0.00  0.00    -0.007 A 
ATOM      6  C5  UNL d   1       1.409   1.236  -0.348  0.00  0.00     0.039 A 
ENDROOT
BRANCH   4   7
ATOM      7  O   UNL d   1       4.307  -0.027  -2.145  0.00  0.00    -0.526 OA
ATOM      8  H5  UNL d   1       4.657  -0.932  -2.183  0.00  0.00     0.418 HD
ENDBRANCH   4   7
TORSDOF 1
ENDMDL
