MODEL 1
REMARK minimizedAffinity -4.85234499
REMARK minimizedRMSD -1
REMARK  1 active torsions:
REMARK  status: ('A' for Active; 'I' for Inactive)
REMARK    1  A    between atoms: C3_4  and  O_7 
ROOT
ATOM      1  C   UNL d   1       3.142   0.067  -1.741  0.00  0.00    -0.033 A 
ATOM      2  C1  UNL d   1       2.117   0.892  -1.273  0.00  0.00     0.039 A 
ATOM      3  C2  UNL d   1       1.277   0.451  -0.249  0.00  0.00    -0.080 A 
ATOM      4  C3  UNL d   1       1.471  -0.814   0.298  0.00  0.00     0.150 A 
ATOM      5  C4  UNL d   1       2.493  -1.639  -0.161  0.00  0.00    -0.007 A 
ATOM      6  C5  UNL d   1       3.331  -1.198  -1.184  0.00  0.00     0.039 A 
ENDROOT
BRANCH   4   7
ATOM      7  O   UNL d   1       0.673  -1.290   1.296  0.00  0.00    -0.526 OA
ATOM      8  H5  UNL d   1      -0.006  -0.623   1.491  0.00  0.00     0.418 HD
ENDBRANCH   4   7
TORSDOF 1
ENDMDL
