MODEL 1
REMARK minimizedAffinity -4.82168055
REMARK minimizedRMSD -1
REMARK  1 active torsions:
REMARK  status: ('A' for Active; 'I' for Inactive)
REMARK    1  A    between atoms: C3_4  and  O_7 
ROOT
ATOM      1  C   UNL d   1       1.157  -0.077   0.173  0.00  0.00    -0.033 A 
ATOM      2  C1  UNL d   1       1.728  -1.349   0.101  0.00  0.00     0.039 A 
ATOM      3  C2  UNL d   1       2.819  -1.580  -0.739  0.00  0.00    -0.080 A 
ATOM      4  C3  UNL d   1       3.330  -0.532  -1.500  0.00  0.00     0.150 A 
ATOM      5  C4  UNL d   1       2.769   0.739  -1.430  0.00  0.00    -0.007 A 
ATOM      6  C5  UNL d   1       1.679   0.968  -0.591  0.00  0.00     0.039 A 
ENDROOT
BRANCH   4   7
ATOM      7  O   UNL d   1       4.390  -0.711  -2.338  0.00  0.00    -0.526 OA
ATOM      8  H5  UNL d   1       4.655  -1.645  -2.304  0.00  0.00     0.418 HD
ENDBRANCH   4   7
TORSDOF 1
ENDMDL
