MODEL 1
REMARK minimizedAffinity -2.77616501
REMARK minimizedRMSD -1
REMARK  0 active torsions:
REMARK  status: ('A' for Active; 'I' for Inactive)
ROOT
ATOM      1  C1  BNZ d   1      -0.015  -0.074   2.147  0.00  0.00     0.000 A 
ATOM      2  C2  BNZ d   1      -1.122  -0.145   1.344  0.00  0.00     0.000 A 
ATOM      3  C3  BNZ d   1      -1.049   0.191   0.021  0.00  0.00     0.000 A 
ATOM      4  C4  BNZ d   1       0.118   0.635  -0.487  0.00  0.00     0.000 A 
ATOM      5  C5  BNZ d   1       1.241   0.721   0.312  0.00  0.00     0.000 A 
ATOM      6  C6  BNZ d   1       1.174   0.345   1.634  0.00  0.00     0.000 A 
ENDROOT
TORSDOF 0
ENDMDL
