MODEL 1
REMARK minimizedAffinity -2.52612495
REMARK minimizedRMSD -1
REMARK  0 active torsions:
REMARK  status: ('A' for Active; 'I' for Inactive)
ROOT
ATOM      1  C1  BNZ d   1       0.018   0.616  -0.745  0.00  0.00     0.000 A 
ATOM      2  C2  BNZ d   1       0.923   0.403   0.260  0.00  0.00     0.000 A 
ATOM      3  C3  BNZ d   1       0.508   0.224   1.550  0.00  0.00     0.000 A 
ATOM      4  C4  BNZ d   1      -0.807   0.298   1.840  0.00  0.00     0.000 A 
ATOM      5  C5  BNZ d   1      -1.732   0.521   0.839  0.00  0.00     0.000 A 
ATOM      6  C6  BNZ d   1      -1.313   0.662  -0.464  0.00  0.00     0.000 A 
ENDROOT
TORSDOF 0
ENDMDL
