MODEL 1
REMARK minimizedAffinity -4.47736597
REMARK minimizedRMSD -1
REMARK  0 active torsions:
REMARK  status: ('A' for Active; 'I' for Inactive)
ROOT
ATOM      1  C1  BNZ d   1       0.694  -0.126   1.251  0.00  0.00     0.000 A 
ATOM      2  C2  BNZ d   1      -0.094  -0.059   0.132  0.00  0.00     0.000 A 
ATOM      3  C3  BNZ d   1      -1.449  -0.218   0.220  0.00  0.00     0.000 A 
ATOM      4  C4  BNZ d   1      -2.009  -0.484   1.417  0.00  0.00     0.000 A 
ATOM      5  C5  BNZ d   1      -1.228  -0.564   2.553  0.00  0.00     0.000 A 
ATOM      6  C6  BNZ d   1       0.131  -0.365   2.467  0.00  0.00     0.000 A 
ENDROOT
TORSDOF 0
ENDMDL
