MODEL 1
REMARK minimizedAffinity -4.42223024
REMARK minimizedRMSD -1
REMARK  0 active torsions:
REMARK  status: ('A' for Active; 'I' for Inactive)
ROOT
ATOM      1  C1  BNZ d   1      -1.064   0.171   0.838  0.00  0.00     0.000 A 
ATOM      2  C2  BNZ d   1      -2.351   0.470   1.197  0.00  0.00     0.000 A 
ATOM      3  C3  BNZ d   1      -2.745   0.412   2.505  0.00  0.00     0.000 A 
ATOM      4  C4  BNZ d   1      -1.863   0.016   3.446  0.00  0.00     0.000 A 
ATOM      5  C5  BNZ d   1      -0.564  -0.298   3.098  0.00  0.00     0.000 A 
ATOM      6  C6  BNZ d   1      -0.161  -0.200   1.786  0.00  0.00     0.000 A 
ENDROOT
TORSDOF 0
ENDMDL
