MODEL 1
REMARK minimizedAffinity -2.18020082
REMARK minimizedRMSD -1
REMARK  0 active torsions:
REMARK  status: ('A' for Active; 'I' for Inactive)
ROOT
ATOM      1  C1  BNZ d   1       0.513  -0.777   0.062  0.00  0.00     0.000 A 
ATOM      2  C2  BNZ d   1       0.301  -1.302  -1.185  0.00  0.00     0.000 A 
ATOM      3  C3  BNZ d   1       0.474  -0.537  -2.304  0.00  0.00     0.000 A 
ATOM      4  C4  BNZ d   1       0.818   0.760  -2.174  0.00  0.00     0.000 A 
ATOM      5  C5  BNZ d   1       1.027   1.306  -0.924  0.00  0.00     0.000 A 
ATOM      6  C6  BNZ d   1       0.890   0.523   0.200  0.00  0.00     0.000 A 
ENDROOT
TORSDOF 0
ENDMDL
