MODEL 1
REMARK minimizedAffinity -4.2529912
REMARK minimizedRMSD -1
REMARK  0 active torsions:
REMARK  status: ('A' for Active; 'I' for Inactive)
ROOT
ATOM      1  C1  BNZ d   1      -0.657   0.220   1.632  0.00  0.00     0.000 A 
ATOM      2  C2  BNZ d   1      -1.781   0.697   1.012  0.00  0.00     0.000 A 
ATOM      3  C3  BNZ d   1      -2.939   0.888   1.713  0.00  0.00     0.000 A 
ATOM      4  C4  BNZ d   1      -2.983   0.564   3.021  0.00  0.00     0.000 A 
ATOM      5  C5  BNZ d   1      -1.861   0.073   3.658  0.00  0.00     0.000 A 
ATOM      6  C6  BNZ d   1      -0.686  -0.081   2.959  0.00  0.00     0.000 A 
ENDROOT
TORSDOF 0
ENDMDL
