MODEL 1
REMARK minimizedAffinity -3.20248795
REMARK minimizedRMSD -1
REMARK  0 active torsions:
REMARK  status: ('A' for Active; 'I' for Inactive)
ROOT
ATOM      1  C1  BNZ d   1       1.228   1.444  -0.396  0.00  0.00     0.000 A 
ATOM      2  C2  BNZ d   1       2.097   1.444   0.663  0.00  0.00     0.000 A 
ATOM      3  C3  BNZ d   1       2.139   0.392   1.534  0.00  0.00     0.000 A 
ATOM      4  C4  BNZ d   1       1.285  -0.639   1.370  0.00  0.00     0.000 A 
ATOM      5  C5  BNZ d   1       0.397  -0.650   0.314  0.00  0.00     0.000 A 
ATOM      6  C6  BNZ d   1       0.385   0.393  -0.584  0.00  0.00     0.000 A 
ENDROOT
TORSDOF 0
ENDMDL
