MODEL 1
REMARK minimizedAffinity -2.46276212
REMARK minimizedRMSD -1
REMARK  0 active torsions:
REMARK  status: ('A' for Active; 'I' for Inactive)
ROOT
ATOM      1  C1  BNZ d   1       0.987   0.228  -2.476  0.00  0.00     0.000 A 
ATOM      2  C2  BNZ d   1       2.223   0.049  -3.039  0.00  0.00     0.000 A 
ATOM      3  C3  BNZ d   1       2.516  -1.088  -3.738  0.00  0.00     0.000 A 
ATOM      4  C4  BNZ d   1       1.587  -2.061  -3.840  0.00  0.00     0.000 A 
ATOM      5  C5  BNZ d   1       0.340  -1.900  -3.271  0.00  0.00     0.000 A 
ATOM      6  C6  BNZ d   1       0.036  -0.737  -2.601  0.00  0.00     0.000 A 
ENDROOT
TORSDOF 0
ENDMDL
