MODEL 1
REMARK minimizedAffinity -3.43887901
REMARK minimizedRMSD -1
REMARK  0 active torsions:
REMARK  status: ('A' for Active; 'I' for Inactive)
ROOT
ATOM      1  C1  BNZ d   1       1.096   0.458   0.169  0.00  0.00     0.000 A 
ATOM      2  C2  BNZ d   1       0.349   0.703  -0.953  0.00  0.00     0.000 A 
ATOM      3  C3  BNZ d   1      -1.010   0.828  -0.875  0.00  0.00     0.000 A 
ATOM      4  C4  BNZ d   1      -1.623   0.669   0.315  0.00  0.00     0.000 A 
ATOM      5  C5  BNZ d   1      -0.885   0.413   1.454  0.00  0.00     0.000 A 
ATOM      6  C6  BNZ d   1       0.486   0.327   1.378  0.00  0.00     0.000 A 
ENDROOT
TORSDOF 0
ENDMDL
