MODEL 1
REMARK minimizedAffinity -4.75698376
REMARK minimizedRMSD -1
REMARK  0 active torsions:
REMARK  status: ('A' for Active; 'I' for Inactive)
ROOT
ATOM      1  C1  BNZ d   1       0.409   0.312   1.844  0.00  0.00     0.000 A 
ATOM      2  C2  BNZ d   1      -0.448  -0.152   2.806  0.00  0.00     0.000 A 
ATOM      3  C3  BNZ d   1      -1.578  -0.841   2.464  0.00  0.00     0.000 A 
ATOM      4  C4  BNZ d   1      -1.870  -1.029   1.161  0.00  0.00     0.000 A 
ATOM      5  C5  BNZ d   1      -1.021  -0.559   0.179  0.00  0.00     0.000 A 
ATOM      6  C6  BNZ d   1       0.135   0.100   0.528  0.00  0.00     0.000 A 
ENDROOT
TORSDOF 0
ENDMDL
