MODEL 1
REMARK minimizedAffinity -2.4621613
REMARK minimizedRMSD -1
REMARK  0 active torsions:
REMARK  status: ('A' for Active; 'I' for Inactive)
ROOT
ATOM      1  C1  BNZ d   1       0.119  -0.148   1.073  0.00  0.00     0.000 A 
ATOM      2  C2  BNZ d   1       0.704  -0.876   0.071  0.00  0.00     0.000 A 
ATOM      3  C3  BNZ d   1       0.336  -2.172  -0.159  0.00  0.00     0.000 A 
ATOM      4  C4  BNZ d   1      -0.586  -2.751   0.637  0.00  0.00     0.000 A 
ATOM      5  C5  BNZ d   1      -1.178  -2.033   1.657  0.00  0.00     0.000 A 
ATOM      6  C6  BNZ d   1      -0.833  -0.717   1.862  0.00  0.00     0.000 A 
ENDROOT
TORSDOF 0
ENDMDL
