MODEL 1
REMARK minimizedAffinity -1.55002737
REMARK minimizedRMSD -1
REMARK  0 active torsions:
REMARK  status: ('A' for Active; 'I' for Inactive)
ROOT
ATOM      1  C1  BNZ d   1      -0.371  -1.450   0.771  0.00  0.00     0.000 A 
ATOM      2  C2  BNZ d   1       0.321  -0.992  -0.318  0.00  0.00     0.000 A 
ATOM      3  C3  BNZ d   1      -0.150   0.060  -1.054  0.00  0.00     0.000 A 
ATOM      4  C4  BNZ d   1      -1.329   0.625  -0.724  0.00  0.00     0.000 A 
ATOM      5  C5  BNZ d   1      -2.043   0.168   0.366  0.00  0.00     0.000 A 
ATOM      6  C6  BNZ d   1      -1.547  -0.865   1.127  0.00  0.00     0.000 A 
ENDROOT
TORSDOF 0
ENDMDL
