MODEL 1
REMARK minimizedAffinity -4.20769405
REMARK minimizedRMSD -1
REMARK  0 active torsions:
REMARK  status: ('A' for Active; 'I' for Inactive)
ROOT
ATOM      1  C1  BNZ d   1      -0.854   0.575  -0.424  0.00  0.00     0.000 A 
ATOM      2  C2  BNZ d   1       0.374   0.012  -0.648  0.00  0.00     0.000 A 
ATOM      3  C3  BNZ d   1       1.143  -0.426   0.394  0.00  0.00     0.000 A 
ATOM      4  C4  BNZ d   1       0.702  -0.264   1.658  0.00  0.00     0.000 A 
ATOM      5  C5  BNZ d   1      -0.530   0.310   1.900  0.00  0.00     0.000 A 
ATOM      6  C6  BNZ d   1      -1.318   0.715   0.847  0.00  0.00     0.000 A 
ENDROOT
TORSDOF 0
ENDMDL
