MODEL 1
REMARK minimizedAffinity -2.76229525
REMARK minimizedRMSD -1
REMARK  0 active torsions:
REMARK  status: ('A' for Active; 'I' for Inactive)
ROOT
ATOM      1  C1  BNZ d   1       1.143   0.410  -0.298  0.00  0.00     0.000 A 
ATOM      2  C2  BNZ d   1       1.897   0.811   0.773  0.00  0.00     0.000 A 
ATOM      3  C3  BNZ d   1       1.462   0.602   2.052  0.00  0.00     0.000 A 
ATOM      4  C4  BNZ d   1       0.259   0.028   2.258  0.00  0.00     0.000 A 
ATOM      5  C5  BNZ d   1      -0.516  -0.374   1.188  0.00  0.00     0.000 A 
ATOM      6  C6  BNZ d   1      -0.058  -0.196  -0.097  0.00  0.00     0.000 A 
ENDROOT
TORSDOF 0
ENDMDL
