MODEL 1
REMARK minimizedAffinity -2.90853095
REMARK minimizedRMSD -1
REMARK  0 active torsions:
REMARK  status: ('A' for Active; 'I' for Inactive)
ROOT
ATOM      1  C1  BNZ d   1       0.126   0.506  -0.326  0.00  0.00     0.000 A 
ATOM      2  C2  BNZ d   1       0.969   0.410   0.749  0.00  0.00     0.000 A 
ATOM      3  C3  BNZ d   1       0.474   0.269   2.015  0.00  0.00     0.000 A 
ATOM      4  C4  BNZ d   1      -0.861   0.265   2.209  0.00  0.00     0.000 A 
ATOM      5  C5  BNZ d   1      -1.723   0.370   1.136  0.00  0.00     0.000 A 
ATOM      6  C6  BNZ d   1      -1.222   0.472  -0.141  0.00  0.00     0.000 A 
ENDROOT
TORSDOF 0
ENDMDL
