MODEL 1
REMARK minimizedAffinity -2.49647069
REMARK minimizedRMSD -1
REMARK  0 active torsions:
REMARK  status: ('A' for Active; 'I' for Inactive)
ROOT
ATOM      1  C1  BNZ d   1       0.530   0.155   1.939  0.00  0.00     0.000 A 
ATOM      2  C2  BNZ d   1       1.180   0.133   0.734  0.00  0.00     0.000 A 
ATOM      3  C3  BNZ d   1       0.487   0.249  -0.438  0.00  0.00     0.000 A 
ATOM      4  C4  BNZ d   1      -0.858   0.346  -0.405  0.00  0.00     0.000 A 
ATOM      5  C5  BNZ d   1      -1.529   0.360   0.801  0.00  0.00     0.000 A 
ATOM      6  C6  BNZ d   1      -0.824   0.282   1.980  0.00  0.00     0.000 A 
ENDROOT
TORSDOF 0
ENDMDL
