MODEL 1
REMARK minimizedAffinity -2.38958287
REMARK minimizedRMSD -1
REMARK  0 active torsions:
REMARK  status: ('A' for Active; 'I' for Inactive)
ROOT
ATOM      1  C1  BNZ d   1      -0.779   0.153  -1.111  0.00  0.00     0.000 A 
ATOM      2  C2  BNZ d   1       0.544  -0.092  -1.369  0.00  0.00     0.000 A 
ATOM      3  C3  BNZ d   1       1.444  -0.220  -0.349  0.00  0.00     0.000 A 
ATOM      4  C4  BNZ d   1       1.029  -0.063   0.925  0.00  0.00     0.000 A 
ATOM      5  C5  BNZ d   1      -0.299   0.193   1.201  0.00  0.00     0.000 A 
ATOM      6  C6  BNZ d   1      -1.209   0.282   0.173  0.00  0.00     0.000 A 
ENDROOT
TORSDOF 0
ENDMDL
