MODEL 1
REMARK minimizedAffinity 3.85842514
REMARK minimizedRMSD -1
REMARK  0 active torsions:
REMARK  status: ('A' for Active; 'I' for Inactive)
ROOT
ATOM      1  C   UNL d   1      -1.133   2.994   1.510  0.00  0.00     0.077 C 
ATOM      2  C1  UNL d   1      -0.670   1.569   1.569  0.00  0.00    -0.074 A 
ATOM      3  C2  UNL d   1      -1.217   0.600   0.722  0.00  0.00    -0.005 A 
ATOM      4  C3  UNL d   1      -0.770  -0.720   0.782  0.00  0.00     0.006 A 
ATOM      5  C4  UNL d   1       0.227  -1.084   1.688  0.00  0.00    -0.005 A 
ATOM      6  C5  UNL d   1       0.786  -0.128   2.542  0.00  0.00    -0.074 A 
ATOM      7  C6  UNL d   1       1.865  -0.500   3.515  0.00  0.00     0.077 C 
ATOM      8  C7  UNL d   1       0.336   1.198   2.471  0.00  0.00    -0.001 A 
ENDROOT
TORSDOF 0
ENDMDL
