MODEL 1
REMARK minimizedAffinity -1.77246714
REMARK minimizedRMSD -1
REMARK  0 active torsions:
REMARK  status: ('A' for Active; 'I' for Inactive)
ROOT
ATOM      1  C   UNL d   1       1.067   1.922   0.688  0.00  0.00     0.077 C 
ATOM      2  C1  UNL d   1      -0.116   1.251   1.321  0.00  0.00    -0.074 A 
ATOM      3  C2  UNL d   1      -0.302  -0.131   1.214  0.00  0.00    -0.005 A 
ATOM      4  C3  UNL d   1      -1.402  -0.741   1.816  0.00  0.00     0.006 A 
ATOM      5  C4  UNL d   1      -2.325   0.022   2.531  0.00  0.00    -0.005 A 
ATOM      6  C5  UNL d   1      -2.156   1.405   2.650  0.00  0.00    -0.074 A 
ATOM      7  C6  UNL d   1      -3.134   2.240   3.423  0.00  0.00     0.077 C 
ATOM      8  C7  UNL d   1      -1.044   2.011   2.047  0.00  0.00    -0.001 A 
ENDROOT
TORSDOF 0
ENDMDL
