MODEL 1
REMARK minimizedAffinity -2.30835891
REMARK minimizedRMSD -1
REMARK  0 active torsions:
REMARK  status: ('A' for Active; 'I' for Inactive)
ROOT
ATOM      1  C   UNL d   1      -4.494   1.881   4.461  0.00  0.00     0.077 C 
ATOM      2  C1  UNL d   1      -3.430   1.307   3.573  0.00  0.00    -0.074 A 
ATOM      3  C2  UNL d   1      -3.370  -0.066   3.318  0.00  0.00    -0.005 A 
ATOM      4  C3  UNL d   1      -2.380  -0.584   2.482  0.00  0.00     0.006 A 
ATOM      5  C4  UNL d   1      -1.443   0.266   1.894  0.00  0.00    -0.005 A 
ATOM      6  C5  UNL d   1      -1.488   1.642   2.136  0.00  0.00    -0.074 A 
ATOM      7  C6  UNL d   1      -0.494   2.571   1.504  0.00  0.00     0.077 C 
ATOM      8  C7  UNL d   1      -2.489   2.156   2.971  0.00  0.00    -0.001 A 
ENDROOT
TORSDOF 0
ENDMDL
