MODEL 1
REMARK minimizedAffinity -0.896407545
REMARK minimizedRMSD -1
REMARK  0 active torsions:
REMARK  status: ('A' for Active; 'I' for Inactive)
ROOT
ATOM      1  C   UNL d   1       2.020  -0.228   3.667  0.00  0.00     0.077 C 
ATOM      2  C1  UNL d   1       0.898   0.353   2.860  0.00  0.00    -0.074 A 
ATOM      3  C2  UNL d   1       1.132   1.376   1.935  0.00  0.00    -0.005 A 
ATOM      4  C3  UNL d   1       0.079   1.900   1.185  0.00  0.00     0.006 A 
ATOM      5  C4  UNL d   1      -1.216   1.408   1.352  0.00  0.00    -0.005 A 
ATOM      6  C5  UNL d   1      -1.469   0.385   2.272  0.00  0.00    -0.074 A 
ATOM      7  C6  UNL d   1      -2.853  -0.161   2.457  0.00  0.00     0.077 C 
ATOM      8  C7  UNL d   1      -0.405  -0.141   3.017  0.00  0.00    -0.001 A 
ENDROOT
TORSDOF 0
ENDMDL
