MODEL 1
REMARK minimizedAffinity 0.323739052
REMARK minimizedRMSD -1
REMARK  0 active torsions:
REMARK  status: ('A' for Active; 'I' for Inactive)
ROOT
ATOM      1  C   UNL d   1       1.744   0.422   0.762  0.00  0.00     0.077 C 
ATOM      2  C1  UNL d   1       0.424   0.362   1.471  0.00  0.00    -0.074 A 
ATOM      3  C2  UNL d   1      -0.500   1.406   1.361  0.00  0.00    -0.005 A 
ATOM      4  C3  UNL d   1      -1.728   1.331   2.019  0.00  0.00     0.006 A 
ATOM      5  C4  UNL d   1      -2.044   0.214   2.793  0.00  0.00    -0.005 A 
ATOM      6  C5  UNL d   1      -1.133  -0.841   2.914  0.00  0.00    -0.074 A 
ATOM      7  C6  UNL d   1      -1.461  -2.053   3.733  0.00  0.00     0.077 C 
ATOM      8  C7  UNL d   1       0.096  -0.761   2.244  0.00  0.00    -0.001 A 
ENDROOT
TORSDOF 0
ENDMDL
