MODEL 1
REMARK minimizedAffinity 0.857939184
REMARK minimizedRMSD -1
REMARK  0 active torsions:
REMARK  status: ('A' for Active; 'I' for Inactive)
ROOT
ATOM      1  C   UNL d   1      -2.232   2.785   1.590  0.00  0.00     0.077 C 
ATOM      2  C1  UNL d   1      -0.891   2.132   1.426  0.00  0.00    -0.074 A 
ATOM      3  C2  UNL d   1      -0.002   2.556   0.434  0.00  0.00    -0.005 A 
ATOM      4  C3  UNL d   1       1.246   1.946   0.300  0.00  0.00     0.006 A 
ATOM      5  C4  UNL d   1       1.616   0.908   1.156  0.00  0.00    -0.005 A 
ATOM      6  C5  UNL d   1       0.740   0.472   2.155  0.00  0.00    -0.074 A 
ATOM      7  C6  UNL d   1       1.126  -0.636   3.090  0.00  0.00     0.077 C 
ATOM      8  C7  UNL d   1      -0.509   1.094   2.288  0.00  0.00    -0.001 A 
ENDROOT
TORSDOF 0
ENDMDL
