MODEL 1
REMARK minimizedAffinity -0.988045156
REMARK minimizedRMSD -1
REMARK  0 active torsions:
REMARK  status: ('A' for Active; 'I' for Inactive)
ROOT
ATOM      1  C   UNL d   1      -3.430  -0.725   2.714  0.00  0.00     0.077 C 
ATOM      2  C1  UNL d   1      -2.296   0.149   2.265  0.00  0.00    -0.074 A 
ATOM      3  C2  UNL d   1      -2.452   1.535   2.169  0.00  0.00    -0.005 A 
ATOM      4  C3  UNL d   1      -1.385   2.336   1.759  0.00  0.00     0.006 A 
ATOM      5  C4  UNL d   1      -0.155   1.759   1.442  0.00  0.00    -0.005 A 
ATOM      6  C5  UNL d   1       0.020   0.375   1.533  0.00  0.00    -0.074 A 
ATOM      7  C6  UNL d   1       1.338  -0.260   1.205  0.00  0.00     0.077 C 
ATOM      8  C7  UNL d   1      -1.054  -0.422   1.952  0.00  0.00    -0.001 A 
ENDROOT
TORSDOF 0
ENDMDL
