MODEL 1
REMARK minimizedAffinity -0.399294704
REMARK minimizedRMSD -1
REMARK  0 active torsions:
REMARK  status: ('A' for Active; 'I' for Inactive)
ROOT
ATOM      1  C   UNL d   1      -0.590   2.206   2.151  0.00  0.00     0.077 C 
ATOM      2  C1  UNL d   1      -1.734   1.436   2.741  0.00  0.00    -0.074 A 
ATOM      3  C2  UNL d   1      -1.870   0.063   2.512  0.00  0.00    -0.005 A 
ATOM      4  C3  UNL d   1      -2.934  -0.642   3.075  0.00  0.00     0.006 A 
ATOM      5  C4  UNL d   1      -3.871   0.018   3.872  0.00  0.00    -0.005 A 
ATOM      6  C5  UNL d   1      -3.750   1.390   4.113  0.00  0.00    -0.074 A 
ATOM      7  C6  UNL d   1      -4.742   2.113   4.975  0.00  0.00     0.077 C 
ATOM      8  C7  UNL d   1      -2.674   2.090   3.549  0.00  0.00    -0.001 A 
ENDROOT
TORSDOF 0
ENDMDL
