MODEL 1
REMARK minimizedAffinity -1.02109909
REMARK minimizedRMSD -1
REMARK  0 active torsions:
REMARK  status: ('A' for Active; 'I' for Inactive)
ROOT
ATOM      1  C   UNL d   1       1.075  -0.471   1.214  0.00  0.00     0.077 C 
ATOM      2  C1  UNL d   1       0.118   0.647   1.504  0.00  0.00    -0.074 A 
ATOM      3  C2  UNL d   1       0.369   1.945   1.047  0.00  0.00    -0.005 A 
ATOM      4  C3  UNL d   1      -0.534   2.973   1.317  0.00  0.00     0.006 A 
ATOM      5  C4  UNL d   1      -1.696   2.714   2.045  0.00  0.00    -0.005 A 
ATOM      6  C5  UNL d   1      -1.965   1.422   2.510  0.00  0.00    -0.074 A 
ATOM      7  C6  UNL d   1      -3.213   1.125   3.285  0.00  0.00     0.077 C 
ATOM      8  C7  UNL d   1      -1.055   0.393   2.229  0.00  0.00    -0.001 A 
ENDROOT
TORSDOF 0
ENDMDL
