MODEL 1
REMARK minimizedAffinity -2.68567657
REMARK minimizedRMSD -1
REMARK  0 active torsions:
REMARK  status: ('A' for Active; 'I' for Inactive)
ROOT
ATOM      1  C   UNL d   1       0.231   3.023   0.684  0.00  0.00     0.077 C 
ATOM      2  C1  UNL d   1      -0.492   1.990   1.497  0.00  0.00    -0.074 A 
ATOM      3  C2  UNL d   1      -0.018   0.677   1.577  0.00  0.00    -0.005 A 
ATOM      4  C3  UNL d   1      -0.696  -0.270   2.344  0.00  0.00     0.006 A 
ATOM      5  C4  UNL d   1      -1.854   0.086   3.037  0.00  0.00    -0.005 A 
ATOM      6  C5  UNL d   1      -2.343   1.394   2.969  0.00  0.00    -0.074 A 
ATOM      7  C6  UNL d   1      -3.580   1.796   3.716  0.00  0.00     0.077 C 
ATOM      8  C7  UNL d   1      -1.652   2.342   2.202  0.00  0.00    -0.001 A 
ENDROOT
TORSDOF 0
ENDMDL
