MODEL 1
REMARK minimizedAffinity -3.23248625
REMARK minimizedRMSD -1
REMARK  0 active torsions:
REMARK  status: ('A' for Active; 'I' for Inactive)
ROOT
ATOM      1  C   UNL d   1      -2.584   2.530   2.692  0.00  0.00     0.077 C 
ATOM      2  C1  UNL d   1      -1.573   1.510   2.261  0.00  0.00    -0.074 A 
ATOM      3  C2  UNL d   1      -0.439   1.886   1.532  0.00  0.00    -0.005 A 
ATOM      4  C3  UNL d   1       0.498   0.927   1.146  0.00  0.00     0.006 A 
ATOM      5  C4  UNL d   1       0.311  -0.414   1.484  0.00  0.00    -0.005 A 
ATOM      6  C5  UNL d   1      -0.816  -0.808   2.212  0.00  0.00    -0.074 A 
ATOM      7  C6  UNL d   1      -1.027  -2.243   2.592  0.00  0.00     0.077 C 
ATOM      8  C7  UNL d   1      -1.749   0.162   2.603  0.00  0.00    -0.001 A 
ENDROOT
TORSDOF 0
ENDMDL
