MODEL 1
REMARK minimizedAffinity -3.62360287
REMARK minimizedRMSD -1
REMARK  0 active torsions:
REMARK  status: ('A' for Active; 'I' for Inactive)
ROOT
ATOM      1  C   UNL d   1      -3.022   2.139   3.162  0.00  0.00     0.077 C 
ATOM      2  C1  UNL d   1      -1.791   1.646   2.461  0.00  0.00    -0.074 A 
ATOM      3  C2  UNL d   1      -0.784   2.533   2.069  0.00  0.00    -0.005 A 
ATOM      4  C3  UNL d   1       0.360   2.059   1.426  0.00  0.00     0.006 A 
ATOM      5  C4  UNL d   1       0.507   0.695   1.169  0.00  0.00    -0.005 A 
ATOM      6  C5  UNL d   1      -0.490  -0.207   1.554  0.00  0.00    -0.074 A 
ATOM      7  C6  UNL d   1      -0.343  -1.677   1.295  0.00  0.00     0.077 C 
ATOM      8  C7  UNL d   1      -1.633   0.276   2.206  0.00  0.00    -0.001 A 
ENDROOT
TORSDOF 0
ENDMDL
