MODEL 1
REMARK minimizedAffinity 1.1192137
REMARK minimizedRMSD -1
REMARK  0 active torsions:
REMARK  status: ('A' for Active; 'I' for Inactive)
ROOT
ATOM      1  C   UNL d   1      -2.021  -1.591   2.616  0.00  0.00     0.077 C 
ATOM      2  C1  UNL d   1      -1.781  -0.112   2.543  0.00  0.00    -0.074 A 
ATOM      3  C2  UNL d   1      -2.552   0.779   3.297  0.00  0.00    -0.005 A 
ATOM      4  C3  UNL d   1      -2.312   2.151   3.226  0.00  0.00     0.006 A 
ATOM      5  C4  UNL d   1      -1.299   2.645   2.403  0.00  0.00    -0.005 A 
ATOM      6  C5  UNL d   1      -0.518   1.770   1.643  0.00  0.00    -0.074 A 
ATOM      7  C6  UNL d   1       0.581   2.284   0.760  0.00  0.00     0.077 C 
ATOM      8  C7  UNL d   1      -0.761   0.392   1.724  0.00  0.00    -0.001 A 
ENDROOT
TORSDOF 0
ENDMDL
