MODEL 1
REMARK minimizedAffinity -0.796609759
REMARK minimizedRMSD -1
REMARK  0 active torsions:
REMARK  status: ('A' for Active; 'I' for Inactive)
ROOT
ATOM      1  C   UNL d   1      -2.556  -2.658  -4.731  0.00  0.00     0.077 C 
ATOM      2  C1  UNL d   1      -2.818  -2.904  -3.275  0.00  0.00    -0.074 A 
ATOM      3  C2  UNL d   1      -3.220  -1.864  -2.431  0.00  0.00    -0.005 A 
ATOM      4  C3  UNL d   1      -3.468  -2.110  -1.081  0.00  0.00     0.006 A 
ATOM      5  C4  UNL d   1      -3.318  -3.397  -0.562  0.00  0.00    -0.005 A 
ATOM      6  C5  UNL d   1      -2.917  -4.450  -1.391  0.00  0.00    -0.074 A 
ATOM      7  C6  UNL d   1      -2.759  -5.840  -0.852  0.00  0.00     0.077 C 
ATOM      8  C7  UNL d   1      -2.676  -4.195  -2.748  0.00  0.00    -0.001 A 
ENDROOT
TORSDOF 0
ENDMDL
