MODEL 1
REMARK minimizedAffinity 0.950710595
REMARK minimizedRMSD -1
REMARK  0 active torsions:
REMARK  status: ('A' for Active; 'I' for Inactive)
ROOT
ATOM      1  C   UNL d   1      -1.719  -0.705  -1.482  0.00  0.00    -0.002 A 
ATOM      2  C1  UNL d   1      -2.120   0.623  -1.515  0.00  0.00     0.010 A 
ATOM      3  C2  UNL d   1      -1.314   1.622  -0.965  0.00  0.00     0.041 A 
ATOM      4  C3  UNL d   1      -0.086   1.261  -0.377  0.00  0.00    -0.075 A 
ATOM      5  S   UNL d   1       1.065   2.313   0.358  0.00  0.00     0.015 SA
ATOM      6  C4  UNL d   1       2.116   1.025   0.732  0.00  0.00     0.022 A 
ATOM      7  C5  UNL d   1       1.617  -0.186   0.314  0.00  0.00     0.026 A 
ATOM      8  C6  UNL d   1       0.340  -0.070  -0.333  0.00  0.00    -0.082 A 
ATOM      9  C7  UNL d   1      -0.500  -1.060  -0.898  0.00  0.00     0.045 A 
ENDROOT
TORSDOF 0
ENDMDL
