MODEL 1
REMARK minimizedAffinity -1.53914523
REMARK minimizedRMSD -1
REMARK  0 active torsions:
REMARK  status: ('A' for Active; 'I' for Inactive)
ROOT
ATOM      1  C   UNL d   1       2.750   1.859   1.953  0.00  0.00    -0.002 A 
ATOM      2  C1  UNL d   1       3.584   1.513   0.899  0.00  0.00     0.010 A 
ATOM      3  C2  UNL d   1       3.068   0.901  -0.244  0.00  0.00     0.041 A 
ATOM      4  C3  UNL d   1       1.685   0.641  -0.313  0.00  0.00    -0.075 A 
ATOM      5  S   UNL d   1       0.830  -0.099  -1.614  0.00  0.00     0.015 SA
ATOM      6  C4  UNL d   1      -0.664   0.027  -0.802  0.00  0.00     0.022 A 
ATOM      7  C5  UNL d   1      -0.531   0.617   0.433  0.00  0.00     0.026 A 
ATOM      8  C6  UNL d   1       0.824   0.981   0.735  0.00  0.00    -0.082 A 
ATOM      9  C7  UNL d   1       1.379   1.600   1.881  0.00  0.00     0.045 A 
ENDROOT
TORSDOF 0
ENDMDL
