MODEL 1
REMARK minimizedAffinity -2.27304459
REMARK minimizedRMSD -1
REMARK  0 active torsions:
REMARK  status: ('A' for Active; 'I' for Inactive)
ROOT
ATOM      1  C   UNL d   1      -2.149  -2.916   0.563  0.00  0.00    -0.002 A 
ATOM      2  C1  UNL d   1      -1.104  -2.973   1.474  0.00  0.00     0.010 A 
ATOM      3  C2  UNL d   1      -0.069  -2.037   1.427  0.00  0.00     0.041 A 
ATOM      4  C3  UNL d   1      -0.104  -1.031   0.441  0.00  0.00    -0.075 A 
ATOM      5  S   UNL d   1       1.054   0.222   0.193  0.00  0.00     0.015 SA
ATOM      6  C4  UNL d   1       0.188   0.863  -1.127  0.00  0.00     0.022 A 
ATOM      7  C5  UNL d   1      -0.959   0.151  -1.387  0.00  0.00     0.026 A 
ATOM      8  C6  UNL d   1      -1.146  -0.953  -0.487  0.00  0.00    -0.082 A 
ATOM      9  C7  UNL d   1      -2.180  -1.917  -0.414  0.00  0.00     0.045 A 
ENDROOT
TORSDOF 0
ENDMDL
