MODEL 1
REMARK minimizedAffinity -0.490273714
REMARK minimizedRMSD -1
REMARK  0 active torsions:
REMARK  status: ('A' for Active; 'I' for Inactive)
ROOT
ATOM      1  C   UNL d   1       0.320  -0.682  -0.591  0.00  0.00    -0.002 A 
ATOM      2  C1  UNL d   1      -0.464   0.438  -0.828  0.00  0.00     0.010 A 
ATOM      3  C2  UNL d   1      -0.060   1.696  -0.378  0.00  0.00     0.041 A 
ATOM      4  C3  UNL d   1       1.159   1.811   0.319  0.00  0.00    -0.075 A 
ATOM      5  S   UNL d   1       1.856   3.251   0.963  0.00  0.00     0.015 SA
ATOM      6  C4  UNL d   1       3.212   2.413   1.567  0.00  0.00     0.022 A 
ATOM      7  C5  UNL d   1       3.150   1.068   1.293  0.00  0.00     0.026 A 
ATOM      8  C6  UNL d   1       1.966   0.698   0.569  0.00  0.00    -0.082 A 
ATOM      9  C7  UNL d   1       1.528  -0.564   0.101  0.00  0.00     0.045 A 
ENDROOT
TORSDOF 0
ENDMDL
