MODEL 1
REMARK minimizedAffinity 2.17375159
REMARK minimizedRMSD -1
REMARK  0 active torsions:
REMARK  status: ('A' for Active; 'I' for Inactive)
ROOT
ATOM      1  C   UNL d   1      -2.586  -2.866   0.442  0.00  0.00    -0.002 A 
ATOM      2  C1  UNL d   1      -1.561  -2.957   1.373  0.00  0.00     0.010 A 
ATOM      3  C2  UNL d   1      -0.519  -2.028   1.375  0.00  0.00     0.041 A 
ATOM      4  C3  UNL d   1      -0.525  -0.994   0.417  0.00  0.00    -0.075 A 
ATOM      5  S   UNL d   1       0.647   0.257   0.231  0.00  0.00     0.015 SA
ATOM      6  C4  UNL d   1      -0.186   0.942  -1.089  0.00  0.00     0.022 A 
ATOM      7  C5  UNL d   1      -1.332   0.246  -1.393  0.00  0.00     0.026 A 
ATOM      8  C6  UNL d   1      -1.546  -0.881  -0.530  0.00  0.00    -0.082 A 
ATOM      9  C7  UNL d   1      -2.588  -1.839  -0.507  0.00  0.00     0.045 A 
ENDROOT
TORSDOF 0
ENDMDL
