MODEL 1
REMARK minimizedAffinity -1.04617679
REMARK minimizedRMSD -1
REMARK  0 active torsions:
REMARK  status: ('A' for Active; 'I' for Inactive)
ROOT
ATOM      1  C   UNL d   1       0.096   0.004  -0.296  0.00  0.00    -0.002 A 
ATOM      2  C1  UNL d   1       1.247  -0.692   0.047  0.00  0.00     0.010 A 
ATOM      3  C2  UNL d   1       2.281  -0.057   0.737  0.00  0.00     0.041 A 
ATOM      4  C3  UNL d   1       2.138   1.302   1.082  0.00  0.00    -0.075 A 
ATOM      5  S   UNL d   1       3.274   2.285   1.927  0.00  0.00     0.015 SA
ATOM      6  C4  UNL d   1       2.257   3.651   1.854  0.00  0.00     0.022 A 
ATOM      7  C5  UNL d   1       1.077   3.382   1.204  0.00  0.00     0.026 A 
ATOM      8  C6  UNL d   1       0.988   2.023   0.748  0.00  0.00    -0.082 A 
ATOM      9  C7  UNL d   1      -0.043   1.351   0.048  0.00  0.00     0.045 A 
ENDROOT
TORSDOF 0
ENDMDL
