MODEL 1
REMARK minimizedAffinity -0.794855118
REMARK minimizedRMSD -1
REMARK  0 active torsions:
REMARK  status: ('A' for Active; 'I' for Inactive)
ROOT
ATOM      1  C   UNL d   1      -2.070   0.274  -1.868  0.00  0.00    -0.002 A 
ATOM      2  C1  UNL d   1      -2.266  -0.772  -0.976  0.00  0.00     0.010 A 
ATOM      3  C2  UNL d   1      -1.246  -1.163  -0.107  0.00  0.00     0.041 A 
ATOM      4  C3  UNL d   1      -0.015  -0.479  -0.147  0.00  0.00    -0.075 A 
ATOM      5  S   UNL d   1       1.376  -0.784   0.825  0.00  0.00     0.015 SA
ATOM      6  C4  UNL d   1       2.262   0.466   0.079  0.00  0.00     0.022 A 
ATOM      7  C5  UNL d   1       1.530   1.111  -0.889  0.00  0.00     0.026 A 
ATOM      8  C6  UNL d   1       0.205   0.577  -1.036  0.00  0.00    -0.082 A 
ATOM      9  C7  UNL d   1      -0.848   0.950  -1.905  0.00  0.00     0.045 A 
ENDROOT
TORSDOF 0
ENDMDL
