MODEL 1
REMARK minimizedAffinity 0.345250487
REMARK minimizedRMSD -1
REMARK  0 active torsions:
REMARK  status: ('A' for Active; 'I' for Inactive)
ROOT
ATOM      1  C   UNL d   1      -2.772  -0.275  -1.284  0.00  0.00    -0.002 A 
ATOM      2  C1  UNL d   1      -2.446  -1.543  -0.824  0.00  0.00     0.010 A 
ATOM      3  C2  UNL d   1      -1.226  -1.774  -0.184  0.00  0.00     0.041 A 
ATOM      4  C3  UNL d   1      -0.333  -0.698  -0.010  0.00  0.00    -0.075 A 
ATOM      5  S   UNL d   1       1.215  -0.745   0.746  0.00  0.00     0.015 SA
ATOM      6  C4  UNL d   1       1.479   0.917   0.478  0.00  0.00     0.022 A 
ATOM      7  C5  UNL d   1       0.422   1.509  -0.172  0.00  0.00     0.026 A 
ATOM      8  C6  UNL d   1      -0.640   0.588  -0.463  0.00  0.00    -0.082 A 
ATOM      9  C7  UNL d   1      -1.884   0.790  -1.109  0.00  0.00     0.045 A 
ENDROOT
TORSDOF 0
ENDMDL
