MODEL 1
REMARK minimizedAffinity 0.622943342
REMARK minimizedRMSD -1
REMARK  0 active torsions:
REMARK  status: ('A' for Active; 'I' for Inactive)
ROOT
ATOM      1  C   UNL d   1       2.783   1.488   0.379  0.00  0.00    -0.002 A 
ATOM      2  C1  UNL d   1       2.539   0.350   1.134  0.00  0.00     0.010 A 
ATOM      3  C2  UNL d   1       1.411  -0.436   0.890  0.00  0.00     0.041 A 
ATOM      4  C3  UNL d   1       0.526  -0.056  -0.138  0.00  0.00    -0.075 A 
ATOM      5  S   UNL d   1      -0.919  -0.867  -0.617  0.00  0.00     0.015 SA
ATOM      6  C4  UNL d   1      -1.245   0.279  -1.836  0.00  0.00     0.022 A 
ATOM      7  C5  UNL d   1      -0.286   1.262  -1.890  0.00  0.00     0.026 A 
ATOM      8  C6  UNL d   1       0.751   1.085  -0.913  0.00  0.00    -0.082 A 
ATOM      9  C7  UNL d   1       1.902   1.862  -0.639  0.00  0.00     0.045 A 
ENDROOT
TORSDOF 0
ENDMDL
