MODEL 1
REMARK minimizedAffinity 8.36135864
REMARK minimizedRMSD -1
REMARK  1 active torsions:
REMARK  status: ('A' for Active; 'I' for Inactive)
REMARK    1  A    between atoms: C1_2  and  C2_3 
ROOT
ATOM      1  C2  UNL d   1       0.072  -0.550   0.634  0.00  0.00    -0.077 A 
ATOM      2  C3  UNL d   1      -1.128  -0.154   0.027  0.00  0.00     0.002 A 
ATOM      3  C4  UNL d   1      -2.263   0.095   0.801  0.00  0.00     0.002 A 
ATOM      4  C5  UNL d   1      -2.207  -0.044   2.186  0.00  0.00    -0.004 A 
ATOM      5  C6  UNL d   1      -1.019  -0.439   2.799  0.00  0.00     0.002 A 
ATOM      6  C7  UNL d   1       0.116  -0.690   2.027  0.00  0.00     0.002 A 
ENDROOT
BRANCH   1   7
ATOM      7  C1  UNL d   1       1.310  -0.772  -0.195  0.00  0.00     0.055 C 
ATOM      8  C   UNL d   1       2.146   0.496  -0.292  0.00  0.00     0.019 C 
ENDBRANCH   1   7
TORSDOF 1
ENDMDL
