MODEL 1
REMARK minimizedAffinity -2.33183885
REMARK minimizedRMSD -1
REMARK  1 active torsions:
REMARK  status: ('A' for Active; 'I' for Inactive)
REMARK    1  A    between atoms: C1_2  and  C2_3 
ROOT
ATOM      1  C2  UNL d   1      -0.091  -1.246   1.794  0.00  0.00    -0.077 A 
ATOM      2  C3  UNL d   1       0.900  -1.715   0.919  0.00  0.00     0.002 A 
ATOM      3  C4  UNL d   1       1.425  -3.000   1.071  0.00  0.00     0.002 A 
ATOM      4  C5  UNL d   1       0.962  -3.827   2.092  0.00  0.00    -0.004 A 
ATOM      5  C6  UNL d   1      -0.021  -3.369   2.968  0.00  0.00     0.002 A 
ATOM      6  C7  UNL d   1      -0.546  -2.085   2.819  0.00  0.00     0.002 A 
ENDROOT
BRANCH   1   7
ATOM      7  C1  UNL d   1      -0.693   0.122   1.602  0.00  0.00     0.055 C 
ATOM      8  C   UNL d   1      -2.195   0.038   1.376  0.00  0.00     0.019 C 
ENDBRANCH   1   7
TORSDOF 1
ENDMDL
