MODEL 1
REMARK minimizedAffinity 6.05730963
REMARK minimizedRMSD -1
REMARK  1 active torsions:
REMARK  status: ('A' for Active; 'I' for Inactive)
REMARK    1  A    between atoms: C1_2  and  C2_3 
ROOT
ATOM      1  C2  UNL d   1       1.095  -1.400   1.931  0.00  0.00    -0.077 A 
ATOM      2  C3  UNL d   1       1.721  -2.634   2.159  0.00  0.00     0.002 A 
ATOM      3  C4  UNL d   1       2.423  -3.270   1.133  0.00  0.00     0.002 A 
ATOM      4  C5  UNL d   1       2.510  -2.677  -0.125  0.00  0.00    -0.004 A 
ATOM      5  C6  UNL d   1       1.890  -1.451  -0.362  0.00  0.00     0.002 A 
ATOM      6  C7  UNL d   1       1.186  -0.815   0.662  0.00  0.00     0.002 A 
ENDROOT
BRANCH   1   7
ATOM      7  C1  UNL d   1       0.379  -0.690   3.050  0.00  0.00     0.055 C 
ATOM      8  C   UNL d   1      -1.107  -1.015   3.050  0.00  0.00     0.019 C 
ENDBRANCH   1   7
TORSDOF 1
ENDMDL
