MODEL 1
REMARK minimizedAffinity -1.22910583
REMARK minimizedRMSD -1
REMARK  1 active torsions:
REMARK  status: ('A' for Active; 'I' for Inactive)
REMARK    1  A    between atoms: C1_2  and  C2_3 
ROOT
ATOM      1  C2  UNL d   1       1.343  -2.563   1.192  0.00  0.00    -0.077 A 
ATOM      2  C3  UNL d   1       0.432  -1.924   2.044  0.00  0.00     0.002 A 
ATOM      3  C4  UNL d   1      -0.082  -0.668   1.716  0.00  0.00     0.002 A 
ATOM      4  C5  UNL d   1       0.307  -0.041   0.534  0.00  0.00    -0.004 A 
ATOM      5  C6  UNL d   1       1.215  -0.667  -0.319  0.00  0.00     0.002 A 
ATOM      6  C7  UNL d   1       1.730  -1.922   0.007  0.00  0.00     0.002 A 
ENDROOT
BRANCH   1   7
ATOM      7  C1  UNL d   1       1.860  -3.939   1.520  0.00  0.00     0.055 C 
ATOM      8  C   UNL d   1       3.174  -4.221   0.806  0.00  0.00     0.019 C 
ENDBRANCH   1   7
TORSDOF 1
ENDMDL
