MODEL 1
REMARK minimizedAffinity 3.20109797
REMARK minimizedRMSD -1
REMARK  1 active torsions:
REMARK  status: ('A' for Active; 'I' for Inactive)
REMARK    1  A    between atoms: C1_2  and  C2_3 
ROOT
ATOM      1  C2  UNL d   1       0.998  -2.080   1.311  0.00  0.00    -0.077 A 
ATOM      2  C3  UNL d   1       1.031  -3.437   1.661  0.00  0.00     0.002 A 
ATOM      3  C4  UNL d   1       0.213  -3.923   2.683  0.00  0.00     0.002 A 
ATOM      4  C5  UNL d   1      -0.645  -3.060   3.361  0.00  0.00    -0.004 A 
ATOM      5  C6  UNL d   1      -0.684  -1.708   3.022  0.00  0.00     0.002 A 
ATOM      6  C7  UNL d   1       0.134  -1.220   2.001  0.00  0.00     0.002 A 
ENDROOT
BRANCH   1   7
ATOM      7  C1  UNL d   1       1.844  -1.563   0.176  0.00  0.00     0.055 C 
ATOM      8  C   UNL d   1       1.104  -0.502  -0.626  0.00  0.00     0.019 C 
ENDBRANCH   1   7
TORSDOF 1
ENDMDL
