MODEL 1
REMARK minimizedAffinity 1.23106337
REMARK minimizedRMSD -1
REMARK  1 active torsions:
REMARK  status: ('A' for Active; 'I' for Inactive)
REMARK    1  A    between atoms: C1_2  and  C2_3 
ROOT
ATOM      1  C2  UNL d   1      -0.072  -0.987   1.156  0.00  0.00    -0.077 A 
ATOM      2  C3  UNL d   1      -1.148  -0.267   0.618  0.00  0.00     0.002 A 
ATOM      3  C4  UNL d   1      -2.234   0.086   1.421  0.00  0.00     0.002 A 
ATOM      4  C5  UNL d   1      -2.252  -0.272   2.768  0.00  0.00    -0.004 A 
ATOM      5  C6  UNL d   1      -1.188  -0.990   3.312  0.00  0.00     0.002 A 
ATOM      6  C7  UNL d   1      -0.102  -1.345   2.510  0.00  0.00     0.002 A 
ENDROOT
BRANCH   1   7
ATOM      7  C1  UNL d   1       1.122  -1.326   0.303  0.00  0.00     0.055 C 
ATOM      8  C   UNL d   1       1.696  -0.084  -0.364  0.00  0.00     0.019 C 
ENDBRANCH   1   7
TORSDOF 1
ENDMDL
