MODEL 1
REMARK minimizedAffinity 2.90550017
REMARK minimizedRMSD -1
REMARK  0 active torsions:
REMARK  status: ('A' for Active; 'I' for Inactive)
ROOT
ATOM      1  C   UNL d   1       1.854   1.926   1.787  0.00  0.00     0.124 A 
ATOM      2  C1  UNL d   1       2.845   2.393   0.935  0.00  0.00     0.062 A 
ATOM      3  C2  UNL d   1       2.925   1.921  -0.372  0.00  0.00     0.162 A 
ATOM      4  C3  UNL d   1       2.009   0.977  -0.836  0.00  0.00    -0.034 A 
ATOM      5  C4  UNL d   1       1.015   0.511   0.027  0.00  0.00     0.162 A 
ATOM      6  C5  UNL d   1       0.940   0.986   1.332  0.00  0.00     0.062 A 
ATOM      7  F   UNL d   1      -0.019   0.534   2.153  0.00  0.00    -0.097 F 
ATOM      8  F1  UNL d   1       0.119  -0.397  -0.387  0.00  0.00    -0.096 F 
ATOM      9  I   UNL d   1       2.125   0.268  -2.790  0.00  0.00    -0.060 I 
ATOM     10  F2  UNL d   1       3.894   2.390  -1.173  0.00  0.00    -0.096 F 
ATOM     11  F3  UNL d   1       3.730   3.300   1.373  0.00  0.00    -0.097 F 
ATOM     12  F4  UNL d   1       1.780   2.381   3.044  0.00  0.00    -0.092 F 
ENDROOT
TORSDOF 0
ENDMDL
