MODEL 1
REMARK minimizedAffinity 3.41728759
REMARK minimizedRMSD -1
REMARK  0 active torsions:
REMARK  status: ('A' for Active; 'I' for Inactive)
ROOT
ATOM      1  C   UNL d   1      -0.301  -1.572   1.163  0.00  0.00     0.124 A 
ATOM      2  C1  UNL d   1       0.687  -1.289   2.096  0.00  0.00     0.062 A 
ATOM      3  C2  UNL d   1       1.423  -0.112   2.000  0.00  0.00     0.162 A 
ATOM      4  C3  UNL d   1       1.174   0.792   0.968  0.00  0.00    -0.034 A 
ATOM      5  C4  UNL d   1       0.180   0.500   0.032  0.00  0.00     0.162 A 
ATOM      6  C5  UNL d   1      -0.554  -0.678   0.132  0.00  0.00     0.062 A 
ATOM      7  F   UNL d   1      -1.508  -0.950  -0.770  0.00  0.00    -0.097 F 
ATOM      8  F1  UNL d   1      -0.086   1.347  -0.973  0.00  0.00    -0.096 F 
ATOM      9  I   UNL d   1       2.273   2.554   0.821  0.00  0.00    -0.060 I 
ATOM     10  F2  UNL d   1       2.372   0.136   2.916  0.00  0.00    -0.096 F 
ATOM     11  F3  UNL d   1       0.933  -2.152   3.092  0.00  0.00    -0.097 F 
ATOM     12  F4  UNL d   1      -1.008  -2.706   1.256  0.00  0.00    -0.092 F 
ENDROOT
TORSDOF 0
ENDMDL
