MODEL 1
REMARK minimizedAffinity -0.373856366
REMARK minimizedRMSD -1
REMARK  0 active torsions:
REMARK  status: ('A' for Active; 'I' for Inactive)
ROOT
ATOM      1  C   UNL d   1       3.133   2.962   1.625  0.00  0.00     0.124 A 
ATOM      2  C1  UNL d   1       2.466   1.789   1.953  0.00  0.00     0.062 A 
ATOM      3  C2  UNL d   1       2.157   0.860   0.964  0.00  0.00     0.162 A 
ATOM      4  C3  UNL d   1       2.514   1.099  -0.363  0.00  0.00    -0.034 A 
ATOM      5  C4  UNL d   1       3.183   2.281  -0.685  0.00  0.00     0.162 A 
ATOM      6  C5  UNL d   1       3.490   3.207   0.307  0.00  0.00     0.062 A 
ATOM      7  F   UNL d   1       4.133   4.339  -0.012  0.00  0.00    -0.097 F 
ATOM      8  F1  UNL d   1       3.541   2.543  -1.951  0.00  0.00    -0.096 F 
ATOM      9  I   UNL d   1       2.052  -0.287  -1.844  0.00  0.00    -0.060 I 
ATOM     10  F2  UNL d   1       1.512  -0.264   1.310  0.00  0.00    -0.096 F 
ATOM     11  F3  UNL d   1       2.119   1.551   3.226  0.00  0.00    -0.097 F 
ATOM     12  F4  UNL d   1       3.428   3.855   2.579  0.00  0.00    -0.092 F 
ENDROOT
TORSDOF 0
ENDMDL
