MODEL 1
REMARK minimizedAffinity 2.20738173
REMARK minimizedRMSD -1
REMARK  0 active torsions:
REMARK  status: ('A' for Active; 'I' for Inactive)
ROOT
ATOM      1  C   UNL d   1       3.612   3.342   1.664  0.00  0.00     0.124 A 
ATOM      2  C1  UNL d   1       2.619   3.475   0.703  0.00  0.00     0.062 A 
ATOM      3  C2  UNL d   1       1.785   2.401   0.407  0.00  0.00     0.162 A 
ATOM      4  C3  UNL d   1       1.938   1.185   1.073  0.00  0.00    -0.034 A 
ATOM      5  C4  UNL d   1       2.940   1.059   2.037  0.00  0.00     0.162 A 
ATOM      6  C5  UNL d   1       3.771   2.135   2.330  0.00  0.00     0.062 A 
ATOM      7  F   UNL d   1       4.730   2.005   3.259  0.00  0.00    -0.097 F 
ATOM      8  F1  UNL d   1       3.115  -0.096   2.697  0.00  0.00    -0.096 F 
ATOM      9  I   UNL d   1       0.692  -0.422   0.632  0.00  0.00    -0.060 I 
ATOM     10  F2  UNL d   1       0.834   2.558  -0.526  0.00  0.00    -0.096 F 
ATOM     11  F3  UNL d   1       2.464   4.640   0.058  0.00  0.00    -0.097 F 
ATOM     12  F4  UNL d   1       4.415   4.376   1.947  0.00  0.00    -0.092 F 
ENDROOT
TORSDOF 0
ENDMDL
