MODEL 1
REMARK minimizedAffinity 1.20941925
REMARK minimizedRMSD -1
REMARK  0 active torsions:
REMARK  status: ('A' for Active; 'I' for Inactive)
ROOT
ATOM      1  C   UNL d   1      -1.171  -0.574   0.545  0.00  0.00     0.124 A 
ATOM      2  C1  UNL d   1      -1.681  -1.200  -0.584  0.00  0.00     0.062 A 
ATOM      3  C2  UNL d   1      -0.981  -1.154  -1.787  0.00  0.00     0.162 A 
ATOM      4  C3  UNL d   1       0.238  -0.481  -1.866  0.00  0.00    -0.034 A 
ATOM      5  C4  UNL d   1       0.744   0.147  -0.727  0.00  0.00     0.162 A 
ATOM      6  C5  UNL d   1       0.041   0.098   0.472  0.00  0.00     0.062 A 
ATOM      7  F   UNL d   1       0.536   0.703   1.562  0.00  0.00    -0.097 F 
ATOM      8  F1  UNL d   1       1.914   0.803  -0.768  0.00  0.00    -0.096 F 
ATOM      9  I   UNL d   1       1.287  -0.410  -3.662  0.00  0.00    -0.060 I 
ATOM     10  F2  UNL d   1      -1.498  -1.767  -2.862  0.00  0.00    -0.096 F 
ATOM     11  F3  UNL d   1      -2.852  -1.849  -0.518  0.00  0.00    -0.097 F 
ATOM     12  F4  UNL d   1      -1.847  -0.619   1.700  0.00  0.00    -0.092 F 
ENDROOT
TORSDOF 0
ENDMDL
