MODEL 1
REMARK minimizedAffinity 1.99591303
REMARK minimizedRMSD -1
REMARK  0 active torsions:
REMARK  status: ('A' for Active; 'I' for Inactive)
ROOT
ATOM      1  C   UNL d   1      -2.151  -1.901   1.106  0.00  0.00     0.124 A 
ATOM      2  C1  UNL d   1      -2.581  -1.492  -0.149  0.00  0.00     0.062 A 
ATOM      3  C2  UNL d   1      -1.757  -0.705  -0.949  0.00  0.00     0.162 A 
ATOM      4  C3  UNL d   1      -0.494  -0.323  -0.497  0.00  0.00    -0.034 A 
ATOM      5  C4  UNL d   1      -0.069  -0.737   0.767  0.00  0.00     0.162 A 
ATOM      6  C5  UNL d   1      -0.897  -1.523   1.562  0.00  0.00     0.062 A 
ATOM      7  F   UNL d   1      -0.480  -1.917   2.775  0.00  0.00    -0.097 F 
ATOM      8  F1  UNL d   1       1.139  -0.387   1.233  0.00  0.00    -0.096 F 
ATOM      9  I   UNL d   1       0.741   0.854  -1.690  0.00  0.00    -0.060 I 
ATOM     10  F2  UNL d   1      -2.198  -0.325  -2.158  0.00  0.00    -0.096 F 
ATOM     11  F3  UNL d   1      -3.793  -1.855  -0.593  0.00  0.00    -0.097 F 
ATOM     12  F4  UNL d   1      -2.946  -2.657   1.874  0.00  0.00    -0.092 F 
ENDROOT
TORSDOF 0
ENDMDL
