MODEL 1
REMARK minimizedAffinity -1.06287265
REMARK minimizedRMSD -1
REMARK  0 active torsions:
REMARK  status: ('A' for Active; 'I' for Inactive)
ROOT
ATOM      1  C   UNL d   1       3.255   3.144   0.261  0.00  0.00     0.124 A 
ATOM      2  C1  UNL d   1       2.435   3.183   1.380  0.00  0.00     0.062 A 
ATOM      3  C2  UNL d   1       1.582   2.120   1.661  0.00  0.00     0.162 A 
ATOM      4  C3  UNL d   1       1.545   1.007   0.821  0.00  0.00    -0.034 A 
ATOM      5  C4  UNL d   1       2.372   0.975  -0.303  0.00  0.00     0.162 A 
ATOM      6  C5  UNL d   1       3.223   2.040  -0.580  0.00  0.00     0.062 A 
ATOM      7  F   UNL d   1       4.015   2.000  -1.661  0.00  0.00    -0.097 F 
ATOM      8  F1  UNL d   1       2.362  -0.080  -1.132  0.00  0.00    -0.096 F 
ATOM      9  I   UNL d   1       0.271  -0.585   1.237  0.00  0.00    -0.060 I 
ATOM     10  F2  UNL d   1       0.801   2.185   2.749  0.00  0.00    -0.096 F 
ATOM     11  F3  UNL d   1       2.464   4.249   2.193  0.00  0.00    -0.097 F 
ATOM     12  F4  UNL d   1       4.074   4.169  -0.007  0.00  0.00    -0.092 F 
ENDROOT
TORSDOF 0
ENDMDL
