MODEL 1
REMARK minimizedAffinity 1.19215107
REMARK minimizedRMSD -1
REMARK  0 active torsions:
REMARK  status: ('A' for Active; 'I' for Inactive)
ROOT
ATOM      1  C   UNL d   1       3.051   3.188   1.163  0.00  0.00     0.124 A 
ATOM      2  C1  UNL d   1       3.737   3.321  -0.037  0.00  0.00     0.062 A 
ATOM      3  C2  UNL d   1       3.614   2.349  -1.025  0.00  0.00     0.162 A 
ATOM      4  C3  UNL d   1       2.800   1.235  -0.819  0.00  0.00    -0.034 A 
ATOM      5  C4  UNL d   1       2.114   1.108   0.390  0.00  0.00     0.162 A 
ATOM      6  C5  UNL d   1       2.241   2.082   1.375  0.00  0.00     0.062 A 
ATOM      7  F   UNL d   1       1.577   1.952   2.533  0.00  0.00    -0.097 F 
ATOM      8  F1  UNL d   1       1.323   0.049   0.621  0.00  0.00    -0.096 F 
ATOM      9  I   UNL d   1       2.613  -0.221  -2.295  0.00  0.00    -0.060 I 
ATOM     10  F2  UNL d   1       4.288   2.504  -2.175  0.00  0.00    -0.096 F 
ATOM     11  F3  UNL d   1       4.522   4.389  -0.244  0.00  0.00    -0.097 F 
ATOM     12  F4  UNL d   1       3.172   4.125   2.112  0.00  0.00    -0.092 F 
ENDROOT
TORSDOF 0
ENDMDL
