MODEL 1
REMARK minimizedAffinity -1.40452528
REMARK minimizedRMSD -1
REMARK  0 active torsions:
REMARK  status: ('A' for Active; 'I' for Inactive)
ROOT
ATOM      1  C   UNL d   1      -2.180  -1.106   0.533  0.00  0.00     0.124 A 
ATOM      2  C1  UNL d   1      -2.109  -0.250  -0.557  0.00  0.00     0.062 A 
ATOM      3  C2  UNL d   1      -0.876   0.221  -0.998  0.00  0.00     0.162 A 
ATOM      4  C3  UNL d   1       0.298  -0.164  -0.350  0.00  0.00    -0.034 A 
ATOM      5  C4  UNL d   1       0.218  -1.025   0.746  0.00  0.00     0.162 A 
ATOM      6  C5  UNL d   1      -1.017  -1.493   1.184  0.00  0.00     0.062 A 
ATOM      7  F   UNL d   1      -1.083  -2.320   2.237  0.00  0.00    -0.097 F 
ATOM      8  F1  UNL d   1       1.327  -1.416   1.393  0.00  0.00    -0.096 F 
ATOM      9  I   UNL d   1       2.144   0.538  -1.006  0.00  0.00    -0.060 I 
ATOM     10  F2  UNL d   1      -0.837   1.048  -2.054  0.00  0.00    -0.096 F 
ATOM     11  F3  UNL d   1      -3.232   0.126  -1.186  0.00  0.00    -0.097 F 
ATOM     12  F4  UNL d   1      -3.368  -1.557   0.956  0.00  0.00    -0.092 F 
ENDROOT
TORSDOF 0
ENDMDL
