MODEL 1
REMARK minimizedAffinity -5.49418545
REMARK minimizedRMSD -1
REMARK  0 active torsions:
REMARK  status: ('A' for Active; 'I' for Inactive)
ROOT
ATOM      1  C   UNL d   1      -2.951  -1.696   0.455  0.00  0.00     0.124 A 
ATOM      2  C1  UNL d   1      -1.849  -2.282   1.061  0.00  0.00     0.062 A 
ATOM      3  C2  UNL d   1      -0.576  -1.756   0.858  0.00  0.00     0.162 A 
ATOM      4  C3  UNL d   1      -0.399  -0.636   0.046  0.00  0.00    -0.034 A 
ATOM      5  C4  UNL d   1      -1.513  -0.053  -0.561  0.00  0.00     0.162 A 
ATOM      6  C5  UNL d   1      -2.782  -0.582  -0.355  0.00  0.00     0.062 A 
ATOM      7  F   UNL d   1      -3.846  -0.014  -0.941  0.00  0.00    -0.097 F 
ATOM      8  F1  UNL d   1      -1.378   1.025  -1.348  0.00  0.00    -0.096 F 
ATOM      9  I   UNL d   1       1.502   0.153  -0.260  0.00  0.00    -0.060 I 
ATOM     10  F2  UNL d   1       0.471  -2.343   1.456  0.00  0.00    -0.096 F 
ATOM     11  F3  UNL d   1      -2.010  -3.359   1.844  0.00  0.00    -0.097 F 
ATOM     12  F4  UNL d   1      -4.175  -2.205   0.651  0.00  0.00    -0.092 F 
ENDROOT
TORSDOF 0
ENDMDL
