MODEL 1
REMARK minimizedAffinity 2.61525822
REMARK minimizedRMSD -1
REMARK  0 active torsions:
REMARK  status: ('A' for Active; 'I' for Inactive)
ROOT
ATOM      1  C   UNL d   1      -2.083  -0.780  -1.897  0.00  0.00     0.124 A 
ATOM      2  C1  UNL d   1      -2.304  -1.592  -0.793  0.00  0.00     0.062 A 
ATOM      3  C2  UNL d   1      -1.332  -1.708   0.196  0.00  0.00     0.162 A 
ATOM      4  C3  UNL d   1      -0.129  -1.009   0.086  0.00  0.00    -0.034 A 
ATOM      5  C4  UNL d   1       0.086  -0.195  -1.027  0.00  0.00     0.162 A 
ATOM      6  C5  UNL d   1      -0.889  -0.083  -2.013  0.00  0.00     0.062 A 
ATOM      7  F   UNL d   1      -0.674   0.702  -3.079  0.00  0.00    -0.097 F 
ATOM      8  F1  UNL d   1       1.230   0.491  -1.164  0.00  0.00    -0.096 F 
ATOM      9  I   UNL d   1       1.327  -1.180   1.564  0.00  0.00    -0.060 I 
ATOM     10  F2  UNL d   1      -1.572  -2.500   1.252  0.00  0.00    -0.096 F 
ATOM     11  F3  UNL d   1      -3.456  -2.268  -0.679  0.00  0.00    -0.097 F 
ATOM     12  F4  UNL d   1      -3.020  -0.672  -2.848  0.00  0.00    -0.092 F 
ENDROOT
TORSDOF 0
ENDMDL
