MODEL 1
REMARK minimizedAffinity -2.73633265
REMARK minimizedRMSD -1
REMARK  0 active torsions:
REMARK  status: ('A' for Active; 'I' for Inactive)
ROOT
ATOM      1  C   UNL d   1       3.313   2.333  -1.653  0.00  0.00     0.124 A 
ATOM      2  C1  UNL d   1       2.904   2.585  -0.351  0.00  0.00     0.062 A 
ATOM      3  C2  UNL d   1       2.002   1.731   0.278  0.00  0.00     0.162 A 
ATOM      4  C3  UNL d   1       1.503   0.616  -0.395  0.00  0.00    -0.034 A 
ATOM      5  C4  UNL d   1       1.919   0.369  -1.705  0.00  0.00     0.162 A 
ATOM      6  C5  UNL d   1       2.820   1.226  -2.329  0.00  0.00     0.062 A 
ATOM      7  F   UNL d   1       3.215   0.980  -3.587  0.00  0.00    -0.097 F 
ATOM      8  F1  UNL d   1       1.460  -0.694  -2.381  0.00  0.00    -0.096 F 
ATOM      9  I   UNL d   1       0.155  -0.664   0.540  0.00  0.00    -0.060 I 
ATOM     10  F2  UNL d   1       1.624   2.000   1.536  0.00  0.00    -0.096 F 
ATOM     11  F3  UNL d   1       3.377   3.655   0.304  0.00  0.00    -0.097 F 
ATOM     12  F4  UNL d   1       4.180   3.157  -2.255  0.00  0.00    -0.092 F 
ENDROOT
TORSDOF 0
ENDMDL
