MODEL 1
REMARK minimizedAffinity -0.0136767225
REMARK minimizedRMSD -1
REMARK  0 active torsions:
REMARK  status: ('A' for Active; 'I' for Inactive)
ROOT
ATOM      1  C   UNL d   1      -2.612  -1.137  -0.326  0.00  0.00     0.124 A 
ATOM      2  C1  UNL d   1      -1.940  -0.538  -1.383  0.00  0.00     0.062 A 
ATOM      3  C2  UNL d   1      -0.769   0.178  -1.152  0.00  0.00     0.162 A 
ATOM      4  C3  UNL d   1      -0.261   0.299   0.141  0.00  0.00    -0.034 A 
ATOM      5  C4  UNL d   1      -0.942  -0.306   1.199  0.00  0.00     0.162 A 
ATOM      6  C5  UNL d   1      -2.112  -1.020   0.964  0.00  0.00     0.062 A 
ATOM      7  F   UNL d   1      -2.759  -1.598   1.986  0.00  0.00    -0.097 F 
ATOM      8  F1  UNL d   1      -0.481  -0.210   2.455  0.00  0.00    -0.096 F 
ATOM      9  I   UNL d   1       1.490   1.368   0.489  0.00  0.00    -0.060 I 
ATOM     10  F2  UNL d   1      -0.142   0.747  -2.193  0.00  0.00    -0.096 F 
ATOM     11  F3  UNL d   1      -2.422  -0.648  -2.629  0.00  0.00    -0.097 F 
ATOM     12  F4  UNL d   1      -3.739  -1.824  -0.550  0.00  0.00    -0.092 F 
ENDROOT
TORSDOF 0
ENDMDL
