MODEL 1
REMARK minimizedAffinity 0.395259172
REMARK minimizedRMSD -1
REMARK  0 active torsions:
REMARK  status: ('A' for Active; 'I' for Inactive)
ROOT
ATOM      1  C   UNL d   1      -1.876  -0.817   0.564  0.00  0.00     0.124 A 
ATOM      2  C1  UNL d   1      -0.725  -0.771   1.339  0.00  0.00     0.062 A 
ATOM      3  C2  UNL d   1       0.484  -0.379   0.773  0.00  0.00     0.162 A 
ATOM      4  C3  UNL d   1       0.549  -0.029  -0.576  0.00  0.00    -0.034 A 
ATOM      5  C4  UNL d   1      -0.612  -0.079  -1.349  0.00  0.00     0.162 A 
ATOM      6  C5  UNL d   1      -1.819  -0.471  -0.778  0.00  0.00     0.062 A 
ATOM      7  F   UNL d   1      -2.930  -0.515  -1.528  0.00  0.00    -0.097 F 
ATOM      8  F1  UNL d   1      -0.585   0.252  -2.649  0.00  0.00    -0.096 F 
ATOM      9  I   UNL d   1       2.356   0.558  -1.426  0.00  0.00    -0.060 I 
ATOM     10  F2  UNL d   1       1.580  -0.343   1.545  0.00  0.00    -0.096 F 
ATOM     11  F3  UNL d   1      -0.778  -1.106   2.636  0.00  0.00    -0.097 F 
ATOM     12  F4  UNL d   1      -3.038  -1.196   1.112  0.00  0.00    -0.092 F 
ENDROOT
TORSDOF 0
ENDMDL
