MODEL 1
REMARK minimizedAffinity -2.36513305
REMARK minimizedRMSD -1
REMARK  0 active torsions:
REMARK  status: ('A' for Active; 'I' for Inactive)
ROOT
ATOM      1  C   UNL d   1      -2.682  -1.756   0.736  0.00  0.00     0.124 A 
ATOM      2  C1  UNL d   1      -2.706  -0.782  -0.252  0.00  0.00     0.062 A 
ATOM      3  C2  UNL d   1      -1.541  -0.101  -0.593  0.00  0.00     0.162 A 
ATOM      4  C3  UNL d   1      -0.340  -0.393   0.054  0.00  0.00    -0.034 A 
ATOM      5  C4  UNL d   1      -0.324  -1.373   1.048  0.00  0.00     0.162 A 
ATOM      6  C5  UNL d   1      -1.491  -2.051   1.385  0.00  0.00     0.062 A 
ATOM      7  F   UNL d   1      -1.465  -2.992   2.340  0.00  0.00    -0.097 F 
ATOM      8  F1  UNL d   1       0.813  -1.679   1.690  0.00  0.00    -0.096 F 
ATOM      9  I   UNL d   1       1.404   0.623  -0.453  0.00  0.00    -0.060 I 
ATOM     10  F2  UNL d   1      -1.594   0.835  -1.552  0.00  0.00    -0.096 F 
ATOM     11  F3  UNL d   1      -3.855  -0.495  -0.880  0.00  0.00    -0.097 F 
ATOM     12  F4  UNL d   1      -3.804  -2.409   1.063  0.00  0.00    -0.092 F 
ENDROOT
TORSDOF 0
ENDMDL
