MODEL 1
REMARK minimizedAffinity 17.1945038
REMARK minimizedRMSD -1
REMARK  0 active torsions:
REMARK  status: ('A' for Active; 'I' for Inactive)
ROOT
ATOM      1  N1  IND d   1      -1.995   5.087   3.944  0.00  0.00    -0.196 N 
ATOM      2  C2  IND d   1      -2.691   5.565   5.020  0.00  0.00     0.054 A 
ATOM      3  C3  IND d   1      -1.840   5.958   5.994  0.00  0.00    -0.031 A 
ATOM      4  C4  IND d   1       0.734   6.000   5.998  0.00  0.00     0.051 A 
ATOM      5  C5  IND d   1       1.819   5.628   5.254  0.00  0.00    -0.031 A 
ATOM      6  C6  IND d   1       1.685   5.048   4.009  0.00  0.00     0.015 A 
ATOM      7  C7  IND d   1       0.456   4.827   3.455  0.00  0.00    -0.016 A 
ATOM      8  C8  IND d   1      -0.648   5.197   4.210  0.00  0.00    -0.047 A 
ATOM      9  C9  IND d   1      -0.519   5.747   5.492  0.00  0.00    -0.096 A 
ATOM     10  HN1 IND d   1      -2.341   4.771   3.223  0.00  0.00     0.298 HD
ENDROOT
TORSDOF 0
ENDMDL
