MODEL 1
REMARK minimizedAffinity 3.30250525
REMARK minimizedRMSD -1
REMARK  0 active torsions:
REMARK  status: ('A' for Active; 'I' for Inactive)
ROOT
ATOM      1  N1  IND d   1      -0.864  -3.175   2.866  0.00  0.00    -0.196 N 
ATOM      2  C2  IND d   1      -1.017  -1.879   3.274  0.00  0.00     0.054 A 
ATOM      3  C3  IND d   1       0.012  -1.122   2.831  0.00  0.00    -0.031 A 
ATOM      4  C4  IND d   1       2.002  -1.781   1.337  0.00  0.00     0.051 A 
ATOM      5  C5  IND d   1       2.592  -2.861   0.742  0.00  0.00    -0.031 A 
ATOM      6  C6  IND d   1       2.047  -4.126   0.825  0.00  0.00     0.015 A 
ATOM      7  C7  IND d   1       0.881  -4.357   1.498  0.00  0.00    -0.016 A 
ATOM      8  C8  IND d   1       0.283  -3.264   2.109  0.00  0.00    -0.047 A 
ATOM      9  C9  IND d   1       0.854  -1.985   2.065  0.00  0.00    -0.096 A 
ATOM     10  HN1 IND d   1      -1.396  -3.825   3.052  0.00  0.00     0.298 HD
ENDROOT
TORSDOF 0
ENDMDL
