MODEL 1
REMARK minimizedAffinity 12.70296
REMARK minimizedRMSD -1
REMARK  0 active torsions:
REMARK  status: ('A' for Active; 'I' for Inactive)
ROOT
ATOM      1  N1  IND d   1      -3.118   2.558   5.972  0.00  0.00    -0.196 N 
ATOM      2  C2  IND d   1      -2.549   3.473   5.131  0.00  0.00     0.054 A 
ATOM      3  C3  IND d   1      -3.153   3.440   3.922  0.00  0.00    -0.031 A 
ATOM      4  C4  IND d   1      -5.161   2.034   3.135  0.00  0.00     0.051 A 
ATOM      5  C5  IND d   1      -5.996   1.030   3.537  0.00  0.00    -0.031 A 
ATOM      6  C6  IND d   1      -5.915   0.474   4.797  0.00  0.00     0.015 A 
ATOM      7  C7  IND d   1      -4.999   0.912   5.711  0.00  0.00    -0.016 A 
ATOM      8  C8  IND d   1      -4.144   1.927   5.304  0.00  0.00    -0.047 A 
ATOM      9  C9  IND d   1      -4.194   2.465   4.012  0.00  0.00    -0.096 A 
ATOM     10  HN1 IND d   1      -2.875   2.403   6.783  0.00  0.00     0.298 HD
ENDROOT
TORSDOF 0
ENDMDL
