MODEL 1
REMARK minimizedAffinity 8.0328846
REMARK minimizedRMSD -1
REMARK  0 active torsions:
REMARK  status: ('A' for Active; 'I' for Inactive)
ROOT
ATOM      1  N1  IND d   1       0.498  -4.238   0.567  0.00  0.00    -0.196 N 
ATOM      2  C2  IND d   1       1.367  -5.293   0.540  0.00  0.00     0.054 A 
ATOM      3  C3  IND d   1       2.644  -4.852   0.599  0.00  0.00    -0.031 A 
ATOM      4  C4  IND d   1       3.534  -2.450   0.849  0.00  0.00     0.051 A 
ATOM      5  C5  IND d   1       3.124  -1.146   0.880  0.00  0.00    -0.031 A 
ATOM      6  C6  IND d   1       1.790  -0.800   0.810  0.00  0.00     0.015 A 
ATOM      7  C7  IND d   1       0.812  -1.750   0.717  0.00  0.00    -0.016 A 
ATOM      8  C8  IND d   1       1.225  -3.074   0.678  0.00  0.00    -0.047 A 
ATOM      9  C9  IND d   1       2.580  -3.429   0.706  0.00  0.00    -0.096 A 
ATOM     10  HN1 IND d   1      -0.359  -4.293   0.522  0.00  0.00     0.298 HD
ENDROOT
TORSDOF 0
ENDMDL
