MODEL 1
REMARK minimizedAffinity 11.4270496
REMARK minimizedRMSD -1
REMARK  0 active torsions:
REMARK  status: ('A' for Active; 'I' for Inactive)
ROOT
ATOM      1  N1  IND d   1      -2.991  -0.737  -1.788  0.00  0.00    -0.196 N 
ATOM      2  C2  IND d   1      -2.483   0.526  -1.906  0.00  0.00     0.054 A 
ATOM      3  C3  IND d   1      -3.157   1.218  -2.852  0.00  0.00    -0.031 A 
ATOM      4  C4  IND d   1      -5.193   0.508  -4.257  0.00  0.00     0.051 A 
ATOM      5  C5  IND d   1      -5.993  -0.567  -4.529  0.00  0.00    -0.031 A 
ATOM      6  C6  IND d   1      -5.832  -1.777  -3.885  0.00  0.00     0.015 A 
ATOM      7  C7  IND d   1      -4.867  -1.955  -2.934  0.00  0.00    -0.016 A 
ATOM      8  C8  IND d   1      -4.049  -0.868  -2.661  0.00  0.00    -0.047 A 
ATOM      9  C9  IND d   1      -4.180   0.350  -3.341  0.00  0.00    -0.096 A 
ATOM     10  HN1 IND d   1      -2.699  -1.348  -1.258  0.00  0.00     0.298 HD
ENDROOT
TORSDOF 0
ENDMDL
