MODEL 1
REMARK minimizedAffinity 2.20909357
REMARK minimizedRMSD -1
REMARK  0 active torsions:
REMARK  status: ('A' for Active; 'I' for Inactive)
ROOT
ATOM      1  N1  IND d   1      -4.006   5.208  -4.452  0.00  0.00    -0.196 N 
ATOM      2  C2  IND d   1      -5.114   5.257  -5.252  0.00  0.00     0.054 A 
ATOM      3  C3  IND d   1      -5.204   4.134  -5.999  0.00  0.00    -0.031 A 
ATOM      4  C4  IND d   1      -3.703   2.043  -5.999  0.00  0.00     0.051 A 
ATOM      5  C5  IND d   1      -2.546   1.547  -5.465  0.00  0.00    -0.031 A 
ATOM      6  C6  IND d   1      -1.804   2.259  -4.545  0.00  0.00     0.015 A 
ATOM      7  C7  IND d   1      -2.198   3.495  -4.115  0.00  0.00    -0.016 A 
ATOM      8  C8  IND d   1      -3.368   4.004  -4.661  0.00  0.00    -0.047 A 
ATOM      9  C9  IND d   1      -4.103   3.304  -5.626  0.00  0.00    -0.096 A 
ATOM     10  HN1 IND d   1      -3.750   5.824  -3.911  0.00  0.00     0.298 HD
ENDROOT
TORSDOF 0
ENDMDL
