MODEL 1
REMARK minimizedAffinity 8.57965183
REMARK minimizedRMSD -1
REMARK  0 active torsions:
REMARK  status: ('A' for Active; 'I' for Inactive)
ROOT
ATOM      1  N1  IND d   1      -1.397  -1.322   3.374  0.00  0.00    -0.196 N 
ATOM      2  C2  IND d   1      -2.189  -2.173   2.655  0.00  0.00     0.054 A 
ATOM      3  C3  IND d   1      -1.511  -2.660   1.591  0.00  0.00    -0.031 A 
ATOM      4  C4  IND d   1       0.938  -2.274   0.896  0.00  0.00     0.051 A 
ATOM      5  C5  IND d   1       2.048  -1.547   1.221  0.00  0.00    -0.031 A 
ATOM      6  C6  IND d   1       2.068  -0.692   2.304  0.00  0.00     0.015 A 
ATOM      7  C7  IND d   1       0.977  -0.540   3.113  0.00  0.00    -0.016 A 
ATOM      8  C8  IND d   1      -0.155  -1.272   2.781  0.00  0.00    -0.047 A 
ATOM      9  C9  IND d   1      -0.195  -2.109   1.658  0.00  0.00    -0.096 A 
ATOM     10  HN1 IND d   1      -1.635  -0.890   4.078  0.00  0.00     0.298 HD
ENDROOT
TORSDOF 0
ENDMDL
