MODEL 1
REMARK minimizedAffinity 17.6397209
REMARK minimizedRMSD -1
REMARK  0 active torsions:
REMARK  status: ('A' for Active; 'I' for Inactive)
ROOT
ATOM      1  N1  IND d   1      -2.540   2.950  -2.897  0.00  0.00    -0.196 N 
ATOM      2  C2  IND d   1      -1.599   2.747  -3.867  0.00  0.00     0.054 A 
ATOM      3  C3  IND d   1      -1.166   1.467  -3.843  0.00  0.00    -0.031 A 
ATOM      4  C4  IND d   1      -1.939  -0.493  -2.363  0.00  0.00     0.051 A 
ATOM      5  C5  IND d   1      -2.752  -0.789  -1.305  0.00  0.00    -0.031 A 
ATOM      6  C6  IND d   1      -3.554   0.166  -0.713  0.00  0.00     0.015 A 
ATOM      7  C7  IND d   1      -3.582   1.454  -1.167  0.00  0.00    -0.016 A 
ATOM      8  C8  IND d   1      -2.752   1.759  -2.237  0.00  0.00    -0.047 A 
ATOM      9  C9  IND d   1      -1.905   0.805  -2.814  0.00  0.00    -0.096 A 
ATOM     10  HN1 IND d   1      -2.934   3.695  -2.727  0.00  0.00     0.298 HD
ENDROOT
TORSDOF 0
ENDMDL
