MODEL 1
REMARK minimizedAffinity 10.6838474
REMARK minimizedRMSD -1
REMARK  0 active torsions:
REMARK  status: ('A' for Active; 'I' for Inactive)
ROOT
ATOM      1  N1  IND d   1       5.968  -2.481   5.335  0.00  0.00    -0.196 N 
ATOM      2  C2  IND d   1       4.995  -1.604   4.942  0.00  0.00     0.054 A 
ATOM      3  C3  IND d   1       3.804  -2.235   4.845  0.00  0.00    -0.031 A 
ATOM      4  C4  IND d   1       3.200  -4.679   5.382  0.00  0.00     0.051 A 
ATOM      5  C5  IND d   1       3.759  -5.874   5.740  0.00  0.00    -0.031 A 
ATOM      6  C6  IND d   1       5.111  -6.000   5.989  0.00  0.00     0.015 A 
ATOM      7  C7  IND d   1       5.954  -4.929   5.900  0.00  0.00    -0.016 A 
ATOM      8  C8  IND d   1       5.391  -3.716   5.530  0.00  0.00    -0.047 A 
ATOM      9  C9  IND d   1       4.027  -3.592   5.234  0.00  0.00    -0.096 A 
ATOM     10  HN1 IND d   1       6.800  -2.292   5.442  0.00  0.00     0.298 HD
ENDROOT
TORSDOF 0
ENDMDL
