MODEL 1
REMARK minimizedAffinity 14.8838148
REMARK minimizedRMSD -1
REMARK  0 active torsions:
REMARK  status: ('A' for Active; 'I' for Inactive)
ROOT
ATOM      1  N1  IND d   1       1.149  -2.812  -1.413  0.00  0.00    -0.196 N 
ATOM      2  C2  IND d   1       0.001  -2.069  -1.412  0.00  0.00     0.054 A 
ATOM      3  C3  IND d   1      -0.049  -1.284  -0.312  0.00  0.00    -0.031 A 
ATOM      4  C4  IND d   1       1.688  -0.982   1.564  0.00  0.00     0.051 A 
ATOM      5  C5  IND d   1       2.880  -1.473   2.017  0.00  0.00    -0.031 A 
ATOM      6  C6  IND d   1       3.571  -2.453   1.335  0.00  0.00     0.015 A 
ATOM      7  C7  IND d   1       3.100  -2.973   0.163  0.00  0.00    -0.016 A 
ATOM      8  C8  IND d   1       1.886  -2.482  -0.297  0.00  0.00    -0.047 A 
ATOM      9  C9  IND d   1       1.159  -1.518   0.413  0.00  0.00    -0.096 A 
ATOM     10  HN1 IND d   1       1.373  -3.388  -2.011  0.00  0.00     0.298 HD
ENDROOT
TORSDOF 0
ENDMDL
