MODEL 1
REMARK minimizedAffinity -5.18444014
REMARK minimizedRMSD -1
REMARK  0 active torsions:
REMARK  status: ('A' for Active; 'I' for Inactive)
ROOT
ATOM      1  C2' OXE d   1       0.472  -0.457  -0.771  0.00  0.00     0.078 C 
ATOM      2  C1' OXE d   1      -2.228   0.150  -0.301  0.00  0.00     0.078 C 
ATOM      3  C1  OXE d   1      -1.256   0.336   0.838  0.00  0.00    -0.078 A 
ATOM      4  C2  OXE d   1       0.055  -0.008   0.612  0.00  0.00    -0.078 A 
ATOM      5  C3  OXE d   1       1.003   0.196   1.612  0.00  0.00     0.003 A 
ATOM      6  C4  OXE d   1       0.607   0.602   2.892  0.00  0.00    -0.002 A 
ATOM      7  C5  OXE d   1      -0.730   0.920   3.154  0.00  0.00    -0.002 A 
ATOM      8  C6  OXE d   1      -1.665   0.833   2.128  0.00  0.00     0.003 A 
ENDROOT
TORSDOF 0
ENDMDL
