MODEL 1
REMARK minimizedAffinity -4.18809795
REMARK minimizedRMSD -1
REMARK  0 active torsions:
REMARK  status: ('A' for Active; 'I' for Inactive)
ROOT
ATOM      1  C2' OXE d   1      -2.209   0.411  -0.202  0.00  0.00     0.078 C 
ATOM      2  C1' OXE d   1       0.353  -0.514  -0.881  0.00  0.00     0.078 C 
ATOM      3  C1  OXE d   1       0.115  -0.086   0.545  0.00  0.00    -0.078 A 
ATOM      4  C2  OXE d   1      -1.128   0.410   0.858  0.00  0.00    -0.078 A 
ATOM      5  C3  OXE d   1      -1.417   0.768   2.171  0.00  0.00     0.003 A 
ATOM      6  C4  OXE d   1      -0.408   0.773   3.143  0.00  0.00    -0.002 A 
ATOM      7  C5  OXE d   1       0.875   0.309   2.836  0.00  0.00    -0.002 A 
ATOM      8  C6  OXE d   1       1.141  -0.163   1.555  0.00  0.00     0.003 A 
ENDROOT
TORSDOF 0
ENDMDL
