MODEL 1
REMARK minimizedAffinity -0.155589864
REMARK minimizedRMSD -1
REMARK  0 active torsions:
REMARK  status: ('A' for Active; 'I' for Inactive)
ROOT
ATOM      1  C2' OXE d   1      -0.731   0.395   3.117  0.00  0.00     0.078 C 
ATOM      2  C1' OXE d   1       1.801  -0.335   2.148  0.00  0.00     0.078 C 
ATOM      3  C1  OXE d   1       0.648  -0.335   1.175  0.00  0.00    -0.078 A 
ATOM      4  C2  OXE d   1      -0.595  -0.021   1.668  0.00  0.00    -0.078 A 
ATOM      5  C3  OXE d   1      -1.683   0.048   0.802  0.00  0.00     0.003 A 
ATOM      6  C4  OXE d   1      -1.551  -0.349  -0.534  0.00  0.00    -0.002 A 
ATOM      7  C5  OXE d   1      -0.301  -0.710  -1.048  0.00  0.00    -0.002 A 
ATOM      8  C6  OXE d   1       0.814  -0.667  -0.218  0.00  0.00     0.003 A 
ENDROOT
TORSDOF 0
ENDMDL
