MODEL 1
REMARK minimizedAffinity -5.56868839
REMARK minimizedRMSD -1
REMARK  0 active torsions:
REMARK  status: ('A' for Active; 'I' for Inactive)
ROOT
ATOM      1  C2' OXE d   1       1.823   0.356   3.412  0.00  0.00     0.078 C 
ATOM      2  C1' OXE d   1      -0.791   1.369   3.272  0.00  0.00     0.078 C 
ATOM      3  C1  OXE d   1      -0.267   0.609   2.080  0.00  0.00    -0.078 A 
ATOM      4  C2  OXE d   1       1.030   0.157   2.138  0.00  0.00    -0.078 A 
ATOM      5  C3  OXE d   1       1.545  -0.597   1.088  0.00  0.00     0.003 A 
ATOM      6  C4  OXE d   1       0.808  -0.768  -0.090  0.00  0.00    -0.002 A 
ATOM      7  C5  OXE d   1      -0.500  -0.282  -0.186  0.00  0.00    -0.002 A 
ATOM      8  C6  OXE d   1      -1.066   0.371   0.903  0.00  0.00     0.003 A 
ENDROOT
TORSDOF 0
ENDMDL
