MODEL 1
REMARK minimizedAffinity -5.86707067
REMARK minimizedRMSD -1
REMARK  0 active torsions:
REMARK  status: ('A' for Active; 'I' for Inactive)
ROOT
ATOM      1  C2' OXE d   1       1.189  -0.023   2.303  0.00  0.00     0.078 C 
ATOM      2  C1' OXE d   1       1.012  -1.208  -0.235  0.00  0.00     0.078 C 
ATOM      3  C1  OXE d   1      -0.193  -0.460   0.278  0.00  0.00    -0.078 A 
ATOM      4  C2  OXE d   1      -0.114   0.077   1.540  0.00  0.00    -0.078 A 
ATOM      5  C3  OXE d   1      -1.177   0.823   2.040  0.00  0.00     0.003 A 
ATOM      6  C4  OXE d   1      -2.382   0.902   1.333  0.00  0.00    -0.002 A 
ATOM      7  C5  OXE d   1      -2.498   0.329   0.062  0.00  0.00    -0.002 A 
ATOM      8  C6  OXE d   1      -1.401  -0.318  -0.497  0.00  0.00     0.003 A 
ENDROOT
TORSDOF 0
ENDMDL
