MODEL 1
REMARK minimizedAffinity -5.18270874
REMARK minimizedRMSD -1
REMARK  0 active torsions:
REMARK  status: ('A' for Active; 'I' for Inactive)
ROOT
ATOM      1  C2' OXE d   1       0.319  -0.386  -0.510  0.00  0.00     0.078 C 
ATOM      2  C1' OXE d   1      -2.282   0.545  -0.014  0.00  0.00     0.078 C 
ATOM      3  C1  OXE d   1      -1.304   0.543   1.134  0.00  0.00    -0.078 A 
ATOM      4  C2  OXE d   1      -0.047   0.042   0.894  0.00  0.00    -0.078 A 
ATOM      5  C3  OXE d   1       0.910   0.068   1.904  0.00  0.00     0.003 A 
ATOM      6  C4  OXE d   1       0.559   0.457   3.203  0.00  0.00    -0.002 A 
ATOM      7  C5  OXE d   1      -0.727   0.933   3.479  0.00  0.00    -0.002 A 
ATOM      8  C6  OXE d   1      -1.656   1.022   2.448  0.00  0.00     0.003 A 
ENDROOT
TORSDOF 0
ENDMDL
