MODEL 1
REMARK minimizedAffinity -6.49396849
REMARK minimizedRMSD -1
REMARK  0 active torsions:
REMARK  status: ('A' for Active; 'I' for Inactive)
ROOT
ATOM      1  C2' OXE d   1       0.142  -0.145  -0.416  0.00  0.00     0.078 C 
ATOM      2  C1' OXE d   1      -1.922   1.156   0.970  0.00  0.00     0.078 C 
ATOM      3  C1  OXE d   1      -0.707   0.730   1.756  0.00  0.00    -0.078 A 
ATOM      4  C2  OXE d   1       0.278   0.053   1.078  0.00  0.00    -0.078 A 
ATOM      5  C3  OXE d   1       1.444  -0.315   1.743  0.00  0.00     0.003 A 
ATOM      6  C4  OXE d   1       1.557  -0.137   3.127  0.00  0.00    -0.002 A 
ATOM      7  C5  OXE d   1       0.548   0.516   3.844  0.00  0.00    -0.002 A 
ATOM      8  C6  OXE d   1      -0.569   0.992   3.167  0.00  0.00     0.003 A 
ENDROOT
TORSDOF 0
ENDMDL
