MODEL 1
REMARK minimizedAffinity -5.55739927
REMARK minimizedRMSD -1
REMARK  0 active torsions:
REMARK  status: ('A' for Active; 'I' for Inactive)
ROOT
ATOM      1  C2' OXE d   1      -1.743   1.175   0.686  0.00  0.00     0.078 C 
ATOM      2  C1' OXE d   1       0.457  -0.277  -0.278  0.00  0.00     0.078 C 
ATOM      3  C1  OXE d   1       0.421   0.050   1.194  0.00  0.00    -0.078 A 
ATOM      4  C2  OXE d   1      -0.637   0.801   1.649  0.00  0.00    -0.078 A 
ATOM      5  C3  OXE d   1      -0.747   1.083   3.007  0.00  0.00     0.003 A 
ATOM      6  C4  OXE d   1       0.286   0.742   3.889  0.00  0.00    -0.002 A 
ATOM      7  C5  OXE d   1       1.391   0.012   3.439  0.00  0.00    -0.002 A 
ATOM      8  C6  OXE d   1       1.453  -0.378   2.106  0.00  0.00     0.003 A 
ENDROOT
TORSDOF 0
ENDMDL
