MODEL 1
REMARK minimizedAffinity -4.64827299
REMARK minimizedRMSD -1
REMARK  0 active torsions:
REMARK  status: ('A' for Active; 'I' for Inactive)
ROOT
ATOM      1  C2' OXE d   1      -2.011   0.692   0.929  0.00  0.00     0.078 C 
ATOM      2  C1' OXE d   1      -0.041  -0.657  -0.548  0.00  0.00     0.078 C 
ATOM      3  C1  OXE d   1       0.284  -0.277   0.875  0.00  0.00    -0.078 A 
ATOM      4  C2  OXE d   1      -0.669   0.424   1.575  0.00  0.00    -0.078 A 
ATOM      5  C3  OXE d   1      -0.442   0.752   2.909  0.00  0.00     0.003 A 
ATOM      6  C4  OXE d   1       0.806   0.509   3.496  0.00  0.00    -0.002 A 
ATOM      7  C5  OXE d   1       1.804  -0.169   2.788  0.00  0.00    -0.002 A 
ATOM      8  C6  OXE d   1       1.544  -0.605   1.494  0.00  0.00     0.003 A 
ENDROOT
TORSDOF 0
ENDMDL
