MODEL 1
REMARK minimizedAffinity -0.444389373
REMARK minimizedRMSD -1
REMARK  0 active torsions:
REMARK  status: ('A' for Active; 'I' for Inactive)
ROOT
ATOM      1  C   UNL d   1      -1.717   1.293  -0.275  0.00  0.00     0.077 C 
ATOM      2  C1  UNL d   1      -0.362   0.651  -0.240  0.00  0.00    -0.074 A 
ATOM      3  C2  UNL d   1       0.694   1.158  -1.004  0.00  0.00    -0.005 A 
ATOM      4  C3  UNL d   1       1.951   0.556  -0.954  0.00  0.00     0.006 A 
ATOM      5  C4  UNL d   1       2.165  -0.557  -0.140  0.00  0.00    -0.005 A 
ATOM      6  C5  UNL d   1       1.122  -1.078   0.632  0.00  0.00    -0.074 A 
ATOM      7  C6  UNL d   1       1.338  -2.267   1.520  0.00  0.00     0.077 C 
ATOM      8  C7  UNL d   1      -0.137  -0.463   0.582  0.00  0.00    -0.001 A 
ENDROOT
TORSDOF 0
ENDMDL
