MODEL 1
REMARK minimizedAffinity -1.20807445
REMARK minimizedRMSD -1
REMARK  0 active torsions:
REMARK  status: ('A' for Active; 'I' for Inactive)
ROOT
ATOM      1  C   UNL d   1       0.021   1.692  -1.056  0.00  0.00     0.077 C 
ATOM      2  C1  UNL d   1       0.404   0.527  -0.193  0.00  0.00    -0.074 A 
ATOM      3  C2  UNL d   1       1.606  -0.157  -0.402  0.00  0.00    -0.005 A 
ATOM      4  C3  UNL d   1       1.953  -1.234   0.415  0.00  0.00     0.006 A 
ATOM      5  C4  UNL d   1       1.104  -1.636   1.446  0.00  0.00    -0.005 A 
ATOM      6  C5  UNL d   1      -0.101  -0.963   1.671  0.00  0.00    -0.074 A 
ATOM      7  C6  UNL d   1      -1.020  -1.376   2.782  0.00  0.00     0.077 C 
ATOM      8  C7  UNL d   1      -0.440   0.122   0.851  0.00  0.00    -0.001 A 
ENDROOT
TORSDOF 0
ENDMDL
