MODEL 1
REMARK minimizedAffinity -1.92821383
REMARK minimizedRMSD -1
REMARK  0 active torsions:
REMARK  status: ('A' for Active; 'I' for Inactive)
ROOT
ATOM      1  C   UNL d   1       1.938  -2.186   2.942  0.00  0.00     0.077 C 
ATOM      2  C1  UNL d   1       0.759  -1.411   2.433  0.00  0.00    -0.074 A 
ATOM      3  C2  UNL d   1      -0.422  -1.328   3.177  0.00  0.00    -0.005 A 
ATOM      4  C3  UNL d   1      -1.507  -0.596   2.694  0.00  0.00     0.006 A 
ATOM      5  C4  UNL d   1      -1.421   0.059   1.465  0.00  0.00    -0.005 A 
ATOM      6  C5  UNL d   1      -0.248  -0.013   0.707  0.00  0.00    -0.074 A 
ATOM      7  C6  UNL d   1      -0.137   0.693  -0.611  0.00  0.00     0.077 C 
ATOM      8  C7  UNL d   1       0.840  -0.744   1.202  0.00  0.00    -0.001 A 
ENDROOT
TORSDOF 0
ENDMDL
