MODEL 1
REMARK minimizedAffinity -1.96153593
REMARK minimizedRMSD -1
REMARK  0 active torsions:
REMARK  status: ('A' for Active; 'I' for Inactive)
ROOT
ATOM      1  C   UNL d   1      -0.659   1.414  -1.119  0.00  0.00     0.077 C 
ATOM      2  C1  UNL d   1      -0.709   0.564   0.115  0.00  0.00    -0.074 A 
ATOM      3  C2  UNL d   1      -1.753   0.696   1.037  0.00  0.00    -0.005 A 
ATOM      4  C3  UNL d   1      -1.792  -0.109   2.175  0.00  0.00     0.006 A 
ATOM      5  C4  UNL d   1      -0.789  -1.052   2.404  0.00  0.00    -0.005 A 
ATOM      6  C5  UNL d   1       0.262  -1.199   1.493  0.00  0.00    -0.074 A 
ATOM      7  C6  UNL d   1       1.342  -2.215   1.718  0.00  0.00     0.077 C 
ATOM      8  C7  UNL d   1       0.290  -0.392   0.348  0.00  0.00    -0.001 A 
ENDROOT
TORSDOF 0
ENDMDL
