MODEL 1
REMARK minimizedAffinity -4.66685867
REMARK minimizedRMSD -1
REMARK  0 active torsions:
REMARK  status: ('A' for Active; 'I' for Inactive)
ROOT
ATOM      1  C   UNL d   1      -0.418   1.401  -0.500  0.00  0.00     0.077 C 
ATOM      2  C1  UNL d   1       0.203   0.214   0.175  0.00  0.00    -0.074 A 
ATOM      3  C2  UNL d   1       1.321  -0.422  -0.374  0.00  0.00    -0.005 A 
ATOM      4  C3  UNL d   1       1.892  -1.520   0.270  0.00  0.00     0.006 A 
ATOM      5  C4  UNL d   1       1.353  -1.991   1.467  0.00  0.00    -0.005 A 
ATOM      6  C5  UNL d   1       0.236  -1.367   2.032  0.00  0.00    -0.074 A 
ATOM      7  C6  UNL d   1      -0.350  -1.855   3.323  0.00  0.00     0.077 C 
ATOM      8  C7  UNL d   1      -0.329  -0.261   1.382  0.00  0.00    -0.001 A 
ENDROOT
TORSDOF 0
ENDMDL
