MODEL 1
REMARK minimizedAffinity 4.5046792
REMARK minimizedRMSD -1
REMARK  0 active torsions:
REMARK  status: ('A' for Active; 'I' for Inactive)
ROOT
ATOM      1  C   UNL d   1      -0.714   2.925  -4.173  0.00  0.00     0.077 C 
ATOM      2  C1  UNL d   1      -0.988   2.083  -2.962  0.00  0.00    -0.074 A 
ATOM      3  C2  UNL d   1      -2.240   1.491  -2.767  0.00  0.00    -0.005 A 
ATOM      4  C3  UNL d   1      -2.477   0.703  -1.641  0.00  0.00     0.006 A 
ATOM      5  C4  UNL d   1      -1.466   0.499  -0.701  0.00  0.00    -0.005 A 
ATOM      6  C5  UNL d   1      -0.208   1.082  -0.880  0.00  0.00    -0.074 A 
ATOM      7  C6  UNL d   1       0.892   0.865   0.116  0.00  0.00     0.077 C 
ATOM      8  C7  UNL d   1       0.025   1.867  -2.017  0.00  0.00    -0.001 A 
ENDROOT
TORSDOF 0
ENDMDL
