MODEL 1
REMARK minimizedAffinity -4.56944227
REMARK minimizedRMSD -1
REMARK  0 active torsions:
REMARK  status: ('A' for Active; 'I' for Inactive)
ROOT
ATOM      1  C   UNL d   1      -1.075   0.975  -0.816  0.00  0.00     0.077 C 
ATOM      2  C1  UNL d   1       0.005   0.100  -0.251  0.00  0.00    -0.074 A 
ATOM      3  C2  UNL d   1       1.236  -0.031  -0.901  0.00  0.00    -0.005 A 
ATOM      4  C3  UNL d   1       2.235  -0.841  -0.359  0.00  0.00     0.006 A 
ATOM      5  C4  UNL d   1       2.012  -1.526   0.835  0.00  0.00    -0.005 A 
ATOM      6  C5  UNL d   1       0.787  -1.407   1.500  0.00  0.00    -0.074 A 
ATOM      7  C6  UNL d   1       0.535  -2.129   2.790  0.00  0.00     0.077 C 
ATOM      8  C7  UNL d   1      -0.208  -0.586   0.953  0.00  0.00    -0.001 A 
ENDROOT
TORSDOF 0
ENDMDL
