MODEL 1
REMARK minimizedAffinity -2.56407094
REMARK minimizedRMSD -1
REMARK  0 active torsions:
REMARK  status: ('A' for Active; 'I' for Inactive)
ROOT
ATOM      1  C   UNL d   1       0.525  -0.242   0.310  0.00  0.00     0.077 C 
ATOM      2  C1  UNL d   1      -0.436   0.398  -0.648  0.00  0.00    -0.074 A 
ATOM      3  C2  UNL d   1      -1.530  -0.312  -1.150  0.00  0.00    -0.005 A 
ATOM      4  C3  UNL d   1      -2.421   0.299  -2.033  0.00  0.00     0.006 A 
ATOM      5  C4  UNL d   1      -2.226   1.626  -2.421  0.00  0.00    -0.005 A 
ATOM      6  C5  UNL d   1      -1.137   2.352  -1.928  0.00  0.00    -0.074 A 
ATOM      7  C6  UNL d   1      -0.919   3.781  -2.327  0.00  0.00     0.077 C 
ATOM      8  C7  UNL d   1      -0.251   1.733  -1.036  0.00  0.00    -0.001 A 
ENDROOT
TORSDOF 0
ENDMDL
