MODEL 1
REMARK minimizedAffinity -3.54951763
REMARK minimizedRMSD -1
REMARK  0 active torsions:
REMARK  status: ('A' for Active; 'I' for Inactive)
ROOT
ATOM      1  C   UNL d   1      -0.010   0.520  -0.991  0.00  0.00     0.077 C 
ATOM      2  C1  UNL d   1       0.355  -0.406   0.132  0.00  0.00    -0.074 A 
ATOM      3  C2  UNL d   1       1.591  -1.061   0.150  0.00  0.00    -0.005 A 
ATOM      4  C3  UNL d   1       1.920  -1.911   1.205  0.00  0.00     0.006 A 
ATOM      5  C4  UNL d   1       1.019  -2.115   2.251  0.00  0.00    -0.005 A 
ATOM      6  C5  UNL d   1      -0.220  -1.468   2.251  0.00  0.00    -0.074 A 
ATOM      7  C6  UNL d   1      -1.196  -1.668   3.372  0.00  0.00     0.077 C 
ATOM      8  C7  UNL d   1      -0.541  -0.609   1.190  0.00  0.00    -0.001 A 
ENDROOT
TORSDOF 0
ENDMDL
