MODEL 1
REMARK minimizedAffinity -4.5611043
REMARK minimizedRMSD -1
REMARK  0 active torsions:
REMARK  status: ('A' for Active; 'I' for Inactive)
ROOT
ATOM      1  C   UNL d   1      -0.289   3.977  -4.023  0.00  0.00     0.077 C 
ATOM      2  C1  UNL d   1      -1.236   3.172  -3.184  0.00  0.00    -0.074 A 
ATOM      3  C2  UNL d   1      -2.498   2.812  -3.669  0.00  0.00    -0.005 A 
ATOM      4  C3  UNL d   1      -3.364   2.055  -2.881  0.00  0.00     0.006 A 
ATOM      5  C4  UNL d   1      -2.979   1.650  -1.602  0.00  0.00    -0.005 A 
ATOM      6  C5  UNL d   1      -1.721   2.000  -1.101  0.00  0.00    -0.074 A 
ATOM      7  C6  UNL d   1      -1.288   1.565   0.268  0.00  0.00     0.077 C 
ATOM      8  C7  UNL d   1      -0.853   2.755  -1.901  0.00  0.00    -0.001 A 
ENDROOT
TORSDOF 0
ENDMDL
