MODEL 1
REMARK minimizedAffinity -3.82586765
REMARK minimizedRMSD -1
REMARK  0 active torsions:
REMARK  status: ('A' for Active; 'I' for Inactive)
ROOT
ATOM      1  C   UNL d   1       0.491  -1.192   3.069  0.00  0.00     0.077 C 
ATOM      2  C1  UNL d   1       0.853  -0.910   1.641  0.00  0.00    -0.074 A 
ATOM      3  C2  UNL d   1       2.001  -1.465   1.068  0.00  0.00    -0.005 A 
ATOM      4  C3  UNL d   1       2.320  -1.201  -0.264  0.00  0.00     0.006 A 
ATOM      5  C4  UNL d   1       1.495  -0.382  -1.035  0.00  0.00    -0.005 A 
ATOM      6  C5  UNL d   1       0.342   0.181  -0.479  0.00  0.00    -0.074 A 
ATOM      7  C6  UNL d   1      -0.561   1.057  -1.297  0.00  0.00     0.077 C 
ATOM      8  C7  UNL d   1       0.025  -0.094   0.858  0.00  0.00    -0.001 A 
ENDROOT
TORSDOF 0
ENDMDL
