MODEL 1
REMARK minimizedAffinity -4.14694977
REMARK minimizedRMSD -1
REMARK  0 active torsions:
REMARK  status: ('A' for Active; 'I' for Inactive)
ROOT
ATOM      1  C   UNL d   1      -0.565   1.557  -0.551  0.00  0.00     0.077 C 
ATOM      2  C1  UNL d   1       0.121   0.379   0.075  0.00  0.00    -0.074 A 
ATOM      3  C2  UNL d   1       1.403  -0.005  -0.329  0.00  0.00    -0.005 A 
ATOM      4  C3  UNL d   1       2.032  -1.097   0.269  0.00  0.00     0.006 A 
ATOM      5  C4  UNL d   1       1.385  -1.815   1.275  0.00  0.00    -0.005 A 
ATOM      6  C5  UNL d   1       0.103  -1.446   1.693  0.00  0.00    -0.074 A 
ATOM      7  C6  UNL d   1      -0.602  -2.201   2.781  0.00  0.00     0.077 C 
ATOM      8  C7  UNL d   1      -0.519  -0.343   1.092  0.00  0.00    -0.001 A 
ENDROOT
TORSDOF 0
ENDMDL
