MODEL 1
REMARK minimizedAffinity -2.56008101
REMARK minimizedRMSD -1
REMARK  0 active torsions:
REMARK  status: ('A' for Active; 'I' for Inactive)
ROOT
ATOM      1  C   UNL d   1       1.643  -1.083   0.539  0.00  0.00     0.077 C 
ATOM      2  C1  UNL d   1       0.339  -0.346   0.462  0.00  0.00    -0.074 A 
ATOM      3  C2  UNL d   1      -0.619  -0.473   1.473  0.00  0.00    -0.005 A 
ATOM      4  C3  UNL d   1      -1.824   0.226   1.392  0.00  0.00     0.006 A 
ATOM      5  C4  UNL d   1      -2.082   1.057   0.302  0.00  0.00    -0.005 A 
ATOM      6  C5  UNL d   1      -1.136   1.197  -0.718  0.00  0.00    -0.074 A 
ATOM      7  C6  UNL d   1      -1.394   2.093  -1.893  0.00  0.00     0.077 C 
ATOM      8  C7  UNL d   1       0.075   0.497  -0.627  0.00  0.00    -0.001 A 
ENDROOT
TORSDOF 0
ENDMDL
