MODEL 1
REMARK minimizedAffinity -3.04542136
REMARK minimizedRMSD -1
REMARK  0 active torsions:
REMARK  status: ('A' for Active; 'I' for Inactive)
ROOT
ATOM      1  C   UNL d   1      -2.481   2.368  -2.995  0.00  0.00     0.077 C 
ATOM      2  C1  UNL d   1      -2.009   1.517  -1.854  0.00  0.00    -0.074 A 
ATOM      3  C2  UNL d   1      -2.901   0.707  -1.144  0.00  0.00    -0.005 A 
ATOM      4  C3  UNL d   1      -2.446  -0.087  -0.091  0.00  0.00     0.006 A 
ATOM      5  C4  UNL d   1      -1.096  -0.078   0.262  0.00  0.00    -0.005 A 
ATOM      6  C5  UNL d   1      -0.189   0.725  -0.436  0.00  0.00    -0.074 A 
ATOM      7  C6  UNL d   1       1.267   0.739  -0.076  0.00  0.00     0.077 C 
ATOM      8  C7  UNL d   1      -0.653   1.514  -1.498  0.00  0.00    -0.001 A 
ENDROOT
TORSDOF 0
ENDMDL
