MODEL 1
REMARK minimizedAffinity 4.23731041
REMARK minimizedRMSD -1
REMARK  0 active torsions:
REMARK  status: ('A' for Active; 'I' for Inactive)
ROOT
ATOM      1  C   UNL d   1      -0.075   0.588   1.855  0.00  0.00     0.124 A 
ATOM      2  C1  UNL d   1      -1.258   0.511   1.132  0.00  0.00     0.062 A 
ATOM      3  C2  UNL d   1      -1.237   0.117  -0.203  0.00  0.00     0.162 A 
ATOM      4  C3  UNL d   1      -0.029  -0.204  -0.824  0.00  0.00    -0.034 A 
ATOM      5  C4  UNL d   1       1.155  -0.123  -0.090  0.00  0.00     0.162 A 
ATOM      6  C5  UNL d   1       1.129   0.271   1.244  0.00  0.00     0.062 A 
ATOM      7  F   UNL d   1       2.273   0.345   1.941  0.00  0.00    -0.097 F 
ATOM      8  F1  UNL d   1       2.334  -0.424  -0.655  0.00  0.00    -0.096 F 
ATOM      9  I   UNL d   1       0.006  -0.793  -2.819  0.00  0.00    -0.060 I 
ATOM     10  F2  UNL d   1      -2.394   0.051  -0.878  0.00  0.00    -0.096 F 
ATOM     11  F3  UNL d   1      -2.423   0.817   1.720  0.00  0.00    -0.097 F 
ATOM     12  F4  UNL d   1      -0.098   0.968   3.139  0.00  0.00    -0.092 F 
ENDROOT
TORSDOF 0
ENDMDL
