MODEL 1
REMARK minimizedAffinity 2.04808712
REMARK minimizedRMSD -1
REMARK  0 active torsions:
REMARK  status: ('A' for Active; 'I' for Inactive)
ROOT
ATOM      1  C   UNL d   1      -1.858  -0.914  -0.638  0.00  0.00     0.124 A 
ATOM      2  C1  UNL d   1      -0.681  -1.639  -0.506  0.00  0.00     0.062 A 
ATOM      3  C2  UNL d   1       0.504  -0.994  -0.165  0.00  0.00     0.162 A 
ATOM      4  C3  UNL d   1       0.519   0.385   0.048  0.00  0.00    -0.034 A 
ATOM      5  C4  UNL d   1      -0.668   1.107  -0.088  0.00  0.00     0.162 A 
ATOM      6  C5  UNL d   1      -1.850   0.458  -0.429  0.00  0.00     0.062 A 
ATOM      7  F   UNL d   1      -2.985   1.160  -0.556  0.00  0.00    -0.097 F 
ATOM      8  F1  UNL d   1      -0.689   2.434   0.109  0.00  0.00    -0.096 F 
ATOM      9  I   UNL d   1       2.289   1.354   0.557  0.00  0.00    -0.060 I 
ATOM     10  F2  UNL d   1       1.626  -1.719  -0.044  0.00  0.00    -0.096 F 
ATOM     11  F3  UNL d   1      -0.686  -2.964  -0.708  0.00  0.00    -0.097 F 
ATOM     12  F4  UNL d   1      -2.996  -1.538  -0.967  0.00  0.00    -0.092 F 
ENDROOT
TORSDOF 0
ENDMDL
