MODEL 1
REMARK minimizedAffinity 4.02161503
REMARK minimizedRMSD -1
REMARK  0 active torsions:
REMARK  status: ('A' for Active; 'I' for Inactive)
ROOT
ATOM      1  C   UNL d   1       0.183  -0.678   1.804  0.00  0.00     0.124 A 
ATOM      2  C1  UNL d   1      -1.013  -0.142   2.262  0.00  0.00     0.062 A 
ATOM      3  C2  UNL d   1      -2.082   0.032   1.388  0.00  0.00     0.162 A 
ATOM      4  C3  UNL d   1      -1.961  -0.330   0.046  0.00  0.00    -0.034 A 
ATOM      5  C4  UNL d   1      -0.755  -0.868  -0.407  0.00  0.00     0.162 A 
ATOM      6  C5  UNL d   1       0.311  -1.040   0.471  0.00  0.00     0.062 A 
ATOM      7  F   UNL d   1       1.465  -1.557   0.026  0.00  0.00    -0.097 F 
ATOM      8  F1  UNL d   1      -0.604  -1.227  -1.690  0.00  0.00    -0.096 F 
ATOM      9  I   UNL d   1      -3.557  -0.071  -1.264  0.00  0.00    -0.060 I 
ATOM     10  F2  UNL d   1      -3.226   0.552   1.858  0.00  0.00    -0.096 F 
ATOM     11  F3  UNL d   1      -1.139   0.209   3.550  0.00  0.00    -0.097 F 
ATOM     12  F4  UNL d   1       1.210  -0.844   2.647  0.00  0.00    -0.092 F 
ENDROOT
TORSDOF 0
ENDMDL
