MODEL 1
REMARK minimizedAffinity 16.1171055
REMARK minimizedRMSD -1
REMARK  0 active torsions:
REMARK  status: ('A' for Active; 'I' for Inactive)
ROOT
ATOM      1  C   UNL d   1      -1.998   0.197   2.083  0.00  0.00     0.124 A 
ATOM      2  C1  UNL d   1      -1.305  -0.937   2.482  0.00  0.00     0.062 A 
ATOM      3  C2  UNL d   1       0.024  -0.840   2.885  0.00  0.00     0.162 A 
ATOM      4  C3  UNL d   1       0.669   0.396   2.891  0.00  0.00    -0.034 A 
ATOM      5  C4  UNL d   1      -0.034   1.533   2.487  0.00  0.00     0.162 A 
ATOM      6  C5  UNL d   1      -1.362   1.431   2.086  0.00  0.00     0.062 A 
ATOM      7  F   UNL d   1      -2.030   2.528   1.700  0.00  0.00    -0.097 F 
ATOM      8  F1  UNL d   1       0.556   2.737   2.481  0.00  0.00    -0.096 F 
ATOM      9  I   UNL d   1       2.656   0.545   3.492  0.00  0.00    -0.060 I 
ATOM     10  F2  UNL d   1       0.669  -1.953   3.265  0.00  0.00    -0.096 F 
ATOM     11  F3  UNL d   1      -1.917  -2.130   2.480  0.00  0.00    -0.097 F 
ATOM     12  F4  UNL d   1      -3.276   0.101   1.695  0.00  0.00    -0.092 F 
ENDROOT
TORSDOF 0
ENDMDL
