MODEL 1
REMARK minimizedAffinity 3.65361571
REMARK minimizedRMSD -1
REMARK  0 active torsions:
REMARK  status: ('A' for Active; 'I' for Inactive)
ROOT
ATOM      1  C   UNL d   1      -1.497  -1.548   3.305  0.00  0.00     0.124 A 
ATOM      2  C1  UNL d   1      -0.316  -2.145   3.724  0.00  0.00     0.062 A 
ATOM      3  C2  UNL d   1       0.888  -1.454   3.633  0.00  0.00     0.162 A 
ATOM      4  C3  UNL d   1       0.919  -0.157   3.121  0.00  0.00    -0.034 A 
ATOM      5  C4  UNL d   1      -0.273   0.437   2.700  0.00  0.00     0.162 A 
ATOM      6  C5  UNL d   1      -1.474  -0.258   2.793  0.00  0.00     0.062 A 
ATOM      7  F   UNL d   1      -2.614   0.320   2.387  0.00  0.00    -0.097 F 
ATOM      8  F1  UNL d   1      -0.279   1.682   2.202  0.00  0.00    -0.096 F 
ATOM      9  I   UNL d   1       2.718   0.879   2.982  0.00  0.00    -0.060 I 
ATOM     10  F2  UNL d   1       2.014  -2.056   4.046  0.00  0.00    -0.096 F 
ATOM     11  F3  UNL d   1      -0.336  -3.391   4.219  0.00  0.00    -0.097 F 
ATOM     12  F4  UNL d   1      -2.655  -2.215   3.393  0.00  0.00    -0.092 F 
ENDROOT
TORSDOF 0
ENDMDL
