MODEL 1
REMARK minimizedAffinity 4.56960011
REMARK minimizedRMSD -1
REMARK  0 active torsions:
REMARK  status: ('A' for Active; 'I' for Inactive)
ROOT
ATOM      1  C   UNL d   1      -2.251  -0.851   3.518  0.00  0.00     0.124 A 
ATOM      2  C1  UNL d   1      -2.333   0.354   2.835  0.00  0.00     0.062 A 
ATOM      3  C2  UNL d   1      -1.190   0.926   2.284  0.00  0.00     0.162 A 
ATOM      4  C3  UNL d   1       0.046   0.293   2.414  0.00  0.00    -0.034 A 
ATOM      5  C4  UNL d   1       0.121  -0.918   3.104  0.00  0.00     0.162 A 
ATOM      6  C5  UNL d   1      -1.024  -1.486   3.652  0.00  0.00     0.062 A 
ATOM      7  F   UNL d   1      -0.943  -2.650   4.312  0.00  0.00    -0.097 F 
ATOM      8  F1  UNL d   1       1.294  -1.554   3.247  0.00  0.00    -0.096 F 
ATOM      9  I   UNL d   1       1.758   1.145   1.592  0.00  0.00    -0.060 I 
ATOM     10  F2  UNL d   1      -1.299   2.092   1.629  0.00  0.00    -0.096 F 
ATOM     11  F3  UNL d   1      -3.517   0.970   2.705  0.00  0.00    -0.097 F 
ATOM     12  F4  UNL d   1      -3.352  -1.399   4.048  0.00  0.00    -0.092 F 
ENDROOT
TORSDOF 0
ENDMDL
