MODEL 1
REMARK minimizedAffinity 3.59106565
REMARK minimizedRMSD -1
REMARK  0 active torsions:
REMARK  status: ('A' for Active; 'I' for Inactive)
ROOT
ATOM      1  C   UNL d   1      -2.460  -1.185   3.471  0.00  0.00     0.124 A 
ATOM      2  C1  UNL d   1      -2.321  -0.407   2.330  0.00  0.00     0.062 A 
ATOM      3  C2  UNL d   1      -1.060  -0.183   1.785  0.00  0.00     0.162 A 
ATOM      4  C3  UNL d   1       0.073  -0.740   2.380  0.00  0.00    -0.034 A 
ATOM      5  C4  UNL d   1      -0.075  -1.521   3.527  0.00  0.00     0.162 A 
ATOM      6  C5  UNL d   1      -1.338  -1.741   4.068  0.00  0.00     0.062 A 
ATOM      7  F   UNL d   1      -1.471  -2.493   5.170  0.00  0.00    -0.097 F 
ATOM      8  F1  UNL d   1       0.992  -2.071   4.125  0.00  0.00    -0.096 F 
ATOM      9  I   UNL d   1       1.960  -0.408   1.568  0.00  0.00    -0.060 I 
ATOM     10  F2  UNL d   1      -0.954   0.573   0.682  0.00  0.00    -0.096 F 
ATOM     11  F3  UNL d   1      -3.403   0.132   1.751  0.00  0.00    -0.097 F 
ATOM     12  F4  UNL d   1      -3.675  -1.398   3.993  0.00  0.00    -0.092 F 
ENDROOT
TORSDOF 0
ENDMDL
