MODEL 1
REMARK minimizedAffinity 6.96094608
REMARK minimizedRMSD -1
REMARK  0 active torsions:
REMARK  status: ('A' for Active; 'I' for Inactive)
ROOT
ATOM      1  C   UNL d   1      -1.874  -0.004  -0.005  0.00  0.00     0.124 A 
ATOM      2  C1  UNL d   1      -2.090   0.489   1.274  0.00  0.00     0.062 A 
ATOM      3  C2  UNL d   1      -1.198   0.189   2.300  0.00  0.00     0.162 A 
ATOM      4  C3  UNL d   1      -0.082  -0.609   2.051  0.00  0.00    -0.034 A 
ATOM      5  C4  UNL d   1       0.128  -1.103   0.762  0.00  0.00     0.162 A 
ATOM      6  C5  UNL d   1      -0.766  -0.799  -0.260  0.00  0.00     0.062 A 
ATOM      7  F   UNL d   1      -0.556  -1.277  -1.496  0.00  0.00    -0.097 F 
ATOM      8  F1  UNL d   1       1.191  -1.873   0.487  0.00  0.00    -0.096 F 
ATOM      9  I   UNL d   1       1.254  -1.061   3.582  0.00  0.00    -0.060 I 
ATOM     10  F2  UNL d   1      -1.432   0.679   3.526  0.00  0.00    -0.096 F 
ATOM     11  F3  UNL d   1      -3.160   1.257   1.523  0.00  0.00    -0.097 F 
ATOM     12  F4  UNL d   1      -2.734   0.286  -0.990  0.00  0.00    -0.092 F 
ENDROOT
TORSDOF 0
ENDMDL
