MODEL 1
REMARK minimizedAffinity 13.7794218
REMARK minimizedRMSD -1
REMARK  0 active torsions:
REMARK  status: ('A' for Active; 'I' for Inactive)
ROOT
ATOM      1  C   UNL d   1       4.390   4.875   2.929  0.00  0.00     0.124 A 
ATOM      2  C1  UNL d   1       3.671   4.874   1.742  0.00  0.00     0.062 A 
ATOM      3  C2  UNL d   1       3.058   3.707   1.296  0.00  0.00     0.162 A 
ATOM      4  C3  UNL d   1       3.160   2.530   2.039  0.00  0.00    -0.034 A 
ATOM      5  C4  UNL d   1       3.886   2.539   3.231  0.00  0.00     0.162 A 
ATOM      6  C5  UNL d   1       4.497   3.709   3.672  0.00  0.00     0.062 A 
ATOM      7  F   UNL d   1       5.191   3.708   4.819  0.00  0.00    -0.097 F 
ATOM      8  F1  UNL d   1       4.004   1.426   3.970  0.00  0.00    -0.096 F 
ATOM      9  I   UNL d   1       2.245   0.783   1.376  0.00  0.00    -0.060 I 
ATOM     10  F2  UNL d   1       2.369   3.734   0.145  0.00  0.00    -0.096 F 
ATOM     11  F3  UNL d   1       3.567   6.000   1.021  0.00  0.00    -0.097 F 
ATOM     12  F4  UNL d   1       4.980   6.000   3.355  0.00  0.00    -0.092 F 
ENDROOT
TORSDOF 0
ENDMDL
