MODEL 1
REMARK minimizedAffinity -3.42616439
REMARK minimizedRMSD -1
REMARK  0 active torsions:
REMARK  status: ('A' for Active; 'I' for Inactive)
ROOT
ATOM      1  N1  IND d   1      -3.176  -5.853  -5.981  0.00  0.00    -0.196 N 
ATOM      2  C2  IND d   1      -1.996  -5.652  -5.320  0.00  0.00     0.054 A 
ATOM      3  C3  IND d   1      -2.079  -4.556  -4.533  0.00  0.00    -0.031 A 
ATOM      4  C4  IND d   1      -4.084  -3.001  -4.100  0.00  0.00     0.051 A 
ATOM      5  C5  IND d   1      -5.367  -2.759  -4.504  0.00  0.00    -0.031 A 
ATOM      6  C6  IND d   1      -5.999  -3.554  -5.438  0.00  0.00     0.015 A 
ATOM      7  C7  IND d   1      -5.372  -4.632  -5.997  0.00  0.00    -0.016 A 
ATOM      8  C8  IND d   1      -4.067  -4.876  -5.594  0.00  0.00    -0.047 A 
ATOM      9  C9  IND d   1      -3.406  -4.047  -4.678  0.00  0.00    -0.096 A 
ATOM     10  HN1 IND d   1      -3.334  -6.483  -6.545  0.00  0.00     0.298 HD
ENDROOT
TORSDOF 0
ENDMDL
