MODEL 1
REMARK minimizedAffinity -1.18317139
REMARK minimizedRMSD -1
REMARK  0 active torsions:
REMARK  status: ('A' for Active; 'I' for Inactive)
ROOT
ATOM      1  N1  IND d   1      -2.433  -5.235  -3.923  0.00  0.00    -0.196 N 
ATOM      2  C2  IND d   1      -2.056  -5.948  -5.028  0.00  0.00     0.054 A 
ATOM      3  C3  IND d   1      -3.004  -5.864  -5.988  0.00  0.00    -0.031 A 
ATOM      4  C4  IND d   1      -5.206  -4.529  -6.000  0.00  0.00     0.051 A 
ATOM      5  C5  IND d   1      -6.000  -3.754  -5.202  0.00  0.00    -0.031 A 
ATOM      6  C6  IND d   1      -5.637  -3.424  -3.912  0.00  0.00     0.015 A 
ATOM      7  C7  IND d   1      -4.456  -3.850  -3.374  0.00  0.00    -0.016 A 
ATOM      8  C8  IND d   1      -3.650  -4.643  -4.178  0.00  0.00    -0.047 A 
ATOM      9  C9  IND d   1      -4.033  -5.016  -5.473  0.00  0.00    -0.096 A 
ATOM     10  HN1 IND d   1      -1.985  -5.169  -3.192  0.00  0.00     0.298 HD
ENDROOT
TORSDOF 0
ENDMDL
