MODEL 1
REMARK minimizedAffinity -1.7479862
REMARK minimizedRMSD -1
REMARK  0 active torsions:
REMARK  status: ('A' for Active; 'I' for Inactive)
ROOT
ATOM      1  N1  IND d   1      -5.090  -2.443  -4.077  0.00  0.00    -0.196 N 
ATOM      2  C2  IND d   1      -5.999  -2.249  -5.079  0.00  0.00     0.054 A 
ATOM      3  C3  IND d   1      -5.909  -3.239  -5.995  0.00  0.00    -0.031 A 
ATOM      4  C4  IND d   1      -4.410  -5.332  -5.998  0.00  0.00     0.051 A 
ATOM      5  C5  IND d   1      -3.389  -5.927  -5.311  0.00  0.00    -0.031 A 
ATOM      6  C6  IND d   1      -2.875  -5.381  -4.152  0.00  0.00     0.015 A 
ATOM      7  C7  IND d   1      -3.372  -4.221  -3.629  0.00  0.00    -0.016 A 
ATOM      8  C8  IND d   1      -4.403  -3.611  -4.328  0.00  0.00    -0.047 A 
ATOM      9  C9  IND d   1      -4.901  -4.137  -5.527  0.00  0.00    -0.096 A 
ATOM     10  HN1 IND d   1      -4.967  -1.923  -3.403  0.00  0.00     0.298 HD
ENDROOT
TORSDOF 0
ENDMDL
