MODEL 1
REMARK minimizedAffinity 4.15179491
REMARK minimizedRMSD -1
REMARK  0 active torsions:
REMARK  status: ('A' for Active; 'I' for Inactive)
ROOT
ATOM      1  N1  IND d   1      -5.989  -3.254  -4.773  0.00  0.00    -0.196 N 
ATOM      2  C2  IND d   1      -5.999  -4.050  -5.884  0.00  0.00     0.054 A 
ATOM      3  C3  IND d   1      -4.828  -4.715  -5.997  0.00  0.00    -0.031 A 
ATOM      4  C4  IND d   1      -2.794  -4.725  -4.419  0.00  0.00     0.051 A 
ATOM      5  C5  IND d   1      -2.301  -4.127  -3.293  0.00  0.00    -0.031 A 
ATOM      6  C6  IND d   1      -3.029  -3.192  -2.586  0.00  0.00     0.015 A 
ATOM      7  C7  IND d   1      -4.286  -2.825  -2.975  0.00  0.00    -0.016 A 
ATOM      8  C8  IND d   1      -4.786  -3.424  -4.123  0.00  0.00    -0.047 A 
ATOM      9  C9  IND d   1      -4.036  -4.343  -4.868  0.00  0.00    -0.096 A 
ATOM     10  HN1 IND d   1      -6.626  -2.734  -4.522  0.00  0.00     0.298 HD
ENDROOT
TORSDOF 0
ENDMDL
