MODEL 1
REMARK minimizedAffinity -0.836681247
REMARK minimizedRMSD -1
REMARK  0 active torsions:
REMARK  status: ('A' for Active; 'I' for Inactive)
ROOT
ATOM      1  N1  IND d   1      -1.873  -3.780  -5.520  0.00  0.00    -0.196 N 
ATOM      2  C2  IND d   1      -1.178  -4.956  -5.574  0.00  0.00     0.054 A 
ATOM      3  C3  IND d   1      -2.027  -5.998  -5.721  0.00  0.00    -0.031 A 
ATOM      4  C4  IND d   1      -4.586  -5.995  -5.999  0.00  0.00     0.051 A 
ATOM      5  C5  IND d   1      -5.671  -5.164  -5.979  0.00  0.00    -0.031 A 
ATOM      6  C6  IND d   1      -5.543  -3.801  -5.804  0.00  0.00     0.015 A 
ATOM      7  C7  IND d   1      -4.318  -3.215  -5.653  0.00  0.00    -0.016 A 
ATOM      8  C8  IND d   1      -3.215  -4.057  -5.666  0.00  0.00    -0.047 A 
ATOM      9  C9  IND d   1      -3.342  -5.445  -5.800  0.00  0.00    -0.096 A 
ATOM     10  HN1 IND d   1      -1.530  -2.999  -5.412  0.00  0.00     0.298 HD
ENDROOT
TORSDOF 0
ENDMDL
