MODEL 1
REMARK minimizedAffinity -3.09215975
REMARK minimizedRMSD -1
REMARK  0 active torsions:
REMARK  status: ('A' for Active; 'I' for Inactive)
ROOT
ATOM      1  N1  IND d   1      -2.792  -4.698  -3.765  0.00  0.00    -0.196 N 
ATOM      2  C2  IND d   1      -2.275  -5.168  -4.940  0.00  0.00     0.054 A 
ATOM      3  C3  IND d   1      -3.040  -4.773  -5.982  0.00  0.00    -0.031 A 
ATOM      4  C4  IND d   1      -5.128  -3.267  -6.000  0.00  0.00     0.051 A 
ATOM      5  C5  IND d   1      -6.000  -2.625  -5.166  0.00  0.00    -0.031 A 
ATOM      6  C6  IND d   1      -5.843  -2.639  -3.796  0.00  0.00     0.015 A 
ATOM      7  C7  IND d   1      -4.796  -3.290  -3.205  0.00  0.00    -0.016 A 
ATOM      8  C8  IND d   1      -3.913  -3.948  -4.048  0.00  0.00    -0.047 A 
ATOM      9  C9  IND d   1      -4.091  -3.973  -5.437  0.00  0.00    -0.096 A 
ATOM     10  HN1 IND d   1      -2.472  -4.846  -2.981  0.00  0.00     0.298 HD
ENDROOT
TORSDOF 0
ENDMDL
