MODEL 1
REMARK minimizedAffinity -2.54634523
REMARK minimizedRMSD -1
REMARK  0 active torsions:
REMARK  status: ('A' for Active; 'I' for Inactive)
ROOT
ATOM      1  N1  IND d   1      -5.303  -4.129  -4.132  0.00  0.00    -0.196 N 
ATOM      2  C2  IND d   1      -5.628  -3.266  -5.141  0.00  0.00     0.054 A 
ATOM      3  C3  IND d   1      -4.592  -3.135  -6.000  0.00  0.00    -0.031 A 
ATOM      4  C4  IND d   1      -2.308  -4.323  -6.000  0.00  0.00     0.051 A 
ATOM      5  C5  IND d   1      -1.536  -5.173  -5.259  0.00  0.00    -0.031 A 
ATOM      6  C6  IND d   1      -1.990  -5.733  -4.083  0.00  0.00     0.015 A 
ATOM      7  C7  IND d   1      -3.244  -5.470  -3.607  0.00  0.00    -0.016 A 
ATOM      8  C8  IND d   1      -4.028  -4.601  -4.352  0.00  0.00    -0.047 A 
ATOM      9  C9  IND d   1      -3.556  -3.997  -5.525  0.00  0.00    -0.096 A 
ATOM     10  HN1 IND d   1      -5.810  -4.342  -3.471  0.00  0.00     0.298 HD
ENDROOT
TORSDOF 0
ENDMDL
