MODEL 1
REMARK minimizedAffinity -2.91913128
REMARK minimizedRMSD -1
REMARK  0 active torsions:
REMARK  status: ('A' for Active; 'I' for Inactive)
ROOT
ATOM      1  N1  IND d   1      -2.150  -4.092  -4.811  0.00  0.00    -0.196 N 
ATOM      2  C2  IND d   1      -1.483  -5.112  -5.430  0.00  0.00     0.054 A 
ATOM      3  C3  IND d   1      -2.359  -5.999  -5.952  0.00  0.00    -0.031 A 
ATOM      4  C4  IND d   1      -4.932  -5.923  -5.999  0.00  0.00     0.051 A 
ATOM      5  C5  IND d   1      -5.997  -5.205  -5.531  0.00  0.00    -0.031 A 
ATOM      6  C6  IND d   1      -5.831  -4.054  -4.788  0.00  0.00     0.015 A 
ATOM      7  C7  IND d   1      -4.588  -3.571  -4.492  0.00  0.00    -0.016 A 
ATOM      8  C8  IND d   1      -3.504  -4.301  -4.958  0.00  0.00    -0.047 A 
ATOM      9  C9  IND d   1      -3.666  -5.493  -5.678  0.00  0.00    -0.096 A 
ATOM     10  HN1 IND d   1      -1.786  -3.431  -4.400  0.00  0.00     0.298 HD
ENDROOT
TORSDOF 0
ENDMDL
