MODEL 1
REMARK minimizedAffinity 2.47777891
REMARK minimizedRMSD -1
REMARK  0 active torsions:
REMARK  status: ('A' for Active; 'I' for Inactive)
ROOT
ATOM      1  N1  IND d   1       3.244   1.235  -4.225  0.00  0.00    -0.196 N 
ATOM      2  C2  IND d   1       3.718   1.010  -2.963  0.00  0.00     0.054 A 
ATOM      3  C3  IND d   1       2.818   1.421  -2.042  0.00  0.00    -0.031 A 
ATOM      4  C4  IND d   1       0.460   2.398  -2.383  0.00  0.00     0.051 A 
ATOM      5  C5  IND d   1      -0.399   2.823  -3.356  0.00  0.00    -0.031 A 
ATOM      6  C6  IND d   1      -0.083   2.737  -4.697  0.00  0.00     0.015 A 
ATOM      7  C7  IND d   1       1.106   2.209  -5.115  0.00  0.00    -0.016 A 
ATOM      8  C8  IND d   1       1.984   1.782  -4.129  0.00  0.00    -0.047 A 
ATOM      9  C9  IND d   1       1.686   1.907  -2.766  0.00  0.00    -0.096 A 
ATOM     10  HN1 IND d   1       3.663   1.063  -4.956  0.00  0.00     0.298 HD
ENDROOT
TORSDOF 0
ENDMDL
