MODEL 1
REMARK minimizedAffinity -2.46102619
REMARK minimizedRMSD -1
REMARK  0 active torsions:
REMARK  status: ('A' for Active; 'I' for Inactive)
ROOT
ATOM      1  N1  IND d   1      -2.451  -4.860  -3.560  0.00  0.00    -0.196 N 
ATOM      2  C2  IND d   1      -1.841  -5.638  -4.504  0.00  0.00     0.054 A 
ATOM      3  C3  IND d   1      -2.663  -5.825  -5.562  0.00  0.00    -0.031 A 
ATOM      4  C4  IND d   1      -5.010  -4.864  -5.999  0.00  0.00     0.051 A 
ATOM      5  C5  IND d   1      -5.999  -4.127  -5.411  0.00  0.00    -0.031 A 
ATOM      6  C6  IND d   1      -5.853  -3.584  -4.150  0.00  0.00     0.015 A 
ATOM      7  C7  IND d   1      -4.701  -3.749  -3.434  0.00  0.00    -0.016 A 
ATOM      8  C8  IND d   1      -3.697  -4.502  -4.026  0.00  0.00    -0.047 A 
ATOM      9  C9  IND d   1      -3.856  -5.091  -5.287  0.00  0.00    -0.096 A 
ATOM     10  HN1 IND d   1      -2.113  -4.632  -2.803  0.00  0.00     0.298 HD
ENDROOT
TORSDOF 0
ENDMDL
