MODEL 1
REMARK minimizedAffinity 7.96047544
REMARK minimizedRMSD -1
REMARK  0 active torsions:
REMARK  status: ('A' for Active; 'I' for Inactive)
ROOT
ATOM      1  N1  IND d   1      -4.756  -3.384  -6.000  0.00  0.00    -0.196 N 
ATOM      2  C2  IND d   1      -6.000  -3.620  -5.484  0.00  0.00     0.054 A 
ATOM      3  C3  IND d   1      -5.914  -3.925  -4.170  0.00  0.00    -0.031 A 
ATOM      4  C4  IND d   1      -3.846  -3.994  -2.638  0.00  0.00     0.051 A 
ATOM      5  C5  IND d   1      -2.484  -3.886  -2.662  0.00  0.00    -0.031 A 
ATOM      6  C6  IND d   1      -1.795  -3.597  -3.823  0.00  0.00     0.015 A 
ATOM      7  C7  IND d   1      -2.448  -3.392  -5.006  0.00  0.00    -0.016 A 
ATOM      8  C8  IND d   1      -3.831  -3.508  -4.987  0.00  0.00    -0.047 A 
ATOM      9  C9  IND d   1      -4.531  -3.843  -3.821  0.00  0.00    -0.096 A 
ATOM     10  HN1 IND d   1      -4.581  -3.190  -6.819  0.00  0.00     0.298 HD
ENDROOT
TORSDOF 0
ENDMDL
