MODEL 1
REMARK minimizedAffinity -0.0512859598
REMARK minimizedRMSD -1
REMARK  0 active torsions:
REMARK  status: ('A' for Active; 'I' for Inactive)
ROOT
ATOM      1  N1  IND d   1      -4.245  -4.797  -4.274  0.00  0.00    -0.196 N 
ATOM      2  C2  IND d   1      -4.163  -4.905  -5.634  0.00  0.00     0.054 A 
ATOM      3  C3  IND d   1      -2.928  -5.318  -6.000  0.00  0.00    -0.031 A 
ATOM      4  C4  IND d   1      -0.920  -5.970  -4.527  0.00  0.00     0.051 A 
ATOM      5  C5  IND d   1      -0.502  -6.000  -3.226  0.00  0.00    -0.031 A 
ATOM      6  C6  IND d   1      -1.329  -5.625  -2.187  0.00  0.00     0.015 A 
ATOM      7  C7  IND d   1      -2.613  -5.216  -2.410  0.00  0.00    -0.016 A 
ATOM      8  C8  IND d   1      -3.038  -5.178  -3.730  0.00  0.00    -0.047 A 
ATOM      9  C9  IND d   1      -2.190  -5.516  -4.793  0.00  0.00    -0.096 A 
ATOM     10  HN1 IND d   1      -4.935  -4.535  -3.833  0.00  0.00     0.298 HD
ENDROOT
TORSDOF 0
ENDMDL
