MODEL 1
REMARK minimizedAffinity -0.84529835
REMARK minimizedRMSD -1
REMARK  0 active torsions:
REMARK  status: ('A' for Active; 'I' for Inactive)
ROOT
ATOM      1  N1  IND d   1      -4.544  -2.835  -3.587  0.00  0.00    -0.196 N 
ATOM      2  C2  IND d   1      -5.776  -2.616  -4.140  0.00  0.00     0.054 A 
ATOM      3  C3  IND d   1      -6.000  -3.488  -5.149  0.00  0.00    -0.031 A 
ATOM      4  C4  IND d   1      -4.527  -5.422  -5.997  0.00  0.00     0.051 A 
ATOM      5  C5  IND d   1      -3.297  -5.993  -5.829  0.00  0.00    -0.031 A 
ATOM      6  C6  IND d   1      -2.402  -5.532  -4.884  0.00  0.00     0.015 A 
ATOM      7  C7  IND d   1      -2.711  -4.487  -4.061  0.00  0.00    -0.016 A 
ATOM      8  C8  IND d   1      -3.957  -3.900  -4.233  0.00  0.00    -0.047 A 
ATOM      9  C9  IND d   1      -4.852  -4.336  -5.219  0.00  0.00    -0.096 A 
ATOM     10  HN1 IND d   1      -4.196  -2.383  -2.944  0.00  0.00     0.298 HD
ENDROOT
TORSDOF 0
ENDMDL
