MODEL 1
REMARK minimizedAffinity -0.44333747
REMARK minimizedRMSD -1
REMARK  0 active torsions:
REMARK  status: ('A' for Active; 'I' for Inactive)
ROOT
ATOM      1  N1  IND d   1      -5.099  -3.107  -4.022  0.00  0.00    -0.196 N 
ATOM      2  C2  IND d   1      -6.000  -3.112  -5.049  0.00  0.00     0.054 A 
ATOM      3  C3  IND d   1      -5.636  -4.012  -5.990  0.00  0.00    -0.031 A 
ATOM      4  C4  IND d   1      -3.655  -5.657  -5.999  0.00  0.00     0.051 A 
ATOM      5  C5  IND d   1      -2.536  -5.999  -5.294  0.00  0.00    -0.031 A 
ATOM      6  C6  IND d   1      -2.208  -5.384  -4.103  0.00  0.00     0.015 A 
ATOM      7  C7  IND d   1      -2.998  -4.408  -3.565  0.00  0.00    -0.016 A 
ATOM      8  C8  IND d   1      -4.131  -4.053  -4.282  0.00  0.00    -0.047 A 
ATOM      9  C9  IND d   1      -4.446  -4.643  -5.512  0.00  0.00    -0.096 A 
ATOM     10  HN1 IND d   1      -5.131  -2.598  -3.329  0.00  0.00     0.298 HD
ENDROOT
TORSDOF 0
ENDMDL
