MODEL 1
REMARK minimizedAffinity -1.65173662
REMARK minimizedRMSD -1
REMARK  0 active torsions:
REMARK  status: ('A' for Active; 'I' for Inactive)
ROOT
ATOM      1  N1  IND d   1      -5.259  -3.688  -3.825  0.00  0.00    -0.196 N 
ATOM      2  C2  IND d   1      -6.000  -3.558  -4.966  0.00  0.00     0.054 A 
ATOM      3  C3  IND d   1      -5.400  -4.203  -5.992  0.00  0.00    -0.031 A 
ATOM      4  C4  IND d   1      -3.251  -5.620  -6.000  0.00  0.00     0.051 A 
ATOM      5  C5  IND d   1      -2.208  -6.000  -5.202  0.00  0.00    -0.031 A 
ATOM      6  C6  IND d   1      -2.129  -5.623  -3.877  0.00  0.00     0.015 A 
ATOM      7  C7  IND d   1      -3.100  -4.858  -3.295  0.00  0.00    -0.016 A 
ATOM      8  C8  IND d   1      -4.156  -4.465  -4.104  0.00  0.00    -0.047 A 
ATOM      9  C9  IND d   1      -4.221  -4.809  -5.460  0.00  0.00    -0.096 A 
ATOM     10  HN1 IND d   1      -5.450  -3.342  -3.061  0.00  0.00     0.298 HD
ENDROOT
TORSDOF 0
ENDMDL
