MODEL 1
REMARK minimizedAffinity -2.05164194
REMARK minimizedRMSD -1
REMARK  0 active torsions:
REMARK  status: ('A' for Active; 'I' for Inactive)
ROOT
ATOM      1  N1  IND d   1      -4.649  -4.608  -6.000  0.00  0.00    -0.196 N 
ATOM      2  C2  IND d   1      -5.428  -3.926  -5.108  0.00  0.00     0.054 A 
ATOM      3  C3  IND d   1      -4.834  -3.891  -3.894  0.00  0.00    -0.031 A 
ATOM      4  C4  IND d   1      -2.536  -4.799  -3.172  0.00  0.00     0.051 A 
ATOM      5  C5  IND d   1      -1.475  -5.531  -3.628  0.00  0.00    -0.031 A 
ATOM      6  C6  IND d   1      -1.416  -6.000  -4.924  0.00  0.00     0.015 A 
ATOM      7  C7  IND d   1      -2.414  -5.743  -5.821  0.00  0.00    -0.016 A 
ATOM      8  C8  IND d   1      -3.496  -5.007  -5.360  0.00  0.00    -0.047 A 
ATOM      9  C9  IND d   1      -3.581  -4.565  -4.033  0.00  0.00    -0.096 A 
ATOM     10  HN1 IND d   1      -4.846  -4.763  -6.823  0.00  0.00     0.298 HD
ENDROOT
TORSDOF 0
ENDMDL
