MODEL 1
REMARK minimizedAffinity -2.53393102
REMARK minimizedRMSD -1
REMARK  0 active torsions:
REMARK  status: ('A' for Active; 'I' for Inactive)
ROOT
ATOM      1  N1  IND d   1      -2.495  -6.000  -5.999  0.00  0.00    -0.196 N 
ATOM      2  C2  IND d   1      -1.487  -5.230  -5.488  0.00  0.00     0.054 A 
ATOM      3  C3  IND d   1      -1.994  -4.137  -4.876  0.00  0.00    -0.031 A 
ATOM      4  C4  IND d   1      -4.451  -3.462  -4.504  0.00  0.00     0.051 A 
ATOM      5  C5  IND d   1      -5.729  -3.830  -4.820  0.00  0.00    -0.031 A 
ATOM      6  C6  IND d   1      -5.999  -4.964  -5.558  0.00  0.00     0.015 A 
ATOM      7  C7  IND d   1      -4.999  -5.782  -5.999  0.00  0.00    -0.016 A 
ATOM      8  C8  IND d   1      -3.700  -5.409  -5.686  0.00  0.00    -0.047 A 
ATOM      9  C9  IND d   1      -3.416  -4.236  -4.974  0.00  0.00    -0.096 A 
ATOM     10  HN1 IND d   1      -2.394  -6.730  -6.441  0.00  0.00     0.298 HD
ENDROOT
TORSDOF 0
ENDMDL
