MODEL 1
REMARK minimizedAffinity -3.1525166
REMARK minimizedRMSD -1
REMARK  0 active torsions:
REMARK  status: ('A' for Active; 'I' for Inactive)
ROOT
ATOM      1  C2' OXE d   1       0.772  -2.072  -0.801  0.00  0.00     0.078 C 
ATOM      2  C1' OXE d   1      -0.350   0.328   0.125  0.00  0.00     0.078 C 
ATOM      3  C1  OXE d   1       1.061   0.003   0.546  0.00  0.00    -0.078 A 
ATOM      4  C2  OXE d   1       1.585  -1.196   0.127  0.00  0.00    -0.078 A 
ATOM      5  C3  OXE d   1       2.902  -1.520   0.441  0.00  0.00     0.003 A 
ATOM      6  C4  OXE d   1       3.644  -0.709   1.308  0.00  0.00    -0.002 A 
ATOM      7  C5  OXE d   1       3.115   0.497   1.779  0.00  0.00    -0.002 A 
ATOM      8  C6  OXE d   1       1.843   0.887   1.374  0.00  0.00     0.003 A 
ENDROOT
TORSDOF 0
ENDMDL
