MODEL 1
REMARK minimizedAffinity -1.48165286
REMARK minimizedRMSD -1
REMARK  0 active torsions:
REMARK  status: ('A' for Active; 'I' for Inactive)
ROOT
ATOM      1  C2' OXE d   1      -3.569   0.418  -2.424  0.00  0.00     0.078 C 
ATOM      2  C1' OXE d   1      -1.507  -0.455  -4.116  0.00  0.00     0.078 C 
ATOM      3  C1  OXE d   1      -1.170  -0.208  -2.667  0.00  0.00    -0.078 A 
ATOM      4  C2  OXE d   1      -2.174   0.264  -1.856  0.00  0.00    -0.078 A 
ATOM      5  C3  OXE d   1      -1.931   0.457  -0.499  0.00  0.00     0.003 A 
ATOM      6  C4  OXE d   1      -0.636   0.321   0.015  0.00  0.00    -0.002 A 
ATOM      7  C5  OXE d   1       0.410  -0.120  -0.802  0.00  0.00    -0.002 A 
ATOM      8  C6  OXE d   1       0.151  -0.429  -2.133  0.00  0.00     0.003 A 
ENDROOT
TORSDOF 0
ENDMDL
