MODEL 1
REMARK minimizedAffinity -0.730385065
REMARK minimizedRMSD -1
REMARK  0 active torsions:
REMARK  status: ('A' for Active; 'I' for Inactive)
ROOT
ATOM      1  C2' OXE d   1      -2.081  -0.124  -0.298  0.00  0.00     0.078 C 
ATOM      2  C1' OXE d   1      -2.561  -1.485  -2.706  0.00  0.00     0.078 C 
ATOM      3  C1  OXE d   1      -2.878  -0.011  -2.655  0.00  0.00    -0.078 A 
ATOM      4  C2  OXE d   1      -2.684   0.636  -1.459  0.00  0.00    -0.078 A 
ATOM      5  C3  OXE d   1      -2.909   2.007  -1.373  0.00  0.00     0.003 A 
ATOM      6  C4  OXE d   1      -3.476   2.701  -2.449  0.00  0.00    -0.002 A 
ATOM      7  C5  OXE d   1      -3.719   2.052  -3.664  0.00  0.00    -0.002 A 
ATOM      8  C6  OXE d   1      -3.386   0.708  -3.797  0.00  0.00     0.003 A 
ENDROOT
TORSDOF 0
ENDMDL
