MODEL 1
REMARK minimizedAffinity -4.39479017
REMARK minimizedRMSD -1
REMARK  0 active torsions:
REMARK  status: ('A' for Active; 'I' for Inactive)
ROOT
ATOM      1  C2' OXE d   1       0.182   2.408   0.273  0.00  0.00     0.078 C 
ATOM      2  C1' OXE d   1      -1.253   0.150  -0.578  0.00  0.00     0.078 C 
ATOM      3  C1  OXE d   1       0.182  -0.046  -0.157  0.00  0.00    -0.078 A 
ATOM      4  C2  OXE d   1       0.891   1.072   0.213  0.00  0.00    -0.078 A 
ATOM      5  C3  OXE d   1       2.201   0.940   0.663  0.00  0.00     0.003 A 
ATOM      6  C4  OXE d   1       2.853  -0.297   0.595  0.00  0.00    -0.002 A 
ATOM      7  C5  OXE d   1       2.162  -1.442   0.183  0.00  0.00    -0.002 A 
ATOM      8  C6  OXE d   1       0.817  -1.341  -0.155  0.00  0.00     0.003 A 
ENDROOT
TORSDOF 0
ENDMDL
