MODEL 1
REMARK minimizedAffinity -3.15934324
REMARK minimizedRMSD -1
REMARK  0 active torsions:
REMARK  status: ('A' for Active; 'I' for Inactive)
ROOT
ATOM      1  C2' OXE d   1      -1.193   0.688  -0.726  0.00  0.00     0.078 C 
ATOM      2  C1' OXE d   1       0.422   2.944  -0.302  0.00  0.00     0.078 C 
ATOM      3  C1  OXE d   1       0.971   1.599   0.105  0.00  0.00    -0.078 A 
ATOM      4  C2  OXE d   1       0.155   0.506  -0.063  0.00  0.00    -0.078 A 
ATOM      5  C3  OXE d   1       0.633  -0.764   0.245  0.00  0.00     0.003 A 
ATOM      6  C4  OXE d   1       1.877  -0.922   0.867  0.00  0.00    -0.002 A 
ATOM      7  C5  OXE d   1       2.708   0.182   1.084  0.00  0.00    -0.002 A 
ATOM      8  C6  OXE d   1       2.288   1.442   0.671  0.00  0.00     0.003 A 
ENDROOT
TORSDOF 0
ENDMDL
