MODEL 1
REMARK minimizedAffinity -4.68597937
REMARK minimizedRMSD -1
REMARK  0 active torsions:
REMARK  status: ('A' for Active; 'I' for Inactive)
ROOT
ATOM      1  C2' OXE d   1       1.184  -2.740   0.808  0.00  0.00     0.078 C 
ATOM      2  C1' OXE d   1       3.077  -0.673   0.661  0.00  0.00     0.078 C 
ATOM      3  C1  OXE d   1       1.624  -0.310   0.482  0.00  0.00    -0.078 A 
ATOM      4  C2  OXE d   1       0.708  -1.334   0.509  0.00  0.00    -0.078 A 
ATOM      5  C3  OXE d   1      -0.650  -1.048   0.404  0.00  0.00     0.003 A 
ATOM      6  C4  OXE d   1      -1.080   0.253   0.118  0.00  0.00    -0.002 A 
ATOM      7  C5  OXE d   1      -0.161   1.305   0.047  0.00  0.00    -0.002 A 
ATOM      8  C6  OXE d   1       1.188   1.048   0.268  0.00  0.00     0.003 A 
ENDROOT
TORSDOF 0
ENDMDL
