MODEL 1
REMARK minimizedAffinity -5.83284998
REMARK minimizedRMSD -1
REMARK  0 active torsions:
REMARK  status: ('A' for Active; 'I' for Inactive)
ROOT
ATOM      1  C2' OXE d   1      -1.098  -0.161  -0.259  0.00  0.00     0.078 C 
ATOM      2  C1' OXE d   1      -0.640  -2.295   1.505  0.00  0.00     0.078 C 
ATOM      3  C1  OXE d   1       0.451  -1.266   1.348  0.00  0.00    -0.078 A 
ATOM      4  C2  OXE d   1       0.237  -0.250   0.448  0.00  0.00    -0.078 A 
ATOM      5  C3  OXE d   1       1.188   0.756   0.305  0.00  0.00     0.003 A 
ATOM      6  C4  OXE d   1       2.425   0.660   0.955  0.00  0.00    -0.002 A 
ATOM      7  C5  OXE d   1       2.679  -0.387   1.846  0.00  0.00    -0.002 A 
ATOM      8  C6  OXE d   1       1.688  -1.333   2.086  0.00  0.00     0.003 A 
ENDROOT
TORSDOF 0
ENDMDL
