MODEL 1
REMARK minimizedAffinity -5.79282045
REMARK minimizedRMSD -1
REMARK  0 active torsions:
REMARK  status: ('A' for Active; 'I' for Inactive)
ROOT
ATOM      1  C   UNL d   1       1.098  -3.136   0.256  0.00  0.00     0.078 C 
ATOM      2  C1  UNL d   1       1.024  -1.641   0.168  0.00  0.00    -0.077 A 
ATOM      3  C2  UNL d   1       2.112  -0.891  -0.293  0.00  0.00    -0.001 A 
ATOM      4  C3  UNL d   1       2.032   0.501  -0.360  0.00  0.00     0.003 A 
ATOM      5  C4  UNL d   1       0.866   1.155   0.034  0.00  0.00    -0.005 A 
ATOM      6  C5  UNL d   1      -0.221   0.417   0.496  0.00  0.00     0.003 A 
ATOM      7  C6  UNL d   1      -0.143  -0.975   0.564  0.00  0.00    -0.001 A 
ENDROOT
TORSDOF 0
ENDMDL
