MODEL 1
REMARK minimizedAffinity -4.62394047
REMARK minimizedRMSD -1
REMARK  0 active torsions:
REMARK  status: ('A' for Active; 'I' for Inactive)
ROOT
ATOM      1  C   UNL d   1      -0.937   1.529  -1.444  0.00  0.00     0.078 C 
ATOM      2  C1  UNL d   1      -0.158   0.440  -0.768  0.00  0.00    -0.077 A 
ATOM      3  C2  UNL d   1       0.541  -0.516  -1.515  0.00  0.00    -0.001 A 
ATOM      4  C3  UNL d   1       1.254  -1.530  -0.873  0.00  0.00     0.003 A 
ATOM      5  C4  UNL d   1       1.273  -1.599   0.519  0.00  0.00    -0.005 A 
ATOM      6  C5  UNL d   1       0.578  -0.654   1.270  0.00  0.00     0.003 A 
ATOM      7  C6  UNL d   1      -0.135   0.361   0.630  0.00  0.00    -0.001 A 
ENDROOT
TORSDOF 0
ENDMDL
