MODEL 1
REMARK minimizedAffinity -4.0812273
REMARK minimizedRMSD -1
REMARK  0 active torsions:
REMARK  status: ('A' for Active; 'I' for Inactive)
ROOT
ATOM      1  C   UNL d   1      -0.500   1.526  -0.112  0.00  0.00     0.078 C 
ATOM      2  C1  UNL d   1       0.245   0.242   0.099  0.00  0.00    -0.077 A 
ATOM      3  C2  UNL d   1      -0.308  -0.796   0.859  0.00  0.00    -0.001 A 
ATOM      4  C3  UNL d   1       0.401  -1.982   1.055  0.00  0.00     0.003 A 
ATOM      5  C4  UNL d   1       1.667  -2.142   0.495  0.00  0.00    -0.005 A 
ATOM      6  C5  UNL d   1       2.226  -1.114  -0.261  0.00  0.00     0.003 A 
ATOM      7  C6  UNL d   1       1.519   0.073  -0.458  0.00  0.00    -0.001 A 
ENDROOT
TORSDOF 0
ENDMDL
