MODEL 1
REMARK minimizedAffinity -3.46303272
REMARK minimizedRMSD -1
REMARK  0 active torsions:
REMARK  status: ('A' for Active; 'I' for Inactive)
ROOT
ATOM      1  C   UNL d   1       2.118  -1.818   0.944  0.00  0.00     0.078 C 
ATOM      2  C1  UNL d   1       1.002  -0.829   0.793  0.00  0.00    -0.077 A 
ATOM      3  C2  UNL d   1       1.112   0.253  -0.088  0.00  0.00    -0.001 A 
ATOM      4  C3  UNL d   1       0.068   1.172  -0.212  0.00  0.00     0.003 A 
ATOM      5  C4  UNL d   1      -1.093   1.018   0.544  0.00  0.00    -0.005 A 
ATOM      6  C5  UNL d   1      -1.210  -0.055   1.425  0.00  0.00     0.003 A 
ATOM      7  C6  UNL d   1      -0.168  -0.974   1.550  0.00  0.00    -0.001 A 
ENDROOT
TORSDOF 0
ENDMDL
