MODEL 1
REMARK minimizedAffinity -3.91972065
REMARK minimizedRMSD -1
REMARK  0 active torsions:
REMARK  status: ('A' for Active; 'I' for Inactive)
ROOT
ATOM      1  C   UNL d   1       0.839  -2.727   0.687  0.00  0.00     0.078 C 
ATOM      2  C1  UNL d   1       0.158  -1.403   0.509  0.00  0.00    -0.077 A 
ATOM      3  C2  UNL d   1      -0.979  -1.071   1.257  0.00  0.00    -0.001 A 
ATOM      4  C3  UNL d   1      -1.609   0.161   1.074  0.00  0.00     0.003 A 
ATOM      5  C4  UNL d   1      -1.110   1.071   0.145  0.00  0.00    -0.005 A 
ATOM      6  C5  UNL d   1       0.020   0.749  -0.605  0.00  0.00     0.003 A 
ATOM      7  C6  UNL d   1       0.651  -0.483  -0.424  0.00  0.00    -0.001 A 
ENDROOT
TORSDOF 0
ENDMDL
