MODEL 1
REMARK minimizedAffinity -2.48814058
REMARK minimizedRMSD -1
REMARK  0 active torsions:
REMARK  status: ('A' for Active; 'I' for Inactive)
ROOT
ATOM      1  C   UNL d   1      -1.042   1.403  -0.426  0.00  0.00     0.078 C 
ATOM      2  C1  UNL d   1      -0.320   0.163   0.010  0.00  0.00    -0.077 A 
ATOM      3  C2  UNL d   1      -0.953  -0.798   0.807  0.00  0.00    -0.001 A 
ATOM      4  C3  UNL d   1      -0.265  -1.943   1.213  0.00  0.00     0.003 A 
ATOM      5  C4  UNL d   1       1.061  -2.136   0.828  0.00  0.00    -0.005 A 
ATOM      6  C5  UNL d   1       1.700  -1.183   0.037  0.00  0.00     0.003 A 
ATOM      7  C6  UNL d   1       1.013  -0.038  -0.370  0.00  0.00    -0.001 A 
ENDROOT
TORSDOF 0
ENDMDL
