MODEL 1
REMARK minimizedAffinity -4.20076799
REMARK minimizedRMSD -1
REMARK  0 active torsions:
REMARK  status: ('A' for Active; 'I' for Inactive)
ROOT
ATOM      1  C   UNL d   1      -1.646  -1.444   1.758  0.00  0.00     0.078 C 
ATOM      2  C1  UNL d   1      -0.903  -0.411   0.964  0.00  0.00    -0.077 A 
ATOM      3  C2  UNL d   1      -1.413   0.884   0.810  0.00  0.00    -0.001 A 
ATOM      4  C3  UNL d   1      -0.716   1.832   0.060  0.00  0.00     0.003 A 
ATOM      5  C4  UNL d   1       0.494   1.495  -0.544  0.00  0.00    -0.005 A 
ATOM      6  C5  UNL d   1       1.008   0.208  -0.399  0.00  0.00     0.003 A 
ATOM      7  C6  UNL d   1       0.312  -0.742   0.351  0.00  0.00    -0.001 A 
ENDROOT
TORSDOF 0
ENDMDL
