MODEL 1
REMARK minimizedAffinity -2.55471945
REMARK minimizedRMSD -1
REMARK  0 active torsions:
REMARK  status: ('A' for Active; 'I' for Inactive)
ROOT
ATOM      1  C   UNL d   1      -0.244   0.794  -0.707  0.00  0.00     0.078 C 
ATOM      2  C1  UNL d   1       0.536  -0.405  -0.256  0.00  0.00    -0.077 A 
ATOM      3  C2  UNL d   1       0.011  -1.697  -0.383  0.00  0.00    -0.001 A 
ATOM      4  C3  UNL d   1       0.744  -2.803   0.051  0.00  0.00     0.003 A 
ATOM      5  C4  UNL d   1       2.006  -2.628   0.615  0.00  0.00    -0.005 A 
ATOM      6  C5  UNL d   1       2.536  -1.346   0.748  0.00  0.00     0.003 A 
ATOM      7  C6  UNL d   1       1.804  -0.239   0.315  0.00  0.00    -0.001 A 
ENDROOT
TORSDOF 0
ENDMDL
