MODEL 1
REMARK minimizedAffinity -5.11880016
REMARK minimizedRMSD -1
REMARK  0 active torsions:
REMARK  status: ('A' for Active; 'I' for Inactive)
ROOT
ATOM      1  C   UNL d   1      -0.774   1.301  -0.813  0.00  0.00     0.078 C 
ATOM      2  C1  UNL d   1       0.008   0.086  -0.413  0.00  0.00    -0.077 A 
ATOM      3  C2  UNL d   1       1.398   0.036  -0.577  0.00  0.00    -0.001 A 
ATOM      4  C3  UNL d   1       2.112  -1.106  -0.209  0.00  0.00     0.003 A 
ATOM      5  C4  UNL d   1       1.444  -2.206   0.325  0.00  0.00    -0.005 A 
ATOM      6  C5  UNL d   1       0.061  -2.167   0.490  0.00  0.00     0.003 A 
ATOM      7  C6  UNL d   1      -0.654  -1.026   0.122  0.00  0.00    -0.001 A 
ENDROOT
TORSDOF 0
ENDMDL
