MODEL 1
REMARK minimizedAffinity -4.48743105
REMARK minimizedRMSD -1
REMARK  0 active torsions:
REMARK  status: ('A' for Active; 'I' for Inactive)
ROOT
ATOM      1  C   UNL d   1       1.589   0.758  -0.352  0.00  0.00     0.078 C 
ATOM      2  C1  UNL d   1       0.696  -0.252   0.305  0.00  0.00    -0.077 A 
ATOM      3  C2  UNL d   1      -0.506   0.133   0.910  0.00  0.00    -0.001 A 
ATOM      4  C3  UNL d   1      -1.323  -0.816   1.526  0.00  0.00     0.003 A 
ATOM      5  C4  UNL d   1      -0.944  -2.157   1.544  0.00  0.00    -0.005 A 
ATOM      6  C5  UNL d   1       0.252  -2.550   0.947  0.00  0.00     0.003 A 
ATOM      7  C6  UNL d   1       1.069  -1.602   0.330  0.00  0.00    -0.001 A 
ENDROOT
TORSDOF 0
ENDMDL
