MODEL 1
REMARK minimizedAffinity -4.14514542
REMARK minimizedRMSD -1
REMARK  0 active torsions:
REMARK  status: ('A' for Active; 'I' for Inactive)
ROOT
ATOM      1  C   UNL d   1       1.898  -2.461   1.145  0.00  0.00     0.078 C 
ATOM      2  C1  UNL d   1       0.925  -1.370   0.808  0.00  0.00    -0.077 A 
ATOM      3  C2  UNL d   1       1.176  -0.478  -0.241  0.00  0.00    -0.001 A 
ATOM      4  C3  UNL d   1       0.266   0.538  -0.537  0.00  0.00     0.003 A 
ATOM      5  C4  UNL d   1      -0.901   0.673   0.213  0.00  0.00    -0.005 A 
ATOM      6  C5  UNL d   1      -1.158  -0.209   1.260  0.00  0.00     0.003 A 
ATOM      7  C6  UNL d   1      -0.250  -1.226   1.558  0.00  0.00    -0.001 A 
ENDROOT
TORSDOF 0
ENDMDL
