MODEL 1
REMARK minimizedAffinity -4.97938681
REMARK minimizedRMSD -1
REMARK  0 active torsions:
REMARK  status: ('A' for Active; 'I' for Inactive)
ROOT
ATOM      1  C   UNL d   1       1.363  -2.963   1.004  0.00  0.00     0.078 C 
ATOM      2  C1  UNL d   1       0.964  -1.623   0.462  0.00  0.00    -0.077 A 
ATOM      3  C2  UNL d   1       1.899  -0.791  -0.166  0.00  0.00    -0.001 A 
ATOM      4  C3  UNL d   1       1.515   0.458  -0.657  0.00  0.00     0.003 A 
ATOM      5  C4  UNL d   1       0.195   0.886  -0.525  0.00  0.00    -0.005 A 
ATOM      6  C5  UNL d   1      -0.742   0.066   0.100  0.00  0.00     0.003 A 
ATOM      7  C6  UNL d   1      -0.360  -1.183   0.592  0.00  0.00    -0.001 A 
ENDROOT
TORSDOF 0
ENDMDL
