MODEL 1
REMARK minimizedAffinity -5.29278469
REMARK minimizedRMSD -1
REMARK  0 active torsions:
REMARK  status: ('A' for Active; 'I' for Inactive)
ROOT
ATOM      1  C   UNL d   1      -0.832   1.013  -0.639  0.00  0.00     0.078 C 
ATOM      2  C1  UNL d   1       0.046  -0.143  -0.261  0.00  0.00    -0.077 A 
ATOM      3  C2  UNL d   1       1.407  -0.152  -0.590  0.00  0.00    -0.001 A 
ATOM      4  C3  UNL d   1       2.211  -1.238  -0.240  0.00  0.00     0.003 A 
ATOM      5  C4  UNL d   1       1.662  -2.324   0.439  0.00  0.00    -0.005 A 
ATOM      6  C5  UNL d   1       0.308  -2.325   0.769  0.00  0.00     0.003 A 
ATOM      7  C6  UNL d   1      -0.497  -1.240   0.420  0.00  0.00    -0.001 A 
ENDROOT
TORSDOF 0
ENDMDL
