MODEL 1
REMARK minimizedAffinity -4.97279882
REMARK minimizedRMSD -1
REMARK  0 active torsions:
REMARK  status: ('A' for Active; 'I' for Inactive)
ROOT
ATOM      1  C   UNL d   1       1.263  -3.057   0.933  0.00  0.00     0.078 C 
ATOM      2  C1  UNL d   1       0.951  -1.638   0.562  0.00  0.00    -0.077 A 
ATOM      3  C2  UNL d   1       1.941  -0.793   0.047  0.00  0.00    -0.001 A 
ATOM      4  C3  UNL d   1       1.639   0.529  -0.285  0.00  0.00     0.003 A 
ATOM      5  C4  UNL d   1       0.346   1.017  -0.105  0.00  0.00    -0.005 A 
ATOM      6  C5  UNL d   1      -0.645   0.184   0.410  0.00  0.00     0.003 A 
ATOM      7  C6  UNL d   1      -0.344  -1.137   0.742  0.00  0.00    -0.001 A 
ENDROOT
TORSDOF 0
ENDMDL
