MODEL 1
REMARK minimizedAffinity -4.81782961
REMARK minimizedRMSD -1
REMARK  0 active torsions:
REMARK  status: ('A' for Active; 'I' for Inactive)
ROOT
ATOM      1  C4' PXY d   1      -2.174  -0.371   0.799  0.00  0.00     0.077 C 
ATOM      2  C1' PXY d   1       3.402  -1.477   1.847  0.00  0.00     0.077 C 
ATOM      3  C1  PXY d   1       1.937  -1.192   1.584  0.00  0.00    -0.082 A 
ATOM      4  C2  PXY d   1       1.514  -1.036   0.340  0.00  0.00     0.003 A 
ATOM      5  C3  PXY d   1       0.198  -0.747   0.085  0.00  0.00     0.003 A 
ATOM      6  C4  PXY d   1      -0.705  -0.669   1.112  0.00  0.00    -0.082 A 
ATOM      7  C5  PXY d   1      -0.283  -0.838   2.383  0.00  0.00     0.003 A 
ATOM      8  C6  PXY d   1       1.064  -1.090   2.623  0.00  0.00     0.003 A 
ENDROOT
TORSDOF 0
ENDMDL
