MODEL 1
REMARK minimizedAffinity -2.19264603
REMARK minimizedRMSD -1
REMARK  0 active torsions:
REMARK  status: ('A' for Active; 'I' for Inactive)
ROOT
ATOM      1  C4' PXY d   1      -1.130   0.741  -2.185  0.00  0.00     0.077 C 
ATOM      2  C1' PXY d   1       1.090  -0.568   2.989  0.00  0.00     0.077 C 
ATOM      3  C1  PXY d   1       0.519  -0.219   1.629  0.00  0.00    -0.082 A 
ATOM      4  C2  PXY d   1      -0.788  -0.073   1.486  0.00  0.00     0.003 A 
ATOM      5  C3  PXY d   1      -1.324   0.211   0.256  0.00  0.00     0.003 A 
ATOM      6  C4  PXY d   1      -0.509   0.399  -0.828  0.00  0.00    -0.082 A 
ATOM      7  C5  PXY d   1       0.827   0.262  -0.688  0.00  0.00     0.003 A 
ATOM      8  C6  PXY d   1       1.348  -0.067   0.560  0.00  0.00     0.003 A 
ENDROOT
TORSDOF 0
ENDMDL
