MODEL 1
REMARK minimizedAffinity -4.73216343
REMARK minimizedRMSD -1
REMARK  0 active torsions:
REMARK  status: ('A' for Active; 'I' for Inactive)
ROOT
ATOM      1  C4' PXY d   1      -1.141   0.619  -1.633  0.00  0.00     0.077 C 
ATOM      2  C1' PXY d   1       1.768  -1.189   3.023  0.00  0.00     0.077 C 
ATOM      3  C1  PXY d   1       1.016  -0.710   1.797  0.00  0.00    -0.082 A 
ATOM      4  C2  PXY d   1      -0.290  -0.510   1.867  0.00  0.00     0.003 A 
ATOM      5  C3  PXY d   1      -0.991  -0.108   0.760  0.00  0.00     0.003 A 
ATOM      6  C4  PXY d   1      -0.340   0.145  -0.418  0.00  0.00    -0.082 A 
ATOM      7  C5  PXY d   1       0.994  -0.046  -0.495  0.00  0.00     0.003 A 
ATOM      8  C6  PXY d   1       1.681  -0.495   0.630  0.00  0.00     0.003 A 
ENDROOT
TORSDOF 0
ENDMDL
