MODEL 1
REMARK minimizedAffinity -2.59768343
REMARK minimizedRMSD -1
REMARK  0 active torsions:
REMARK  status: ('A' for Active; 'I' for Inactive)
ROOT
ATOM      1  C4' PXY d   1       2.386  -3.649   1.185  0.00  0.00     0.077 C 
ATOM      2  C1' PXY d   1      -1.023   0.970   0.503  0.00  0.00     0.077 C 
ATOM      3  C1  PXY d   1      -0.127  -0.242   0.668  0.00  0.00    -0.082 A 
ATOM      4  C2  PXY d   1      -0.224  -0.982   1.761  0.00  0.00     0.003 A 
ATOM      5  C3  PXY d   1       0.600  -2.063   1.942  0.00  0.00     0.003 A 
ATOM      6  C4  PXY d   1       1.496  -2.422   0.970  0.00  0.00    -0.082 A 
ATOM      7  C5  PXY d   1       1.593  -1.678  -0.152  0.00  0.00     0.003 A 
ATOM      8  C6  PXY d   1       0.776  -0.561  -0.298  0.00  0.00     0.003 A 
ENDROOT
TORSDOF 0
ENDMDL
