MODEL 1
REMARK minimizedAffinity -5.59916639
REMARK minimizedRMSD -1
REMARK  0 active torsions:
REMARK  status: ('A' for Active; 'I' for Inactive)
ROOT
ATOM      1  C4' PXY d   1       1.605  -1.895  -2.480  0.00  0.00     0.077 C 
ATOM      2  C1' PXY d   1       0.529  -0.075   2.900  0.00  0.00     0.077 C 
ATOM      3  C1  PXY d   1       0.799  -0.551   1.487  0.00  0.00    -0.082 A 
ATOM      4  C2  PXY d   1       1.893  -1.249   1.229  0.00  0.00     0.003 A 
ATOM      5  C3  PXY d   1       2.168  -1.661  -0.050  0.00  0.00     0.003 A 
ATOM      6  C4  PXY d   1       1.288  -1.401  -1.066  0.00  0.00    -0.082 A 
ATOM      7  C5  PXY d   1       0.164  -0.699  -0.809  0.00  0.00     0.003 A 
ATOM      8  C6  PXY d   1      -0.077  -0.254   0.488  0.00  0.00     0.003 A 
ENDROOT
TORSDOF 0
ENDMDL
