MODEL 1
REMARK minimizedAffinity -4.40797091
REMARK minimizedRMSD -1
REMARK  0 active torsions:
REMARK  status: ('A' for Active; 'I' for Inactive)
ROOT
ATOM      1  C4' PXY d   1      -1.117   0.459  -1.914  0.00  0.00     0.077 C 
ATOM      2  C1' PXY d   1       0.958  -0.671   3.361  0.00  0.00     0.077 C 
ATOM      3  C1  PXY d   1       0.425  -0.369   1.975  0.00  0.00    -0.082 A 
ATOM      4  C2  PXY d   1      -0.882  -0.316   1.773  0.00  0.00     0.003 A 
ATOM      5  C3  PXY d   1      -1.381  -0.075   0.519  0.00  0.00     0.003 A 
ATOM      6  C4  PXY d   1      -0.534   0.166  -0.529  0.00  0.00    -0.082 A 
ATOM      7  C5  PXY d   1       0.800   0.125  -0.330  0.00  0.00     0.003 A 
ATOM      8  C6  PXY d   1       1.287  -0.162   0.943  0.00  0.00     0.003 A 
ENDROOT
TORSDOF 0
ENDMDL
