MODEL 1
REMARK minimizedAffinity -2.57107329
REMARK minimizedRMSD -1
REMARK  0 active torsions:
REMARK  status: ('A' for Active; 'I' for Inactive)
ROOT
ATOM      1  C4' PXY d   1       1.691  -0.247   3.249  0.00  0.00     0.077 C 
ATOM      2  C1' PXY d   1      -1.137   0.193  -1.773  0.00  0.00     0.077 C 
ATOM      3  C1  PXY d   1      -0.406   0.081  -0.450  0.00  0.00    -0.082 A 
ATOM      4  C2  PXY d   1       0.913   0.176  -0.421  0.00  0.00     0.003 A 
ATOM      5  C3  PXY d   1       1.593   0.045   0.763  0.00  0.00     0.003 A 
ATOM      6  C4  PXY d   1       0.911  -0.131   1.937  0.00  0.00    -0.082 A 
ATOM      7  C5  PXY d   1      -0.436  -0.217   1.918  0.00  0.00     0.003 A 
ATOM      8  C6  PXY d   1      -1.104  -0.123   0.700  0.00  0.00     0.003 A 
ENDROOT
TORSDOF 0
ENDMDL
