MODEL 1
REMARK minimizedAffinity -4.56455374
REMARK minimizedRMSD -1
REMARK  0 active torsions:
REMARK  status: ('A' for Active; 'I' for Inactive)
ROOT
ATOM      1  C4' PXY d   1       2.245  -1.569   2.635  0.00  0.00     0.077 C 
ATOM      2  C1' PXY d   1      -0.557   0.533  -1.963  0.00  0.00     0.077 C 
ATOM      3  C1  PXY d   1       0.177  -0.030  -0.763  0.00  0.00    -0.082 A 
ATOM      4  C2  PXY d   1       0.124   0.609   0.395  0.00  0.00     0.003 A 
ATOM      5  C3  PXY d   1       0.809   0.130   1.483  0.00  0.00     0.003 A 
ATOM      6  C4  PXY d   1       1.511  -1.042   1.398  0.00  0.00    -0.082 A 
ATOM      7  C5  PXY d   1       1.561  -1.705   0.224  0.00  0.00     0.003 A 
ATOM      8  C6  PXY d   1       0.893  -1.181  -0.879  0.00  0.00     0.003 A 
ENDROOT
TORSDOF 0
ENDMDL
