MODEL 1
REMARK minimizedAffinity -2.45410299
REMARK minimizedRMSD -1
REMARK  0 active torsions:
REMARK  status: ('A' for Active; 'I' for Inactive)
ROOT
ATOM      1  C4' PXY d   1       1.500  -0.427   3.191  0.00  0.00     0.077 C 
ATOM      2  C1' PXY d   1      -1.238  -0.787  -1.887  0.00  0.00     0.077 C 
ATOM      3  C1  PXY d   1      -0.531  -0.688  -0.550  0.00  0.00    -0.082 A 
ATOM      4  C2  PXY d   1       0.788  -0.593  -0.513  0.00  0.00     0.003 A 
ATOM      5  C3  PXY d   1       1.446  -0.534   0.688  0.00  0.00     0.003 A 
ATOM      6  C4  PXY d   1       0.743  -0.520   1.863  0.00  0.00    -0.082 A 
ATOM      7  C5  PXY d   1      -0.603  -0.606   1.834  0.00  0.00     0.003 A 
ATOM      8  C6  PXY d   1      -1.250  -0.706   0.605  0.00  0.00     0.003 A 
ENDROOT
TORSDOF 0
ENDMDL
