MODEL 1
REMARK minimizedAffinity -0.441209286
REMARK minimizedRMSD -1
REMARK  0 active torsions:
REMARK  status: ('A' for Active; 'I' for Inactive)
ROOT
ATOM      1  C1  BNZ d   1       4.601   1.581   2.551  0.00  0.00     0.000 A 
ATOM      2  C2  BNZ d   1       5.543   1.550   3.545  0.00  0.00     0.000 A 
ATOM      3  C3  BNZ d   1       5.706   0.437   4.321  0.00  0.00     0.000 A 
ATOM      4  C4  BNZ d   1       4.902  -0.629   4.129  0.00  0.00     0.000 A 
ATOM      5  C5  BNZ d   1       3.942  -0.610   3.137  0.00  0.00     0.000 A 
ATOM      6  C6  BNZ d   1       3.806   0.498   2.332  0.00  0.00     0.000 A 
ENDROOT
TORSDOF 0
ENDMDL
