MODEL 1
REMARK minimizedAffinity -4.3847723
REMARK minimizedRMSD -1
REMARK  0 active torsions:
REMARK  status: ('A' for Active; 'I' for Inactive)
ROOT
ATOM      1  C1  BNZ d   1       3.259  -1.547  -3.010  0.00  0.00     0.000 A 
ATOM      2  C2  BNZ d   1       3.309  -0.282  -3.532  0.00  0.00     0.000 A 
ATOM      3  C3  BNZ d   1       2.162   0.420  -3.777  0.00  0.00     0.000 A 
ATOM      4  C4  BNZ d   1       0.967  -0.158  -3.538  0.00  0.00     0.000 A 
ATOM      5  C5  BNZ d   1       0.900  -1.436  -3.020  0.00  0.00     0.000 A 
ATOM      6  C6  BNZ d   1       2.057  -2.125  -2.738  0.00  0.00     0.000 A 
ENDROOT
TORSDOF 0
ENDMDL
