MODEL 1
REMARK minimizedAffinity -2.4390099
REMARK minimizedRMSD -1
REMARK  0 active torsions:
REMARK  status: ('A' for Active; 'I' for Inactive)
ROOT
ATOM      1  C1  BNZ d   1      -4.898  -1.483   1.439  0.00  0.00     0.000 A 
ATOM      2  C2  BNZ d   1      -4.344  -1.137   2.643  0.00  0.00     0.000 A 
ATOM      3  C3  BNZ d   1      -3.010  -0.857   2.744  0.00  0.00     0.000 A 
ATOM      4  C4  BNZ d   1      -2.226  -0.962   1.652  0.00  0.00     0.000 A 
ATOM      5  C5  BNZ d   1      -2.768  -1.318   0.433  0.00  0.00     0.000 A 
ATOM      6  C6  BNZ d   1      -4.118  -1.562   0.327  0.00  0.00     0.000 A 
ENDROOT
TORSDOF 0
ENDMDL
