MODEL 1
REMARK minimizedAffinity 1.28339505
REMARK minimizedRMSD -1
REMARK  0 active torsions:
REMARK  status: ('A' for Active; 'I' for Inactive)
ROOT
ATOM      1  C1  BNZ d   1      -2.846  -0.755   0.920  0.00  0.00     0.000 A 
ATOM      2  C2  BNZ d   1      -2.961  -1.486   2.072  0.00  0.00     0.000 A 
ATOM      3  C3  BNZ d   1      -2.889  -0.881   3.295  0.00  0.00     0.000 A 
ATOM      4  C4  BNZ d   1      -2.663   0.446   3.366  0.00  0.00     0.000 A 
ATOM      5  C5  BNZ d   1      -2.535   1.196   2.214  0.00  0.00     0.000 A 
ATOM      6  C6  BNZ d   1      -2.647   0.590   0.984  0.00  0.00     0.000 A 
ENDROOT
TORSDOF 0
ENDMDL
