MODEL 1
REMARK minimizedAffinity 2.40156674
REMARK minimizedRMSD -1
REMARK  0 active torsions:
REMARK  status: ('A' for Active; 'I' for Inactive)
ROOT
ATOM      1  C1  BNZ d   1       6.000   1.709   4.199  0.00  0.00     0.000 A 
ATOM      2  C2  BNZ d   1       5.065   2.615   3.773  0.00  0.00     0.000 A 
ATOM      3  C3  BNZ d   1       4.087   2.249   2.891  0.00  0.00     0.000 A 
ATOM      4  C4  BNZ d   1       4.069   0.991   2.405  0.00  0.00     0.000 A 
ATOM      5  C5  BNZ d   1       5.010   0.069   2.817  0.00  0.00     0.000 A 
ATOM      6  C6  BNZ d   1       5.970   0.430   3.735  0.00  0.00     0.000 A 
ENDROOT
TORSDOF 0
ENDMDL
