MODEL 1
REMARK minimizedAffinity 1.15508056
REMARK minimizedRMSD -1
REMARK  0 active torsions:
REMARK  status: ('A' for Active; 'I' for Inactive)
ROOT
ATOM      1  C1  BNZ d   1      -4.921  -0.812   2.925  0.00  0.00     0.000 A 
ATOM      2  C2  BNZ d   1      -4.621  -0.091   4.050  0.00  0.00     0.000 A 
ATOM      3  C3  BNZ d   1      -3.330   0.251   4.339  0.00  0.00     0.000 A 
ATOM      4  C4  BNZ d   1      -2.336  -0.162   3.526  0.00  0.00     0.000 A 
ATOM      5  C5  BNZ d   1      -2.621  -0.898   2.393  0.00  0.00     0.000 A 
ATOM      6  C6  BNZ d   1      -3.926  -1.207   2.084  0.00  0.00     0.000 A 
ENDROOT
TORSDOF 0
ENDMDL
