MODEL 1
REMARK minimizedAffinity 1.67581832
REMARK minimizedRMSD -1
REMARK  0 active torsions:
REMARK  status: ('A' for Active; 'I' for Inactive)
ROOT
ATOM      1  C1  BNZ d   1       5.995   1.119   5.291  0.00  0.00     0.000 A 
ATOM      2  C2  BNZ d   1       5.996   2.267   4.544  0.00  0.00     0.000 A 
ATOM      3  C3  BNZ d   1       5.202   2.383   3.437  0.00  0.00     0.000 A 
ATOM      4  C4  BNZ d   1       4.440   1.338   3.056  0.00  0.00     0.000 A 
ATOM      5  C5  BNZ d   1       4.434   0.171   3.793  0.00  0.00     0.000 A 
ATOM      6  C6  BNZ d   1       5.205   0.072   4.929  0.00  0.00     0.000 A 
ENDROOT
TORSDOF 0
ENDMDL
