MODEL 1
REMARK minimizedAffinity 2.48998165
REMARK minimizedRMSD -1
REMARK  0 active torsions:
REMARK  status: ('A' for Active; 'I' for Inactive)
ROOT
ATOM      1  C1  BNZ d   1      -3.965  -1.215   2.036  0.00  0.00     0.000 A 
ATOM      2  C2  BNZ d   1      -2.661  -1.004   2.397  0.00  0.00     0.000 A 
ATOM      3  C3  BNZ d   1      -2.337  -0.065   3.336  0.00  0.00     0.000 A 
ATOM      4  C4  BNZ d   1      -3.312   0.688   3.884  0.00  0.00     0.000 A 
ATOM      5  C5  BNZ d   1      -4.631   0.494   3.524  0.00  0.00     0.000 A 
ATOM      6  C6  BNZ d   1      -4.957  -0.478   2.607  0.00  0.00     0.000 A 
ENDROOT
TORSDOF 0
ENDMDL
