MODEL 1
REMARK minimizedAffinity -4.84856606
REMARK minimizedRMSD -1
REMARK  0 active torsions:
REMARK  status: ('A' for Active; 'I' for Inactive)
ROOT
ATOM      1  C1  BNZ d   1      -2.524   0.228   0.889  0.00  0.00     0.000 A 
ATOM      2  C2  BNZ d   1      -2.194   1.167   1.829  0.00  0.00     0.000 A 
ATOM      3  C3  BNZ d   1      -2.582   1.020   3.131  0.00  0.00     0.000 A 
ATOM      4  C4  BNZ d   1      -3.335  -0.042   3.483  0.00  0.00     0.000 A 
ATOM      5  C5  BNZ d   1      -3.684  -0.993   2.545  0.00  0.00     0.000 A 
ATOM      6  C6  BNZ d   1      -3.258  -0.862   1.243  0.00  0.00     0.000 A 
ENDROOT
TORSDOF 0
ENDMDL
