MODEL 1
REMARK minimizedAffinity -3.02651334
REMARK minimizedRMSD -1
REMARK  0 active torsions:
REMARK  status: ('A' for Active; 'I' for Inactive)
ROOT
ATOM      1  C1  BNZ d   1      -2.276   1.273   1.658  0.00  0.00     0.000 A 
ATOM      2  C2  BNZ d   1      -2.956   0.579   0.692  0.00  0.00     0.000 A 
ATOM      3  C3  BNZ d   1      -3.770  -0.468   1.024  0.00  0.00     0.000 A 
ATOM      4  C4  BNZ d   1      -3.872  -0.845   2.315  0.00  0.00     0.000 A 
ATOM      5  C5  BNZ d   1      -3.186  -0.161   3.299  0.00  0.00     0.000 A 
ATOM      6  C6  BNZ d   1      -2.398   0.917   2.966  0.00  0.00     0.000 A 
ENDROOT
TORSDOF 0
ENDMDL
