MODEL 1
REMARK minimizedAffinity -2.73478699
REMARK minimizedRMSD -1
REMARK  0 active torsions:
REMARK  status: ('A' for Active; 'I' for Inactive)
ROOT
ATOM      1  C1  BNZ d   1      -3.168   4.394  -0.357  0.00  0.00     0.000 A 
ATOM      2  C2  BNZ d   1      -2.475   3.364  -0.935  0.00  0.00     0.000 A 
ATOM      3  C3  BNZ d   1      -2.173   2.237  -0.223  0.00  0.00     0.000 A 
ATOM      4  C4  BNZ d   1      -2.528   2.159   1.076  0.00  0.00     0.000 A 
ATOM      5  C5  BNZ d   1      -3.218   3.193   1.676  0.00  0.00     0.000 A 
ATOM      6  C6  BNZ d   1      -3.555   4.309   0.945  0.00  0.00     0.000 A 
ENDROOT
TORSDOF 0
ENDMDL
