MODEL 1
REMARK minimizedAffinity -1.82648385
REMARK minimizedRMSD -1
REMARK  0 active torsions:
REMARK  status: ('A' for Active; 'I' for Inactive)
ROOT
ATOM      1  C1  BNZ d   1       6.000   2.074  -4.191  0.00  0.00     0.000 A 
ATOM      2  C2  BNZ d   1       5.997   0.705  -4.195  0.00  0.00     0.000 A 
ATOM      3  C3  BNZ d   1       5.259   0.009  -5.112  0.00  0.00     0.000 A 
ATOM      4  C4  BNZ d   1       4.496   0.682  -5.997  0.00  0.00     0.000 A 
ATOM      5  C5  BNZ d   1       4.482   2.063  -6.000  0.00  0.00     0.000 A 
ATOM      6  C6  BNZ d   1       5.255   2.760  -5.100  0.00  0.00     0.000 A 
ENDROOT
TORSDOF 0
ENDMDL
