MODEL 1
REMARK minimizedAffinity 1.38514769
REMARK minimizedRMSD -1
REMARK  0 active torsions:
REMARK  status: ('A' for Active; 'I' for Inactive)
ROOT
ATOM      1  C1  BNZ d   1       5.999   1.422   4.777  0.00  0.00     0.000 A 
ATOM      2  C2  BNZ d   1       5.571   0.164   5.110  0.00  0.00     0.000 A 
ATOM      3  C3  BNZ d   1       4.427  -0.352   4.570  0.00  0.00     0.000 A 
ATOM      4  C4  BNZ d   1       3.691   0.403   3.730  0.00  0.00     0.000 A 
ATOM      5  C5  BNZ d   1       4.104   1.677   3.391  0.00  0.00     0.000 A 
ATOM      6  C6  BNZ d   1       5.277   2.178   3.906  0.00  0.00     0.000 A 
ENDROOT
TORSDOF 0
ENDMDL
