MODEL 1
REMARK minimizedAffinity 1.87268782
REMARK minimizedRMSD -1
REMARK  0 active torsions:
REMARK  status: ('A' for Active; 'I' for Inactive)
ROOT
ATOM      1  C   UNL d   1       4.190   4.687  -4.255  0.00  0.00     0.077 C 
ATOM      2  C1  UNL d   1       3.983   3.329  -4.858  0.00  0.00    -0.074 A 
ATOM      3  C2  UNL d   1       2.757   2.978  -5.434  0.00  0.00    -0.005 A 
ATOM      4  C3  UNL d   1       2.582   1.716  -6.000  0.00  0.00     0.006 A 
ATOM      5  C4  UNL d   1       3.629   0.793  -5.996  0.00  0.00    -0.005 A 
ATOM      6  C5  UNL d   1       4.861   1.126  -5.426  0.00  0.00    -0.074 A 
ATOM      7  C6  UNL d   1       6.000   0.150  -5.423  0.00  0.00     0.077 C 
ATOM      8  C7  UNL d   1       5.032   2.400  -4.865  0.00  0.00    -0.001 A 
ENDROOT
TORSDOF 0
ENDMDL
