MODEL 1
REMARK minimizedAffinity 2.42827797
REMARK minimizedRMSD -1
REMARK  0 active torsions:
REMARK  status: ('A' for Active; 'I' for Inactive)
ROOT
ATOM      1  C   UNL d   1       0.379  -6.000   2.209  0.00  0.00     0.077 C 
ATOM      2  C1  UNL d   1       0.145  -4.841   1.287  0.00  0.00    -0.074 A 
ATOM      3  C2  UNL d   1      -1.134  -4.562   0.792  0.00  0.00    -0.005 A 
ATOM      4  C3  UNL d   1      -1.338  -3.475  -0.057  0.00  0.00     0.006 A 
ATOM      5  C4  UNL d   1      -0.268  -2.657  -0.421  0.00  0.00    -0.005 A 
ATOM      6  C5  UNL d   1       1.018  -2.919   0.064  0.00  0.00    -0.074 A 
ATOM      7  C6  UNL d   1       2.177  -2.044  -0.309  0.00  0.00     0.077 C 
ATOM      8  C7  UNL d   1       1.213  -4.009   0.923  0.00  0.00    -0.001 A 
ENDROOT
TORSDOF 0
ENDMDL
