MODEL 1
REMARK minimizedAffinity 1.74371254
REMARK minimizedRMSD -1
REMARK  0 active torsions:
REMARK  status: ('A' for Active; 'I' for Inactive)
ROOT
ATOM      1  C   UNL d   1       1.422  -5.476   2.085  0.00  0.00     0.077 C 
ATOM      2  C1  UNL d   1       2.287  -5.652   3.298  0.00  0.00    -0.074 A 
ATOM      3  C2  UNL d   1       1.720  -5.813   4.567  0.00  0.00    -0.005 A 
ATOM      4  C3  UNL d   1       2.537  -5.985   5.684  0.00  0.00     0.006 A 
ATOM      5  C4  UNL d   1       3.925  -5.999   5.545  0.00  0.00    -0.005 A 
ATOM      6  C5  UNL d   1       4.509  -5.841   4.284  0.00  0.00    -0.074 A 
ATOM      7  C6  UNL d   1       5.999  -5.863   4.116  0.00  0.00     0.077 C 
ATOM      8  C7  UNL d   1       3.682  -5.675   3.165  0.00  0.00    -0.001 A 
ENDROOT
TORSDOF 0
ENDMDL
