MODEL 1
REMARK minimizedAffinity 3.57997465
REMARK minimizedRMSD -1
REMARK  0 active torsions:
REMARK  status: ('A' for Active; 'I' for Inactive)
ROOT
ATOM      1  C   UNL d   1       4.915   4.381  -4.125  0.00  0.00     0.077 C 
ATOM      2  C1  UNL d   1       4.858   2.913  -4.426  0.00  0.00    -0.074 A 
ATOM      3  C2  UNL d   1       6.000   2.219  -4.840  0.00  0.00    -0.005 A 
ATOM      4  C3  UNL d   1       5.933   0.851  -5.107  0.00  0.00     0.006 A 
ATOM      5  C4  UNL d   1       4.726   0.165  -4.963  0.00  0.00    -0.005 A 
ATOM      6  C5  UNL d   1       3.575   0.842  -4.550  0.00  0.00    -0.074 A 
ATOM      7  C6  UNL d   1       2.272   0.118  -4.381  0.00  0.00     0.077 C 
ATOM      8  C7  UNL d   1       3.651   2.215  -4.276  0.00  0.00    -0.001 A 
ENDROOT
TORSDOF 0
ENDMDL
