MODEL 1
REMARK minimizedAffinity 2.64267635
REMARK minimizedRMSD -1
REMARK  0 active torsions:
REMARK  status: ('A' for Active; 'I' for Inactive)
ROOT
ATOM      1  C   UNL d   1       5.899   0.281  -5.999  0.00  0.00     0.077 C 
ATOM      2  C1  UNL d   1       5.420   1.537  -5.334  0.00  0.00    -0.074 A 
ATOM      3  C2  UNL d   1       5.972   1.963  -4.121  0.00  0.00    -0.005 A 
ATOM      4  C3  UNL d   1       5.523   3.138  -3.518  0.00  0.00     0.006 A 
ATOM      5  C4  UNL d   1       4.519   3.898  -4.121  0.00  0.00    -0.005 A 
ATOM      6  C5  UNL d   1       3.957   3.488  -5.334  0.00  0.00    -0.074 A 
ATOM      7  C6  UNL d   1       2.884   4.298  -6.000  0.00  0.00     0.077 C 
ATOM      8  C7  UNL d   1       4.418   2.310  -5.937  0.00  0.00    -0.001 A 
ENDROOT
TORSDOF 0
ENDMDL
