MODEL 1
REMARK minimizedAffinity 4.57296658
REMARK minimizedRMSD -1
REMARK  0 active torsions:
REMARK  status: ('A' for Active; 'I' for Inactive)
ROOT
ATOM      1  C   UNL d   1       1.159   1.888  -3.621  0.00  0.00     0.077 C 
ATOM      2  C1  UNL d   1       1.035   0.617  -2.835  0.00  0.00    -0.074 A 
ATOM      3  C2  UNL d   1       0.643   0.637  -1.493  0.00  0.00    -0.005 A 
ATOM      4  C3  UNL d   1       0.523  -0.554  -0.777  0.00  0.00     0.006 A 
ATOM      5  C4  UNL d   1       0.793  -1.775  -1.395  0.00  0.00    -0.005 A 
ATOM      6  C5  UNL d   1       1.186  -1.815  -2.737  0.00  0.00    -0.074 A 
ATOM      7  C6  UNL d   1       1.471  -3.120  -3.419  0.00  0.00     0.077 C 
ATOM      8  C7  UNL d   1       1.298  -0.614  -3.451  0.00  0.00    -0.001 A 
ENDROOT
TORSDOF 0
ENDMDL
