MODEL 1
REMARK minimizedAffinity 3.56517696
REMARK minimizedRMSD -1
REMARK  0 active torsions:
REMARK  status: ('A' for Active; 'I' for Inactive)
ROOT
ATOM      1  C   UNL d   1       0.552  -2.859  -2.945  0.00  0.00     0.077 C 
ATOM      2  C1  UNL d   1       0.764  -1.514  -2.317  0.00  0.00    -0.074 A 
ATOM      3  C2  UNL d   1       0.952  -1.386  -0.937  0.00  0.00    -0.005 A 
ATOM      4  C3  UNL d   1       1.158  -0.129  -0.369  0.00  0.00     0.006 A 
ATOM      5  C4  UNL d   1       1.178   1.011  -1.173  0.00  0.00    -0.005 A 
ATOM      6  C5  UNL d   1       0.992   0.903  -2.555  0.00  0.00    -0.074 A 
ATOM      7  C6  UNL d   1       1.021   2.117  -3.435  0.00  0.00     0.077 C 
ATOM      8  C7  UNL d   1       0.793  -0.365  -3.120  0.00  0.00    -0.001 A 
ENDROOT
TORSDOF 0
ENDMDL
