MODEL 1
REMARK minimizedAffinity 3.2164104
REMARK minimizedRMSD -1
REMARK  0 active torsions:
REMARK  status: ('A' for Active; 'I' for Inactive)
ROOT
ATOM      1  C   UNL d   1       0.276   2.212  -1.097  0.00  0.00     0.077 C 
ATOM      2  C1  UNL d   1       0.664   0.836  -1.551  0.00  0.00    -0.074 A 
ATOM      3  C2  UNL d   1       0.890  -0.189  -0.628  0.00  0.00    -0.005 A 
ATOM      4  C3  UNL d   1       1.240  -1.466  -1.066  0.00  0.00     0.006 A 
ATOM      5  C4  UNL d   1       1.369  -1.730  -2.430  0.00  0.00    -0.005 A 
ATOM      6  C5  UNL d   1       1.147  -0.717  -3.369  0.00  0.00    -0.074 A 
ATOM      7  C6  UNL d   1       1.272  -0.986  -4.839  0.00  0.00     0.077 C 
ATOM      8  C7  UNL d   1       0.788   0.561  -2.921  0.00  0.00    -0.001 A 
ENDROOT
TORSDOF 0
ENDMDL
