MODEL 1
REMARK minimizedAffinity -2.75368142
REMARK minimizedRMSD -1
REMARK  0 active torsions:
REMARK  status: ('A' for Active; 'I' for Inactive)
ROOT
ATOM      1  C   UNL d   1       2.022  -0.367  -4.586  0.00  0.00     0.077 C 
ATOM      2  C1  UNL d   1       1.515  -0.019  -3.218  0.00  0.00    -0.074 A 
ATOM      3  C2  UNL d   1       1.173   1.297  -2.891  0.00  0.00    -0.005 A 
ATOM      4  C3  UNL d   1       0.694   1.603  -1.617  0.00  0.00     0.006 A 
ATOM      5  C4  UNL d   1       0.551   0.598  -0.660  0.00  0.00    -0.005 A 
ATOM      6  C5  UNL d   1       0.887  -0.723  -0.969  0.00  0.00    -0.074 A 
ATOM      7  C6  UNL d   1       0.731  -1.817   0.046  0.00  0.00     0.077 C 
ATOM      8  C7  UNL d   1       1.362  -1.025  -2.252  0.00  0.00    -0.001 A 
ENDROOT
TORSDOF 0
ENDMDL
