MODEL 1
REMARK minimizedAffinity 1.55938804
REMARK minimizedRMSD -1
REMARK  0 active torsions:
REMARK  status: ('A' for Active; 'I' for Inactive)
ROOT
ATOM      1  C   UNL d   1      -5.472   5.994   6.000  0.00  0.00     0.077 C 
ATOM      2  C1  UNL d   1      -4.557   5.095   5.223  0.00  0.00    -0.074 A 
ATOM      3  C2  UNL d   1      -3.847   5.575   4.118  0.00  0.00    -0.005 A 
ATOM      4  C3  UNL d   1      -2.991   4.729   3.411  0.00  0.00     0.006 A 
ATOM      5  C4  UNL d   1      -2.838   3.399   3.802  0.00  0.00    -0.005 A 
ATOM      6  C5  UNL d   1      -3.539   2.902   4.905  0.00  0.00    -0.074 A 
ATOM      7  C6  UNL d   1      -3.378   1.477   5.344  0.00  0.00     0.077 C 
ATOM      8  C7  UNL d   1      -4.391   3.759   5.614  0.00  0.00    -0.001 A 
ENDROOT
TORSDOF 0
ENDMDL
