MODEL 1
REMARK minimizedAffinity 1.15625155
REMARK minimizedRMSD -1
REMARK  0 active torsions:
REMARK  status: ('A' for Active; 'I' for Inactive)
ROOT
ATOM      1  C   UNL d   1       1.142  -2.843  -2.972  0.00  0.00     0.077 C 
ATOM      2  C1  UNL d   1       1.263  -1.349  -2.909  0.00  0.00    -0.074 A 
ATOM      3  C2  UNL d   1       1.754  -0.621  -3.998  0.00  0.00    -0.005 A 
ATOM      4  C3  UNL d   1       1.852   0.768  -3.928  0.00  0.00     0.006 A 
ATOM      5  C4  UNL d   1       1.461   1.443  -2.771  0.00  0.00    -0.005 A 
ATOM      6  C5  UNL d   1       0.967   0.732  -1.673  0.00  0.00    -0.074 A 
ATOM      7  C6  UNL d   1       0.533   1.443  -0.425  0.00  0.00     0.077 C 
ATOM      8  C7  UNL d   1       0.865  -0.663  -1.753  0.00  0.00    -0.001 A 
ENDROOT
TORSDOF 0
ENDMDL
