MODEL 1
REMARK minimizedAffinity -3.34615088
REMARK minimizedRMSD -1
REMARK  0 active torsions:
REMARK  status: ('A' for Active; 'I' for Inactive)
ROOT
ATOM      1  C   UNL d   1      -2.941   1.143   1.390  0.00  0.00     0.023 A 
ATOM      2  C1  UNL d   1      -2.549   0.924   0.070  0.00  0.00     0.003 A 
ATOM      3  C2  UNL d   1      -3.417   0.292  -0.823  0.00  0.00     0.048 A 
ATOM      4  C3  UNL d   1      -4.677  -0.117  -0.388  0.00  0.00     0.023 A 
ATOM      5  C4  UNL d   1      -5.075   0.101   0.932  0.00  0.00     0.048 A 
ATOM      6  C5  UNL d   1      -4.203   0.732   1.821  0.00  0.00     0.003 A 
ATOM      7  I   UNL d   1      -5.972  -1.057  -1.714  0.00  0.00    -0.146 I 
ENDROOT
TORSDOF 0
ENDMDL
