MODEL 1
REMARK minimizedAffinity -4.57321787
REMARK minimizedRMSD -1
REMARK  0 active torsions:
REMARK  status: ('A' for Active; 'I' for Inactive)
ROOT
ATOM      1  C   UNL d   1       3.436  -0.561   0.961  0.00  0.00     0.023 A 
ATOM      2  C1  UNL d   1       2.445  -1.518   0.742  0.00  0.00     0.003 A 
ATOM      3  C2  UNL d   1       1.132  -1.119   0.487  0.00  0.00     0.048 A 
ATOM      4  C3  UNL d   1       0.816   0.238   0.452  0.00  0.00     0.023 A 
ATOM      5  C4  UNL d   1       1.804   1.200   0.669  0.00  0.00     0.048 A 
ATOM      6  C5  UNL d   1       3.116   0.796   0.924  0.00  0.00     0.003 A 
ATOM      7  I   UNL d   1      -1.139   0.834   0.073  0.00  0.00    -0.146 I 
ENDROOT
TORSDOF 0
ENDMDL
