MODEL 1
REMARK minimizedAffinity -1.39642096
REMARK minimizedRMSD -1
REMARK  0 active torsions:
REMARK  status: ('A' for Active; 'I' for Inactive)
ROOT
ATOM      1  C   UNL d   1       2.791  -1.167  -0.428  0.00  0.00     0.023 A 
ATOM      2  C1  UNL d   1       2.680   0.218  -0.313  0.00  0.00     0.003 A 
ATOM      3  C2  UNL d   1       1.442   0.801  -0.035  0.00  0.00     0.048 A 
ATOM      4  C3  UNL d   1       0.318  -0.009   0.128  0.00  0.00     0.023 A 
ATOM      5  C4  UNL d   1       0.424  -1.396   0.014  0.00  0.00     0.048 A 
ATOM      6  C5  UNL d   1       1.664  -1.974  -0.265  0.00  0.00     0.003 A 
ATOM      7  I   UNL d   1      -1.526   0.855   0.542  0.00  0.00    -0.146 I 
ENDROOT
TORSDOF 0
ENDMDL
