MODEL 1
REMARK minimizedAffinity -4.33298635
REMARK minimizedRMSD -1
REMARK  0 active torsions:
REMARK  status: ('A' for Active; 'I' for Inactive)
ROOT
ATOM      1  C   UNL d   1       3.611  -0.913   0.435  0.00  0.00     0.023 A 
ATOM      2  C1  UNL d   1       3.290   0.444   0.480  0.00  0.00     0.003 A 
ATOM      3  C2  UNL d   1       1.957   0.851   0.396  0.00  0.00     0.048 A 
ATOM      4  C3  UNL d   1       0.949  -0.104   0.267  0.00  0.00     0.023 A 
ATOM      5  C4  UNL d   1       1.265  -1.463   0.222  0.00  0.00     0.048 A 
ATOM      6  C5  UNL d   1       2.599  -1.865   0.306  0.00  0.00     0.003 A 
ATOM      7  I   UNL d   1      -1.035   0.500   0.141  0.00  0.00    -0.146 I 
ENDROOT
TORSDOF 0
ENDMDL
