MODEL 1
REMARK minimizedAffinity -3.27408767
REMARK minimizedRMSD -1
REMARK  0 active torsions:
REMARK  status: ('A' for Active; 'I' for Inactive)
ROOT
ATOM      1  C   UNL d   1       2.544  -0.732   0.015  0.00  0.00     0.023 A 
ATOM      2  C1  UNL d   1       1.560  -1.701  -0.182  0.00  0.00     0.003 A 
ATOM      3  C2  UNL d   1       0.210  -1.354  -0.101  0.00  0.00     0.048 A 
ATOM      4  C3  UNL d   1      -0.149  -0.036   0.176  0.00  0.00     0.023 A 
ATOM      5  C4  UNL d   1       0.832   0.938   0.373  0.00  0.00     0.048 A 
ATOM      6  C5  UNL d   1       2.180   0.585   0.292  0.00  0.00     0.003 A 
ATOM      7  I   UNL d   1      -2.158   0.484   0.297  0.00  0.00    -0.146 I 
ENDROOT
TORSDOF 0
ENDMDL
