MODEL 1
REMARK minimizedAffinity -2.16676593
REMARK minimizedRMSD -1
REMARK  0 active torsions:
REMARK  status: ('A' for Active; 'I' for Inactive)
ROOT
ATOM      1  C   UNL d   1       0.363  -1.864  -0.019  0.00  0.00     0.023 A 
ATOM      2  C1  UNL d   1       1.731  -2.088   0.137  0.00  0.00     0.003 A 
ATOM      3  C2  UNL d   1       2.635  -1.035  -0.025  0.00  0.00     0.048 A 
ATOM      4  C3  UNL d   1       2.164   0.238  -0.342  0.00  0.00     0.023 A 
ATOM      5  C4  UNL d   1       0.795   0.466  -0.499  0.00  0.00     0.048 A 
ATOM      6  C5  UNL d   1      -0.104  -0.589  -0.337  0.00  0.00     0.003 A 
ATOM      7  I   UNL d   1       3.506   1.806  -0.583  0.00  0.00    -0.146 I 
ENDROOT
TORSDOF 0
ENDMDL
