MODEL 1
REMARK minimizedAffinity -3.43348718
REMARK minimizedRMSD -1
REMARK  0 active torsions:
REMARK  status: ('A' for Active; 'I' for Inactive)
ROOT
ATOM      1  C   UNL d   1       2.798  -1.503   0.972  0.00  0.00     0.023 A 
ATOM      2  C1  UNL d   1       2.173  -0.590   1.821  0.00  0.00     0.003 A 
ATOM      3  C2  UNL d   1       1.050   0.116   1.383  0.00  0.00     0.048 A 
ATOM      4  C3  UNL d   1       0.557  -0.098   0.096  0.00  0.00     0.023 A 
ATOM      5  C4  UNL d   1       1.179  -1.012  -0.756  0.00  0.00     0.048 A 
ATOM      6  C5  UNL d   1       2.302  -1.714  -0.314  0.00  0.00     0.003 A 
ATOM      7  I   UNL d   1      -1.114   0.951  -0.557  0.00  0.00    -0.146 I 
ENDROOT
TORSDOF 0
ENDMDL
