MODEL 1
REMARK minimizedAffinity -3.58470559
REMARK minimizedRMSD -1
REMARK  0 active torsions:
REMARK  status: ('A' for Active; 'I' for Inactive)
ROOT
ATOM      1  C   UNL d   1       2.861  -0.654   0.868  0.00  0.00     0.023 A 
ATOM      2  C1  UNL d   1       1.971  -1.640   0.440  0.00  0.00     0.003 A 
ATOM      3  C2  UNL d   1       0.693  -1.286   0.004  0.00  0.00     0.048 A 
ATOM      4  C3  UNL d   1       0.310   0.055  -0.002  0.00  0.00     0.023 A 
ATOM      5  C4  UNL d   1       1.197   1.044   0.426  0.00  0.00     0.048 A 
ATOM      6  C5  UNL d   1       2.474   0.686   0.861  0.00  0.00     0.003 A 
ATOM      7  I   UNL d   1      -1.592   0.583  -0.650  0.00  0.00    -0.146 I 
ENDROOT
TORSDOF 0
ENDMDL
