MODEL 1
REMARK minimizedAffinity -5.20483351
REMARK minimizedRMSD -1
REMARK  0 active torsions:
REMARK  status: ('A' for Active; 'I' for Inactive)
ROOT
ATOM      1  C   UNL d   1       0.232   2.197  -0.411  0.00  0.00     0.023 A 
ATOM      2  C1  UNL d   1       1.512   2.137   0.139  0.00  0.00     0.003 A 
ATOM      3  C2  UNL d   1       2.047   0.910   0.536  0.00  0.00     0.048 A 
ATOM      4  C3  UNL d   1       1.295  -0.255   0.378  0.00  0.00     0.023 A 
ATOM      5  C4  UNL d   1       0.014  -0.200  -0.173  0.00  0.00     0.048 A 
ATOM      6  C5  UNL d   1      -0.516   1.030  -0.567  0.00  0.00     0.003 A 
ATOM      7  I   UNL d   1       2.089  -2.083   0.968  0.00  0.00    -0.146 I 
ENDROOT
TORSDOF 0
ENDMDL
