MODEL 1
REMARK minimizedAffinity 10.2479763
REMARK minimizedRMSD -1
REMARK  0 active torsions:
REMARK  status: ('A' for Active; 'I' for Inactive)
ROOT
ATOM      1  N1  IND d   1       2.273   4.988  -1.340  0.00  0.00    -0.196 N 
ATOM      2  C2  IND d   1       3.143   5.011  -2.395  0.00  0.00     0.054 A 
ATOM      3  C3  IND d   1       2.817   4.055  -3.294  0.00  0.00    -0.031 A 
ATOM      4  C4  IND d   1       0.837   2.411  -3.288  0.00  0.00     0.051 A 
ATOM      5  C5  IND d   1      -0.209   1.987  -2.516  0.00  0.00    -0.031 A 
ATOM      6  C6  IND d   1      -0.488   2.555  -1.290  0.00  0.00     0.015 A 
ATOM      7  C7  IND d   1       0.265   3.580  -0.793  0.00  0.00    -0.016 A 
ATOM      8  C8  IND d   1       1.332   4.009  -1.570  0.00  0.00    -0.047 A 
ATOM      9  C9  IND d   1       1.645   3.407  -2.795  0.00  0.00    -0.096 A 
ATOM     10  HN1 IND d   1       2.308   5.499  -0.650  0.00  0.00     0.298 HD
ENDROOT
TORSDOF 0
ENDMDL
