MODEL 1
REMARK minimizedAffinity 10.3019371
REMARK minimizedRMSD -1
REMARK  0 active torsions:
REMARK  status: ('A' for Active; 'I' for Inactive)
ROOT
ATOM      1  N1  IND d   1      -4.444   1.327  -3.462  0.00  0.00    -0.196 N 
ATOM      2  C2  IND d   1      -4.673   2.656  -3.235  0.00  0.00     0.054 A 
ATOM      3  C3  IND d   1      -3.566   3.245  -2.729  0.00  0.00    -0.031 A 
ATOM      4  C4  IND d   1      -1.236   2.242  -2.290  0.00  0.00     0.051 A 
ATOM      5  C5  IND d   1      -0.551   1.059  -2.308  0.00  0.00    -0.031 A 
ATOM      6  C6  IND d   1      -1.140  -0.118  -2.723  0.00  0.00     0.015 A 
ATOM      7  C7  IND d   1      -2.438  -0.154  -3.148  0.00  0.00    -0.016 A 
ATOM      8  C8  IND d   1      -3.139   1.044  -3.124  0.00  0.00    -0.047 A 
ATOM      9  C9  IND d   1      -2.559   2.233  -2.664  0.00  0.00    -0.096 A 
ATOM     10  HN1 IND d   1      -5.018   0.764  -3.766  0.00  0.00     0.298 HD
ENDROOT
TORSDOF 0
ENDMDL
