MODEL 1
REMARK minimizedAffinity -4.13700581
REMARK minimizedRMSD -1
REMARK  0 active torsions:
REMARK  status: ('A' for Active; 'I' for Inactive)
ROOT
ATOM      1  N1  IND d   1       1.947  -3.996  -5.555  0.00  0.00    -0.196 N 
ATOM      2  C2  IND d   1       1.784  -2.655  -5.344  0.00  0.00     0.054 A 
ATOM      3  C3  IND d   1       2.984  -2.033  -5.324  0.00  0.00    -0.031 A 
ATOM      4  C4  IND d   1       5.337  -3.003  -5.715  0.00  0.00     0.051 A 
ATOM      5  C5  IND d   1       5.996  -4.184  -5.909  0.00  0.00    -0.031 A 
ATOM      6  C6  IND d   1       5.326  -5.387  -6.000  0.00  0.00     0.015 A 
ATOM      7  C7  IND d   1       3.964  -5.452  -5.910  0.00  0.00    -0.016 A 
ATOM      8  C8  IND d   1       3.292  -4.256  -5.706  0.00  0.00    -0.047 A 
ATOM      9  C9  IND d   1       3.970  -3.037  -5.571  0.00  0.00    -0.096 A 
ATOM     10  HN1 IND d   1       1.316  -4.579  -5.587  0.00  0.00     0.298 HD
ENDROOT
TORSDOF 0
ENDMDL
