MODEL 1
REMARK minimizedAffinity 1.33466637
REMARK minimizedRMSD -1
REMARK  0 active torsions:
REMARK  status: ('A' for Active; 'I' for Inactive)
ROOT
ATOM      1  N1  IND d   1       1.379  -3.630  -5.701  0.00  0.00    -0.196 N 
ATOM      2  C2  IND d   1       1.207  -2.277  -5.600  0.00  0.00     0.054 A 
ATOM      3  C3  IND d   1       2.404  -1.648  -5.616  0.00  0.00    -0.031 A 
ATOM      4  C4  IND d   1       4.765  -2.632  -5.905  0.00  0.00     0.051 A 
ATOM      5  C5  IND d   1       5.433  -3.821  -5.998  0.00  0.00    -0.031 A 
ATOM      6  C6  IND d   1       4.770  -5.031  -6.000  0.00  0.00     0.015 A 
ATOM      7  C7  IND d   1       3.407  -5.097  -5.920  0.00  0.00    -0.016 A 
ATOM      8  C8  IND d   1       2.727  -3.892  -5.818  0.00  0.00    -0.047 A 
ATOM      9  C9  IND d   1       3.397  -2.663  -5.773  0.00  0.00    -0.096 A 
ATOM     10  HN1 IND d   1       0.752  -4.217  -5.694  0.00  0.00     0.298 HD
ENDROOT
TORSDOF 0
ENDMDL
