MODEL 1
REMARK minimizedAffinity 1.26116478
REMARK minimizedRMSD -1
REMARK  0 active torsions:
REMARK  status: ('A' for Active; 'I' for Inactive)
ROOT
ATOM      1  N1  IND d   1       4.148  -5.263  -4.504  0.00  0.00    -0.196 N 
ATOM      2  C2  IND d   1       5.147  -5.999  -5.078  0.00  0.00     0.054 A 
ATOM      3  C3  IND d   1       5.997  -5.194  -5.752  0.00  0.00    -0.031 A 
ATOM      4  C4  IND d   1       6.000  -2.628  -5.962  0.00  0.00     0.051 A 
ATOM      5  C5  IND d   1       5.266  -1.520  -5.641  0.00  0.00    -0.031 A 
ATOM      6  C6  IND d   1       4.101  -1.605  -4.907  0.00  0.00     0.015 A 
ATOM      7  C7  IND d   1       3.629  -2.805  -4.456  0.00  0.00    -0.016 A 
ATOM      8  C8  IND d   1       4.367  -3.933  -4.786  0.00  0.00    -0.047 A 
ATOM      9  C9  IND d   1       5.528  -3.857  -5.566  0.00  0.00    -0.096 A 
ATOM     10  HN1 IND d   1       3.493  -5.578  -4.045  0.00  0.00     0.298 HD
ENDROOT
TORSDOF 0
ENDMDL
