MODEL 1
REMARK minimizedAffinity 3.19885969
REMARK minimizedRMSD -1
REMARK  0 active torsions:
REMARK  status: ('A' for Active; 'I' for Inactive)
ROOT
ATOM      1  N1  IND d   1       3.693  -2.310  -5.027  0.00  0.00    -0.196 N 
ATOM      2  C2  IND d   1       2.662  -2.558  -4.163  0.00  0.00     0.054 A 
ATOM      3  C3  IND d   1       2.661  -3.859  -3.794  0.00  0.00    -0.031 A 
ATOM      4  C4  IND d   1       4.315  -5.734  -4.404  0.00  0.00     0.051 A 
ATOM      5  C5  IND d   1       5.400  -6.000  -5.192  0.00  0.00    -0.031 A 
ATOM      6  C6  IND d   1       5.984  -5.029  -5.979  0.00  0.00     0.015 A 
ATOM      7  C7  IND d   1       5.511  -3.747  -5.999  0.00  0.00    -0.016 A 
ATOM      8  C8  IND d   1       4.405  -3.476  -5.205  0.00  0.00    -0.047 A 
ATOM      9  C9  IND d   1       3.782  -4.468  -4.437  0.00  0.00    -0.096 A 
ATOM     10  HN1 IND d   1       3.867  -1.554  -5.396  0.00  0.00     0.298 HD
ENDROOT
TORSDOF 0
ENDMDL
