MODEL 1
REMARK minimizedAffinity 7.54821396
REMARK minimizedRMSD -1
REMARK  0 active torsions:
REMARK  status: ('A' for Active; 'I' for Inactive)
ROOT
ATOM      1  N1  IND d   1      -5.481   3.185  -4.083  0.00  0.00    -0.196 N 
ATOM      2  C2  IND d   1      -5.676   3.979  -2.988  0.00  0.00     0.054 A 
ATOM      3  C3  IND d   1      -4.841   3.615  -1.988  0.00  0.00    -0.031 A 
ATOM      4  C4  IND d   1      -3.004   1.812  -1.966  0.00  0.00     0.051 A 
ATOM      5  C5  IND d   1      -2.475   0.804  -2.723  0.00  0.00    -0.031 A 
ATOM      6  C6  IND d   1      -2.928   0.535  -3.998  0.00  0.00     0.015 A 
ATOM      7  C7  IND d   1      -3.924   1.274  -4.571  0.00  0.00    -0.016 A 
ATOM      8  C8  IND d   1      -4.468   2.293  -3.803  0.00  0.00    -0.047 A 
ATOM      9  C9  IND d   1      -4.042   2.544  -2.493  0.00  0.00    -0.096 A 
ATOM     10  HN1 IND d   1      -5.917   3.234  -4.822  0.00  0.00     0.298 HD
ENDROOT
TORSDOF 0
ENDMDL
