MODEL 1
REMARK minimizedAffinity 15.3133135
REMARK minimizedRMSD -1
REMARK  0 active torsions:
REMARK  status: ('A' for Active; 'I' for Inactive)
ROOT
ATOM      1  N1  IND d   1      -4.410   2.485  -4.334  0.00  0.00    -0.196 N 
ATOM      2  C2  IND d   1      -4.661   3.751  -3.882  0.00  0.00     0.054 A 
ATOM      3  C3  IND d   1      -4.040   3.960  -2.700  0.00  0.00    -0.031 A 
ATOM      4  C4  IND d   1      -2.478   2.402  -1.374  0.00  0.00     0.051 A 
ATOM      5  C5  IND d   1      -1.977   1.130  -1.368  0.00  0.00    -0.031 A 
ATOM      6  C6  IND d   1      -2.265   0.228  -2.371  0.00  0.00     0.015 A 
ATOM      7  C7  IND d   1      -3.059   0.569  -3.429  0.00  0.00    -0.016 A 
ATOM      8  C8  IND d   1      -3.575   1.857  -3.436  0.00  0.00    -0.047 A 
ATOM      9  C9  IND d   1      -3.321   2.763  -2.398  0.00  0.00    -0.096 A 
ATOM     10  HN1 IND d   1      -4.721   2.139  -5.057  0.00  0.00     0.298 HD
ENDROOT
TORSDOF 0
ENDMDL
