MODEL 1
REMARK minimizedAffinity 8.69651222
REMARK minimizedRMSD -1
REMARK  0 active torsions:
REMARK  status: ('A' for Active; 'I' for Inactive)
ROOT
ATOM      1  N1  IND d   1      -2.185   1.195  -4.029  0.00  0.00    -0.196 N 
ATOM      2  C2  IND d   1      -2.072   0.250  -3.048  0.00  0.00     0.054 A 
ATOM      3  C3  IND d   1      -2.873   0.558  -2.003  0.00  0.00    -0.031 A 
ATOM      4  C4  IND d   1      -4.530   2.509  -1.732  0.00  0.00     0.051 A 
ATOM      5  C5  IND d   1      -4.957   3.652  -2.347  0.00  0.00    -0.031 A 
ATOM      6  C6  IND d   1      -4.475   4.041  -3.580  0.00  0.00     0.015 A 
ATOM      7  C7  IND d   1      -3.551   3.292  -4.252  0.00  0.00    -0.016 A 
ATOM      8  C8  IND d   1      -3.109   2.134  -3.627  0.00  0.00    -0.047 A 
ATOM      9  C9  IND d   1      -3.564   1.756  -2.357  0.00  0.00    -0.096 A 
ATOM     10  HN1 IND d   1      -1.751   1.202  -4.771  0.00  0.00     0.298 HD
ENDROOT
TORSDOF 0
ENDMDL
