MODEL 1
REMARK minimizedAffinity -0.0341941006
REMARK minimizedRMSD -1
REMARK  1 active torsions:
REMARK  status: ('A' for Active; 'I' for Inactive)
REMARK    1  A    between atoms: C1_2  and  C2_3 
ROOT
ATOM      1  C2  UNL d   1      -2.485   1.553   0.470  0.00  0.00    -0.081 A 
ATOM      2  C3  UNL d   1      -3.110   0.378   0.035  0.00  0.00     0.006 A 
ATOM      3  C4  UNL d   1      -3.519  -0.589   0.956  0.00  0.00     0.002 A 
ATOM      4  C5  UNL d   1      -3.316  -0.395   2.326  0.00  0.00    -0.080 A 
ATOM      5  C6  UNL d   1      -3.777  -1.413   3.327  0.00  0.00     0.076 C 
ATOM      6  C7  UNL d   1      -2.675   0.770   2.760  0.00  0.00     0.002 A 
ATOM      7  C8  UNL d   1      -2.266   1.738   1.839  0.00  0.00     0.006 A 
ENDROOT
BRANCH   1   8
ATOM      8  C1  UNL d   1      -2.101   2.628  -0.515  0.00  0.00     0.054 C 
ATOM      9  C   UNL d   1      -3.125   3.754  -0.532  0.00  0.00     0.018 C 
ENDBRANCH   1   8
TORSDOF 1
ENDMDL
