MODEL 1
REMARK minimizedAffinity 9.18756199
REMARK minimizedRMSD -1
REMARK  1 active torsions:
REMARK  status: ('A' for Active; 'I' for Inactive)
REMARK    1  A    between atoms: C1_2  and  C2_3 
ROOT
ATOM      1  C2  UNL d   1      -2.696  -1.503   1.650  0.00  0.00    -0.081 A 
ATOM      2  C3  UNL d   1      -1.930  -2.670   1.534  0.00  0.00     0.006 A 
ATOM      3  C4  UNL d   1      -1.350  -3.018   0.312  0.00  0.00     0.002 A 
ATOM      4  C5  UNL d   1      -1.519  -2.202  -0.812  0.00  0.00    -0.080 A 
ATOM      5  C6  UNL d   1      -0.877  -2.548  -2.122  0.00  0.00     0.076 C 
ATOM      6  C7  UNL d   1      -2.299  -1.045  -0.701  0.00  0.00     0.002 A 
ATOM      7  C8  UNL d   1      -2.879  -0.697   0.521  0.00  0.00     0.006 A 
ENDROOT
BRANCH   1   8
ATOM      8  C1  UNL d   1      -3.269  -1.091   2.982  0.00  0.00     0.054 C 
ATOM      9  C   UNL d   1      -2.319  -0.167   3.731  0.00  0.00     0.018 C 
ENDBRANCH   1   8
TORSDOF 1
ENDMDL
