MODEL 1
REMARK minimizedAffinity -4.20102167
REMARK minimizedRMSD -1
REMARK  1 active torsions:
REMARK  status: ('A' for Active; 'I' for Inactive)
REMARK    1  A    between atoms: C1_2  and  C2_3 
ROOT
ATOM      1  C2  UNL d   1      -2.933   1.854   0.255  0.00  0.00    -0.081 A 
ATOM      2  C3  UNL d   1      -3.489   0.594   0.002  0.00  0.00     0.006 A 
ATOM      3  C4  UNL d   1      -3.529  -0.377   1.005  0.00  0.00     0.002 A 
ATOM      4  C5  UNL d   1      -3.021  -0.102   2.279  0.00  0.00    -0.080 A 
ATOM      5  C6  UNL d   1      -3.086  -1.125   3.374  0.00  0.00     0.076 C 
ATOM      6  C7  UNL d   1      -2.450   1.150   2.527  0.00  0.00     0.002 A 
ATOM      7  C8  UNL d   1      -2.409   2.122   1.524  0.00  0.00     0.006 A 
ENDROOT
BRANCH   1   8
ATOM      8  C1  UNL d   1      -2.946   2.925  -0.806  0.00  0.00     0.054 C 
ATOM      9  C   UNL d   1      -3.699   4.161  -0.334  0.00  0.00     0.018 C 
ENDBRANCH   1   8
TORSDOF 1
ENDMDL
