MODEL 1
REMARK minimizedAffinity 3.69362545
REMARK minimizedRMSD -1
REMARK  1 active torsions:
REMARK  status: ('A' for Active; 'I' for Inactive)
REMARK    1  A    between atoms: C1_2  and  C2_3 
ROOT
ATOM      1  C2  UNL d   1       5.264   3.827   4.126  0.00  0.00    -0.081 A 
ATOM      2  C3  UNL d   1       5.998   3.111   5.080  0.00  0.00     0.006 A 
ATOM      3  C4  UNL d   1       6.000   1.715   5.070  0.00  0.00     0.002 A 
ATOM      4  C5  UNL d   1       5.275   1.011   4.102  0.00  0.00    -0.080 A 
ATOM      5  C6  UNL d   1       5.293  -0.488   4.062  0.00  0.00     0.076 C 
ATOM      6  C7  UNL d   1       4.528   1.726   3.160  0.00  0.00     0.002 A 
ATOM      7  C8  UNL d   1       4.526   3.122   3.169  0.00  0.00     0.006 A 
ENDROOT
BRANCH   1   8
ATOM      8  C1  UNL d   1       5.313   5.333   4.094  0.00  0.00     0.054 C 
ATOM      9  C   UNL d   1       5.998   5.892   5.333  0.00  0.00     0.018 C 
ENDBRANCH   1   8
TORSDOF 1
ENDMDL
