MODEL 1
REMARK minimizedAffinity 2.45284128
REMARK minimizedRMSD -1
REMARK  1 active torsions:
REMARK  status: ('A' for Active; 'I' for Inactive)
REMARK    1  A    between atoms: C1_2  and  C2_3 
ROOT
ATOM      1  C2  UNL d   1       4.860  -0.065   2.853  0.00  0.00    -0.081 A 
ATOM      2  C3  UNL d   1       4.421   0.959   2.005  0.00  0.00     0.006 A 
ATOM      3  C4  UNL d   1       4.773   2.287   2.257  0.00  0.00     0.002 A 
ATOM      4  C5  UNL d   1       5.576   2.612   3.356  0.00  0.00    -0.080 A 
ATOM      5  C6  UNL d   1       5.986   4.030   3.621  0.00  0.00     0.076 C 
ATOM      6  C7  UNL d   1       6.000   1.591   4.213  0.00  0.00     0.002 A 
ATOM      7  C8  UNL d   1       5.648   0.263   3.962  0.00  0.00     0.006 A 
ENDROOT
BRANCH   1   8
ATOM      8  C1  UNL d   1       4.536  -1.505   2.548  0.00  0.00     0.054 C 
ATOM      9  C   UNL d   1       3.402  -2.016   3.426  0.00  0.00     0.018 C 
ENDBRANCH   1   8
TORSDOF 1
ENDMDL
