MODEL 1
REMARK minimizedAffinity 0.0119943842
REMARK minimizedRMSD -1
REMARK  1 active torsions:
REMARK  status: ('A' for Active; 'I' for Inactive)
REMARK    1  A    between atoms: C1_2  and  C2_3 
ROOT
ATOM      1  C2  UNL d   1      -2.958   0.847   1.086  0.00  0.00    -0.081 A 
ATOM      2  C3  UNL d   1      -2.400   1.919   1.793  0.00  0.00     0.006 A 
ATOM      3  C4  UNL d   1      -2.640   3.235   1.390  0.00  0.00     0.002 A 
ATOM      4  C5  UNL d   1      -3.448   3.500   0.279  0.00  0.00    -0.080 A 
ATOM      5  C6  UNL d   1      -3.738   4.909  -0.147  0.00  0.00     0.076 C 
ATOM      6  C7  UNL d   1      -3.991   2.429  -0.438  0.00  0.00     0.002 A 
ATOM      7  C8  UNL d   1      -3.751   1.113  -0.035  0.00  0.00     0.006 A 
ENDROOT
BRANCH   1   8
ATOM      8  C1  UNL d   1      -2.755  -0.571   1.557  0.00  0.00     0.054 C 
ATOM      9  C   UNL d   1      -2.663  -0.642   3.075  0.00  0.00     0.018 C 
ENDBRANCH   1   8
TORSDOF 1
ENDMDL
