MODEL 1
REMARK minimizedAffinity -1.91418505
REMARK minimizedRMSD -1
REMARK  1 active torsions:
REMARK  status: ('A' for Active; 'I' for Inactive)
REMARK    1  A    between atoms: C1_2  and  C2_3 
ROOT
ATOM      1  C2  UNL d   1       3.182  -0.438   2.531  0.00  0.00    -0.081 A 
ATOM      2  C3  UNL d   1       3.602   0.896   2.484  0.00  0.00     0.006 A 
ATOM      3  C4  UNL d   1       4.498   1.390   3.436  0.00  0.00     0.002 A 
ATOM      4  C5  UNL d   1       4.994   0.556   4.444  0.00  0.00    -0.080 A 
ATOM      5  C6  UNL d   1       5.979   1.065   5.453  0.00  0.00     0.076 C 
ATOM      6  C7  UNL d   1       4.560  -0.773   4.501  0.00  0.00     0.002 A 
ATOM      7  C8  UNL d   1       3.664  -1.267   3.550  0.00  0.00     0.006 A 
ENDROOT
BRANCH   1   8
ATOM      8  C1  UNL d   1       2.266  -0.991   1.468  0.00  0.00     0.054 C 
ATOM      9  C   UNL d   1       2.293  -2.512   1.451  0.00  0.00     0.018 C 
ENDBRANCH   1   8
TORSDOF 1
ENDMDL
