MODEL 1
REMARK minimizedAffinity -0.432564318
REMARK minimizedRMSD -1
REMARK  1 active torsions:
REMARK  status: ('A' for Active; 'I' for Inactive)
REMARK    1  A    between atoms: C1_2  and  C2_3 
ROOT
ATOM      1  C2  UNL d   1       3.359  -0.729   2.618  0.00  0.00    -0.081 A 
ATOM      2  C3  UNL d   1       4.255   0.333   2.452  0.00  0.00     0.006 A 
ATOM      3  C4  UNL d   1       5.093   0.723   3.500  0.00  0.00     0.002 A 
ATOM      4  C5  UNL d   1       5.054   0.051   4.727  0.00  0.00    -0.080 A 
ATOM      5  C6  UNL d   1       5.969   0.440   5.850  0.00  0.00     0.076 C 
ATOM      6  C7  UNL d   1       4.146  -0.999   4.898  0.00  0.00     0.002 A 
ATOM      7  C8  UNL d   1       3.308  -1.388   3.851  0.00  0.00     0.006 A 
ENDROOT
BRANCH   1   8
ATOM      8  C1  UNL d   1       2.500  -1.193   1.469  0.00  0.00     0.054 C 
ATOM      9  C   UNL d   1       1.983  -2.606   1.700  0.00  0.00     0.018 C 
ENDBRANCH   1   8
TORSDOF 1
ENDMDL
