MODEL 1
REMARK minimizedAffinity 12.7441797
REMARK minimizedRMSD -1
REMARK  1 active torsions:
REMARK  status: ('A' for Active; 'I' for Inactive)
REMARK    1  A    between atoms: C1_2  and  C2_3 
ROOT
ATOM      1  C2  UNL d   1       5.140   3.965   3.445  0.00  0.00    -0.081 A 
ATOM      2  C3  UNL d   1       5.999   3.190   4.234  0.00  0.00     0.006 A 
ATOM      3  C4  UNL d   1       5.962   1.796   4.162  0.00  0.00     0.002 A 
ATOM      4  C5  UNL d   1       5.072   1.153   3.295  0.00  0.00    -0.080 A 
ATOM      5  C6  UNL d   1       5.042  -0.342   3.186  0.00  0.00     0.076 C 
ATOM      6  C7  UNL d   1       4.201   1.927   2.520  0.00  0.00     0.002 A 
ATOM      7  C8  UNL d   1       4.238   3.321   2.592  0.00  0.00     0.006 A 
ENDROOT
BRANCH   1   8
ATOM      8  C1  UNL d   1       5.223   5.470   3.472  0.00  0.00     0.054 C 
ATOM      9  C   UNL d   1       5.988   5.960   4.694  0.00  0.00     0.018 C 
ENDBRANCH   1   8
TORSDOF 1
ENDMDL
