MODEL 1
REMARK minimizedAffinity 5.39625072
REMARK minimizedRMSD -1
REMARK  1 active torsions:
REMARK  status: ('A' for Active; 'I' for Inactive)
REMARK    1  A    between atoms: C1_2  and  C2_3 
ROOT
ATOM      1  C2  UNL d   1       3.786  -0.142   3.547  0.00  0.00    -0.081 A 
ATOM      2  C3  UNL d   1       4.821   0.334   4.361  0.00  0.00     0.006 A 
ATOM      3  C4  UNL d   1       5.300   1.637   4.207  0.00  0.00     0.002 A 
ATOM      4  C5  UNL d   1       4.748   2.488   3.243  0.00  0.00    -0.080 A 
ATOM      5  C6  UNL d   1       5.233   3.899   3.089  0.00  0.00     0.076 C 
ATOM      6  C7  UNL d   1       3.726   2.007   2.418  0.00  0.00     0.002 A 
ATOM      7  C8  UNL d   1       3.246   0.704   2.571  0.00  0.00     0.006 A 
ENDROOT
BRANCH   1   8
ATOM      8  C1  UNL d   1       3.223  -1.525   3.753  0.00  0.00     0.054 C 
ATOM      9  C   UNL d   1       2.855  -2.176   2.428  0.00  0.00     0.018 C 
ENDBRANCH   1   8
TORSDOF 1
ENDMDL
