MODEL 1
REMARK minimizedAffinity -0.331294388
REMARK minimizedRMSD -1
REMARK  1 active torsions:
REMARK  status: ('A' for Active; 'I' for Inactive)
REMARK    1  A    between atoms: C1_2  and  C2_3 
ROOT
ATOM      1  C2  UNL d   1      -3.272   0.505   1.111  0.00  0.00    -0.081 A 
ATOM      2  C3  UNL d   1      -3.738   0.796  -0.177  0.00  0.00     0.006 A 
ATOM      3  C4  UNL d   1      -3.725   2.109  -0.655  0.00  0.00     0.002 A 
ATOM      4  C5  UNL d   1      -3.241   3.150   0.144  0.00  0.00    -0.080 A 
ATOM      5  C6  UNL d   1      -3.194   4.559  -0.368  0.00  0.00     0.076 C 
ATOM      6  C7  UNL d   1      -2.792   2.862   1.438  0.00  0.00     0.002 A 
ATOM      7  C8  UNL d   1      -2.805   1.550   1.916  0.00  0.00     0.006 A 
ENDROOT
BRANCH   1   8
ATOM      8  C1  UNL d   1      -3.224  -0.918   1.605  0.00  0.00     0.054 C 
ATOM      9  C   UNL d   1      -3.025  -0.974   3.113  0.00  0.00     0.018 C 
ENDBRANCH   1   8
TORSDOF 1
ENDMDL
