MODEL 1
REMARK minimizedAffinity -0.511783183
REMARK minimizedRMSD -1
REMARK  1 active torsions:
REMARK  status: ('A' for Active; 'I' for Inactive)
REMARK    1  A    between atoms: C1_2  and  C2_3 
ROOT
ATOM      1  C2  UNL d   1       0.635  -2.451  -1.810  0.00  0.00    -0.081 A 
ATOM      2  C3  UNL d   1       1.761  -3.140  -1.345  0.00  0.00     0.006 A 
ATOM      3  C4  UNL d   1       1.689  -3.911  -0.182  0.00  0.00     0.002 A 
ATOM      4  C5  UNL d   1       0.489  -4.012   0.529  0.00  0.00    -0.080 A 
ATOM      5  C6  UNL d   1       0.390  -4.861   1.762  0.00  0.00     0.076 C 
ATOM      6  C7  UNL d   1      -0.632  -3.310   0.074  0.00  0.00     0.002 A 
ATOM      7  C8  UNL d   1      -0.560  -2.538  -1.088  0.00  0.00     0.006 A 
ENDROOT
BRANCH   1   8
ATOM      8  C1  UNL d   1       0.692  -1.670  -3.099  0.00  0.00     0.054 C 
ATOM      9  C   UNL d   1       1.075  -0.219  -2.850  0.00  0.00     0.018 C 
ENDBRANCH   1   8
TORSDOF 1
ENDMDL
