MODEL 1
REMARK minimizedAffinity -2.42066622
REMARK minimizedRMSD -1
REMARK  0 active torsions:
REMARK  status: ('A' for Active; 'I' for Inactive)
ROOT
ATOM      1  N1  IND d   1      -0.013   1.878  -1.882  0.00  0.00    -0.196 N 
ATOM      2  C2  IND d   1      -1.322   1.874  -1.485  0.00  0.00     0.054 A 
ATOM      3  C3  IND d   1      -1.591   0.762  -0.765  0.00  0.00    -0.031 A 
ATOM      4  C4  IND d   1      -0.012  -1.133  -0.030  0.00  0.00     0.051 A 
ATOM      5  C5  IND d   1       1.268  -1.588  -0.180  0.00  0.00    -0.031 A 
ATOM      6  C6  IND d   1       2.206  -0.895  -0.918  0.00  0.00     0.015 A 
ATOM      7  C7  IND d   1       1.901   0.290  -1.526  0.00  0.00    -0.016 A 
ATOM      8  C8  IND d   1       0.600   0.751  -1.382  0.00  0.00    -0.047 A 
ATOM      9  C9  IND d   1      -0.368   0.031  -0.669  0.00  0.00    -0.096 A 
ATOM     10  HN1 IND d   1       0.363   2.484  -2.362  0.00  0.00     0.298 HD
ENDROOT
TORSDOF 0
ENDMDL
