MODEL 1
REMARK minimizedAffinity -4.51071692
REMARK minimizedRMSD -1
REMARK  0 active torsions:
REMARK  status: ('A' for Active; 'I' for Inactive)
ROOT
ATOM      1  N1  IND d   1       0.085   1.025   1.159  0.00  0.00    -0.196 N 
ATOM      2  C2  IND d   1      -1.136   0.450   0.936  0.00  0.00     0.054 A 
ATOM      3  C3  IND d   1      -1.046  -0.481  -0.040  0.00  0.00    -0.031 A 
ATOM      4  C4  IND d   1       1.023  -1.297  -1.337  0.00  0.00     0.051 A 
ATOM      5  C5  IND d   1       2.355  -1.045  -1.508  0.00  0.00    -0.031 A 
ATOM      6  C6  IND d   1       3.012  -0.073  -0.783  0.00  0.00     0.015 A 
ATOM      7  C7  IND d   1       2.362   0.680   0.154  0.00  0.00    -0.016 A 
ATOM      8  C8  IND d   1       1.007   0.432   0.326  0.00  0.00    -0.047 A 
ATOM      9  C9  IND d   1       0.325  -0.525  -0.438  0.00  0.00    -0.096 A 
ATOM     10  HN1 IND d   1       0.248   1.651   1.725  0.00  0.00     0.298 HD
ENDROOT
TORSDOF 0
ENDMDL
