MODEL 1
REMARK minimizedAffinity 1.87754261
REMARK minimizedRMSD -1
REMARK  0 active torsions:
REMARK  status: ('A' for Active; 'I' for Inactive)
ROOT
ATOM      1  N1  IND d   1       1.242   0.680  -1.552  0.00  0.00    -0.196 N 
ATOM      2  C2  IND d   1       2.100  -0.280  -2.008  0.00  0.00     0.054 A 
ATOM      3  C3  IND d   1       1.872  -1.454  -1.377  0.00  0.00    -0.031 A 
ATOM      4  C4  IND d   1       0.074  -2.050   0.365  0.00  0.00     0.051 A 
ATOM      5  C5  IND d   1      -0.919  -1.495   1.123  0.00  0.00    -0.031 A 
ATOM      6  C6  IND d   1      -1.251  -0.159   1.023  0.00  0.00     0.015 A 
ATOM      7  C7  IND d   1      -0.607   0.672   0.150  0.00  0.00    -0.016 A 
ATOM      8  C8  IND d   1       0.406   0.112  -0.615  0.00  0.00    -0.047 A 
ATOM      9  C9  IND d   1       0.776  -1.233  -0.488  0.00  0.00    -0.096 A 
ATOM     10  HN1 IND d   1       1.226   1.501  -1.807  0.00  0.00     0.298 HD
ENDROOT
TORSDOF 0
ENDMDL
