MODEL 1
REMARK minimizedAffinity -4.86022806
REMARK minimizedRMSD -1
REMARK  0 active torsions:
REMARK  status: ('A' for Active; 'I' for Inactive)
ROOT
ATOM      1  N1  IND d   1      -1.224   0.949  -0.815  0.00  0.00    -0.196 N 
ATOM      2  C2  IND d   1      -0.924   1.886  -1.764  0.00  0.00     0.054 A 
ATOM      3  C3  IND d   1       0.301   1.651  -2.287  0.00  0.00    -0.031 A 
ATOM      4  C4  IND d   1       1.942  -0.272  -1.805  0.00  0.00     0.051 A 
ATOM      5  C5  IND d   1       2.126  -1.353  -0.988  0.00  0.00    -0.031 A 
ATOM      6  C6  IND d   1       1.182  -1.731  -0.055  0.00  0.00     0.015 A 
ATOM      7  C7  IND d   1       0.009  -1.045   0.089  0.00  0.00    -0.016 A 
ATOM      8  C8  IND d   1      -0.178   0.057  -0.734  0.00  0.00    -0.047 A 
ATOM      9  C9  IND d   1       0.795   0.470  -1.653  0.00  0.00    -0.096 A 
ATOM     10  HN1 IND d   1      -1.945   0.922  -0.347  0.00  0.00     0.298 HD
ENDROOT
TORSDOF 0
ENDMDL
