MODEL 1
REMARK minimizedAffinity -6.21419239
REMARK minimizedRMSD -1
REMARK  0 active torsions:
REMARK  status: ('A' for Active; 'I' for Inactive)
ROOT
ATOM      1  N1  IND d   1      -0.846   0.778  -0.335  0.00  0.00    -0.196 N 
ATOM      2  C2  IND d   1      -1.538  -0.313   0.111  0.00  0.00     0.054 A 
ATOM      3  C3  IND d   1      -0.737  -1.401   0.134  0.00  0.00    -0.031 A 
ATOM      4  C4  IND d   1       1.769  -1.599  -0.422  0.00  0.00     0.051 A 
ATOM      5  C5  IND d   1       2.824  -0.881  -0.910  0.00  0.00    -0.031 A 
ATOM      6  C6  IND d   1       2.708   0.456  -1.236  0.00  0.00     0.015 A 
ATOM      7  C7  IND d   1       1.530   1.128  -1.073  0.00  0.00    -0.016 A 
ATOM      8  C8  IND d   1       0.455   0.400  -0.585  0.00  0.00    -0.047 A 
ATOM      9  C9  IND d   1       0.555  -0.967  -0.293  0.00  0.00    -0.096 A 
ATOM     10  HN1 IND d   1      -1.169   1.568  -0.443  0.00  0.00     0.298 HD
ENDROOT
TORSDOF 0
ENDMDL
