MODEL 1
REMARK minimizedAffinity -4.30979586
REMARK minimizedRMSD -1
REMARK  0 active torsions:
REMARK  status: ('A' for Active; 'I' for Inactive)
ROOT
ATOM      1  N1  IND d   1       2.002  -1.773  -1.128  0.00  0.00    -0.196 N 
ATOM      2  C2  IND d   1       2.989  -0.885  -1.453  0.00  0.00     0.054 A 
ATOM      3  C3  IND d   1       2.568   0.383  -1.246  0.00  0.00    -0.031 A 
ATOM      4  C4  IND d   1       0.334   1.228  -0.284  0.00  0.00     0.051 A 
ATOM      5  C5  IND d   1      -0.895   0.794   0.125  0.00  0.00    -0.031 A 
ATOM      6  C6  IND d   1      -1.228  -0.546   0.140  0.00  0.00     0.015 A 
ATOM      7  C7  IND d   1      -0.335  -1.505  -0.244  0.00  0.00    -0.016 A 
ATOM      8  C8  IND d   1       0.912  -1.068  -0.667  0.00  0.00    -0.047 A 
ATOM      9  C9  IND d   1       1.241   0.293  -0.725  0.00  0.00    -0.096 A 
ATOM     10  HN1 IND d   1       2.054  -2.628  -1.200  0.00  0.00     0.298 HD
ENDROOT
TORSDOF 0
ENDMDL
