MODEL 1
REMARK minimizedAffinity -3.77571225
REMARK minimizedRMSD -1
REMARK  0 active torsions:
REMARK  status: ('A' for Active; 'I' for Inactive)
ROOT
ATOM      1  N1  IND d   1       1.886  -1.946  -1.282  0.00  0.00    -0.196 N 
ATOM      2  C2  IND d   1       2.883  -1.274  -1.934  0.00  0.00     0.054 A 
ATOM      3  C3  IND d   1       2.616   0.050  -1.965  0.00  0.00    -0.031 A 
ATOM      4  C4  IND d   1       0.652   1.347  -0.920  0.00  0.00     0.051 A 
ATOM      5  C5  IND d   1      -0.528   1.164  -0.257  0.00  0.00    -0.031 A 
ATOM      6  C6  IND d   1      -0.972  -0.090   0.108  0.00  0.00     0.015 A 
ATOM      7  C7  IND d   1      -0.243  -1.212  -0.168  0.00  0.00    -0.016 A 
ATOM      8  C8  IND d   1       0.953  -1.031  -0.847  0.00  0.00    -0.047 A 
ATOM      9  C9  IND d   1       1.388   0.236  -1.258  0.00  0.00    -0.096 A 
ATOM     10  HN1 IND d   1       1.849  -2.797  -1.164  0.00  0.00     0.298 HD
ENDROOT
TORSDOF 0
ENDMDL
