MODEL 1
REMARK minimizedAffinity -4.98631382
REMARK minimizedRMSD -1
REMARK  0 active torsions:
REMARK  status: ('A' for Active; 'I' for Inactive)
ROOT
ATOM      1  N1  IND d   1      -0.535   0.548   0.226  0.00  0.00    -0.196 N 
ATOM      2  C2  IND d   1      -1.324  -0.568   0.261  0.00  0.00     0.054 A 
ATOM      3  C3  IND d   1      -0.691  -1.610  -0.323  0.00  0.00    -0.031 A 
ATOM      4  C4  IND d   1       1.681  -1.735  -1.315  0.00  0.00     0.051 A 
ATOM      5  C5  IND d   1       2.768  -0.961  -1.608  0.00  0.00    -0.031 A 
ATOM      6  C6  IND d   1       2.812   0.383  -1.297  0.00  0.00     0.015 A 
ATOM      7  C7  IND d   1       1.769   1.002  -0.667  0.00  0.00    -0.016 A 
ATOM      8  C8  IND d   1       0.661   0.221  -0.374  0.00  0.00    -0.047 A 
ATOM      9  C9  IND d   1       0.594  -1.134  -0.726  0.00  0.00    -0.096 A 
ATOM     10  HN1 IND d   1      -0.750   1.325   0.527  0.00  0.00     0.298 HD
ENDROOT
TORSDOF 0
ENDMDL
