MODEL 1
REMARK minimizedAffinity -3.87942958
REMARK minimizedRMSD -1
REMARK  0 active torsions:
REMARK  status: ('A' for Active; 'I' for Inactive)
ROOT
ATOM      1  N1  IND d   1       2.074  -1.532  -1.709  0.00  0.00    -0.196 N 
ATOM      2  C2  IND d   1       3.217  -0.782  -1.705  0.00  0.00     0.054 A 
ATOM      3  C3  IND d   1       3.076   0.287  -0.889  0.00  0.00    -0.031 A 
ATOM      4  C4  IND d   1       1.093   0.945   0.614  0.00  0.00     0.051 A 
ATOM      5  C5  IND d   1      -0.190   0.589   0.923  0.00  0.00    -0.031 A 
ATOM      6  C6  IND d   1      -0.795  -0.516   0.360  0.00  0.00     0.015 A 
ATOM      7  C7  IND d   1      -0.133  -1.317  -0.527  0.00  0.00    -0.016 A 
ATOM      8  C8  IND d   1       1.168  -0.954  -0.847  0.00  0.00    -0.047 A 
ATOM      9  C9  IND d   1       1.772   0.191  -0.312  0.00  0.00    -0.096 A 
ATOM     10  HN1 IND d   1       1.944  -2.245  -2.171  0.00  0.00     0.298 HD
ENDROOT
TORSDOF 0
ENDMDL
