MODEL 1
REMARK minimizedAffinity -2.21275496
REMARK minimizedRMSD -1
REMARK  0 active torsions:
REMARK  status: ('A' for Active; 'I' for Inactive)
ROOT
ATOM      1  N1  IND d   1       2.758  -0.014  -0.792  0.00  0.00    -0.196 N 
ATOM      2  C2  IND d   1       2.996  -1.060  -1.640  0.00  0.00     0.054 A 
ATOM      3  C3  IND d   1       1.845  -1.714  -1.914  0.00  0.00    -0.031 A 
ATOM      4  C4  IND d   1      -0.559  -1.181  -1.163  0.00  0.00     0.051 A 
ATOM      5  C5  IND d   1      -1.274  -0.344  -0.353  0.00  0.00    -0.031 A 
ATOM      6  C6  IND d   1      -0.670   0.668   0.364  0.00  0.00     0.015 A 
ATOM      7  C7  IND d   1       0.677   0.889   0.289  0.00  0.00    -0.016 A 
ATOM      8  C8  IND d   1       1.407   0.036  -0.527  0.00  0.00    -0.047 A 
ATOM      9  C9  IND d   1       0.805  -1.019  -1.224  0.00  0.00    -0.096 A 
ATOM     10  HN1 IND d   1       3.352   0.522  -0.477  0.00  0.00     0.298 HD
ENDROOT
TORSDOF 0
ENDMDL
