MODEL 1
REMARK minimizedAffinity -3.90267181
REMARK minimizedRMSD -1
REMARK  0 active torsions:
REMARK  status: ('A' for Active; 'I' for Inactive)
ROOT
ATOM      1  N1  IND d   1       2.313   0.551  -1.750  0.00  0.00    -0.196 N 
ATOM      2  C2  IND d   1       3.151  -0.513  -1.566  0.00  0.00     0.054 A 
ATOM      3  C3  IND d   1       2.539  -1.474  -0.837  0.00  0.00    -0.031 A 
ATOM      4  C4  IND d   1       0.131  -1.553   0.069  0.00  0.00     0.051 A 
ATOM      5  C5  IND d   1      -1.002  -0.798   0.186  0.00  0.00    -0.031 A 
ATOM      6  C6  IND d   1      -1.090   0.471  -0.351  0.00  0.00     0.015 A 
ATOM      7  C7  IND d   1      -0.049   1.028  -1.036  0.00  0.00    -0.016 A 
ATOM      8  C8  IND d   1       1.106   0.267  -1.150  0.00  0.00    -0.047 A 
ATOM      9  C9  IND d   1       1.217  -1.004  -0.571  0.00  0.00    -0.096 A 
ATOM     10  HN1 IND d   1       2.507   1.275  -2.170  0.00  0.00     0.298 HD
ENDROOT
TORSDOF 0
ENDMDL
