MODEL 1
REMARK minimizedAffinity -3.79892111
REMARK minimizedRMSD -1
REMARK  0 active torsions:
REMARK  status: ('A' for Active; 'I' for Inactive)
ROOT
ATOM      1  N1  IND d   1       2.394  -1.863  -1.077  0.00  0.00    -0.196 N 
ATOM      2  C2  IND d   1       3.103  -0.799  -1.561  0.00  0.00     0.054 A 
ATOM      3  C3  IND d   1       2.388   0.341  -1.433  0.00  0.00    -0.031 A 
ATOM      4  C4  IND d   1       0.075   0.709  -0.364  0.00  0.00     0.051 A 
ATOM      5  C5  IND d   1      -0.978   0.032   0.184  0.00  0.00    -0.031 A 
ATOM      6  C6  IND d   1      -0.960  -1.338   0.346  0.00  0.00     0.015 A 
ATOM      7  C7  IND d   1       0.122  -2.085  -0.025  0.00  0.00    -0.016 A 
ATOM      8  C8  IND d   1       1.191  -1.402  -0.589  0.00  0.00    -0.047 A 
ATOM      9  C9  IND d   1       1.161  -0.017  -0.795  0.00  0.00    -0.096 A 
ATOM     10  HN1 IND d   1       2.656  -2.682  -1.076  0.00  0.00     0.298 HD
ENDROOT
TORSDOF 0
ENDMDL
