MODEL 1
REMARK minimizedAffinity -4.58294249
REMARK minimizedRMSD -1
REMARK  0 active torsions:
REMARK  status: ('A' for Active; 'I' for Inactive)
ROOT
ATOM      1  N1  IND d   1       1.919   1.200  -1.017  0.00  0.00    -0.196 N 
ATOM      2  C2  IND d   1       3.169   0.650  -1.084  0.00  0.00     0.054 A 
ATOM      3  C3  IND d   1       3.104  -0.689  -0.909  0.00  0.00    -0.031 A 
ATOM      4  C4  IND d   1       1.042  -2.199  -0.600  0.00  0.00     0.051 A 
ATOM      5  C5  IND d   1      -0.314  -2.151  -0.436  0.00  0.00    -0.031 A 
ATOM      6  C6  IND d   1      -1.009  -0.959  -0.461  0.00  0.00     0.015 A 
ATOM      7  C7  IND d   1      -0.373   0.233  -0.663  0.00  0.00    -0.016 A 
ATOM      8  C8  IND d   1       1.005   0.188  -0.822  0.00  0.00    -0.047 A 
ATOM      9  C9  IND d   1       1.721  -1.014  -0.755  0.00  0.00    -0.096 A 
ATOM     10  HN1 IND d   1       1.735   2.037  -1.085  0.00  0.00     0.298 HD
ENDROOT
TORSDOF 0
ENDMDL
