MODEL 1
REMARK minimizedAffinity -3.6643362
REMARK minimizedRMSD -1
REMARK  0 active torsions:
REMARK  status: ('A' for Active; 'I' for Inactive)
ROOT
ATOM      1  N1  IND d   1       0.942  -1.624   0.440  0.00  0.00    -0.196 N 
ATOM      2  C2  IND d   1       1.883  -1.723  -0.547  0.00  0.00     0.054 A 
ATOM      3  C3  IND d   1       1.688  -0.764  -1.480  0.00  0.00    -0.031 A 
ATOM      4  C4  IND d   1      -0.049   1.135  -1.537  0.00  0.00     0.051 A 
ATOM      5  C5  IND d   1      -1.143   1.614  -0.873  0.00  0.00    -0.031 A 
ATOM      6  C6  IND d   1      -1.606   1.028   0.288  0.00  0.00     0.015 A 
ATOM      7  C7  IND d   1      -0.982  -0.057   0.836  0.00  0.00    -0.016 A 
ATOM      8  C8  IND d   1       0.125  -0.550   0.161  0.00  0.00    -0.047 A 
ATOM      9  C9  IND d   1       0.574   0.014  -1.040  0.00  0.00    -0.096 A 
ATOM     10  HN1 IND d   1       0.873  -2.144   1.121  0.00  0.00     0.298 HD
ENDROOT
TORSDOF 0
ENDMDL
