MODEL 1
REMARK minimizedAffinity -4.18008566
REMARK minimizedRMSD -1
REMARK  0 active torsions:
REMARK  status: ('A' for Active; 'I' for Inactive)
ROOT
ATOM      1  N1  IND d   1      -0.526   1.446   2.870  0.00  0.00    -0.196 N 
ATOM      2  C2  IND d   1      -1.848   1.253   3.162  0.00  0.00     0.054 A 
ATOM      3  C3  IND d   1      -2.459   0.588   2.156  0.00  0.00    -0.031 A 
ATOM      4  C4  IND d   1      -1.461  -0.369  -0.016  0.00  0.00     0.051 A 
ATOM      5  C5  IND d   1      -0.304  -0.412  -0.742  0.00  0.00    -0.031 A 
ATOM      6  C6  IND d   1       0.863   0.172  -0.291  0.00  0.00     0.015 A 
ATOM      7  C7  IND d   1       0.918   0.813   0.914  0.00  0.00    -0.016 A 
ATOM      8  C8  IND d   1      -0.256   0.865   1.651  0.00  0.00    -0.047 A 
ATOM      9  C9  IND d   1      -1.454   0.311   1.179  0.00  0.00    -0.096 A 
ATOM     10  HN1 IND d   1       0.041   1.861   3.365  0.00  0.00     0.298 HD
ENDROOT
TORSDOF 0
ENDMDL
