MODEL 1
REMARK minimizedAffinity -3.58558345
REMARK minimizedRMSD -1
REMARK  0 active torsions:
REMARK  status: ('A' for Active; 'I' for Inactive)
ROOT
ATOM      1  C   UNL d   1       1.121  -0.670   2.302  0.00  0.00     0.172 C 
ATOM      2  N   UNL d   1       0.629  -0.436   0.965  0.00  0.00    -0.070 N 
ATOM      3  C1  UNL d   1       1.320  -0.672  -0.193  0.00  0.00    -0.004 A 
ATOM      4  C2  UNL d   1       0.507  -0.321  -1.249  0.00  0.00    -0.047 A 
ATOM      5  C3  UNL d   1      -0.715   0.143  -0.707  0.00  0.00    -0.047 A 
ATOM      6  C4  UNL d   1      -0.612   0.061   0.666  0.00  0.00    -0.004 A 
ENDROOT
TORSDOF 0
ENDMDL
