MODEL 1
REMARK minimizedAffinity -3.2343967
REMARK minimizedRMSD -1
REMARK  0 active torsions:
REMARK  status: ('A' for Active; 'I' for Inactive)
ROOT
ATOM      1  C   UNL d   1      -0.099   0.648  -1.371  0.00  0.00     0.172 C 
ATOM      2  N   UNL d   1       0.042   0.029  -0.074  0.00  0.00    -0.070 N 
ATOM      3  C1  UNL d   1       0.985  -0.903   0.268  0.00  0.00    -0.004 A 
ATOM      4  C2  UNL d   1       0.785  -1.241   1.589  0.00  0.00    -0.047 A 
ATOM      5  C3  UNL d   1      -0.317  -0.487   2.057  0.00  0.00    -0.047 A 
ATOM      6  C4  UNL d   1      -0.758   0.291   1.007  0.00  0.00    -0.004 A 
ENDROOT
TORSDOF 0
ENDMDL
