MODEL 1
REMARK minimizedAffinity -0.290640086
REMARK minimizedRMSD -1
REMARK  0 active torsions:
REMARK  status: ('A' for Active; 'I' for Inactive)
ROOT
ATOM      1  C   UNL d   1      -0.349  -0.266  -0.760  0.00  0.00     0.172 C 
ATOM      2  N   UNL d   1      -0.286  -0.691   0.619  0.00  0.00    -0.070 N 
ATOM      3  C1  UNL d   1      -0.899  -0.070   1.674  0.00  0.00    -0.004 A 
ATOM      4  C2  UNL d   1      -0.596  -0.782   2.815  0.00  0.00    -0.047 A 
ATOM      5  C3  UNL d   1       0.227  -1.867   2.432  0.00  0.00    -0.047 A 
ATOM      6  C4  UNL d   1       0.403  -1.787   1.067  0.00  0.00    -0.004 A 
ENDROOT
TORSDOF 0
ENDMDL
