MODEL 1
REMARK minimizedAffinity -3.36346269
REMARK minimizedRMSD -1
REMARK  0 active torsions:
REMARK  status: ('A' for Active; 'I' for Inactive)
ROOT
ATOM      1  C   UNL d   1       0.283   0.461  -0.967  0.00  0.00     0.172 C 
ATOM      2  N   UNL d   1       0.725  -0.390   0.113  0.00  0.00    -0.070 N 
ATOM      3  C1  UNL d   1       0.139  -0.484   1.347  0.00  0.00    -0.004 A 
ATOM      4  C2  UNL d   1       0.855  -1.401   2.086  0.00  0.00    -0.047 A 
ATOM      5  C3  UNL d   1       1.910  -1.872   1.268  0.00  0.00    -0.047 A 
ATOM      6  C4  UNL d   1       1.806  -1.230   0.052  0.00  0.00    -0.004 A 
ENDROOT
TORSDOF 0
ENDMDL
