MODEL 1
REMARK minimizedAffinity -0.412266165
REMARK minimizedRMSD -1
REMARK  0 active torsions:
REMARK  status: ('A' for Active; 'I' for Inactive)
ROOT
ATOM      1  C   UNL d   1      -2.952   0.772  -2.983  0.00  0.00     0.172 C 
ATOM      2  N   UNL d   1      -2.357   2.088  -2.981  0.00  0.00    -0.070 N 
ATOM      3  C1  UNL d   1      -3.023   3.265  -2.769  0.00  0.00    -0.004 A 
ATOM      4  C2  UNL d   1      -2.105   4.290  -2.847  0.00  0.00    -0.047 A 
ATOM      5  C3  UNL d   1      -0.844   3.709  -3.117  0.00  0.00    -0.047 A 
ATOM      6  C4  UNL d   1      -1.028   2.345  -3.196  0.00  0.00    -0.004 A 
ENDROOT
TORSDOF 0
ENDMDL
