MODEL 1
REMARK minimizedAffinity -2.42096257
REMARK minimizedRMSD -1
REMARK  0 active torsions:
REMARK  status: ('A' for Active; 'I' for Inactive)
ROOT
ATOM      1  C   UNL d   1       2.381  -1.140   0.234  0.00  0.00     0.172 C 
ATOM      2  N   UNL d   1       1.236  -0.372  -0.194  0.00  0.00    -0.070 N 
ATOM      3  C1  UNL d   1       0.611  -0.480  -1.408  0.00  0.00    -0.004 A 
ATOM      4  C2  UNL d   1      -0.433   0.420  -1.426  0.00  0.00    -0.047 A 
ATOM      5  C3  UNL d   1      -0.435   1.092  -0.181  0.00  0.00    -0.047 A 
ATOM      6  C4  UNL d   1       0.609   0.583   0.562  0.00  0.00    -0.004 A 
ENDROOT
TORSDOF 0
ENDMDL
