MODEL 1
REMARK minimizedAffinity -1.99926579
REMARK minimizedRMSD -1
REMARK  0 active torsions:
REMARK  status: ('A' for Active; 'I' for Inactive)
ROOT
ATOM      1  C   UNL d   1      -0.699   2.814  -2.327  0.00  0.00     0.172 C 
ATOM      2  N   UNL d   1      -0.559   1.682  -1.442  0.00  0.00    -0.070 N 
ATOM      3  C1  UNL d   1      -0.492   1.741  -0.075  0.00  0.00    -0.004 A 
ATOM      4  C2  UNL d   1      -0.362   0.453   0.397  0.00  0.00    -0.047 A 
ATOM      5  C3  UNL d   1      -0.349  -0.410  -0.725  0.00  0.00    -0.047 A 
ATOM      6  C4  UNL d   1      -0.473   0.378  -1.850  0.00  0.00    -0.004 A 
ENDROOT
TORSDOF 0
ENDMDL
