MODEL 1
REMARK minimizedAffinity -3.8689096
REMARK minimizedRMSD -1
REMARK  0 active torsions:
REMARK  status: ('A' for Active; 'I' for Inactive)
ROOT
ATOM      1  C   UNL d   1      -0.371   0.869  -0.832  0.00  0.00     0.172 C 
ATOM      2  N   UNL d   1      -0.109   0.303   0.471  0.00  0.00    -0.070 N 
ATOM      3  C1  UNL d   1      -1.050  -0.209   1.323  0.00  0.00    -0.004 A 
ATOM      4  C2  UNL d   1      -0.400  -0.648   2.456  0.00  0.00    -0.047 A 
ATOM      5  C3  UNL d   1       0.980  -0.390   2.279  0.00  0.00    -0.047 A 
ATOM      6  C4  UNL d   1       1.132   0.199   1.041  0.00  0.00    -0.004 A 
ENDROOT
TORSDOF 0
ENDMDL
