MODEL 1
REMARK minimizedAffinity -3.74069095
REMARK minimizedRMSD -1
REMARK  0 active torsions:
REMARK  status: ('A' for Active; 'I' for Inactive)
ROOT
ATOM      1  C   UNL d   1      -0.170   0.299  -1.033  0.00  0.00     0.172 C 
ATOM      2  N   UNL d   1       0.138  -0.085   0.324  0.00  0.00    -0.070 N 
ATOM      3  C1  UNL d   1      -0.768  -0.214   1.343  0.00  0.00    -0.004 A 
ATOM      4  C2  UNL d   1      -0.080  -0.596   2.474  0.00  0.00    -0.047 A 
ATOM      5  C3  UNL d   1       1.287  -0.699   2.124  0.00  0.00    -0.047 A 
ATOM      6  C4  UNL d   1       1.393  -0.378   0.787  0.00  0.00    -0.004 A 
ENDROOT
TORSDOF 0
ENDMDL
