MODEL 1
REMARK minimizedAffinity -0.93249464
REMARK minimizedRMSD -1
REMARK  0 active torsions:
REMARK  status: ('A' for Active; 'I' for Inactive)
ROOT
ATOM      1  C   UNL d   1       0.181  -1.383   2.393  0.00  0.00     0.172 C 
ATOM      2  N   UNL d   1      -0.002  -0.700   1.134  0.00  0.00    -0.070 N 
ATOM      3  C1  UNL d   1       0.989  -0.395   0.240  0.00  0.00    -0.004 A 
ATOM      4  C2  UNL d   1       0.408   0.253  -0.829  0.00  0.00    -0.047 A 
ATOM      5  C3  UNL d   1      -0.980   0.340  -0.568  0.00  0.00    -0.047 A 
ATOM      6  C4  UNL d   1      -1.206  -0.258   0.654  0.00  0.00    -0.004 A 
ENDROOT
TORSDOF 0
ENDMDL
