MODEL 1
REMARK minimizedAffinity 7.13929605
REMARK minimizedRMSD -1
REMARK  1 active torsions:
REMARK  status: ('A' for Active; 'I' for Inactive)
REMARK    1  A    between atoms: C1_2  and  C2_3 
ROOT
ATOM      1  C2  UNL d   1      -2.220  -0.018   2.000  0.00  0.00    -0.077 A 
ATOM      2  C3  UNL d   1      -0.868  -0.172   2.339  0.00  0.00     0.002 A 
ATOM      3  C4  UNL d   1      -0.490  -1.051   3.355  0.00  0.00     0.002 A 
ATOM      4  C5  UNL d   1      -1.457  -1.787   4.037  0.00  0.00    -0.004 A 
ATOM      5  C6  UNL d   1      -2.804  -1.640   3.709  0.00  0.00     0.002 A 
ATOM      6  C7  UNL d   1      -3.183  -0.761   2.694  0.00  0.00     0.002 A 
ENDROOT
BRANCH   1   7
ATOM      7  C1  UNL d   1      -2.625   0.893   0.871  0.00  0.00     0.055 C 
ATOM      8  C   UNL d   1      -2.132   0.366  -0.470  0.00  0.00     0.019 C 
ENDBRANCH   1   7
TORSDOF 1
ENDMDL
