MODEL 1
REMARK minimizedAffinity 12.2848625
REMARK minimizedRMSD -1
REMARK  1 active torsions:
REMARK  status: ('A' for Active; 'I' for Inactive)
REMARK    1  A    between atoms: C1_2  and  C2_3 
ROOT
ATOM      1  C2  UNL d   1      -1.825   0.130   2.008  0.00  0.00    -0.077 A 
ATOM      2  C3  UNL d   1      -3.063   0.530   1.486  0.00  0.00     0.002 A 
ATOM      3  C4  UNL d   1      -3.252   0.621   0.106  0.00  0.00     0.002 A 
ATOM      4  C5  UNL d   1      -2.208   0.309  -0.763  0.00  0.00    -0.004 A 
ATOM      5  C6  UNL d   1      -0.972  -0.087  -0.254  0.00  0.00     0.002 A 
ATOM      6  C7  UNL d   1      -0.782  -0.177   1.125  0.00  0.00     0.002 A 
ENDROOT
BRANCH   1   7
ATOM      7  C1  UNL d   1      -1.635  -0.016   3.495  0.00  0.00     0.055 C 
ATOM      8  C   UNL d   1      -0.954  -1.333   3.840  0.00  0.00     0.019 C 
ENDBRANCH   1   7
TORSDOF 1
ENDMDL
