MODEL 1
REMARK minimizedAffinity -1.05597675
REMARK minimizedRMSD -1
REMARK  1 active torsions:
REMARK  status: ('A' for Active; 'I' for Inactive)
REMARK    1  A    between atoms: C1_2  and  C2_3 
ROOT
ATOM      1  C2  UNL d   1      -1.691  -0.412   1.638  0.00  0.00    -0.077 A 
ATOM      2  C3  UNL d   1      -0.305  -0.255   1.774  0.00  0.00     0.002 A 
ATOM      3  C4  UNL d   1       0.534  -0.399   0.667  0.00  0.00     0.002 A 
ATOM      4  C5  UNL d   1      -0.004  -0.695  -0.583  0.00  0.00    -0.004 A 
ATOM      5  C6  UNL d   1      -1.381  -0.855  -0.729  0.00  0.00     0.002 A 
ATOM      6  C7  UNL d   1      -2.222  -0.713   0.377  0.00  0.00     0.002 A 
ENDROOT
BRANCH   1   7
ATOM      7  C1  UNL d   1      -2.602  -0.209   2.820  0.00  0.00     0.055 C 
ATOM      8  C   UNL d   1      -2.107  -0.975   4.039  0.00  0.00     0.019 C 
ENDBRANCH   1   7
TORSDOF 1
ENDMDL
