MODEL 1
REMARK minimizedAffinity -0.940747678
REMARK minimizedRMSD -1
REMARK  1 active torsions:
REMARK  status: ('A' for Active; 'I' for Inactive)
REMARK    1  A    between atoms: C1_2  and  C2_3 
ROOT
ATOM      1  C2  UNL d   1      -2.197  -0.225   1.558  0.00  0.00    -0.077 A 
ATOM      2  C3  UNL d   1      -2.911  -0.719   0.458  0.00  0.00     0.002 A 
ATOM      3  C4  UNL d   1      -2.269  -0.928  -0.765  0.00  0.00     0.002 A 
ATOM      4  C5  UNL d   1      -0.910  -0.650  -0.896  0.00  0.00    -0.004 A 
ATOM      5  C6  UNL d   1      -0.191  -0.157   0.192  0.00  0.00     0.002 A 
ATOM      6  C7  UNL d   1      -0.831   0.053   1.414  0.00  0.00     0.002 A 
ENDROOT
BRANCH   1   7
ATOM      7  C1  UNL d   1      -2.876  -0.046   2.891  0.00  0.00     0.055 C 
ATOM      8  C   UNL d   1      -3.116  -1.384   3.575  0.00  0.00     0.019 C 
ENDBRANCH   1   7
TORSDOF 1
ENDMDL
