MODEL 1
REMARK minimizedAffinity 12.1193123
REMARK minimizedRMSD -1
REMARK  0 active torsions:
REMARK  status: ('A' for Active; 'I' for Inactive)
ROOT
ATOM      1  C4' PXY d   1      -1.357   2.939  -2.514  0.00  0.00     0.077 C 
ATOM      2  C1' PXY d   1       0.751   1.893   2.766  0.00  0.00     0.077 C 
ATOM      3  C1  PXY d   1       0.201   2.180   1.382  0.00  0.00    -0.082 A 
ATOM      4  C2  PXY d   1      -0.686   1.356   0.847  0.00  0.00     0.003 A 
ATOM      5  C3  PXY d   1      -1.170   1.583  -0.416  0.00  0.00     0.003 A 
ATOM      6  C4  PXY d   1      -0.782   2.693  -1.117  0.00  0.00    -0.082 A 
ATOM      7  C5  PXY d   1       0.114   3.544  -0.573  0.00  0.00     0.003 A 
ATOM      8  C6  PXY d   1       0.625   3.274   0.693  0.00  0.00     0.003 A 
ENDROOT
TORSDOF 0
ENDMDL
