MODEL 1
REMARK minimizedAffinity 3.22868562
REMARK minimizedRMSD -1
REMARK  0 active torsions:
REMARK  status: ('A' for Active; 'I' for Inactive)
ROOT
ATOM      1  C4' PXY d   1      -3.828  -0.017   1.677  0.00  0.00     0.077 C 
ATOM      2  C1' PXY d   1      -5.996  -3.332   5.888  0.00  0.00     0.077 C 
ATOM      3  C1  PXY d   1      -5.416  -2.468   4.785  0.00  0.00    -0.082 A 
ATOM      4  C2  PXY d   1      -6.000  -1.322   4.477  0.00  0.00     0.003 A 
ATOM      5  C3  PXY d   1      -5.507  -0.544   3.461  0.00  0.00     0.003 A 
ATOM      6  C4  PXY d   1      -4.374  -0.917   2.790  0.00  0.00    -0.082 A 
ATOM      7  C5  PXY d   1      -3.766  -2.080   3.106  0.00  0.00     0.003 A 
ATOM      8  C6  PXY d   1      -4.306  -2.876   4.112  0.00  0.00     0.003 A 
ENDROOT
TORSDOF 0
ENDMDL
