MODEL 1
REMARK minimizedAffinity -0.613185406
REMARK minimizedRMSD -1
REMARK  0 active torsions:
REMARK  status: ('A' for Active; 'I' for Inactive)
ROOT
ATOM      1  C4' PXY d   1       0.398  -3.717  -5.894  0.00  0.00     0.077 C 
ATOM      2  C1' PXY d   1      -5.042  -5.671  -5.954  0.00  0.00     0.077 C 
ATOM      3  C1  PXY d   1      -3.619  -5.148  -5.944  0.00  0.00    -0.082 A 
ATOM      4  C2  PXY d   1      -2.609  -6.000  -5.873  0.00  0.00     0.003 A 
ATOM      5  C3  PXY d   1      -1.317  -5.542  -5.830  0.00  0.00     0.003 A 
ATOM      6  C4  PXY d   1      -1.054  -4.201  -5.916  0.00  0.00    -0.082 A 
ATOM      7  C5  PXY d   1      -2.079  -3.326  -6.000  0.00  0.00     0.003 A 
ATOM      8  C6  PXY d   1      -3.384  -3.808  -6.000  0.00  0.00     0.003 A 
ENDROOT
TORSDOF 0
ENDMDL
