MODEL 1
REMARK minimizedAffinity 3.28042054
REMARK minimizedRMSD -1
REMARK  0 active torsions:
REMARK  status: ('A' for Active; 'I' for Inactive)
ROOT
ATOM      1  C4' PXY d   1       0.246   5.368  -4.354  0.00  0.00     0.077 C 
ATOM      2  C1' PXY d   1      -4.819   3.489  -2.300  0.00  0.00     0.077 C 
ATOM      3  C1  PXY d   1      -3.491   3.991  -2.830  0.00  0.00    -0.082 A 
ATOM      4  C2  PXY d   1      -3.123   3.691  -4.065  0.00  0.00     0.003 A 
ATOM      5  C3  PXY d   1      -1.911   4.110  -4.549  0.00  0.00     0.003 A 
ATOM      6  C4  PXY d   1      -1.090   4.890  -3.780  0.00  0.00    -0.082 A 
ATOM      7  C5  PXY d   1      -1.463   5.210  -2.523  0.00  0.00     0.003 A 
ATOM      8  C6  PXY d   1      -2.679   4.740  -2.035  0.00  0.00     0.003 A 
ENDROOT
TORSDOF 0
ENDMDL
