MODEL 1
REMARK minimizedAffinity 10.3022661
REMARK minimizedRMSD -1
REMARK  0 active torsions:
REMARK  status: ('A' for Active; 'I' for Inactive)
ROOT
ATOM      1  C4' PXY d   1      -3.750   1.497  -1.932  0.00  0.00     0.077 C 
ATOM      2  C1' PXY d   1      -0.491   6.000  -3.519  0.00  0.00     0.077 C 
ATOM      3  C1  PXY d   1      -1.335   4.812  -3.102  0.00  0.00    -0.082 A 
ATOM      4  C2  PXY d   1      -2.613   4.764  -3.443  0.00  0.00     0.003 A 
ATOM      5  C3  PXY d   1      -3.398   3.713  -3.047  0.00  0.00     0.003 A 
ATOM      6  C4  PXY d   1      -2.858   2.673  -2.339  0.00  0.00    -0.082 A 
ATOM      7  C5  PXY d   1      -1.553   2.708  -1.996  0.00  0.00     0.003 A 
ATOM      8  C6  PXY d   1      -0.782   3.805  -2.373  0.00  0.00     0.003 A 
ENDROOT
TORSDOF 0
ENDMDL
