MODEL 1
REMARK minimizedAffinity 0.370487928
REMARK minimizedRMSD -1
REMARK  0 active torsions:
REMARK  status: ('A' for Active; 'I' for Inactive)
ROOT
ATOM      1  C4' PXY d   1      -5.945  -4.517   5.999  0.00  0.00     0.077 C 
ATOM      2  C1' PXY d   1      -5.836  -0.606   1.743  0.00  0.00     0.077 C 
ATOM      3  C1  PXY d   1      -5.860  -1.623   2.868  0.00  0.00    -0.082 A 
ATOM      4  C2  PXY d   1      -5.775  -2.912   2.585  0.00  0.00     0.003 A 
ATOM      5  C3  PXY d   1      -5.828  -3.847   3.588  0.00  0.00     0.003 A 
ATOM      6  C4  PXY d   1      -5.915  -3.455   4.896  0.00  0.00    -0.082 A 
ATOM      7  C5  PXY d   1      -5.991  -2.140   5.193  0.00  0.00     0.003 A 
ATOM      8  C6  PXY d   1      -5.978  -1.209   4.159  0.00  0.00     0.003 A 
ENDROOT
TORSDOF 0
ENDMDL
