MODEL 1
REMARK minimizedAffinity -1.8967638
REMARK minimizedRMSD -1
REMARK  0 active torsions:
REMARK  status: ('A' for Active; 'I' for Inactive)
ROOT
ATOM      1  C4' PXY d   1      -5.879  -5.861  -5.991  0.00  0.00     0.077 C 
ATOM      2  C1' PXY d   1      -0.720  -3.254  -5.976  0.00  0.00     0.077 C 
ATOM      3  C1  PXY d   1      -2.079  -3.927  -5.975  0.00  0.00    -0.082 A 
ATOM      4  C2  PXY d   1      -2.154  -5.248  -5.959  0.00  0.00     0.003 A 
ATOM      5  C3  PXY d   1      -3.374  -5.873  -5.990  0.00  0.00     0.003 A 
ATOM      6  C4  PXY d   1      -4.529  -5.139  -5.983  0.00  0.00    -0.082 A 
ATOM      7  C5  PXY d   1      -4.461  -3.790  -5.988  0.00  0.00     0.003 A 
ATOM      8  C6  PXY d   1      -3.212  -3.175  -5.999  0.00  0.00     0.003 A 
ENDROOT
TORSDOF 0
ENDMDL
