MODEL 1
REMARK minimizedAffinity 9.99153233
REMARK minimizedRMSD -1
REMARK  0 active torsions:
REMARK  status: ('A' for Active; 'I' for Inactive)
ROOT
ATOM      1  C4' PXY d   1      -0.797   4.174  -3.600  0.00  0.00     0.077 C 
ATOM      2  C1' PXY d   1       0.574   1.942   1.553  0.00  0.00     0.077 C 
ATOM      3  C1  PXY d   1       0.217   2.516   0.196  0.00  0.00    -0.082 A 
ATOM      4  C2  PXY d   1       0.300   3.821  -0.005  0.00  0.00     0.003 A 
ATOM      5  C3  PXY d   1      -0.049   4.360  -1.216  0.00  0.00     0.003 A 
ATOM      6  C4  PXY d   1      -0.437   3.550  -2.249  0.00  0.00    -0.082 A 
ATOM      7  C5  PXY d   1      -0.515   2.216  -2.056  0.00  0.00     0.003 A 
ATOM      8  C6  PXY d   1      -0.195   1.692  -0.806  0.00  0.00     0.003 A 
ENDROOT
TORSDOF 0
ENDMDL
