MODEL 1
REMARK minimizedAffinity 12.3001299
REMARK minimizedRMSD -1
REMARK  0 active torsions:
REMARK  status: ('A' for Active; 'I' for Inactive)
ROOT
ATOM      1  C4' PXY d   1      -3.374   2.949  -4.917  0.00  0.00     0.077 C 
ATOM      2  C1' PXY d   1      -0.147   5.550  -0.887  0.00  0.00     0.077 C 
ATOM      3  C1  PXY d   1      -0.983   4.867  -1.951  0.00  0.00    -0.082 A 
ATOM      4  C2  PXY d   1      -2.291   5.062  -1.981  0.00  0.00     0.003 A 
ATOM      5  C3  PXY d   1      -3.066   4.427  -2.917  0.00  0.00     0.003 A 
ATOM      6  C4  PXY d   1      -2.490   3.626  -3.866  0.00  0.00    -0.082 A 
ATOM      7  C5  PXY d   1      -1.154   3.430  -3.849  0.00  0.00     0.003 A 
ATOM      8  C6  PXY d   1      -0.390   4.051  -2.865  0.00  0.00     0.003 A 
ENDROOT
TORSDOF 0
ENDMDL
