MODEL 1
REMARK minimizedAffinity 1.65683317
REMARK minimizedRMSD -1
REMARK  0 active torsions:
REMARK  status: ('A' for Active; 'I' for Inactive)
ROOT
ATOM      1  C4' PXY d   1      -5.259  -5.748  -5.995  0.00  0.00     0.077 C 
ATOM      2  C1' PXY d   1       0.005  -3.358  -5.974  0.00  0.00     0.077 C 
ATOM      3  C1  PXY d   1      -1.381  -3.974  -5.974  0.00  0.00    -0.082 A 
ATOM      4  C2  PXY d   1      -1.511  -5.290  -5.959  0.00  0.00     0.003 A 
ATOM      5  C3  PXY d   1      -2.756  -5.864  -5.991  0.00  0.00     0.003 A 
ATOM      6  C4  PXY d   1      -3.880  -5.082  -5.985  0.00  0.00    -0.082 A 
ATOM      7  C5  PXY d   1      -3.755  -3.738  -5.990  0.00  0.00     0.003 A 
ATOM      8  C6  PXY d   1      -2.482  -3.175  -5.999  0.00  0.00     0.003 A 
ENDROOT
TORSDOF 0
ENDMDL
