MODEL 1
REMARK minimizedAffinity -2.36196589
REMARK minimizedRMSD -1
REMARK  0 active torsions:
REMARK  status: ('A' for Active; 'I' for Inactive)
ROOT
ATOM      1  C   UNL d   1      -0.811  -0.515  -0.790  0.00  0.00     0.020 A 
ATOM      2  C1  UNL d   1      -1.687  -0.268   0.266  0.00  0.00     0.020 A 
ATOM      3  C2  UNL d   1      -1.216  -0.269   1.580  0.00  0.00     0.034 A 
ATOM      4  C3  UNL d   1       0.137  -0.517   1.842  0.00  0.00     0.017 A 
ATOM      5  C4  UNL d   1       1.016  -0.765   0.782  0.00  0.00     0.017 A 
ATOM      6  C5  UNL d   1       0.538  -0.763  -0.532  0.00  0.00     0.034 A 
ATOM      7 Cl   UNL d   1       2.698  -1.080   1.027  0.00  0.00    -0.070 Cl
ATOM      8 Cl1  UNL d   1       0.651  -0.502   3.492  0.00  0.00    -0.070 Cl
ENDROOT
TORSDOF 0
ENDMDL
