MODEL 1
REMARK minimizedAffinity -3.4325254
REMARK minimizedRMSD -1
REMARK  0 active torsions:
REMARK  status: ('A' for Active; 'I' for Inactive)
ROOT
ATOM      1  C   UNL d   1      -2.007   0.491   0.217  0.00  0.00     0.020 A 
ATOM      2  C1  UNL d   1      -1.084  -0.501  -0.111  0.00  0.00     0.020 A 
ATOM      3  C2  UNL d   1       0.001  -0.751   0.732  0.00  0.00     0.034 A 
ATOM      4  C3  UNL d   1       0.165  -0.010   1.907  0.00  0.00     0.017 A 
ATOM      5  C4  UNL d   1      -0.762   0.985   2.236  0.00  0.00     0.017 A 
ATOM      6  C5  UNL d   1      -1.847   1.232   1.389  0.00  0.00     0.034 A 
ATOM      7 Cl   UNL d   1      -0.627   1.941   3.670  0.00  0.00    -0.070 Cl
ATOM      8 Cl1  UNL d   1       1.530  -0.374   2.903  0.00  0.00    -0.070 Cl
ENDROOT
TORSDOF 0
ENDMDL
