MODEL 1
REMARK minimizedAffinity -2.63997912
REMARK minimizedRMSD -1
REMARK  0 active torsions:
REMARK  status: ('A' for Active; 'I' for Inactive)
ROOT
ATOM      1  C   UNL d   1      -0.819   1.010   1.279  0.00  0.00     0.020 A 
ATOM      2  C1  UNL d   1      -1.511   1.347   0.116  0.00  0.00     0.020 A 
ATOM      3  C2  UNL d   1      -1.059   0.887  -1.123  0.00  0.00     0.034 A 
ATOM      4  C3  UNL d   1       0.088   0.088  -1.202  0.00  0.00     0.017 A 
ATOM      5  C4  UNL d   1       0.781  -0.249  -0.034  0.00  0.00     0.017 A 
ATOM      6  C5  UNL d   1       0.324   0.214   1.204  0.00  0.00     0.034 A 
ATOM      7 Cl   UNL d   1       2.204  -1.230  -0.051  0.00  0.00    -0.070 Cl
ATOM      8 Cl1  UNL d   1       0.589  -0.445  -2.767  0.00  0.00    -0.070 Cl
ENDROOT
TORSDOF 0
ENDMDL
