MODEL 1
REMARK minimizedAffinity -0.363026679
REMARK minimizedRMSD -1
REMARK  0 active torsions:
REMARK  status: ('A' for Active; 'I' for Inactive)
ROOT
ATOM      1  C   UNL d   1       1.258  -0.401   3.638  0.00  0.00     0.020 A 
ATOM      2  C1  UNL d   1       2.215  -0.619   2.648  0.00  0.00     0.020 A 
ATOM      3  C2  UNL d   1       1.872  -0.480   1.302  0.00  0.00     0.034 A 
ATOM      4  C3  UNL d   1       0.567  -0.123   0.941  0.00  0.00     0.017 A 
ATOM      5  C4  UNL d   1      -0.393   0.095   1.936  0.00  0.00     0.017 A 
ATOM      6  C5  UNL d   1      -0.044  -0.045   3.282  0.00  0.00     0.034 A 
ATOM      7 Cl   UNL d   1      -2.023   0.538   1.569  0.00  0.00    -0.070 Cl
ATOM      8 Cl1  UNL d   1       0.213   0.031  -0.743  0.00  0.00    -0.070 Cl
ENDROOT
TORSDOF 0
ENDMDL
