MODEL 1
REMARK minimizedAffinity -1.3865639
REMARK minimizedRMSD -1
REMARK  0 active torsions:
REMARK  status: ('A' for Active; 'I' for Inactive)
ROOT
ATOM      1  C   UNL d   1      -0.830   0.874   2.990  0.00  0.00     0.020 A 
ATOM      2  C1  UNL d   1       0.406   0.242   2.867  0.00  0.00     0.020 A 
ATOM      3  C2  UNL d   1       0.778  -0.333   1.649  0.00  0.00     0.034 A 
ATOM      4  C3  UNL d   1      -0.087  -0.276   0.551  0.00  0.00     0.017 A 
ATOM      5  C4  UNL d   1      -1.328   0.359   0.676  0.00  0.00     0.017 A 
ATOM      6  C5  UNL d   1      -1.696   0.932   1.897  0.00  0.00     0.034 A 
ATOM      7 Cl   UNL d   1      -2.449   0.469  -0.635  0.00  0.00    -0.070 Cl
ATOM      8 Cl1  UNL d   1       0.438  -1.007  -0.924  0.00  0.00    -0.070 Cl
ENDROOT
TORSDOF 0
ENDMDL
