MODEL 1
REMARK minimizedAffinity -4.981071
REMARK minimizedRMSD -1
REMARK  0 active torsions:
REMARK  status: ('A' for Active; 'I' for Inactive)
ROOT
ATOM      1  C   UNL d   1      -1.519   0.213   0.162  0.00  0.00     0.020 A 
ATOM      2  C1  UNL d   1      -0.411  -0.490  -0.311  0.00  0.00     0.020 A 
ATOM      3  C2  UNL d   1       0.730  -0.611   0.485  0.00  0.00     0.034 A 
ATOM      4  C3  UNL d   1       0.767  -0.027   1.756  0.00  0.00     0.017 A 
ATOM      5  C4  UNL d   1      -0.345   0.679   2.229  0.00  0.00     0.017 A 
ATOM      6  C5  UNL d   1      -1.485   0.796   1.429  0.00  0.00     0.034 A 
ATOM      7 Cl   UNL d   1      -0.374   1.427   3.787  0.00  0.00    -0.070 Cl
ATOM      8 Cl1  UNL d   1       2.212  -0.216   2.685  0.00  0.00    -0.070 Cl
ENDROOT
TORSDOF 0
ENDMDL
