MODEL 1
REMARK minimizedAffinity -5.20226717
REMARK minimizedRMSD -1
REMARK  0 active torsions:
REMARK  status: ('A' for Active; 'I' for Inactive)
ROOT
ATOM      1  C   UNL d   1      -1.506   1.175   2.035  0.00  0.00     0.020 A 
ATOM      2  C1  UNL d   1      -0.694   0.832   3.116  0.00  0.00     0.020 A 
ATOM      3  C2  UNL d   1       0.470   0.090   2.905  0.00  0.00     0.034 A 
ATOM      4  C3  UNL d   1       0.826  -0.311   1.613  0.00  0.00     0.017 A 
ATOM      5  C4  UNL d   1       0.010   0.034   0.529  0.00  0.00     0.017 A 
ATOM      6  C5  UNL d   1      -1.155   0.777   0.745  0.00  0.00     0.034 A 
ATOM      7 Cl   UNL d   1       0.382  -0.425  -1.095  0.00  0.00    -0.070 Cl
ATOM      8 Cl1  UNL d   1       2.279  -1.227   1.426  0.00  0.00    -0.070 Cl
ENDROOT
TORSDOF 0
ENDMDL
