MODEL 1
REMARK minimizedAffinity -4.16774464
REMARK minimizedRMSD -1
REMARK  0 active torsions:
REMARK  status: ('A' for Active; 'I' for Inactive)
ROOT
ATOM      1  C   UNL d   1      -0.862  -0.153   2.880  0.00  0.00     0.020 A 
ATOM      2  C1  UNL d   1       0.434  -0.528   2.528  0.00  0.00     0.020 A 
ATOM      3  C2  UNL d   1       0.799  -0.600   1.182  0.00  0.00     0.034 A 
ATOM      4  C3  UNL d   1      -0.133  -0.297   0.183  0.00  0.00     0.017 A 
ATOM      5  C4  UNL d   1      -1.433   0.079   0.537  0.00  0.00     0.017 A 
ATOM      6  C5  UNL d   1      -1.794   0.150   1.886  0.00  0.00     0.034 A 
ATOM      7 Cl   UNL d   1      -2.638   0.468  -0.640  0.00  0.00    -0.070 Cl
ATOM      8 Cl1  UNL d   1       0.388  -0.407  -1.461  0.00  0.00    -0.070 Cl
ENDROOT
TORSDOF 0
ENDMDL
