MODEL 1
REMARK minimizedAffinity -2.24952841
REMARK minimizedRMSD -1
REMARK  0 active torsions:
REMARK  status: ('A' for Active; 'I' for Inactive)
ROOT
ATOM      1  C   UNL d   1      -0.142  -0.008   2.994  0.00  0.00     0.020 A 
ATOM      2  C1  UNL d   1       0.956   0.379   2.227  0.00  0.00     0.020 A 
ATOM      3  C2  UNL d   1       0.773   0.811   0.912  0.00  0.00     0.034 A 
ATOM      4  C3  UNL d   1      -0.513   0.859   0.360  0.00  0.00     0.017 A 
ATOM      5  C4  UNL d   1      -1.615   0.471   1.131  0.00  0.00     0.017 A 
ATOM      6  C5  UNL d   1      -1.425   0.039   2.447  0.00  0.00     0.034 A 
ATOM      7 Cl   UNL d   1      -3.231   0.502   0.518  0.00  0.00    -0.070 Cl
ATOM      8 Cl1  UNL d   1      -0.666   1.404  -1.272  0.00  0.00    -0.070 Cl
ENDROOT
TORSDOF 0
ENDMDL
