MODEL 1
REMARK minimizedAffinity -4.14731264
REMARK minimizedRMSD -1
REMARK  0 active torsions:
REMARK  status: ('A' for Active; 'I' for Inactive)
ROOT
ATOM      1  C   UNL d   1       0.796  -1.452  -0.800  0.00  0.00     0.020 A 
ATOM      2  C1  UNL d   1       1.803  -1.858   0.074  0.00  0.00     0.020 A 
ATOM      3  C2  UNL d   1       1.690  -1.594   1.441  0.00  0.00     0.034 A 
ATOM      4  C3  UNL d   1       0.567  -0.922   1.938  0.00  0.00     0.017 A 
ATOM      5  C4  UNL d   1      -0.444  -0.515   1.059  0.00  0.00     0.017 A 
ATOM      6  C5  UNL d   1      -0.326  -0.782  -0.308  0.00  0.00     0.034 A 
ATOM      7 Cl   UNL d   1      -1.859   0.318   1.598  0.00  0.00    -0.070 Cl
ATOM      8 Cl1  UNL d   1       0.493  -0.630   3.639  0.00  0.00    -0.070 Cl
ENDROOT
TORSDOF 0
ENDMDL
