MODEL 1
REMARK minimizedAffinity -4.39097929
REMARK minimizedRMSD -1
REMARK  0 active torsions:
REMARK  status: ('A' for Active; 'I' for Inactive)
ROOT
ATOM      1  O1  BZF d   1       2.152   1.046   0.022  0.00  0.00    -0.204 OA
ATOM      2  C2  BZF d   1       1.790  -0.235   0.392  0.00  0.00     0.174 A 
ATOM      3  C3  BZF d   1       0.520  -0.261   0.846  0.00  0.00    -0.012 A 
ATOM      4  C3A BZF d   1       0.029   1.071   0.666  0.00  0.00    -0.107 A 
ATOM      5  C4  BZF d   1      -1.173   1.670   0.914  0.00  0.00     0.055 A 
ATOM      6  C5  BZF d   1      -1.303   3.005   0.695  0.00  0.00    -0.016 A 
ATOM      7  C6  BZF d   1      -0.253   3.771   0.233  0.00  0.00     0.022 A 
ATOM      8  C7  BZF d   1       0.957   3.220  -0.032  0.00  0.00     0.029 A 
ATOM      9  C7A BZF d   1       1.082   1.866   0.157  0.00  0.00     0.058 A 
ENDROOT
TORSDOF 0
ENDMDL
