MODEL 1
REMARK minimizedAffinity -3.27260542
REMARK minimizedRMSD -1
REMARK  0 active torsions:
REMARK  status: ('A' for Active; 'I' for Inactive)
ROOT
ATOM      1  O1  BZF d   1      -0.730   2.423  -0.671  0.00  0.00    -0.204 OA
ATOM      2  C2  BZF d   1       0.266   3.375  -0.781  0.00  0.00     0.174 A 
ATOM      3  C3  BZF d   1       1.428   2.913  -0.276  0.00  0.00    -0.012 A 
ATOM      4  C3A BZF d   1       1.164   1.556   0.095  0.00  0.00    -0.107 A 
ATOM      5  C4  BZF d   1       1.930   0.566   0.640  0.00  0.00     0.055 A 
ATOM      6  C5  BZF d   1       1.350  -0.624   0.947  0.00  0.00    -0.016 A 
ATOM      7  C6  BZF d   1       0.008  -0.856   0.728  0.00  0.00     0.022 A 
ATOM      8  C7  BZF d   1      -0.792   0.094   0.185  0.00  0.00     0.029 A 
ATOM      9  C7A BZF d   1      -0.202   1.287  -0.157  0.00  0.00     0.058 A 
ENDROOT
TORSDOF 0
ENDMDL
