MODEL 1
REMARK minimizedAffinity -2.43601084
REMARK minimizedRMSD -1
REMARK  0 active torsions:
REMARK  status: ('A' for Active; 'I' for Inactive)
ROOT
ATOM      1  O1  BZF d   1      -1.257  -1.967   0.031  0.00  0.00    -0.204 OA
ATOM      2  C2  BZF d   1      -0.312  -2.588  -0.763  0.00  0.00     0.174 A 
ATOM      3  C3  BZF d   1       0.707  -1.749  -1.040  0.00  0.00    -0.012 A 
ATOM      4  C3A BZF d   1       0.424  -0.556  -0.301  0.00  0.00    -0.107 A 
ATOM      5  C4  BZF d   1       1.075   0.635  -0.156  0.00  0.00     0.055 A 
ATOM      6  C5  BZF d   1       0.495   1.620   0.579  0.00  0.00    -0.016 A 
ATOM      7  C6  BZF d   1      -0.737   1.450   1.176  0.00  0.00     0.022 A 
ATOM      8  C7  BZF d   1      -1.419   0.284   1.064  0.00  0.00     0.029 A 
ATOM      9  C7A BZF d   1      -0.820  -0.724   0.350  0.00  0.00     0.058 A 
ENDROOT
TORSDOF 0
ENDMDL
