MODEL 1
REMARK minimizedAffinity -2.52120876
REMARK minimizedRMSD -1
REMARK  0 active torsions:
REMARK  status: ('A' for Active; 'I' for Inactive)
ROOT
ATOM      1  O1  BZF d   1      -1.569  -1.270   0.405  0.00  0.00    -0.204 OA
ATOM      2  C2  BZF d   1      -0.629  -1.923  -0.369  0.00  0.00     0.174 A 
ATOM      3  C3  BZF d   1       0.381  -1.093  -0.698  0.00  0.00    -0.012 A 
ATOM      4  C3A BZF d   1       0.099   0.133  -0.014  0.00  0.00    -0.107 A 
ATOM      5  C4  BZF d   1       0.744   1.333   0.066  0.00  0.00     0.055 A 
ATOM      6  C5  BZF d   1       0.166   2.349   0.759  0.00  0.00    -0.016 A 
ATOM      7  C6  BZF d   1      -1.058   2.201   1.378  0.00  0.00     0.022 A 
ATOM      8  C7  BZF d   1      -1.734   1.027   1.330  0.00  0.00     0.029 A 
ATOM      9  C7A BZF d   1      -1.137  -0.011   0.659  0.00  0.00     0.058 A 
ENDROOT
TORSDOF 0
ENDMDL
