MODEL 1
REMARK minimizedAffinity -3.95212674
REMARK minimizedRMSD -1
REMARK  0 active torsions:
REMARK  status: ('A' for Active; 'I' for Inactive)
ROOT
ATOM      1  O1  BZF d   1      -1.097   3.045   0.798  0.00  0.00    -0.204 OA
ATOM      2  C2  BZF d   1      -0.180   3.825   0.119  0.00  0.00     0.174 A 
ATOM      3  C3  BZF d   1       0.744   3.055  -0.491  0.00  0.00    -0.012 A 
ATOM      4  C3A BZF d   1       0.329   1.707  -0.250  0.00  0.00    -0.107 A 
ATOM      5  C4  BZF d   1       0.831   0.490  -0.615  0.00  0.00     0.055 A 
ATOM      6  C5  BZF d   1       0.229  -0.638  -0.155  0.00  0.00    -0.016 A 
ATOM      7  C6  BZF d   1      -0.872  -0.586   0.675  0.00  0.00     0.022 A 
ATOM      8  C7  BZF d   1      -1.409   0.597   1.060  0.00  0.00     0.029 A 
ATOM      9  C7A BZF d   1      -0.823   1.738   0.569  0.00  0.00     0.058 A 
ENDROOT
TORSDOF 0
ENDMDL
