MODEL 1
REMARK minimizedAffinity -3.60012388
REMARK minimizedRMSD -1
REMARK  0 active torsions:
REMARK  status: ('A' for Active; 'I' for Inactive)
ROOT
ATOM      1  O1  BZF d   1      -1.448  -0.364   1.265  0.00  0.00    -0.204 OA
ATOM      2  C2  BZF d   1      -0.771  -1.357   0.584  0.00  0.00     0.174 A 
ATOM      3  C3  BZF d   1       0.015  -0.828  -0.376  0.00  0.00    -0.012 A 
ATOM      4  C3A BZF d   1      -0.113   0.590  -0.229  0.00  0.00    -0.107 A 
ATOM      5  C4  BZF d   1       0.437   1.655  -0.882  0.00  0.00     0.055 A 
ATOM      6  C5  BZF d   1       0.048   2.912  -0.541  0.00  0.00    -0.016 A 
ATOM      7  C6  BZF d   1      -0.892   3.139   0.443  0.00  0.00     0.022 A 
ATOM      8  C7  BZF d   1      -1.462   2.114   1.122  0.00  0.00     0.029 A 
ATOM      9  C7A BZF d   1      -1.046   0.844   0.803  0.00  0.00     0.058 A 
ENDROOT
TORSDOF 0
ENDMDL
