MODEL 1
REMARK minimizedAffinity -1.18804479
REMARK minimizedRMSD -1
REMARK  0 active torsions:
REMARK  status: ('A' for Active; 'I' for Inactive)
ROOT
ATOM      1  O1  BZF d   1      -1.408   1.450   0.738  0.00  0.00    -0.204 OA
ATOM      2  C2  BZF d   1      -1.030   2.773   0.860  0.00  0.00     0.174 A 
ATOM      3  C3  BZF d   1       0.309   2.899   0.756  0.00  0.00    -0.012 A 
ATOM      4  C3A BZF d   1       0.789   1.583   0.464  0.00  0.00    -0.107 A 
ATOM      5  C4  BZF d   1       2.032   1.067   0.234  0.00  0.00     0.055 A 
ATOM      6  C5  BZF d   1       2.168  -0.273   0.052  0.00  0.00    -0.016 A 
ATOM      7  C6  BZF d   1       1.084  -1.126   0.099  0.00  0.00     0.022 A 
ATOM      8  C7  BZF d   1      -0.169  -0.659   0.319  0.00  0.00     0.029 A 
ATOM      9  C7A BZF d   1      -0.314   0.698   0.471  0.00  0.00     0.058 A 
ENDROOT
TORSDOF 0
ENDMDL
