MODEL 1
REMARK minimizedAffinity -4.56401539
REMARK minimizedRMSD -1
REMARK  0 active torsions:
REMARK  status: ('A' for Active; 'I' for Inactive)
ROOT
ATOM      1  O1  BZF d   1       0.625  -0.270  -0.737  0.00  0.00    -0.204 OA
ATOM      2  C2  BZF d   1       0.143  -1.473  -0.260  0.00  0.00     0.174 A 
ATOM      3  C3  BZF d   1      -0.853  -1.272   0.626  0.00  0.00    -0.012 A 
ATOM      4  C3A BZF d   1      -1.066   0.143   0.639  0.00  0.00    -0.107 A 
ATOM      5  C4  BZF d   1      -1.934   0.956   1.310  0.00  0.00     0.055 A 
ATOM      6  C5  BZF d   1      -1.833   2.303   1.153  0.00  0.00    -0.016 A 
ATOM      7  C6  BZF d   1      -0.874   2.869   0.339  0.00  0.00     0.022 A 
ATOM      8  C7  BZF d   1       0.006   2.103  -0.351  0.00  0.00     0.029 A 
ATOM      9  C7A BZF d   1      -0.115   0.741  -0.220  0.00  0.00     0.058 A 
ENDROOT
TORSDOF 0
ENDMDL
