MODEL 1
REMARK minimizedAffinity -3.93445873
REMARK minimizedRMSD -1
REMARK  0 active torsions:
REMARK  status: ('A' for Active; 'I' for Inactive)
ROOT
ATOM      1  O1  BZF d   1       0.520  -0.410  -1.429  0.00  0.00    -0.204 OA
ATOM      2  C2  BZF d   1      -0.007  -1.660  -1.167  0.00  0.00     0.174 A 
ATOM      3  C3  BZF d   1      -0.943  -1.592  -0.199  0.00  0.00    -0.012 A 
ATOM      4  C3A BZF d   1      -1.072  -0.200   0.102  0.00  0.00    -0.107 A 
ATOM      5  C4  BZF d   1      -1.857   0.504   0.971  0.00  0.00     0.055 A 
ATOM      6  C5  BZF d   1      -1.686   1.848   1.074  0.00  0.00    -0.016 A 
ATOM      7  C6  BZF d   1      -0.738   2.519   0.329  0.00  0.00     0.022 A 
ATOM      8  C7  BZF d   1       0.060   1.865  -0.549  0.00  0.00     0.029 A 
ATOM      9  C7A BZF d   1      -0.133   0.511  -0.680  0.00  0.00     0.058 A 
ENDROOT
TORSDOF 0
ENDMDL
