MODEL 1
REMARK minimizedAffinity -4.83560419
REMARK minimizedRMSD -1
REMARK  0 active torsions:
REMARK  status: ('A' for Active; 'I' for Inactive)
ROOT
ATOM      1  O1  BZF d   1      -0.596  -0.572   1.366  0.00  0.00    -0.204 OA
ATOM      2  C2  BZF d   1      -0.258  -1.601   0.508  0.00  0.00     0.174 A 
ATOM      3  C3  BZF d   1       0.258  -1.117  -0.640  0.00  0.00    -0.012 A 
ATOM      4  C3A BZF d   1       0.325   0.300  -0.454  0.00  0.00    -0.107 A 
ATOM      5  C4  BZF d   1       0.763   1.330  -1.237  0.00  0.00     0.055 A 
ATOM      6  C5  BZF d   1       0.623   2.605  -0.789  0.00  0.00    -0.016 A 
ATOM      7  C6  BZF d   1       0.047   2.887   0.432  0.00  0.00     0.022 A 
ATOM      8  C7  BZF d   1      -0.398   1.899   1.246  0.00  0.00     0.029 A 
ATOM      9  C7A BZF d   1      -0.228   0.607   0.810  0.00  0.00     0.058 A 
ENDROOT
TORSDOF 0
ENDMDL
