MODEL 1
REMARK minimizedAffinity -4.49371958
REMARK minimizedRMSD -1
REMARK  0 active torsions:
REMARK  status: ('A' for Active; 'I' for Inactive)
ROOT
ATOM      1  O1  BZF d   1      -1.074   1.523  -0.150  0.00  0.00    -0.204 OA
ATOM      2  C2  BZF d   1      -0.579   2.797  -0.353  0.00  0.00     0.174 A 
ATOM      3  C3  BZF d   1       0.759   2.822  -0.187  0.00  0.00    -0.012 A 
ATOM      4  C3A BZF d   1       1.135   1.462   0.049  0.00  0.00    -0.107 A 
ATOM      5  C4  BZF d   1       2.332   0.844   0.271  0.00  0.00     0.055 A 
ATOM      6  C5  BZF d   1       2.348  -0.489   0.538  0.00  0.00    -0.016 A 
ATOM      7  C6  BZF d   1       1.187  -1.231   0.597  0.00  0.00     0.022 A 
ATOM      8  C7  BZF d   1      -0.024  -0.663   0.378  0.00  0.00     0.029 A 
ATOM      9  C7A BZF d   1      -0.040   0.676   0.075  0.00  0.00     0.058 A 
ENDROOT
TORSDOF 0
ENDMDL
