MODEL 1
REMARK minimizedAffinity -2.03191209
REMARK minimizedRMSD -1
REMARK  0 active torsions:
REMARK  status: ('A' for Active; 'I' for Inactive)
ROOT
ATOM      1  O1  BZF d   1      -2.116   1.400   0.562  0.00  0.00    -0.204 OA
ATOM      2  C2  BZF d   1      -1.547   2.659   0.598  0.00  0.00     0.174 A 
ATOM      3  C3  BZF d   1      -0.213   2.587   0.411  0.00  0.00    -0.012 A 
ATOM      4  C3A BZF d   1       0.057   1.205   0.157  0.00  0.00    -0.107 A 
ATOM      5  C4  BZF d   1       1.198   0.506  -0.118  0.00  0.00     0.055 A 
ATOM      6  C5  BZF d   1       1.131  -0.845  -0.242  0.00  0.00    -0.016 A 
ATOM      7  C6  BZF d   1      -0.057  -1.530  -0.092  0.00  0.00     0.022 A 
ATOM      8  C7  BZF d   1      -1.216  -0.880   0.176  0.00  0.00     0.029 A 
ATOM      9  C7A BZF d   1      -1.157   0.489   0.269  0.00  0.00     0.058 A 
ENDROOT
TORSDOF 0
ENDMDL
