MODEL 1
REMARK minimizedAffinity -3.89717388
REMARK minimizedRMSD -1
REMARK  0 active torsions:
REMARK  status: ('A' for Active; 'I' for Inactive)
ROOT
ATOM      1  O1  BZF d   1       1.434   0.091  -0.729  0.00  0.00    -0.204 OA
ATOM      2  C2  BZF d   1       0.959  -1.173  -0.437  0.00  0.00     0.174 A 
ATOM      3  C3  BZF d   1      -0.159  -1.103   0.315  0.00  0.00    -0.012 A 
ATOM      4  C3A BZF d   1      -0.449   0.294   0.427  0.00  0.00    -0.107 A 
ATOM      5  C4  BZF d   1      -1.444   0.999   1.041  0.00  0.00     0.055 A 
ATOM      6  C5  BZF d   1      -1.398   2.358   1.024  0.00  0.00    -0.016 A 
ATOM      7  C6  BZF d   1      -0.370   3.042   0.409  0.00  0.00     0.022 A 
ATOM      8  C7  BZF d   1       0.637   2.385  -0.216  0.00  0.00     0.029 A 
ATOM      9  C7A BZF d   1       0.576   1.013  -0.230  0.00  0.00     0.058 A 
ENDROOT
TORSDOF 0
ENDMDL
