MODEL 1
REMARK minimizedAffinity -2.48968744
REMARK minimizedRMSD -1
REMARK  0 active torsions:
REMARK  status: ('A' for Active; 'I' for Inactive)
ROOT
ATOM      1  O1  BZF d   1       0.704  -0.400  -1.189  0.00  0.00    -0.204 OA
ATOM      2  C2  BZF d   1       0.084  -1.503  -0.634  0.00  0.00     0.174 A 
ATOM      3  C3  BZF d   1      -0.783  -1.130   0.330  0.00  0.00    -0.012 A 
ATOM      4  C3A BZF d   1      -0.767   0.301   0.316  0.00  0.00    -0.107 A 
ATOM      5  C4  BZF d   1      -1.431   1.254   1.035  0.00  0.00     0.055 A 
ATOM      6  C5  BZF d   1      -1.134   2.564   0.828  0.00  0.00    -0.016 A 
ATOM      7  C6  BZF d   1      -0.176   2.955  -0.084  0.00  0.00     0.022 A 
ATOM      8  C7  BZF d   1       0.506   2.047  -0.824  0.00  0.00     0.029 A 
ATOM      9  C7A BZF d   1       0.184   0.724  -0.641  0.00  0.00     0.058 A 
ENDROOT
TORSDOF 0
ENDMDL
