MODEL 1
REMARK minimizedAffinity -2.69607162
REMARK minimizedRMSD -1
REMARK  0 active torsions:
REMARK  status: ('A' for Active; 'I' for Inactive)
ROOT
ATOM      1  O1  BZF d   1       0.925  -0.616  -0.611  0.00  0.00    -0.204 OA
ATOM      2  C2  BZF d   1       0.044  -1.535  -0.072  0.00  0.00     0.174 A 
ATOM      3  C3  BZF d   1      -0.910  -0.915   0.652  0.00  0.00    -0.012 A 
ATOM      4  C3A BZF d   1      -0.661   0.484   0.483  0.00  0.00    -0.107 A 
ATOM      5  C4  BZF d   1      -1.280   1.610   0.945  0.00  0.00     0.055 A 
ATOM      6  C5  BZF d   1      -0.743   2.825   0.657  0.00  0.00    -0.016 A 
ATOM      7  C6  BZF d   1       0.415   2.950  -0.083  0.00  0.00     0.022 A 
ATOM      8  C7  BZF d   1       1.062   1.861  -0.567  0.00  0.00     0.029 A 
ATOM      9  C7A BZF d   1       0.503   0.634  -0.306  0.00  0.00     0.058 A 
ENDROOT
TORSDOF 0
ENDMDL
