MODEL 1
REMARK minimizedAffinity -4.835114
REMARK minimizedRMSD -1
REMARK  3 active torsions:
REMARK  status: ('A' for Active; 'I' for Inactive)
REMARK    1  A    between atoms: C3'_2  and  C2'_3 
REMARK    2  A    between atoms: C2'_3  and  C1'_4 
REMARK    3  A    between atoms: C1'_4  and  C1_5 
ROOT
ATOM      1  C1  N4B d   1       1.349  -3.050   0.088  0.00  0.00    -0.075 A 
ATOM      2  C2  N4B d   1       0.021  -3.159   0.557  0.00  0.00     0.002 A 
ATOM      3  C3  N4B d   1      -0.678  -2.030   0.908  0.00  0.00     0.002 A 
ATOM      4  C4  N4B d   1      -0.066  -0.789   0.816  0.00  0.00    -0.004 A 
ATOM      5  C5  N4B d   1       1.208  -0.690   0.339  0.00  0.00     0.002 A 
ATOM      6  C6  N4B d   1       1.921  -1.816  -0.021  0.00  0.00     0.002 A 
ENDROOT
BRANCH   1   7
ATOM      7  C1' N4B d   1       2.182  -4.262  -0.226  0.00  0.00     0.057 C 
BRANCH   7   8
ATOM      8  C2' N4B d   1       3.651  -3.855  -0.303  0.00  0.00     0.009 C 
BRANCH   8   9
ATOM      9  C3' N4B d   1       4.534  -4.999  -0.770  0.00  0.00     0.004 C 
ATOM     10  C4' N4B d   1       4.814  -5.996   0.314  0.00  0.00     0.003 C 
ENDBRANCH   8   9
ENDBRANCH   7   8
ENDBRANCH   1   7
TORSDOF 3
ENDMDL
