MODEL 1
REMARK minimizedAffinity -0.944446325
REMARK minimizedRMSD -1
REMARK  3 active torsions:
REMARK  status: ('A' for Active; 'I' for Inactive)
REMARK    1  A    between atoms: C3'_2  and  C2'_3 
REMARK    2  A    between atoms: C2'_3  and  C1'_4 
REMARK    3  A    between atoms: C1'_4  and  C1_5 
ROOT
ATOM      1  C1  N4B d   1       0.603  -1.188   1.006  0.00  0.00    -0.075 A 
ATOM      2  C2  N4B d   1       0.197  -2.417   1.570  0.00  0.00     0.002 A 
ATOM      3  C3  N4B d   1       0.717  -3.596   1.095  0.00  0.00     0.002 A 
ATOM      4  C4  N4B d   1       1.626  -3.572   0.047  0.00  0.00    -0.004 A 
ATOM      5  C5  N4B d   1       2.032  -2.379  -0.475  0.00  0.00     0.002 A 
ATOM      6  C6  N4B d   1       1.521  -1.186  -0.004  0.00  0.00     0.002 A 
ENDROOT
BRANCH   1   7
ATOM      7  C1' N4B d   1      -0.002   0.121   1.435  0.00  0.00     0.057 C 
BRANCH   7   8
ATOM      8  C2' N4B d   1      -1.113   0.502   0.461  0.00  0.00     0.009 C 
BRANCH   8   9
ATOM      9  C3' N4B d   1      -1.784   1.809   0.848  0.00  0.00     0.004 C 
ATOM     10  C4' N4B d   1      -3.013   2.093   0.037  0.00  0.00     0.003 C 
ENDBRANCH   8   9
ENDBRANCH   7   8
ENDBRANCH   1   7
TORSDOF 3
ENDMDL
