MODEL 1
REMARK minimizedAffinity -5.82771063
REMARK minimizedRMSD -1
REMARK  3 active torsions:
REMARK  status: ('A' for Active; 'I' for Inactive)
REMARK    1  A    between atoms: C3'_2  and  C2'_3 
REMARK    2  A    between atoms: C2'_3  and  C1'_4 
REMARK    3  A    between atoms: C1'_4  and  C1_5 
ROOT
ATOM      1  C1  N4B d   1      -0.115  -1.471   0.647  0.00  0.00    -0.075 A 
ATOM      2  C2  N4B d   1      -0.038  -2.879   0.570  0.00  0.00     0.002 A 
ATOM      3  C3  N4B d   1       1.188  -3.498   0.520  0.00  0.00     0.002 A 
ATOM      4  C4  N4B d   1       2.343  -2.731   0.527  0.00  0.00    -0.004 A 
ATOM      5  C5  N4B d   1       2.260  -1.373   0.627  0.00  0.00     0.002 A 
ATOM      6  C6  N4B d   1       1.035  -0.739   0.682  0.00  0.00     0.002 A 
ENDROOT
BRANCH   1   7
ATOM      7  C1' N4B d   1      -1.433  -0.746   0.616  0.00  0.00     0.057 C 
BRANCH   7   8
ATOM      8  C2' N4B d   1      -1.319   0.534   1.438  0.00  0.00     0.009 C 
BRANCH   8   9
ATOM      9  C3' N4B d   1      -2.437   1.513   1.123  0.00  0.00     0.004 C 
ATOM     10  C4' N4B d   1      -3.422   0.971   0.131  0.00  0.00     0.003 C 
ENDBRANCH   8   9
ENDBRANCH   7   8
ENDBRANCH   1   7
TORSDOF 3
ENDMDL
