MODEL 1
REMARK minimizedAffinity -3.97278047
REMARK minimizedRMSD -1
REMARK  3 active torsions:
REMARK  status: ('A' for Active; 'I' for Inactive)
REMARK    1  A    between atoms: C3'_2  and  C2'_3 
REMARK    2  A    between atoms: C2'_3  and  C1'_4 
REMARK    3  A    between atoms: C1'_4  and  C1_5 
ROOT
ATOM      1  C1  N4B d   1       1.624  -2.803   0.257  0.00  0.00    -0.075 A 
ATOM      2  C2  N4B d   1       0.231  -2.653   0.437  0.00  0.00     0.002 A 
ATOM      3  C3  N4B d   1      -0.293  -1.423   0.748  0.00  0.00     0.002 A 
ATOM      4  C4  N4B d   1       0.555  -0.336   0.903  0.00  0.00    -0.004 A 
ATOM      5  C5  N4B d   1       1.896  -0.483   0.702  0.00  0.00     0.002 A 
ATOM      6  C6  N4B d   1       2.436  -1.714   0.385  0.00  0.00     0.002 A 
ENDROOT
BRANCH   1   7
ATOM      7  C1' N4B d   1       2.252  -4.146   0.001  0.00  0.00     0.057 C 
BRANCH   7   8
ATOM      8  C2' N4B d   1       3.770  -3.996  -0.003  0.00  0.00     0.009 C 
BRANCH   8   9
ATOM      9  C3' N4B d   1       4.459  -5.203  -0.617  0.00  0.00     0.004 C 
ATOM     10  C4' N4B d   1       5.238  -6.000   0.386  0.00  0.00     0.003 C 
ENDBRANCH   8   9
ENDBRANCH   7   8
ENDBRANCH   1   7
TORSDOF 3
ENDMDL
