MODEL 1
REMARK minimizedAffinity 0.567457616
REMARK minimizedRMSD -1
REMARK  3 active torsions:
REMARK  status: ('A' for Active; 'I' for Inactive)
REMARK    1  A    between atoms: C3'_2  and  C2'_3 
REMARK    2  A    between atoms: C2'_3  and  C1'_4 
REMARK    3  A    between atoms: C1'_4  and  C1_5 
ROOT
ATOM      1  C1  N4B d   1      -5.672  -4.884   3.370  0.00  0.00    -0.075 A 
ATOM      2  C2  N4B d   1      -5.416  -5.996   4.202  0.00  0.00     0.002 A 
ATOM      3  C3  N4B d   1      -5.042  -5.803   5.510  0.00  0.00     0.002 A 
ATOM      4  C4  N4B d   1      -4.900  -4.513   5.999  0.00  0.00    -0.004 A 
ATOM      5  C5  N4B d   1      -5.174  -3.445   5.196  0.00  0.00     0.002 A 
ATOM      6  C6  N4B d   1      -5.554  -3.624   3.881  0.00  0.00     0.002 A 
ENDROOT
BRANCH   1   7
ATOM      7  C1' N4B d   1      -6.000  -5.043   1.911  0.00  0.00     0.057 C 
BRANCH   7   8
ATOM      8  C2' N4B d   1      -5.188  -4.036   1.102  0.00  0.00     0.009 C 
BRANCH   8   9
ATOM      9  C3' N4B d   1      -5.998  -3.433  -0.033  0.00  0.00     0.004 C 
ATOM     10  C4' N4B d   1      -5.993  -1.933  -0.017  0.00  0.00     0.003 C 
ENDBRANCH   8   9
ENDBRANCH   7   8
ENDBRANCH   1   7
TORSDOF 3
ENDMDL
