MODEL 1
REMARK minimizedAffinity -3.04814291
REMARK minimizedRMSD -1
REMARK  3 active torsions:
REMARK  status: ('A' for Active; 'I' for Inactive)
REMARK    1  A    between atoms: C3'_2  and  C2'_3 
REMARK    2  A    between atoms: C2'_3  and  C1'_4 
REMARK    3  A    between atoms: C1'_4  and  C1_5 
ROOT
ATOM      1  C1  N4B d   1       1.610   4.691  -4.824  0.00  0.00    -0.075 A 
ATOM      2  C2  N4B d   1       0.820   4.695  -3.653  0.00  0.00     0.002 A 
ATOM      3  C3  N4B d   1      -0.392   5.340  -3.645  0.00  0.00     0.002 A 
ATOM      4  C4  N4B d   1      -0.826   5.999  -4.785  0.00  0.00    -0.004 A 
ATOM      5  C5  N4B d   1      -0.070   5.968  -5.920  0.00  0.00     0.002 A 
ATOM      6  C6  N4B d   1       1.149   5.321  -5.943  0.00  0.00     0.002 A 
ENDROOT
BRANCH   1   7
ATOM      7  C1' N4B d   1       2.981   4.073  -4.855  0.00  0.00     0.057 C 
BRANCH   7   8
ATOM      8  C2' N4B d   1       3.419   3.753  -3.429  0.00  0.00     0.009 C 
BRANCH   8   9
ATOM      9  C3' N4B d   1       4.191   2.448  -3.350  0.00  0.00     0.004 C 
ATOM     10  C4' N4B d   1       3.358   1.309  -2.842  0.00  0.00     0.003 C 
ENDBRANCH   8   9
ENDBRANCH   7   8
ENDBRANCH   1   7
TORSDOF 3
ENDMDL
