MODEL 1
REMARK minimizedAffinity -0.560937107
REMARK minimizedRMSD -1
REMARK  3 active torsions:
REMARK  status: ('A' for Active; 'I' for Inactive)
REMARK    1  A    between atoms: C3'_2  and  C2'_3 
REMARK    2  A    between atoms: C2'_3  and  C1'_4 
REMARK    3  A    between atoms: C1'_4  and  C1_5 
ROOT
ATOM      1  C1  N4B d   1       1.051  -2.476   0.359  0.00  0.00    -0.075 A 
ATOM      2  C2  N4B d   1      -0.319  -2.312   0.664  0.00  0.00     0.002 A 
ATOM      3  C3  N4B d   1      -0.723  -1.275   1.468  0.00  0.00     0.002 A 
ATOM      4  C4  N4B d   1       0.221  -0.404   1.992  0.00  0.00    -0.004 A 
ATOM      5  C5  N4B d   1       1.538  -0.554   1.671  0.00  0.00     0.002 A 
ATOM      6  C6  N4B d   1       1.959  -1.589   0.862  0.00  0.00     0.002 A 
ENDROOT
BRANCH   1   7
ATOM      7  C1' N4B d   1       1.551  -3.645  -0.445  0.00  0.00     0.057 C 
BRANCH   7   8
ATOM      8  C2' N4B d   1       2.553  -4.435   0.391  0.00  0.00     0.009 C 
BRANCH   8   9
ATOM      9  C3' N4B d   1       3.925  -4.479  -0.260  0.00  0.00     0.004 C 
ATOM     10  C4' N4B d   1       4.727  -5.677   0.155  0.00  0.00     0.003 C 
ENDBRANCH   8   9
ENDBRANCH   7   8
ENDBRANCH   1   7
TORSDOF 3
ENDMDL
