MODEL 1
REMARK minimizedAffinity 6.42086315
REMARK minimizedRMSD -1
REMARK  1 active torsions:
REMARK  status: ('A' for Active; 'I' for Inactive)
REMARK    1  A    between atoms: C1_2  and  C2_3 
ROOT
ATOM      1  C2  UNL d   1       1.325  -2.509   1.733  0.00  0.00    -0.081 A 
ATOM      2  C3  UNL d   1       0.781  -3.485   2.577  0.00  0.00     0.006 A 
ATOM      3  C4  UNL d   1      -0.134  -3.130   3.571  0.00  0.00     0.002 A 
ATOM      4  C5  UNL d   1      -0.527  -1.797   3.732  0.00  0.00    -0.080 A 
ATOM      5  C6  UNL d   1      -1.531  -1.407   4.775  0.00  0.00     0.076 C 
ATOM      6  C7  UNL d   1       0.030  -0.820   2.900  0.00  0.00     0.002 A 
ATOM      7  C8  UNL d   1       0.946  -1.174   1.906  0.00  0.00     0.006 A 
ENDROOT
BRANCH   1   8
ATOM      8  C1  UNL d   1       2.263  -2.897   0.618  0.00  0.00     0.054 C 
ATOM      9  C   UNL d   1       1.526  -3.626  -0.497  0.00  0.00     0.018 C 
ENDBRANCH   1   8
TORSDOF 1
ENDMDL
