MODEL 1
REMARK minimizedAffinity 13.6458855
REMARK minimizedRMSD -1
REMARK  1 active torsions:
REMARK  status: ('A' for Active; 'I' for Inactive)
REMARK    1  A    between atoms: C1_2  and  C2_3 
ROOT
ATOM      1  C2  UNL d   1      -1.839  -1.715   3.276  0.00  0.00    -0.081 A 
ATOM      2  C3  UNL d   1      -1.270  -1.446   2.025  0.00  0.00     0.006 A 
ATOM      3  C4  UNL d   1       0.015  -0.907   1.932  0.00  0.00     0.002 A 
ATOM      4  C5  UNL d   1       0.756  -0.635   3.087  0.00  0.00    -0.080 A 
ATOM      5  C6  UNL d   1       2.148  -0.084   3.001  0.00  0.00     0.076 C 
ATOM      6  C7  UNL d   1       0.181  -0.887   4.338  0.00  0.00     0.002 A 
ATOM      7  C8  UNL d   1      -1.105  -1.425   4.431  0.00  0.00     0.006 A 
ENDROOT
BRANCH   1   8
ATOM      8  C1  UNL d   1      -3.199  -2.356   3.377  0.00  0.00     0.054 C 
ATOM      9  C   UNL d   1      -3.730  -2.747   2.006  0.00  0.00     0.018 C 
ENDBRANCH   1   8
TORSDOF 1
ENDMDL
