MODEL 1
REMARK minimizedAffinity 5.70890188
REMARK minimizedRMSD -1
REMARK  1 active torsions:
REMARK  status: ('A' for Active; 'I' for Inactive)
REMARK    1  A    between atoms: C1_2  and  C2_3 
ROOT
ATOM      1  C2  UNL d   1      -2.385  -2.330   1.999  0.00  0.00    -0.081 A 
ATOM      2  C3  UNL d   1      -1.143  -1.965   1.466  0.00  0.00     0.006 A 
ATOM      3  C4  UNL d   1      -0.192  -1.320   2.261  0.00  0.00     0.002 A 
ATOM      4  C5  UNL d   1      -0.465  -1.037   3.604  0.00  0.00    -0.080 A 
ATOM      5  C6  UNL d   1       0.557  -0.372   4.477  0.00  0.00     0.076 C 
ATOM      6  C7  UNL d   1      -1.713  -1.385   4.132  0.00  0.00     0.002 A 
ATOM      7  C8  UNL d   1      -2.663  -2.030   3.337  0.00  0.00     0.006 A 
ENDROOT
BRANCH   1   8
ATOM      8  C1  UNL d   1      -3.387  -3.084   1.162  0.00  0.00     0.054 C 
ATOM      9  C   UNL d   1      -2.868  -3.309  -0.251  0.00  0.00     0.018 C 
ENDBRANCH   1   8
TORSDOF 1
ENDMDL
