MODEL 1
REMARK minimizedAffinity 17.8073845
REMARK minimizedRMSD -1
REMARK  1 active torsions:
REMARK  status: ('A' for Active; 'I' for Inactive)
REMARK    1  A    between atoms: C1_2  and  C2_3 
ROOT
ATOM      1  C2  UNL d   1       1.591   0.092   1.211  0.00  0.00    -0.081 A 
ATOM      2  C3  UNL d   1       1.656   1.166   0.315  0.00  0.00     0.006 A 
ATOM      3  C4  UNL d   1       2.866   1.824   0.085  0.00  0.00     0.002 A 
ATOM      4  C5  UNL d   1       4.033   1.415   0.740  0.00  0.00    -0.080 A 
ATOM      5  C6  UNL d   1       5.345   2.094   0.480  0.00  0.00     0.076 C 
ATOM      6  C7  UNL d   1       3.964   0.353   1.649  0.00  0.00     0.002 A 
ATOM      7  C8  UNL d   1       2.754  -0.305   1.879  0.00  0.00     0.006 A 
ENDROOT
BRANCH   1   8
ATOM      8  C1  UNL d   1       0.301  -0.661   1.412  0.00  0.00     0.054 C 
ATOM      9  C   UNL d   1       0.549  -2.156   1.551  0.00  0.00     0.018 C 
ENDBRANCH   1   8
TORSDOF 1
ENDMDL
