MODEL 1
REMARK minimizedAffinity 17.8321342
REMARK minimizedRMSD -1
REMARK  1 active torsions:
REMARK  status: ('A' for Active; 'I' for Inactive)
REMARK    1  A    between atoms: C1_2  and  C2_3 
ROOT
ATOM      1  C2  UNL d   1      -0.305   3.761  -1.880  0.00  0.00    -0.081 A 
ATOM      2  C3  UNL d   1       0.314   3.100  -0.812  0.00  0.00     0.006 A 
ATOM      3  C4  UNL d   1       1.033   3.819   0.146  0.00  0.00     0.002 A 
ATOM      4  C5  UNL d   1       1.139   5.211   0.056  0.00  0.00    -0.080 A 
ATOM      5  C6  UNL d   1       1.882   5.998   1.094  0.00  0.00     0.076 C 
ATOM      6  C7  UNL d   1       0.536   5.870  -1.020  0.00  0.00     0.002 A 
ATOM      7  C8  UNL d   1      -0.183   5.152  -1.978  0.00  0.00     0.006 A 
ENDROOT
BRANCH   1   8
ATOM      8  C1  UNL d   1      -1.135   2.996  -2.878  0.00  0.00     0.054 C 
ATOM      9  C   UNL d   1      -1.964   3.934  -3.743  0.00  0.00     0.018 C 
ENDBRANCH   1   8
TORSDOF 1
ENDMDL
