MODEL 1
REMARK minimizedAffinity 15.1781244
REMARK minimizedRMSD -1
REMARK  1 active torsions:
REMARK  status: ('A' for Active; 'I' for Inactive)
REMARK    1  A    between atoms: C1_2  and  C2_3 
ROOT
ATOM      1  C2  UNL d   1       0.850  -4.505   2.297  0.00  0.00    -0.081 A 
ATOM      2  C3  UNL d   1       1.399  -3.894   1.163  0.00  0.00     0.006 A 
ATOM      3  C4  UNL d   1       1.093  -2.566   0.855  0.00  0.00     0.002 A 
ATOM      4  C5  UNL d   1       0.240  -1.825   1.680  0.00  0.00    -0.080 A 
ATOM      5  C6  UNL d   1      -0.072  -0.389   1.378  0.00  0.00     0.076 C 
ATOM      6  C7  UNL d   1      -0.322  -2.440   2.804  0.00  0.00     0.002 A 
ATOM      7  C8  UNL d   1      -0.017  -3.768   3.111  0.00  0.00     0.006 A 
ENDROOT
BRANCH   1   8
ATOM      8  C1  UNL d   1       1.229  -5.916   2.667  0.00  0.00     0.054 C 
ATOM      9  C   UNL d   1       1.711  -6.000   4.108  0.00  0.00     0.018 C 
ENDBRANCH   1   8
TORSDOF 1
ENDMDL
