MODEL 1
REMARK minimizedAffinity 13.7455502
REMARK minimizedRMSD -1
REMARK  1 active torsions:
REMARK  status: ('A' for Active; 'I' for Inactive)
REMARK    1  A    between atoms: C1_2  and  C2_3 
ROOT
ATOM      1  C2  UNL d   1       1.665  -0.534   1.788  0.00  0.00    -0.081 A 
ATOM      2  C3  UNL d   1       1.522  -1.777   1.158  0.00  0.00     0.006 A 
ATOM      3  C4  UNL d   1       0.430  -2.597   1.449  0.00  0.00     0.002 A 
ATOM      4  C5  UNL d   1      -0.542  -2.185   2.368  0.00  0.00    -0.080 A 
ATOM      5  C6  UNL d   1      -1.736  -3.042   2.666  0.00  0.00     0.076 C 
ATOM      6  C7  UNL d   1      -0.391  -0.951   3.009  0.00  0.00     0.002 A 
ATOM      7  C8  UNL d   1       0.702  -0.131   2.719  0.00  0.00     0.006 A 
ENDROOT
BRANCH   1   8
ATOM      8  C1  UNL d   1       2.808   0.380   1.428  0.00  0.00     0.054 C 
ATOM      9  C   UNL d   1       2.305   1.679   0.814  0.00  0.00     0.018 C 
ENDBRANCH   1   8
TORSDOF 1
ENDMDL
