MODEL 1
REMARK minimizedAffinity 19.2061806
REMARK minimizedRMSD -1
REMARK  1 active torsions:
REMARK  status: ('A' for Active; 'I' for Inactive)
REMARK    1  A    between atoms: C1_2  and  C2_3 
ROOT
ATOM      1  C2  UNL d   1      -1.330  -2.183   2.609  0.00  0.00    -0.081 A 
ATOM      2  C3  UNL d   1      -0.856  -1.106   3.369  0.00  0.00     0.006 A 
ATOM      3  C4  UNL d   1       0.270  -0.390   2.956  0.00  0.00     0.002 A 
ATOM      4  C5  UNL d   1       0.935  -0.732   1.773  0.00  0.00    -0.080 A 
ATOM      5  C6  UNL d   1       2.127   0.047   1.303  0.00  0.00     0.076 C 
ATOM      6  C7  UNL d   1       0.471  -1.819   1.023  0.00  0.00     0.002 A 
ATOM      7  C8  UNL d   1      -0.654  -2.536   1.436  0.00  0.00     0.006 A 
ENDROOT
BRANCH   1   8
ATOM      8  C1  UNL d   1      -2.582  -2.916   3.018  0.00  0.00     0.054 C 
ATOM      9  C   UNL d   1      -3.206  -3.647   1.837  0.00  0.00     0.018 C 
ENDBRANCH   1   8
TORSDOF 1
ENDMDL
