MODEL 1
REMARK minimizedAffinity 5.73779106
REMARK minimizedRMSD -1
REMARK  1 active torsions:
REMARK  status: ('A' for Active; 'I' for Inactive)
REMARK    1  A    between atoms: C1_2  and  C2_3 
ROOT
ATOM      1  C2  UNL d   1      -3.950  -4.756   0.776  0.00  0.00    -0.081 A 
ATOM      2  C3  UNL d   1      -4.443  -5.803   1.564  0.00  0.00     0.006 A 
ATOM      3  C4  UNL d   1      -4.765  -5.589   2.906  0.00  0.00     0.002 A 
ATOM      4  C5  UNL d   1      -4.607  -4.324   3.481  0.00  0.00    -0.080 A 
ATOM      5  C6  UNL d   1      -4.977  -4.073   4.912  0.00  0.00     0.076 C 
ATOM      6  C7  UNL d   1      -4.098  -3.281   2.699  0.00  0.00     0.002 A 
ATOM      7  C8  UNL d   1      -3.775  -3.495   1.357  0.00  0.00     0.006 A 
ENDROOT
BRANCH   1   8
ATOM      8  C1  UNL d   1      -3.663  -4.968  -0.689  0.00  0.00     0.054 C 
ATOM      9  C   UNL d   1      -4.741  -5.818  -1.346  0.00  0.00     0.018 C 
ENDBRANCH   1   8
TORSDOF 1
ENDMDL
