MODEL 1
REMARK minimizedAffinity 0.295957536
REMARK minimizedRMSD -1
REMARK  1 active torsions:
REMARK  status: ('A' for Active; 'I' for Inactive)
REMARK    1  A    between atoms: C1_2  and  C2_3 
ROOT
ATOM      1  C2  UNL d   1      -5.342  -5.506   0.169  0.00  0.00    -0.081 A 
ATOM      2  C3  UNL d   1      -5.996  -4.537   0.940  0.00  0.00     0.006 A 
ATOM      3  C4  UNL d   1      -5.407  -4.044   2.106  0.00  0.00     0.002 A 
ATOM      4  C5  UNL d   1      -4.152  -4.506   2.518  0.00  0.00    -0.080 A 
ATOM      5  C6  UNL d   1      -3.495  -3.964   3.752  0.00  0.00     0.076 C 
ATOM      6  C7  UNL d   1      -3.506  -5.487   1.758  0.00  0.00     0.002 A 
ATOM      7  C8  UNL d   1      -4.095  -5.981   0.591  0.00  0.00     0.006 A 
ENDROOT
BRANCH   1   8
ATOM      8  C1  UNL d   1      -5.945  -5.992  -1.124  0.00  0.00     0.054 C 
ATOM      9  C   UNL d   1      -4.928  -5.958  -2.256  0.00  0.00     0.018 C 
ENDBRANCH   1   8
TORSDOF 1
ENDMDL
