MODEL 1
REMARK minimizedAffinity 9.70417404
REMARK minimizedRMSD -1
REMARK  0 active torsions:
REMARK  status: ('A' for Active; 'I' for Inactive)
ROOT
ATOM      1  C   UNL d   1       3.323  -3.674   1.379  0.00  0.00     0.124 A 
ATOM      2  C1  UNL d   1       4.355  -4.570   1.624  0.00  0.00     0.062 A 
ATOM      3  C2  UNL d   1       5.006  -4.568   2.854  0.00  0.00     0.162 A 
ATOM      4  C3  UNL d   1       4.626  -3.668   3.850  0.00  0.00    -0.034 A 
ATOM      5  C4  UNL d   1       3.588  -2.769   3.595  0.00  0.00     0.162 A 
ATOM      6  C5  UNL d   1       2.940  -2.775   2.364  0.00  0.00     0.062 A 
ATOM      7  F   UNL d   1       1.944  -1.910   2.129  0.00  0.00    -0.097 F 
ATOM      8  F1  UNL d   1       3.198  -1.891   4.530  0.00  0.00    -0.096 F 
ATOM      9  I   UNL d   1       5.597  -3.662   5.690  0.00  0.00    -0.060 I 
ATOM     10  F2  UNL d   1       5.999  -5.444   3.063  0.00  0.00    -0.096 F 
ATOM     11  F3  UNL d   1       4.726  -5.439   0.672  0.00  0.00    -0.097 F 
ATOM     12  F4  UNL d   1       2.698  -3.678   0.194  0.00  0.00    -0.092 F 
ENDROOT
TORSDOF 0
ENDMDL
