MODEL 1
REMARK minimizedAffinity 16.3363953
REMARK minimizedRMSD -1
REMARK  0 active torsions:
REMARK  status: ('A' for Active; 'I' for Inactive)
ROOT
ATOM      1  C   UNL d   1      -3.879  -0.753  -3.715  0.00  0.00     0.124 A 
ATOM      2  C1  UNL d   1      -3.464  -0.144  -2.539  0.00  0.00     0.062 A 
ATOM      3  C2  UNL d   1      -3.223   1.226  -2.507  0.00  0.00     0.162 A 
ATOM      4  C3  UNL d   1      -3.397   1.998  -3.656  0.00  0.00    -0.034 A 
ATOM      5  C4  UNL d   1      -3.813   1.378  -4.836  0.00  0.00     0.162 A 
ATOM      6  C5  UNL d   1      -4.053   0.008  -4.862  0.00  0.00     0.062 A 
ATOM      7  F   UNL d   1      -4.454  -0.579  -5.999  0.00  0.00    -0.097 F 
ATOM      8  F1  UNL d   1      -3.991   2.090  -5.959  0.00  0.00    -0.096 F 
ATOM      9  I   UNL d   1      -3.037   4.047  -3.614  0.00  0.00    -0.060 I 
ATOM     10  F2  UNL d   1      -2.823   1.788  -1.357  0.00  0.00    -0.096 F 
ATOM     11  F3  UNL d   1      -3.294  -0.878  -1.429  0.00  0.00    -0.097 F 
ATOM     12  F4  UNL d   1      -4.110  -2.072  -3.743  0.00  0.00    -0.092 F 
ENDROOT
TORSDOF 0
ENDMDL
