MODEL 1
REMARK minimizedAffinity 11.8247204
REMARK minimizedRMSD -1
REMARK  0 active torsions:
REMARK  status: ('A' for Active; 'I' for Inactive)
ROOT
ATOM      1  C   UNL d   1       2.194  -1.052   0.496  0.00  0.00     0.124 A 
ATOM      2  C1  UNL d   1       3.525  -0.851   0.156  0.00  0.00     0.062 A 
ATOM      3  C2  UNL d   1       4.447  -1.884   0.295  0.00  0.00     0.162 A 
ATOM      4  C3  UNL d   1       4.042  -3.129   0.776  0.00  0.00    -0.034 A 
ATOM      5  C4  UNL d   1       2.702  -3.324   1.117  0.00  0.00     0.162 A 
ATOM      6  C5  UNL d   1       1.784  -2.288   0.976  0.00  0.00     0.062 A 
ATOM      7  F   UNL d   1       0.499  -2.485   1.305  0.00  0.00    -0.097 F 
ATOM      8  F1  UNL d   1       2.278  -4.508   1.582  0.00  0.00    -0.096 F 
ATOM      9  I   UNL d   1       5.417  -4.677   0.985  0.00  0.00    -0.060 I 
ATOM     10  F2  UNL d   1       5.726  -1.661  -0.041  0.00  0.00    -0.096 F 
ATOM     11  F3  UNL d   1       3.924   0.343  -0.306  0.00  0.00    -0.097 F 
ATOM     12  F4  UNL d   1       1.309  -0.056   0.363  0.00  0.00    -0.092 F 
ENDROOT
TORSDOF 0
ENDMDL
