MODEL 1
REMARK minimizedAffinity 15.127512
REMARK minimizedRMSD -1
REMARK  0 active torsions:
REMARK  status: ('A' for Active; 'I' for Inactive)
ROOT
ATOM      1  C   UNL d   1       2.485  -0.185  -0.066  0.00  0.00     0.124 A 
ATOM      2  C1  UNL d   1       1.901  -1.412   0.222  0.00  0.00     0.062 A 
ATOM      3  C2  UNL d   1       2.698  -2.512   0.526  0.00  0.00     0.162 A 
ATOM      4  C3  UNL d   1       4.088  -2.390   0.546  0.00  0.00    -0.034 A 
ATOM      5  C4  UNL d   1       4.667  -1.154   0.255  0.00  0.00     0.162 A 
ATOM      6  C5  UNL d   1       3.866  -0.057  -0.048  0.00  0.00     0.062 A 
ATOM      7  F   UNL d   1       4.431   1.127  -0.326  0.00  0.00    -0.097 F 
ATOM      8  F1  UNL d   1       6.000  -1.002   0.266  0.00  0.00    -0.096 F 
ATOM      9  I   UNL d   1       5.283  -4.032   1.001  0.00  0.00    -0.060 I 
ATOM     10  F2  UNL d   1       2.108  -3.684   0.800  0.00  0.00    -0.096 F 
ATOM     11  F3  UNL d   1       0.567  -1.538   0.205  0.00  0.00    -0.097 F 
ATOM     12  F4  UNL d   1       1.716   0.871  -0.359  0.00  0.00    -0.092 F 
ENDROOT
TORSDOF 0
ENDMDL
