MODEL 1
REMARK minimizedAffinity 13.3709717
REMARK minimizedRMSD -1
REMARK  0 active torsions:
REMARK  status: ('A' for Active; 'I' for Inactive)
ROOT
ATOM      1  C   UNL d   1      -2.605  -1.138  -4.604  0.00  0.00     0.124 A 
ATOM      2  C1  UNL d   1      -2.190   0.020  -5.246  0.00  0.00     0.062 A 
ATOM      3  C2  UNL d   1      -3.060   1.100  -5.374  0.00  0.00     0.162 A 
ATOM      4  C3  UNL d   1      -4.353   1.027  -4.856  0.00  0.00    -0.034 A 
ATOM      5  C4  UNL d   1      -4.763  -0.142  -4.212  0.00  0.00     0.162 A 
ATOM      6  C5  UNL d   1      -3.891  -1.218  -4.087  0.00  0.00     0.062 A 
ATOM      7  F   UNL d   1      -4.293  -2.336  -3.466  0.00  0.00    -0.097 F 
ATOM      8  F1  UNL d   1      -6.000  -0.245  -3.703  0.00  0.00    -0.096 F 
ATOM      9  I   UNL d   1      -5.656   2.639  -5.045  0.00  0.00    -0.060 I 
ATOM     10  F2  UNL d   1      -2.632   2.206  -6.000  0.00  0.00    -0.096 F 
ATOM     11  F3  UNL d   1      -0.949   0.099  -5.747  0.00  0.00    -0.097 F 
ATOM     12  F4  UNL d   1      -1.767  -2.176  -4.483  0.00  0.00    -0.092 F 
ENDROOT
TORSDOF 0
ENDMDL
