MODEL 1
REMARK minimizedAffinity 14.1968155
REMARK minimizedRMSD -1
REMARK  0 active torsions:
REMARK  status: ('A' for Active; 'I' for Inactive)
ROOT
ATOM      1  C   UNL d   1      -2.468  -1.208  -4.981  0.00  0.00     0.124 A 
ATOM      2  C1  UNL d   1      -2.157   0.059  -5.455  0.00  0.00     0.062 A 
ATOM      3  C2  UNL d   1      -3.141   1.039  -5.531  0.00  0.00     0.162 A 
ATOM      4  C3  UNL d   1      -4.448   0.758  -5.131  0.00  0.00    -0.034 A 
ATOM      5  C4  UNL d   1      -4.754  -0.519  -4.656  0.00  0.00     0.162 A 
ATOM      6  C5  UNL d   1      -3.766  -1.496  -4.582  0.00  0.00     0.062 A 
ATOM      7  F   UNL d   1      -4.069  -2.719  -4.124  0.00  0.00    -0.097 F 
ATOM      8  F1  UNL d   1      -5.999  -0.824  -4.264  0.00  0.00    -0.096 F 
ATOM      9  I   UNL d   1      -5.923   2.221  -5.243  0.00  0.00    -0.060 I 
ATOM     10  F2  UNL d   1      -2.812   2.255  -5.993  0.00  0.00    -0.096 F 
ATOM     11  F3  UNL d   1      -0.904   0.339  -5.842  0.00  0.00    -0.097 F 
ATOM     12  F4  UNL d   1      -1.519  -2.150  -4.910  0.00  0.00    -0.092 F 
ENDROOT
TORSDOF 0
ENDMDL
