MODEL 1
REMARK minimizedAffinity 6.77821159
REMARK minimizedRMSD -1
REMARK  0 active torsions:
REMARK  status: ('A' for Active; 'I' for Inactive)
ROOT
ATOM      1  C   UNL d   1      -3.343   4.672  -5.231  0.00  0.00     0.124 A 
ATOM      2  C1  UNL d   1      -2.349   3.757  -5.547  0.00  0.00     0.062 A 
ATOM      3  C2  UNL d   1      -2.578   2.393  -5.395  0.00  0.00     0.162 A 
ATOM      4  C3  UNL d   1      -3.809   1.935  -4.925  0.00  0.00    -0.034 A 
ATOM      5  C4  UNL d   1      -4.804   2.861  -4.608  0.00  0.00     0.162 A 
ATOM      6  C5  UNL d   1      -4.570   4.224  -4.762  0.00  0.00     0.062 A 
ATOM      7  F   UNL d   1      -5.532   5.106  -4.456  0.00  0.00    -0.097 F 
ATOM      8  F1  UNL d   1      -5.999   2.455  -4.154  0.00  0.00    -0.096 F 
ATOM      9  I   UNL d   1      -4.156  -0.104  -4.696  0.00  0.00    -0.060 I 
ATOM     10  F2  UNL d   1      -1.599   1.532  -5.708  0.00  0.00    -0.096 F 
ATOM     11  F3  UNL d   1      -1.162   4.189  -6.000  0.00  0.00    -0.097 F 
ATOM     12  F4  UNL d   1      -3.119   5.985  -5.377  0.00  0.00    -0.092 F 
ENDROOT
TORSDOF 0
ENDMDL
