MODEL 1
REMARK minimizedAffinity 7.30101061
REMARK minimizedRMSD -1
REMARK  0 active torsions:
REMARK  status: ('A' for Active; 'I' for Inactive)
ROOT
ATOM      1  C   UNL d   1       3.672  -3.666   1.108  0.00  0.00     0.124 A 
ATOM      2  C1  UNL d   1       2.484  -3.086   0.685  0.00  0.00     0.062 A 
ATOM      3  C2  UNL d   1       2.473  -1.775   0.216  0.00  0.00     0.162 A 
ATOM      4  C3  UNL d   1       3.655  -1.036   0.166  0.00  0.00    -0.034 A 
ATOM      5  C4  UNL d   1       4.846  -1.626   0.595  0.00  0.00     0.162 A 
ATOM      6  C5  UNL d   1       4.851  -2.936   1.063  0.00  0.00     0.062 A 
ATOM      7  F   UNL d   1       5.999  -3.494   1.472  0.00  0.00    -0.097 F 
ATOM      8  F1  UNL d   1       6.000  -0.943   0.561  0.00  0.00    -0.096 F 
ATOM      9  I   UNL d   1       3.643   0.924  -0.534  0.00  0.00    -0.060 I 
ATOM     10  F2  UNL d   1       1.311  -1.240  -0.187  0.00  0.00    -0.096 F 
ATOM     11  F3  UNL d   1       1.343  -3.789   0.729  0.00  0.00    -0.097 F 
ATOM     12  F4  UNL d   1       3.679  -4.926   1.560  0.00  0.00    -0.092 F 
ENDROOT
TORSDOF 0
ENDMDL
