MODEL 1
REMARK minimizedAffinity 13.4963713
REMARK minimizedRMSD -1
REMARK  0 active torsions:
REMARK  status: ('A' for Active; 'I' for Inactive)
ROOT
ATOM      1  C   UNL d   1      -3.856  -0.729  -2.470  0.00  0.00     0.124 A 
ATOM      2  C1  UNL d   1      -3.802   0.549  -1.933  0.00  0.00     0.062 A 
ATOM      3  C2  UNL d   1      -3.609   1.650  -2.763  0.00  0.00     0.162 A 
ATOM      4  C3  UNL d   1      -3.470   1.477  -4.140  0.00  0.00    -0.034 A 
ATOM      5  C4  UNL d   1      -3.525   0.188  -4.673  0.00  0.00     0.162 A 
ATOM      6  C5  UNL d   1      -3.717  -0.908  -3.840  0.00  0.00     0.062 A 
ATOM      7  F   UNL d   1      -3.769  -2.143  -4.361  0.00  0.00    -0.097 F 
ATOM      8  F1  UNL d   1      -3.394  -0.013  -5.993  0.00  0.00    -0.096 F 
ATOM      9  I   UNL d   1      -3.182   3.121  -5.384  0.00  0.00    -0.060 I 
ATOM     10  F2  UNL d   1      -3.561   2.874  -2.216  0.00  0.00    -0.096 F 
ATOM     11  F3  UNL d   1      -3.935   0.725  -0.610  0.00  0.00    -0.097 F 
ATOM     12  F4  UNL d   1      -4.041  -1.787  -1.670  0.00  0.00    -0.092 F 
ENDROOT
TORSDOF 0
ENDMDL
