MODEL 1
REMARK minimizedAffinity 15.0093918
REMARK minimizedRMSD -1
REMARK  0 active torsions:
REMARK  status: ('A' for Active; 'I' for Inactive)
ROOT
ATOM      1  C   UNL d   1      -2.858  -0.937  -3.692  0.00  0.00     0.124 A 
ATOM      2  C1  UNL d   1      -3.327  -0.350  -4.859  0.00  0.00     0.062 A 
ATOM      3  C2  UNL d   1      -3.747   0.976  -4.856  0.00  0.00     0.162 A 
ATOM      4  C3  UNL d   1      -3.701   1.727  -3.681  0.00  0.00    -0.034 A 
ATOM      5  C4  UNL d   1      -3.229   1.129  -2.511  0.00  0.00     0.162 A 
ATOM      6  C5  UNL d   1      -2.810  -0.197  -2.519  0.00  0.00     0.062 A 
ATOM      7  F   UNL d   1      -2.357  -0.762  -1.390  0.00  0.00    -0.097 F 
ATOM      8  F1  UNL d   1      -3.171   1.822  -1.363  0.00  0.00    -0.096 F 
ATOM      9  I   UNL d   1      -4.329   3.711  -3.672  0.00  0.00    -0.060 I 
ATOM     10  F2  UNL d   1      -4.195   1.517  -5.999  0.00  0.00    -0.096 F 
ATOM     11  F3  UNL d   1      -3.375  -1.064  -5.994  0.00  0.00    -0.097 F 
ATOM     12  F4  UNL d   1      -2.455  -2.214  -3.698  0.00  0.00    -0.092 F 
ENDROOT
TORSDOF 0
ENDMDL
