MODEL 1
REMARK minimizedAffinity 8.28686237
REMARK minimizedRMSD -1
REMARK  0 active torsions:
REMARK  status: ('A' for Active; 'I' for Inactive)
ROOT
ATOM      1  C   UNL d   1      -4.184  -1.086  -3.695  0.00  0.00     0.124 A 
ATOM      2  C1  UNL d   1      -4.666  -0.404  -4.804  0.00  0.00     0.062 A 
ATOM      3  C2  UNL d   1      -4.491   0.972  -4.910  0.00  0.00     0.162 A 
ATOM      4  C3  UNL d   1      -3.831   1.677  -3.903  0.00  0.00    -0.034 A 
ATOM      5  C4  UNL d   1      -3.350   0.985  -2.790  0.00  0.00     0.162 A 
ATOM      6  C5  UNL d   1      -3.527  -0.391  -2.690  0.00  0.00     0.062 A 
ATOM      7  F   UNL d   1      -3.061  -1.048  -1.617  0.00  0.00    -0.097 F 
ATOM      8  F1  UNL d   1      -2.711   1.632  -1.805  0.00  0.00    -0.096 F 
ATOM      9  I   UNL d   1      -3.568   3.736  -4.057  0.00  0.00    -0.060 I 
ATOM     10  F2  UNL d   1      -4.967   1.605  -5.992  0.00  0.00    -0.096 F 
ATOM     11  F3  UNL d   1      -5.302  -1.073  -5.776  0.00  0.00    -0.097 F 
ATOM     12  F4  UNL d   1      -4.354  -2.411  -3.596  0.00  0.00    -0.092 F 
ENDROOT
TORSDOF 0
ENDMDL
