MODEL 1
REMARK minimizedAffinity 7.84516573
REMARK minimizedRMSD -1
REMARK  0 active torsions:
REMARK  status: ('A' for Active; 'I' for Inactive)
ROOT
ATOM      1  C   UNL d   1      -3.373  -0.344  -1.428  0.00  0.00     0.124 A 
ATOM      2  C1  UNL d   1      -3.316   0.961  -1.898  0.00  0.00     0.062 A 
ATOM      3  C2  UNL d   1      -3.703   1.252  -3.203  0.00  0.00     0.162 A 
ATOM      4  C3  UNL d   1      -4.151   0.237  -4.048  0.00  0.00    -0.034 A 
ATOM      5  C4  UNL d   1      -4.205  -1.073  -3.569  0.00  0.00     0.162 A 
ATOM      6  C5  UNL d   1      -3.817  -1.360  -2.264  0.00  0.00     0.062 A 
ATOM      7  F   UNL d   1      -3.873  -2.621  -1.812  0.00  0.00    -0.097 F 
ATOM      8  F1  UNL d   1      -4.631  -2.073  -4.354  0.00  0.00    -0.096 F 
ATOM      9  I   UNL d   1      -4.730   0.670  -6.000  0.00  0.00    -0.060 I 
ATOM     10  F2  UNL d   1      -3.637   2.522  -3.630  0.00  0.00    -0.096 F 
ATOM     11  F3  UNL d   1      -2.887   1.943  -1.093  0.00  0.00    -0.097 F 
ATOM     12  F4  UNL d   1      -3.000  -0.623  -0.173  0.00  0.00    -0.092 F 
ENDROOT
TORSDOF 0
ENDMDL
