MODEL 1
REMARK minimizedAffinity 0.111601748
REMARK minimizedRMSD -1
REMARK  0 active torsions:
REMARK  status: ('A' for Active; 'I' for Inactive)
ROOT
ATOM      1  C   UNL d   1       2.583   0.347   0.481  0.00  0.00    -0.002 A 
ATOM      2  C1  UNL d   1       1.683  -0.709   0.506  0.00  0.00     0.010 A 
ATOM      3  C2  UNL d   1       0.510  -0.625   1.259  0.00  0.00     0.041 A 
ATOM      4  C3  UNL d   1       0.254   0.551   1.991  0.00  0.00    -0.075 A 
ATOM      5  S   UNL d   1      -1.118   0.879   2.983  0.00  0.00     0.015 SA
ATOM      6  C4  UNL d   1      -0.542   2.429   3.395  0.00  0.00     0.022 A 
ATOM      7  C5  UNL d   1       0.666   2.706   2.800  0.00  0.00     0.026 A 
ATOM      8  C6  UNL d   1       1.144   1.628   1.981  0.00  0.00    -0.082 A 
ATOM      9  C7  UNL d   1       2.325   1.511   1.209  0.00  0.00     0.045 A 
ENDROOT
TORSDOF 0
ENDMDL
