MODEL 1
REMARK minimizedAffinity -0.683762312
REMARK minimizedRMSD -1
REMARK  0 active torsions:
REMARK  status: ('A' for Active; 'I' for Inactive)
ROOT
ATOM      1  C   UNL d   1      -0.454   0.235   3.462  0.00  0.00    -0.002 A 
ATOM      2  C1  UNL d   1       0.859   0.011   3.071  0.00  0.00     0.010 A 
ATOM      3  C2  UNL d   1       1.234   0.146   1.733  0.00  0.00     0.041 A 
ATOM      4  C3  UNL d   1       0.259   0.515   0.785  0.00  0.00    -0.075 A 
ATOM      5  S   UNL d   1       0.488   0.741  -0.908  0.00  0.00     0.015 SA
ATOM      6  C4  UNL d   1      -1.151   1.141  -1.152  0.00  0.00     0.022 A 
ATOM      7  C5  UNL d   1      -1.870   1.107   0.019  0.00  0.00     0.026 A 
ATOM      8  C6  UNL d   1      -1.069   0.747   1.155  0.00  0.00    -0.082 A 
ATOM      9  C7  UNL d   1      -1.418   0.601   2.520  0.00  0.00     0.045 A 
ENDROOT
TORSDOF 0
ENDMDL
