MODEL 1
REMARK minimizedAffinity 3.27373075
REMARK minimizedRMSD -1
REMARK  0 active torsions:
REMARK  status: ('A' for Active; 'I' for Inactive)
ROOT
ATOM      1  C   UNL d   1      -2.278   0.565  -0.669  0.00  0.00    -0.002 A 
ATOM      2  C1  UNL d   1      -2.575   0.869   0.652  0.00  0.00     0.010 A 
ATOM      3  C2  UNL d   1      -1.642   0.628   1.663  0.00  0.00     0.041 A 
ATOM      4  C3  UNL d   1      -0.394   0.073   1.321  0.00  0.00    -0.075 A 
ATOM      5  S   UNL d   1       0.904  -0.307   2.391  0.00  0.00     0.015 SA
ATOM      6  C4  UNL d   1       1.883  -0.881   1.120  0.00  0.00     0.022 A 
ATOM      7  C5  UNL d   1       1.252  -0.792  -0.098  0.00  0.00     0.026 A 
ATOM      8  C6  UNL d   1      -0.071  -0.240  -0.002  0.00  0.00    -0.082 A 
ATOM      9  C7  UNL d   1      -1.038   0.014  -1.004  0.00  0.00     0.045 A 
ENDROOT
TORSDOF 0
ENDMDL
