MODEL 1
REMARK minimizedAffinity -3.12512112
REMARK minimizedRMSD -1
REMARK  0 active torsions:
REMARK  status: ('A' for Active; 'I' for Inactive)
ROOT
ATOM      1  C   UNL d   1       1.024  -0.201   3.409  0.00  0.00    -0.002 A 
ATOM      2  C1  UNL d   1      -0.277   0.272   3.493  0.00  0.00     0.010 A 
ATOM      3  C2  UNL d   1      -1.087   0.327   2.357  0.00  0.00     0.041 A 
ATOM      4  C3  UNL d   1      -0.562  -0.108   1.124  0.00  0.00    -0.075 A 
ATOM      5  S   UNL d   1      -1.370  -0.133  -0.399  0.00  0.00     0.015 SA
ATOM      6  C4  UNL d   1      -0.007  -0.774  -1.196  0.00  0.00     0.022 A 
ATOM      7  C5  UNL d   1       1.048  -0.970  -0.336  0.00  0.00     0.026 A 
ATOM      8  C6  UNL d   1       0.745  -0.590   1.015  0.00  0.00    -0.082 A 
ATOM      9  C7  UNL d   1       1.542  -0.632   2.185  0.00  0.00     0.045 A 
ENDROOT
TORSDOF 0
ENDMDL
