MODEL 1
REMARK minimizedAffinity -0.515395582
REMARK minimizedRMSD -1
REMARK  0 active torsions:
REMARK  status: ('A' for Active; 'I' for Inactive)
ROOT
ATOM      1  C   UNL d   1       0.548   1.166   3.441  0.00  0.00    -0.002 A 
ATOM      2  C1  UNL d   1       1.518   1.029   2.458  0.00  0.00     0.010 A 
ATOM      3  C2  UNL d   1       1.191   0.509   1.205  0.00  0.00     0.041 A 
ATOM      4  C3  UNL d   1      -0.141   0.127   0.952  0.00  0.00    -0.075 A 
ATOM      5  S   UNL d   1      -0.774  -0.534  -0.510  0.00  0.00     0.015 SA
ATOM      6  C4  UNL d   1      -2.347  -0.649   0.135  0.00  0.00     0.022 A 
ATOM      7  C5  UNL d   1      -2.406  -0.199   1.433  0.00  0.00     0.026 A 
ATOM      8  C6  UNL d   1      -1.136   0.256   1.925  0.00  0.00    -0.082 A 
ATOM      9  C7  UNL d   1      -0.773   0.785   3.186  0.00  0.00     0.045 A 
ENDROOT
TORSDOF 0
ENDMDL
