MODEL 1
REMARK minimizedAffinity -0.969425857
REMARK minimizedRMSD -1
REMARK  0 active torsions:
REMARK  status: ('A' for Active; 'I' for Inactive)
ROOT
ATOM      1  C   UNL d   1       0.436  -5.186  -0.387  0.00  0.00     0.077 C 
ATOM      2  C1  UNL d   1       0.120  -3.887  -1.066  0.00  0.00    -0.074 A 
ATOM      3  C2  UNL d   1      -0.682  -3.851  -2.212  0.00  0.00    -0.005 A 
ATOM      4  C3  UNL d   1      -0.975  -2.634  -2.827  0.00  0.00     0.006 A 
ATOM      5  C4  UNL d   1      -0.471  -1.443  -2.304  0.00  0.00    -0.005 A 
ATOM      6  C5  UNL d   1       0.331  -1.459  -1.159  0.00  0.00    -0.074 A 
ATOM      7  C6  UNL d   1       0.873  -0.187  -0.577  0.00  0.00     0.077 C 
ATOM      8  C7  UNL d   1       0.616  -2.685  -0.542  0.00  0.00    -0.001 A 
ENDROOT
TORSDOF 0
ENDMDL
