MODEL 1
REMARK minimizedAffinity -1.83854151
REMARK minimizedRMSD -1
REMARK  0 active torsions:
REMARK  status: ('A' for Active; 'I' for Inactive)
ROOT
ATOM      1  C   UNL d   1      -0.270   3.506  -1.189  0.00  0.00     0.077 C 
ATOM      2  C1  UNL d   1      -0.050   2.354  -0.255  0.00  0.00    -0.074 A 
ATOM      3  C2  UNL d   1       0.114   2.564   1.118  0.00  0.00    -0.005 A 
ATOM      4  C3  UNL d   1       0.308   1.482   1.977  0.00  0.00     0.006 A 
ATOM      5  C4  UNL d   1       0.340   0.181   1.472  0.00  0.00    -0.005 A 
ATOM      6  C5  UNL d   1       0.177  -0.048   0.102  0.00  0.00    -0.074 A 
ATOM      7  C6  UNL d   1       0.198  -1.440  -0.456  0.00  0.00     0.077 C 
ATOM      8  C7  UNL d   1      -0.025   1.044  -0.753  0.00  0.00    -0.001 A 
ENDROOT
TORSDOF 0
ENDMDL
