MODEL 1
REMARK minimizedAffinity -3.09397507
REMARK minimizedRMSD -1
REMARK  0 active torsions:
REMARK  status: ('A' for Active; 'I' for Inactive)
ROOT
ATOM      1  C   UNL d   1       2.634  -4.712  -0.170  0.00  0.00     0.077 C 
ATOM      2  C1  UNL d   1       1.399  -3.912  -0.464  0.00  0.00    -0.074 A 
ATOM      3  C2  UNL d   1       0.143  -4.525  -0.522  0.00  0.00    -0.005 A 
ATOM      4  C3  UNL d   1      -0.997  -3.768  -0.788  0.00  0.00     0.006 A 
ATOM      5  C4  UNL d   1      -0.894  -2.392  -0.996  0.00  0.00    -0.005 A 
ATOM      6  C5  UNL d   1       0.353  -1.761  -0.941  0.00  0.00    -0.074 A 
ATOM      7  C6  UNL d   1       0.481  -0.282  -1.153  0.00  0.00     0.077 C 
ATOM      8  C7  UNL d   1       1.494  -2.529  -0.667  0.00  0.00    -0.001 A 
ENDROOT
TORSDOF 0
ENDMDL
