MODEL 1
REMARK minimizedAffinity -3.93025136
REMARK minimizedRMSD -1
REMARK  0 active torsions:
REMARK  status: ('A' for Active; 'I' for Inactive)
ROOT
ATOM      1  C   UNL d   1      -0.168   3.334  -1.084  0.00  0.00     0.077 C 
ATOM      2  C1  UNL d   1       0.048   2.161  -0.174  0.00  0.00    -0.074 A 
ATOM      3  C2  UNL d   1       0.111   2.329   1.213  0.00  0.00    -0.005 A 
ATOM      4  C3  UNL d   1       0.302   1.228   2.047  0.00  0.00     0.006 A 
ATOM      5  C4  UNL d   1       0.433  -0.051   1.503  0.00  0.00    -0.005 A 
ATOM      6  C5  UNL d   1       0.372  -0.239   0.119  0.00  0.00    -0.074 A 
ATOM      7  C6  UNL d   1       0.500  -1.607  -0.481  0.00  0.00     0.077 C 
ATOM      8  C7  UNL d   1       0.172   0.872  -0.712  0.00  0.00    -0.001 A 
ENDROOT
TORSDOF 0
ENDMDL
