MODEL 1
REMARK minimizedAffinity -4.359622
REMARK minimizedRMSD -1
REMARK  0 active torsions:
REMARK  status: ('A' for Active; 'I' for Inactive)
ROOT
ATOM      1  C   UNL d   1      -0.479   0.896   2.873  0.00  0.00     0.077 C 
ATOM      2  C1  UNL d   1      -0.533   0.791   1.378  0.00  0.00    -0.074 A 
ATOM      3  C2  UNL d   1      -0.590   1.937   0.578  0.00  0.00    -0.005 A 
ATOM      4  C3  UNL d   1      -0.630   1.823  -0.812  0.00  0.00     0.006 A 
ATOM      5  C4  UNL d   1      -0.612   0.565  -1.415  0.00  0.00    -0.005 A 
ATOM      6  C5  UNL d   1      -0.553  -0.592  -0.631  0.00  0.00    -0.074 A 
ATOM      7  C6  UNL d   1      -0.523  -1.952  -1.264  0.00  0.00     0.077 C 
ATOM      8  C7  UNL d   1      -0.507  -0.470   0.764  0.00  0.00    -0.001 A 
ENDROOT
TORSDOF 0
ENDMDL
