MODEL 1
REMARK minimizedAffinity -1.63349557
REMARK minimizedRMSD -1
REMARK  0 active torsions:
REMARK  status: ('A' for Active; 'I' for Inactive)
ROOT
ATOM      1  C   UNL d   1      -0.804   2.949  -1.666  0.00  0.00     0.077 C 
ATOM      2  C1  UNL d   1      -0.449   2.070  -0.504  0.00  0.00    -0.074 A 
ATOM      3  C2  UNL d   1      -0.580   2.529   0.811  0.00  0.00    -0.005 A 
ATOM      4  C3  UNL d   1      -0.255   1.697   1.882  0.00  0.00     0.006 A 
ATOM      5  C4  UNL d   1       0.204   0.400   1.650  0.00  0.00    -0.005 A 
ATOM      6  C5  UNL d   1       0.341  -0.077   0.342  0.00  0.00    -0.074 A 
ATOM      7  C6  UNL d   1       0.823  -1.471   0.075  0.00  0.00     0.077 C 
ATOM      8  C7  UNL d   1       0.006   0.763  -0.729  0.00  0.00    -0.001 A 
ENDROOT
TORSDOF 0
ENDMDL
