MODEL 1
REMARK minimizedAffinity -2.77785945
REMARK minimizedRMSD -1
REMARK  0 active torsions:
REMARK  status: ('A' for Active; 'I' for Inactive)
ROOT
ATOM      1  C   UNL d   1      -1.401  -0.621   1.687  0.00  0.00     0.077 C 
ATOM      2  C1  UNL d   1      -0.565  -1.031   0.511  0.00  0.00    -0.074 A 
ATOM      3  C2  UNL d   1       0.462  -0.208   0.037  0.00  0.00    -0.005 A 
ATOM      4  C3  UNL d   1       1.237  -0.606  -1.052  0.00  0.00     0.006 A 
ATOM      5  C4  UNL d   1       0.995  -1.831  -1.676  0.00  0.00    -0.005 A 
ATOM      6  C5  UNL d   1      -0.027  -2.668  -1.215  0.00  0.00    -0.074 A 
ATOM      7  C6  UNL d   1      -0.294  -3.991  -1.869  0.00  0.00     0.077 C 
ATOM      8  C7  UNL d   1      -0.797  -2.263  -0.117  0.00  0.00    -0.001 A 
ENDROOT
TORSDOF 0
ENDMDL
