MODEL 1
REMARK minimizedAffinity -3.30948257
REMARK minimizedRMSD -1
REMARK  0 active torsions:
REMARK  status: ('A' for Active; 'I' for Inactive)
ROOT
ATOM      1  C   UNL d   1       0.379   0.396   0.820  0.00  0.00     0.077 C 
ATOM      2  C1  UNL d   1       0.203  -0.645  -0.245  0.00  0.00    -0.074 A 
ATOM      3  C2  UNL d   1       1.034  -0.669  -1.370  0.00  0.00    -0.005 A 
ATOM      4  C3  UNL d   1       0.864  -1.649  -2.348  0.00  0.00     0.006 A 
ATOM      5  C4  UNL d   1      -0.136  -2.613  -2.211  0.00  0.00    -0.005 A 
ATOM      6  C5  UNL d   1      -0.975  -2.605  -1.093  0.00  0.00    -0.074 A 
ATOM      7  C6  UNL d   1      -2.049  -3.639  -0.926  0.00  0.00     0.077 C 
ATOM      8  C7  UNL d   1      -0.794  -1.621  -0.111  0.00  0.00    -0.001 A 
ENDROOT
TORSDOF 0
ENDMDL
