MODEL 1
REMARK minimizedAffinity -1.71945179
REMARK minimizedRMSD -1
REMARK  0 active torsions:
REMARK  status: ('A' for Active; 'I' for Inactive)
ROOT
ATOM      1  C1  BNZ d   1       1.126   2.740  -0.059  0.00  0.00     0.000 A 
ATOM      2  C2  BNZ d   1       0.981   1.506   0.517  0.00  0.00     0.000 A 
ATOM      3  C3  BNZ d   1       0.960   0.374  -0.249  0.00  0.00     0.000 A 
ATOM      4  C4  BNZ d   1       1.044   0.480  -1.591  0.00  0.00     0.000 A 
ATOM      5  C5  BNZ d   1       1.182   1.717  -2.187  0.00  0.00     0.000 A 
ATOM      6  C6  BNZ d   1       1.242   2.852  -1.410  0.00  0.00     0.000 A 
ENDROOT
TORSDOF 0
ENDMDL
