MODEL 1
REMARK minimizedAffinity -4.9357338
REMARK minimizedRMSD -1
REMARK  0 active torsions:
REMARK  status: ('A' for Active; 'I' for Inactive)
ROOT
ATOM      1  C1  BNZ d   1       1.753   2.643   0.218  0.00  0.00     0.000 A 
ATOM      2  C2  BNZ d   1       1.290   1.462   0.736  0.00  0.00     0.000 A 
ATOM      3  C3  BNZ d   1       0.762   0.500  -0.079  0.00  0.00     0.000 A 
ATOM      4  C4  BNZ d   1       0.661   0.735  -1.403  0.00  0.00     0.000 A 
ATOM      5  C5  BNZ d   1       1.115   1.924  -1.939  0.00  0.00     0.000 A 
ATOM      6  C6  BNZ d   1       1.681   2.874  -1.121  0.00  0.00     0.000 A 
ENDROOT
TORSDOF 0
ENDMDL
