MODEL 1
REMARK minimizedAffinity -4.79287481
REMARK minimizedRMSD -1
REMARK  0 active torsions:
REMARK  status: ('A' for Active; 'I' for Inactive)
ROOT
ATOM      1  C1  BNZ d   1       0.755   2.267  -0.597  0.00  0.00     0.000 A 
ATOM      2  C2  BNZ d   1       0.642   1.194   0.247  0.00  0.00     0.000 A 
ATOM      3  C3  BNZ d   1       1.016  -0.057  -0.157  0.00  0.00     0.000 A 
ATOM      4  C4  BNZ d   1       1.465  -0.240  -1.416  0.00  0.00     0.000 A 
ATOM      5  C5  BNZ d   1       1.577   0.830  -2.281  0.00  0.00     0.000 A 
ATOM      6  C6  BNZ d   1       1.235   2.094  -1.858  0.00  0.00     0.000 A 
ENDROOT
TORSDOF 0
ENDMDL
