MODEL 1
REMARK minimizedAffinity -0.75964278
REMARK minimizedRMSD -1
REMARK  0 active torsions:
REMARK  status: ('A' for Active; 'I' for Inactive)
ROOT
ATOM      1  C1  BNZ d   1       2.312   0.727  -2.072  0.00  0.00     0.000 A 
ATOM      2  C2  BNZ d   1       1.919  -0.200  -1.143  0.00  0.00     0.000 A 
ATOM      3  C3  BNZ d   1       1.070   0.142  -0.128  0.00  0.00     0.000 A 
ATOM      4  C4  BNZ d   1       0.647   1.418  -0.019  0.00  0.00     0.000 A 
ATOM      5  C5  BNZ d   1       1.042   2.366  -0.942  0.00  0.00     0.000 A 
ATOM      6  C6  BNZ d   1       1.865   2.010  -1.985  0.00  0.00     0.000 A 
ENDROOT
TORSDOF 0
ENDMDL
