MODEL 1
REMARK minimizedAffinity -1.40203714
REMARK minimizedRMSD -1
REMARK  0 active torsions:
REMARK  status: ('A' for Active; 'I' for Inactive)
ROOT
ATOM      1  C1  BNZ d   1       1.145   2.563  -0.572  0.00  0.00     0.000 A 
ATOM      2  C2  BNZ d   1       0.568   1.769   0.383  0.00  0.00     0.000 A 
ATOM      3  C3  BNZ d   1       0.786   0.419   0.397  0.00  0.00     0.000 A 
ATOM      4  C4  BNZ d   1       1.547  -0.139  -0.567  0.00  0.00     0.000 A 
ATOM      5  C5  BNZ d   1       2.128   0.647  -1.543  0.00  0.00     0.000 A 
ATOM      6  C6  BNZ d   1       1.938   2.010  -1.530  0.00  0.00     0.000 A 
ENDROOT
TORSDOF 0
ENDMDL
