MODEL 1
REMARK minimizedAffinity -1.84890616
REMARK minimizedRMSD -1
REMARK  0 active torsions:
REMARK  status: ('A' for Active; 'I' for Inactive)
ROOT
ATOM      1  C1  BNZ d   1       1.367   2.376  -1.168  0.00  0.00     0.000 A 
ATOM      2  C2  BNZ d   1       1.483   3.498  -1.944  0.00  0.00     0.000 A 
ATOM      3  C3  BNZ d   1       1.658   4.728  -1.374  0.00  0.00     0.000 A 
ATOM      4  C4  BNZ d   1       1.676   4.840  -0.031  0.00  0.00     0.000 A 
ATOM      5  C5  BNZ d   1       1.551   3.719   0.766  0.00  0.00     0.000 A 
ATOM      6  C6  BNZ d   1       1.414   2.478   0.188  0.00  0.00     0.000 A 
ENDROOT
TORSDOF 0
ENDMDL
