MODEL 1
REMARK minimizedAffinity -3.55670428
REMARK minimizedRMSD -1
REMARK  0 active torsions:
REMARK  status: ('A' for Active; 'I' for Inactive)
ROOT
ATOM      1  C1  BNZ d   1       1.477   2.978  -0.476  0.00  0.00     0.000 A 
ATOM      2  C2  BNZ d   1       1.767   2.235  -1.589  0.00  0.00     0.000 A 
ATOM      3  C3  BNZ d   1       1.596   0.878  -1.588  0.00  0.00     0.000 A 
ATOM      4  C4  BNZ d   1       1.175   0.264  -0.464  0.00  0.00     0.000 A 
ATOM      5  C5  BNZ d   1       0.888   0.998   0.669  0.00  0.00     0.000 A 
ATOM      6  C6  BNZ d   1       1.024   2.368   0.652  0.00  0.00     0.000 A 
ENDROOT
TORSDOF 0
ENDMDL
