MODEL 1
REMARK minimizedAffinity -1.79963326
REMARK minimizedRMSD -1
REMARK  0 active torsions:
REMARK  status: ('A' for Active; 'I' for Inactive)
ROOT
ATOM      1  C1  BNZ d   1       1.353  -0.223  -0.150  0.00  0.00     0.000 A 
ATOM      2  C2  BNZ d   1       1.246   0.231  -1.438  0.00  0.00     0.000 A 
ATOM      3  C3  BNZ d   1       0.994   1.550  -1.696  0.00  0.00     0.000 A 
ATOM      4  C4  BNZ d   1       0.811   2.403  -0.669  0.00  0.00     0.000 A 
ATOM      5  C5  BNZ d   1       0.906   1.959   0.635  0.00  0.00     0.000 A 
ATOM      6  C6  BNZ d   1       1.198   0.639   0.891  0.00  0.00     0.000 A 
ENDROOT
TORSDOF 0
ENDMDL
