MODEL 1
REMARK minimizedAffinity -4.007411
REMARK minimizedRMSD -1
REMARK  0 active torsions:
REMARK  status: ('A' for Active; 'I' for Inactive)
ROOT
ATOM      1  C1  BNZ d   1       1.326   1.041  -1.116  0.00  0.00     0.000 A 
ATOM      2  C2  BNZ d   1       1.031   0.628   0.156  0.00  0.00     0.000 A 
ATOM      3  C3  BNZ d   1       0.887   1.532   1.170  0.00  0.00     0.000 A 
ATOM      4  C4  BNZ d   1       1.078   2.844   0.921  0.00  0.00     0.000 A 
ATOM      5  C5  BNZ d   1       1.385   3.276  -0.354  0.00  0.00     0.000 A 
ATOM      6  C6  BNZ d   1       1.491   2.366  -1.381  0.00  0.00     0.000 A 
ENDROOT
TORSDOF 0
ENDMDL
