MODEL 1
REMARK minimizedAffinity 4.53263712
REMARK minimizedRMSD -1
REMARK  0 active torsions:
REMARK  status: ('A' for Active; 'I' for Inactive)
ROOT
ATOM      1  C1  BNZ d   1       0.995  -0.445  -1.169  0.00  0.00     0.000 A 
ATOM      2  C2  BNZ d   1       0.639   0.726  -1.784  0.00  0.00     0.000 A 
ATOM      3  C3  BNZ d   1       1.062   1.930  -1.295  0.00  0.00     0.000 A 
ATOM      4  C4  BNZ d   1       1.805   1.965  -0.170  0.00  0.00     0.000 A 
ATOM      5  C5  BNZ d   1       2.164   0.794   0.467  0.00  0.00     0.000 A 
ATOM      6  C6  BNZ d   1       1.769  -0.419  -0.050  0.00  0.00     0.000 A 
ENDROOT
TORSDOF 0
ENDMDL
