MODEL 1
REMARK minimizedAffinity 2.12122512
REMARK minimizedRMSD -1
REMARK  0 active torsions:
REMARK  status: ('A' for Active; 'I' for Inactive)
ROOT
ATOM      1  C1  BNZ d   1       1.773   1.794  -1.736  0.00  0.00     0.000 A 
ATOM      2  C2  BNZ d   1       1.354   3.090  -1.595  0.00  0.00     0.000 A 
ATOM      3  C3  BNZ d   1       1.187   3.640  -0.355  0.00  0.00     0.000 A 
ATOM      4  C4  BNZ d   1       1.401   2.883   0.741  0.00  0.00     0.000 A 
ATOM      5  C5  BNZ d   1       1.815   1.572   0.615  0.00  0.00     0.000 A 
ATOM      6  C6  BNZ d   1       2.019   1.033  -0.635  0.00  0.00     0.000 A 
ENDROOT
TORSDOF 0
ENDMDL
