MODEL 1
REMARK minimizedAffinity -4.96629667
REMARK minimizedRMSD -1
REMARK  0 active torsions:
REMARK  status: ('A' for Active; 'I' for Inactive)
ROOT
ATOM      1  C1  BNZ d   1       1.198   0.070   0.031  0.00  0.00     0.000 A 
ATOM      2  C2  BNZ d   1       1.582   0.372  -1.248  0.00  0.00     0.000 A 
ATOM      3  C3  BNZ d   1       1.583   1.665  -1.691  0.00  0.00     0.000 A 
ATOM      4  C4  BNZ d   1       1.161   2.648  -0.869  0.00  0.00     0.000 A 
ATOM      5  C5  BNZ d   1       0.761   2.358   0.420  0.00  0.00     0.000 A 
ATOM      6  C6  BNZ d   1       0.799   1.060   0.875  0.00  0.00     0.000 A 
ENDROOT
TORSDOF 0
ENDMDL
