MODEL 1
REMARK minimizedAffinity -4.23730421
REMARK minimizedRMSD -1
REMARK  0 active torsions:
REMARK  status: ('A' for Active; 'I' for Inactive)
ROOT
ATOM      1  C1  BNZ d   1       0.872   1.825   0.135  0.00  0.00     0.000 A 
ATOM      2  C2  BNZ d   1       1.092   3.175   0.193  0.00  0.00     0.000 A 
ATOM      3  C3  BNZ d   1       1.483   3.869  -0.918  0.00  0.00     0.000 A 
ATOM      4  C4  BNZ d   1       1.691   3.207  -2.074  0.00  0.00     0.000 A 
ATOM      5  C5  BNZ d   1       1.482   1.844  -2.146  0.00  0.00     0.000 A 
ATOM      6  C6  BNZ d   1       1.051   1.155  -1.036  0.00  0.00     0.000 A 
ENDROOT
TORSDOF 0
ENDMDL
