MODEL 1
REMARK minimizedAffinity -4.5926671
REMARK minimizedRMSD -1
REMARK  0 active torsions:
REMARK  status: ('A' for Active; 'I' for Inactive)
ROOT
ATOM      1  C1  BNZ d   1       1.059   2.766  -1.114  0.00  0.00     0.000 A 
ATOM      2  C2  BNZ d   1       0.793   2.350   0.163  0.00  0.00     0.000 A 
ATOM      3  C3  BNZ d   1       1.008   1.053   0.535  0.00  0.00     0.000 A 
ATOM      4  C4  BNZ d   1       1.449   0.165  -0.379  0.00  0.00     0.000 A 
ATOM      5  C5  BNZ d   1       1.713   0.567  -1.673  0.00  0.00     0.000 A 
ATOM      6  C6  BNZ d   1       1.533   1.883  -2.034  0.00  0.00     0.000 A 
ENDROOT
TORSDOF 0
ENDMDL
