MODEL 1
REMARK minimizedAffinity -1.41034591
REMARK minimizedRMSD -1
REMARK  0 active torsions:
REMARK  status: ('A' for Active; 'I' for Inactive)
ROOT
ATOM      1  C1  BNZ d   1       0.899   0.676  -1.576  0.00  0.00     0.000 A 
ATOM      2  C2  BNZ d   1       1.016   1.829  -2.305  0.00  0.00     0.000 A 
ATOM      3  C3  BNZ d   1       1.209   3.032  -1.686  0.00  0.00     0.000 A 
ATOM      4  C4  BNZ d   1       1.244   3.086  -0.339  0.00  0.00     0.000 A 
ATOM      5  C5  BNZ d   1       1.119   1.933   0.411  0.00  0.00     0.000 A 
ATOM      6  C6  BNZ d   1       0.963   0.719  -0.218  0.00  0.00     0.000 A 
ENDROOT
TORSDOF 0
ENDMDL
