MODEL 1
REMARK minimizedAffinity -4.42447376
REMARK minimizedRMSD -1
REMARK  0 active torsions:
REMARK  status: ('A' for Active; 'I' for Inactive)
ROOT
ATOM      1  C1  BNZ d   1       1.154   3.136  -0.548  0.00  0.00     0.000 A 
ATOM      2  C2  BNZ d   1       1.286   2.339  -1.654  0.00  0.00     0.000 A 
ATOM      3  C3  BNZ d   1       1.313   0.977  -1.535  0.00  0.00     0.000 A 
ATOM      4  C4  BNZ d   1       1.247   0.417  -0.310  0.00  0.00     0.000 A 
ATOM      5  C5  BNZ d   1       1.123   1.207   0.814  0.00  0.00     0.000 A 
ATOM      6  C6  BNZ d   1       1.058   2.576   0.688  0.00  0.00     0.000 A 
ENDROOT
TORSDOF 0
ENDMDL
