MODEL 1
REMARK minimizedAffinity 2.97962022
REMARK minimizedRMSD -1
REMARK  0 active torsions:
REMARK  status: ('A' for Active; 'I' for Inactive)
ROOT
ATOM      1  C1  BNZ d   1       1.098   2.364  -1.571  0.00  0.00     0.000 A 
ATOM      2  C2  BNZ d   1       0.731   3.653  -1.294  0.00  0.00     0.000 A 
ATOM      3  C3  BNZ d   1       0.810   4.145  -0.021  0.00  0.00     0.000 A 
ATOM      4  C4  BNZ d   1       1.218   3.336   0.978  0.00  0.00     0.000 A 
ATOM      5  C5  BNZ d   1       1.583   2.031   0.716  0.00  0.00     0.000 A 
ATOM      6  C6  BNZ d   1       1.539   1.551  -0.573  0.00  0.00     0.000 A 
ENDROOT
TORSDOF 0
ENDMDL
