MODEL 1
REMARK minimizedAffinity -5.21720648
REMARK minimizedRMSD -1
REMARK  1 active torsions:
REMARK  status: ('A' for Active; 'I' for Inactive)
REMARK    1  A    between atoms: C1_2  and  C2_3 
ROOT
ATOM      1  C2  UNL d   1       0.078  -0.268  -0.034  0.00  0.00    -0.077 A 
ATOM      2  C3  UNL d   1      -0.943  -0.913   0.677  0.00  0.00     0.002 A 
ATOM      3  C4  UNL d   1      -2.223  -1.025   0.130  0.00  0.00     0.002 A 
ATOM      4  C5  UNL d   1      -2.492  -0.498  -1.131  0.00  0.00    -0.004 A 
ATOM      5  C6  UNL d   1      -1.483   0.147  -1.846  0.00  0.00     0.002 A 
ATOM      6  C7  UNL d   1      -0.204   0.261  -1.300  0.00  0.00     0.002 A 
ENDROOT
BRANCH   1   7
ATOM      7  C1  UNL d   1       1.472  -0.190   0.533  0.00  0.00     0.055 C 
ATOM      8  C   UNL d   1       2.175   1.088   0.100  0.00  0.00     0.019 C 
ENDBRANCH   1   7
TORSDOF 1
ENDMDL
