MODEL 1
REMARK minimizedAffinity 0.473901331
REMARK minimizedRMSD -1
REMARK  1 active torsions:
REMARK  status: ('A' for Active; 'I' for Inactive)
REMARK    1  A    between atoms: C1_2  and  C2_3 
ROOT
ATOM      1  C2  UNL d   1      -1.042  -0.352  -0.775  0.00  0.00    -0.077 A 
ATOM      2  C3  UNL d   1      -2.014  -1.053  -1.502  0.00  0.00     0.002 A 
ATOM      3  C4  UNL d   1      -2.984  -1.807  -0.839  0.00  0.00     0.002 A 
ATOM      4  C5  UNL d   1      -2.994  -1.864   0.553  0.00  0.00    -0.004 A 
ATOM      5  C6  UNL d   1      -2.030  -1.172   1.285  0.00  0.00     0.002 A 
ATOM      6  C7  UNL d   1      -1.059  -0.419   0.624  0.00  0.00     0.002 A 
ENDROOT
BRANCH   1   7
ATOM      7  C1  UNL d   1      -0.024   0.502  -1.486  0.00  0.00     0.055 C 
ATOM      8  C   UNL d   1       1.198   0.749  -0.613  0.00  0.00     0.019 C 
ENDBRANCH   1   7
TORSDOF 1
ENDMDL
