MODEL 1
REMARK minimizedAffinity -4.12170839
REMARK minimizedRMSD -1
REMARK  1 active torsions:
REMARK  status: ('A' for Active; 'I' for Inactive)
REMARK    1  A    between atoms: C1_2  and  C2_3 
ROOT
ATOM      1  C2  UNL d   1       0.374  -0.007   0.169  0.00  0.00    -0.077 A 
ATOM      2  C3  UNL d   1      -0.618  -0.715   0.863  0.00  0.00     0.002 A 
ATOM      3  C4  UNL d   1      -1.859  -0.956   0.270  0.00  0.00     0.002 A 
ATOM      4  C5  UNL d   1      -2.118  -0.496  -1.020  0.00  0.00    -0.004 A 
ATOM      5  C6  UNL d   1      -1.139   0.210  -1.717  0.00  0.00     0.002 A 
ATOM      6  C7  UNL d   1       0.101   0.453  -1.125  0.00  0.00     0.002 A 
ENDROOT
BRANCH   1   7
ATOM      7  C1  UNL d   1       1.730   0.211   0.788  0.00  0.00     0.055 C 
ATOM      8  C   UNL d   1       2.297   1.572   0.412  0.00  0.00     0.019 C 
ENDBRANCH   1   7
TORSDOF 1
ENDMDL
