MODEL 1
REMARK minimizedAffinity -3.49946404
REMARK minimizedRMSD -1
REMARK  1 active torsions:
REMARK  status: ('A' for Active; 'I' for Inactive)
REMARK    1  A    between atoms: C1_2  and  C2_3 
ROOT
ATOM      1  C2  UNL d   1       0.383  -0.279   0.020  0.00  0.00    -0.077 A 
ATOM      2  C3  UNL d   1      -0.536  -0.879   0.894  0.00  0.00     0.002 A 
ATOM      3  C4  UNL d   1      -1.850  -1.113   0.484  0.00  0.00     0.002 A 
ATOM      4  C5  UNL d   1      -2.256  -0.755  -0.799  0.00  0.00    -0.004 A 
ATOM      5  C6  UNL d   1      -1.351  -0.157  -1.675  0.00  0.00     0.002 A 
ATOM      6  C7  UNL d   1      -0.037   0.080  -1.267  0.00  0.00     0.002 A 
ENDROOT
BRANCH   1   7
ATOM      7  C1  UNL d   1       1.813  -0.070   0.443  0.00  0.00     0.055 C 
ATOM      8  C   UNL d   1       2.200   1.400   0.381  0.00  0.00     0.019 C 
ENDBRANCH   1   7
TORSDOF 1
ENDMDL
