MODEL 1
REMARK minimizedAffinity -4.96239662
REMARK minimizedRMSD -1
REMARK  1 active torsions:
REMARK  status: ('A' for Active; 'I' for Inactive)
REMARK    1  A    between atoms: C1_2  and  C2_3 
ROOT
ATOM      1  C2  UNL d   1      -1.310  -0.645   0.418  0.00  0.00    -0.077 A 
ATOM      2  C3  UNL d   1      -0.781  -1.523   1.376  0.00  0.00     0.002 A 
ATOM      3  C4  UNL d   1      -1.502  -2.650   1.774  0.00  0.00     0.002 A 
ATOM      4  C5  UNL d   1      -2.752  -2.912   1.218  0.00  0.00    -0.004 A 
ATOM      5  C6  UNL d   1      -3.287  -2.045   0.267  0.00  0.00     0.002 A 
ATOM      6  C7  UNL d   1      -2.569  -0.917  -0.132  0.00  0.00     0.002 A 
ENDROOT
BRANCH   1   7
ATOM      7  C1  UNL d   1      -0.513   0.544  -0.049  0.00  0.00     0.055 C 
ATOM      8  C   UNL d   1       0.948   0.429   0.363  0.00  0.00     0.019 C 
ENDBRANCH   1   7
TORSDOF 1
ENDMDL
