MODEL 1
REMARK minimizedAffinity -4.33539009
REMARK minimizedRMSD -1
REMARK  1 active torsions:
REMARK  status: ('A' for Active; 'I' for Inactive)
REMARK    1  A    between atoms: C1_2  and  C2_3 
ROOT
ATOM      1  C2  UNL d   1      -0.511  -0.640  -0.482  0.00  0.00    -0.077 A 
ATOM      2  C3  UNL d   1      -0.766   0.461  -1.311  0.00  0.00     0.002 A 
ATOM      3  C4  UNL d   1      -2.013   0.610  -1.923  0.00  0.00     0.002 A 
ATOM      4  C5  UNL d   1      -3.014  -0.335  -1.708  0.00  0.00    -0.004 A 
ATOM      5  C6  UNL d   1      -2.769  -1.434  -0.886  0.00  0.00     0.002 A 
ATOM      6  C7  UNL d   1      -1.523  -1.586  -0.276  0.00  0.00     0.002 A 
ENDROOT
BRANCH   1   7
ATOM      7  C1  UNL d   1       0.816  -0.778   0.217  0.00  0.00     0.055 C 
ATOM      8  C   UNL d   1       1.606   0.522   0.167  0.00  0.00     0.019 C 
ENDBRANCH   1   7
TORSDOF 1
ENDMDL
