MODEL 1
REMARK minimizedAffinity -5.21584988
REMARK minimizedRMSD -1
REMARK  1 active torsions:
REMARK  status: ('A' for Active; 'I' for Inactive)
REMARK    1  A    between atoms: C1_2  and  C2_3 
ROOT
ATOM      1  C2  UNL d   1      -0.172  -0.439  -0.012  0.00  0.00    -0.077 A 
ATOM      2  C3  UNL d   1      -0.577  -1.304   1.014  0.00  0.00     0.002 A 
ATOM      3  C4  UNL d   1      -1.893  -1.766   1.070  0.00  0.00     0.002 A 
ATOM      4  C5  UNL d   1      -2.814  -1.372   0.101  0.00  0.00    -0.004 A 
ATOM      5  C6  UNL d   1      -2.421  -0.509  -0.922  0.00  0.00     0.002 A 
ATOM      6  C7  UNL d   1      -1.106  -0.046  -0.979  0.00  0.00     0.002 A 
ENDROOT
BRANCH   1   7
ATOM      7  C1  UNL d   1       1.259   0.022  -0.102  0.00  0.00     0.055 C 
ATOM      8  C   UNL d   1       1.526   1.189   0.837  0.00  0.00     0.019 C 
ENDBRANCH   1   7
TORSDOF 1
ENDMDL
