MODEL 1
REMARK minimizedAffinity -5.7786355
REMARK minimizedRMSD -1
REMARK  1 active torsions:
REMARK  status: ('A' for Active; 'I' for Inactive)
REMARK    1  A    between atoms: C1_2  and  C2_3 
ROOT
ATOM      1  C2  UNL d   1      -0.546  -0.830   0.515  0.00  0.00    -0.077 A 
ATOM      2  C3  UNL d   1      -0.621  -2.074   1.157  0.00  0.00     0.002 A 
ATOM      3  C4  UNL d   1      -1.831  -2.768   1.213  0.00  0.00     0.002 A 
ATOM      4  C5  UNL d   1      -2.974  -2.229   0.626  0.00  0.00    -0.004 A 
ATOM      5  C6  UNL d   1      -2.910  -0.991  -0.013  0.00  0.00     0.002 A 
ATOM      6  C7  UNL d   1      -1.702  -0.295  -0.069  0.00  0.00     0.002 A 
ENDROOT
BRANCH   1   7
ATOM      7  C1  UNL d   1       0.769  -0.103   0.411  0.00  0.00     0.055 C 
ATOM      8  C   UNL d   1       1.518  -0.493  -0.855  0.00  0.00     0.019 C 
ENDBRANCH   1   7
TORSDOF 1
ENDMDL
