MODEL 1
REMARK minimizedAffinity -6.0232954
REMARK minimizedRMSD -1
REMARK  1 active torsions:
REMARK  status: ('A' for Active; 'I' for Inactive)
REMARK    1  A    between atoms: C1_2  and  C2_3 
ROOT
ATOM      1  C2  UNL d   1      -0.466  -0.892   0.330  0.00  0.00    -0.077 A 
ATOM      2  C3  UNL d   1      -1.033  -1.910   1.109  0.00  0.00     0.002 A 
ATOM      3  C4  UNL d   1      -2.377  -2.256   0.949  0.00  0.00     0.002 A 
ATOM      4  C5  UNL d   1      -3.162  -1.590   0.010  0.00  0.00    -0.004 A 
ATOM      5  C6  UNL d   1      -2.608  -0.574  -0.767  0.00  0.00     0.002 A 
ATOM      6  C7  UNL d   1      -1.265  -0.227  -0.608  0.00  0.00     0.002 A 
ENDROOT
BRANCH   1   7
ATOM      7  C1  UNL d   1       0.995  -0.551   0.466  0.00  0.00     0.055 C 
ATOM      8  C   UNL d   1       1.209   0.954   0.534  0.00  0.00     0.019 C 
ENDBRANCH   1   7
TORSDOF 1
ENDMDL
