MODEL 1
REMARK minimizedAffinity -4.74271107
REMARK minimizedRMSD -1
REMARK  1 active torsions:
REMARK  status: ('A' for Active; 'I' for Inactive)
REMARK    1  A    between atoms: C1_2  and  C2_3 
ROOT
ATOM      1  C2  UNL d   1       0.271  -0.224   0.052  0.00  0.00    -0.077 A 
ATOM      2  C3  UNL d   1      -0.869  -0.813   0.618  0.00  0.00     0.002 A 
ATOM      3  C4  UNL d   1      -2.076  -0.833  -0.083  0.00  0.00     0.002 A 
ATOM      4  C5  UNL d   1      -2.154  -0.271  -1.355  0.00  0.00    -0.004 A 
ATOM      5  C6  UNL d   1      -1.026   0.318  -1.927  0.00  0.00     0.002 A 
ATOM      6  C7  UNL d   1       0.181   0.341  -1.227  0.00  0.00     0.002 A 
ENDROOT
BRANCH   1   7
ATOM      7  C1  UNL d   1       1.586  -0.245   0.786  0.00  0.00     0.055 C 
ATOM      8  C   UNL d   1       2.224   1.136   0.818  0.00  0.00     0.019 C 
ENDBRANCH   1   7
TORSDOF 1
ENDMDL
