MODEL 1
REMARK minimizedAffinity -4.1028471
REMARK minimizedRMSD -1
REMARK  1 active torsions:
REMARK  status: ('A' for Active; 'I' for Inactive)
REMARK    1  A    between atoms: C1_2  and  C2_3 
ROOT
ATOM      1  C2  UNL d   1      -1.126  -0.254  -0.913  0.00  0.00    -0.077 A 
ATOM      2  C3  UNL d   1      -0.426   0.665  -1.707  0.00  0.00     0.002 A 
ATOM      3  C4  UNL d   1       0.812   1.158  -1.291  0.00  0.00     0.002 A 
ATOM      4  C5  UNL d   1       1.362   0.735  -0.083  0.00  0.00    -0.004 A 
ATOM      5  C6  UNL d   1       0.673  -0.177   0.715  0.00  0.00     0.002 A 
ATOM      6  C7  UNL d   1      -0.565  -0.670   0.301  0.00  0.00     0.002 A 
ENDROOT
BRANCH   1   7
ATOM      7  C1  UNL d   1      -2.439  -0.825  -1.383  0.00  0.00     0.055 C 
ATOM      8  C   UNL d   1      -3.233  -1.413  -0.226  0.00  0.00     0.019 C 
ENDBRANCH   1   7
TORSDOF 1
ENDMDL
