MODEL 1
REMARK minimizedAffinity -5.83224154
REMARK minimizedRMSD -1
REMARK  1 active torsions:
REMARK  status: ('A' for Active; 'I' for Inactive)
REMARK    1  A    between atoms: C1_2  and  C2_3 
ROOT
ATOM      1  C2  UNL d   1      -1.107  -0.961  -0.226  0.00  0.00    -0.077 A 
ATOM      2  C3  UNL d   1      -0.514  -1.722   0.791  0.00  0.00     0.002 A 
ATOM      3  C4  UNL d   1      -1.255  -2.688   1.475  0.00  0.00     0.002 A 
ATOM      4  C5  UNL d   1      -2.592  -2.904   1.147  0.00  0.00    -0.004 A 
ATOM      5  C6  UNL d   1      -3.192  -2.151   0.139  0.00  0.00     0.002 A 
ATOM      6  C7  UNL d   1      -2.453  -1.184  -0.545  0.00  0.00     0.002 A 
ENDROOT
BRANCH   1   7
ATOM      7  C1  UNL d   1      -0.296   0.046  -0.998  0.00  0.00     0.055 C 
ATOM      8  C   UNL d   1       0.642   0.819  -0.084  0.00  0.00     0.019 C 
ENDBRANCH   1   7
TORSDOF 1
ENDMDL
