MODEL 1
REMARK minimizedAffinity 1.45826137
REMARK minimizedRMSD -1
REMARK  0 active torsions:
REMARK  status: ('A' for Active; 'I' for Inactive)
ROOT
ATOM      1  C   UNL d   1      -0.421  -2.217   1.528  0.00  0.00    -0.002 A 
ATOM      2  C1  UNL d   1      -1.206  -1.106   1.803  0.00  0.00     0.010 A 
ATOM      3  C2  UNL d   1      -1.302  -0.060   0.883  0.00  0.00     0.041 A 
ATOM      4  C3  UNL d   1      -0.592  -0.151  -0.330  0.00  0.00    -0.075 A 
ATOM      5  S   UNL d   1      -0.560   1.008  -1.606  0.00  0.00     0.015 SA
ATOM      6  C4  UNL d   1       0.495   0.055  -2.546  0.00  0.00     0.022 A 
ATOM      7  C5  UNL d   1       0.826  -1.122  -1.917  0.00  0.00     0.026 A 
ATOM      8  C6  UNL d   1       0.204  -1.260  -0.629  0.00  0.00    -0.082 A 
ATOM      9  C7  UNL d   1       0.283  -2.304   0.324  0.00  0.00     0.045 A 
ENDROOT
TORSDOF 0
ENDMDL
