MODEL 1
REMARK minimizedAffinity 0.965793133
REMARK minimizedRMSD -1
REMARK  0 active torsions:
REMARK  status: ('A' for Active; 'I' for Inactive)
ROOT
ATOM      1  C   UNL d   1       2.205   2.972   0.151  0.00  0.00    -0.002 A 
ATOM      2  C1  UNL d   1       0.981   3.603   0.320  0.00  0.00     0.010 A 
ATOM      3  C2  UNL d   1      -0.200   2.860   0.378  0.00  0.00     0.041 A 
ATOM      4  C3  UNL d   1      -0.128   1.458   0.264  0.00  0.00    -0.075 A 
ATOM      5  S   UNL d   1      -1.443   0.343   0.307  0.00  0.00     0.015 SA
ATOM      6  C4  UNL d   1      -0.410  -0.998   0.103  0.00  0.00     0.022 A 
ATOM      7  C5  UNL d   1       0.909  -0.622   0.003  0.00  0.00     0.026 A 
ATOM      8  C6  UNL d   1       1.093   0.799   0.094  0.00  0.00    -0.082 A 
ATOM      9  C7  UNL d   1       2.272   1.581   0.039  0.00  0.00     0.045 A 
ENDROOT
TORSDOF 0
ENDMDL
