MODEL 1
REMARK minimizedAffinity -2.96628022
REMARK minimizedRMSD -1
REMARK  0 active torsions:
REMARK  status: ('A' for Active; 'I' for Inactive)
ROOT
ATOM      1  C   UNL d   1      -1.268  -0.720   2.384  0.00  0.00    -0.002 A 
ATOM      2  C1  UNL d   1      -0.952  -2.013   1.993  0.00  0.00     0.010 A 
ATOM      3  C2  UNL d   1      -0.432  -2.264   0.722  0.00  0.00     0.041 A 
ATOM      4  C3  UNL d   1      -0.230  -1.182  -0.157  0.00  0.00    -0.075 A 
ATOM      5  S   UNL d   1       0.396  -1.249  -1.762  0.00  0.00     0.015 SA
ATOM      6  C4  UNL d   1       0.260   0.437  -1.966  0.00  0.00     0.022 A 
ATOM      7  C5  UNL d   1      -0.249   1.053  -0.847  0.00  0.00     0.026 A 
ATOM      8  C6  UNL d   1      -0.540   0.130   0.214  0.00  0.00    -0.082 A 
ATOM      9  C7  UNL d   1      -1.067   0.351   1.509  0.00  0.00     0.045 A 
ENDROOT
TORSDOF 0
ENDMDL
