MODEL 1
REMARK minimizedAffinity 3.87454486
REMARK minimizedRMSD -1
REMARK  0 active torsions:
REMARK  status: ('A' for Active; 'I' for Inactive)
ROOT
ATOM      1  C   UNL d   1      -2.013  -2.045   1.505  0.00  0.00    -0.002 A 
ATOM      2  C1  UNL d   1      -1.305  -2.631   0.466  0.00  0.00     0.010 A 
ATOM      3  C2  UNL d   1      -0.354  -1.899  -0.247  0.00  0.00     0.041 A 
ATOM      4  C3  UNL d   1      -0.122  -0.555   0.107  0.00  0.00    -0.075 A 
ATOM      5  S   UNL d   1       0.995   0.535  -0.625  0.00  0.00     0.015 SA
ATOM      6  C4  UNL d   1       0.559   1.804   0.425  0.00  0.00     0.022 A 
ATOM      7  C5  UNL d   1      -0.414   1.423   1.319  0.00  0.00     0.026 A 
ATOM      8  C6  UNL d   1      -0.822   0.057   1.150  0.00  0.00    -0.082 A 
ATOM      9  C7  UNL d   1      -1.781  -0.712   1.853  0.00  0.00     0.045 A 
ENDROOT
TORSDOF 0
ENDMDL
