MODEL 1
REMARK minimizedAffinity 5.49263763
REMARK minimizedRMSD -1
REMARK  0 active torsions:
REMARK  status: ('A' for Active; 'I' for Inactive)
ROOT
ATOM      1  C   UNL d   1       1.405   0.404  -2.489  0.00  0.00    -0.002 A 
ATOM      2  C1  UNL d   1       1.065  -0.851  -2.975  0.00  0.00     0.010 A 
ATOM      3  C2  UNL d   1       0.200  -1.680  -2.257  0.00  0.00     0.041 A 
ATOM      4  C3  UNL d   1      -0.323  -1.221  -1.032  0.00  0.00    -0.075 A 
ATOM      5  S   UNL d   1      -1.400  -2.063   0.019  0.00  0.00     0.015 SA
ATOM      6  C4  UNL d   1      -1.435  -0.776   1.136  0.00  0.00     0.022 A 
ATOM      7  C5  UNL d   1      -0.649   0.278   0.734  0.00  0.00     0.026 A 
ATOM      8  C6  UNL d   1       0.004   0.039  -0.523  0.00  0.00    -0.082 A 
ATOM      9  C7  UNL d   1       0.884   0.856  -1.274  0.00  0.00     0.045 A 
ENDROOT
TORSDOF 0
ENDMDL
