MODEL 1
REMARK minimizedAffinity -5.22960138
REMARK minimizedRMSD -1
REMARK  0 active torsions:
REMARK  status: ('A' for Active; 'I' for Inactive)
ROOT
ATOM      1  C   UNL d   1       0.391  -3.071   0.784  0.00  0.00    -0.002 A 
ATOM      2  C1  UNL d   1       1.057  -3.242  -0.421  0.00  0.00     0.010 A 
ATOM      3  C2  UNL d   1       1.058  -2.228  -1.382  0.00  0.00     0.041 A 
ATOM      4  C3  UNL d   1       0.374  -1.028  -1.107  0.00  0.00    -0.075 A 
ATOM      5  S   UNL d   1       0.240   0.351  -2.133  0.00  0.00     0.015 SA
ATOM      6  C4  UNL d   1      -0.703   1.199  -0.995  0.00  0.00     0.022 A 
ATOM      7  C5  UNL d   1      -0.921   0.464   0.145  0.00  0.00     0.026 A 
ATOM      8  C6  UNL d   1      -0.303  -0.832   0.100  0.00  0.00    -0.082 A 
ATOM      9  C7  UNL d   1      -0.287  -1.879   1.053  0.00  0.00     0.045 A 
ENDROOT
TORSDOF 0
ENDMDL
