MODEL 1
REMARK minimizedAffinity -3.72122884
REMARK minimizedRMSD -1
REMARK  0 active torsions:
REMARK  status: ('A' for Active; 'I' for Inactive)
ROOT
ATOM      1  C   UNL d   1      -0.985  -2.293   1.698  0.00  0.00    -0.002 A 
ATOM      2  C1  UNL d   1      -0.982  -2.955   0.479  0.00  0.00     0.010 A 
ATOM      3  C2  UNL d   1      -0.706  -2.265  -0.703  0.00  0.00     0.041 A 
ATOM      4  C3  UNL d   1      -0.430  -0.885  -0.638  0.00  0.00    -0.075 A 
ATOM      5  S   UNL d   1      -0.064   0.165  -1.956  0.00  0.00     0.015 SA
ATOM      6  C4  UNL d   1       0.097   1.517  -0.931  0.00  0.00     0.022 A 
ATOM      7  C5  UNL d   1      -0.119   1.193   0.387  0.00  0.00     0.026 A 
ATOM      8  C6  UNL d   1      -0.426  -0.197   0.578  0.00  0.00    -0.082 A 
ATOM      9  C7  UNL d   1      -0.710  -0.924   1.759  0.00  0.00     0.045 A 
ENDROOT
TORSDOF 0
ENDMDL
