MODEL 1
REMARK minimizedAffinity -0.0314789675
REMARK minimizedRMSD -1
REMARK  0 active torsions:
REMARK  status: ('A' for Active; 'I' for Inactive)
ROOT
ATOM      1  C   UNL d   1      -0.029  -2.189  -1.061  0.00  0.00    -0.002 A 
ATOM      2  C1  UNL d   1       0.405  -1.167  -1.894  0.00  0.00     0.010 A 
ATOM      3  C2  UNL d   1       0.461   0.150  -1.432  0.00  0.00     0.041 A 
ATOM      4  C3  UNL d   1       0.072   0.424  -0.107  0.00  0.00    -0.075 A 
ATOM      5  S   UNL d   1       0.059   1.961   0.676  0.00  0.00     0.015 SA
ATOM      6  C4  UNL d   1      -0.522   1.296   2.134  0.00  0.00     0.022 A 
ATOM      7  C5  UNL d   1      -0.707  -0.063   2.044  0.00  0.00     0.026 A 
ATOM      8  C6  UNL d   1      -0.368  -0.588   0.751  0.00  0.00    -0.082 A 
ATOM      9  C7  UNL d   1      -0.414  -1.912   0.253  0.00  0.00     0.045 A 
ENDROOT
TORSDOF 0
ENDMDL
