MODEL 1
REMARK minimizedAffinity -1.22444677
REMARK minimizedRMSD -1
REMARK  0 active torsions:
REMARK  status: ('A' for Active; 'I' for Inactive)
ROOT
ATOM      1  C   UNL d   1      -0.997  -2.911   0.372  0.00  0.00    -0.002 A 
ATOM      2  C1  UNL d   1      -1.238  -1.924   1.316  0.00  0.00     0.010 A 
ATOM      3  C2  UNL d   1      -0.946  -0.587   1.036  0.00  0.00     0.041 A 
ATOM      4  C3  UNL d   1      -0.403  -0.257  -0.221  0.00  0.00    -0.075 A 
ATOM      5  S   UNL d   1       0.033   1.313  -0.786  0.00  0.00     0.015 SA
ATOM      6  C4  UNL d   1       0.548   0.709  -2.294  0.00  0.00     0.022 A 
ATOM      7  C5  UNL d   1       0.399  -0.655  -2.382  0.00  0.00     0.026 A 
ATOM      8  C6  UNL d   1      -0.153  -1.234  -1.189  0.00  0.00    -0.082 A 
ATOM      9  C7  UNL d   1      -0.459  -2.580  -0.875  0.00  0.00     0.045 A 
ENDROOT
TORSDOF 0
ENDMDL
