MODEL 1
REMARK minimizedAffinity 3.44705868
REMARK minimizedRMSD -1
REMARK  0 active torsions:
REMARK  status: ('A' for Active; 'I' for Inactive)
ROOT
ATOM      1  C   UNL d   1      -1.068  -0.172   1.142  0.00  0.00    -0.002 A 
ATOM      2  C1  UNL d   1      -0.212  -0.631   0.151  0.00  0.00     0.010 A 
ATOM      3  C2  UNL d   1       0.861   0.152  -0.279  0.00  0.00     0.041 A 
ATOM      4  C3  UNL d   1       1.061   1.416   0.310  0.00  0.00    -0.075 A 
ATOM      5  S   UNL d   1       2.308   2.548  -0.058  0.00  0.00     0.015 SA
ATOM      6  C4  UNL d   1       1.734   3.667   1.092  0.00  0.00     0.022 A 
ATOM      7  C5  UNL d   1       0.619   3.205   1.750  0.00  0.00     0.026 A 
ATOM      8  C6  UNL d   1       0.213   1.900   1.310  0.00  0.00    -0.082 A 
ATOM      9  C7  UNL d   1      -0.866   1.082   1.724  0.00  0.00     0.045 A 
ENDROOT
TORSDOF 0
ENDMDL
