MODEL 1
REMARK minimizedAffinity -2.40822625
REMARK minimizedRMSD -1
REMARK  0 active torsions:
REMARK  status: ('A' for Active; 'I' for Inactive)
ROOT
ATOM      1  C   UNL d   1      -0.029  -2.038   0.752  0.00  0.00    -0.002 A 
ATOM      2  C1  UNL d   1      -0.327  -2.242  -0.588  0.00  0.00     0.010 A 
ATOM      3  C2  UNL d   1      -0.417  -1.162  -1.468  0.00  0.00     0.041 A 
ATOM      4  C3  UNL d   1      -0.198   0.139  -0.974  0.00  0.00    -0.075 A 
ATOM      5  S   UNL d   1      -0.255   1.613  -1.867  0.00  0.00     0.015 SA
ATOM      6  C4  UNL d   1       0.115   2.548  -0.490  0.00  0.00     0.022 A 
ATOM      7  C5  UNL d   1       0.281   1.771   0.632  0.00  0.00     0.026 A 
ATOM      8  C6  UNL d   1       0.104   0.370   0.371  0.00  0.00    -0.082 A 
ATOM      9  C7  UNL d   1       0.187  -0.746   1.239  0.00  0.00     0.045 A 
ENDROOT
TORSDOF 0
ENDMDL
