MODEL 1
REMARK minimizedAffinity -3.71150899
REMARK minimizedRMSD -1
REMARK  1 active torsions:
REMARK  status: ('A' for Active; 'I' for Inactive)
REMARK    1  A    between atoms: C1_2  and  C2_3 
ROOT
ATOM      1  C2  UNL d   1       2.115   3.170   0.734  0.00  0.00    -0.073 A 
ATOM      2  C3  UNL d   1       1.156   3.738   1.581  0.00  0.00    -0.002 A 
ATOM      3  C4  UNL d   1      -0.076   4.153   1.073  0.00  0.00     0.004 A 
ATOM      4  C5  UNL d   1      -0.364   3.999  -0.283  0.00  0.00    -0.004 A 
ATOM      5  C6  UNL d   1       0.577   3.423  -1.143  0.00  0.00    -0.075 A 
ATOM      6  C7  UNL d   1       0.283   3.251  -2.604  0.00  0.00     0.076 C 
ATOM      7  C8  UNL d   1       1.812   3.011  -0.626  0.00  0.00     0.001 A 
ENDROOT
BRANCH   1   8
ATOM      8  C1  UNL d   1       3.444   2.715   1.279  0.00  0.00     0.053 C 
ATOM      9  C   UNL d   1       4.175   1.801   0.309  0.00  0.00     0.018 C 
ENDBRANCH   1   8
TORSDOF 1
ENDMDL
