MODEL 1
REMARK minimizedAffinity 6.06324196
REMARK minimizedRMSD -1
REMARK  1 active torsions:
REMARK  status: ('A' for Active; 'I' for Inactive)
REMARK    1  A    between atoms: C1_2  and  C2_3 
ROOT
ATOM      1  C2  UNL d   1       1.131   1.023   0.321  0.00  0.00    -0.073 A 
ATOM      2  C3  UNL d   1      -0.014   0.811   1.096  0.00  0.00    -0.002 A 
ATOM      3  C4  UNL d   1      -0.957   1.828   1.253  0.00  0.00     0.004 A 
ATOM      4  C5  UNL d   1      -0.768   3.063   0.632  0.00  0.00    -0.004 A 
ATOM      5  C6  UNL d   1       0.365   3.289  -0.157  0.00  0.00    -0.075 A 
ATOM      6  C7  UNL d   1       0.585   4.612  -0.830  0.00  0.00     0.076 C 
ATOM      7  C8  UNL d   1       1.308   2.264  -0.307  0.00  0.00     0.001 A 
ENDROOT
BRANCH   1   8
ATOM      8  C1  UNL d   1       2.149  -0.075   0.143  0.00  0.00     0.053 C 
ATOM      9  C   UNL d   1       1.507  -1.453   0.152  0.00  0.00     0.018 C 
ENDBRANCH   1   8
TORSDOF 1
ENDMDL
