MODEL 1
REMARK minimizedAffinity -0.3806642
REMARK minimizedRMSD -1
REMARK  1 active torsions:
REMARK  status: ('A' for Active; 'I' for Inactive)
REMARK    1  A    between atoms: C1_2  and  C2_3 
ROOT
ATOM      1  C2  UNL d   1      -0.548   2.200   0.456  0.00  0.00    -0.073 A 
ATOM      2  C3  UNL d   1      -0.673   0.833   0.730  0.00  0.00    -0.002 A 
ATOM      3  C4  UNL d   1       0.462   0.028   0.834  0.00  0.00     0.004 A 
ATOM      4  C5  UNL d   1       1.732   0.581   0.671  0.00  0.00    -0.004 A 
ATOM      5  C6  UNL d   1       1.878   1.947   0.408  0.00  0.00    -0.075 A 
ATOM      6  C7  UNL d   1       3.238   2.557   0.228  0.00  0.00     0.076 C 
ATOM      7  C8  UNL d   1       0.734   2.748   0.303  0.00  0.00     0.001 A 
ENDROOT
BRANCH   1   8
ATOM      8  C1  UNL d   1      -1.770   3.074   0.350  0.00  0.00     0.053 C 
ATOM      9  C   UNL d   1      -3.055   2.261   0.343  0.00  0.00     0.018 C 
ENDBRANCH   1   8
TORSDOF 1
ENDMDL
