MODEL 1
REMARK minimizedAffinity 0.264747173
REMARK minimizedRMSD -1
REMARK  1 active torsions:
REMARK  status: ('A' for Active; 'I' for Inactive)
REMARK    1  A    between atoms: C1_2  and  C2_3 
ROOT
ATOM      1  C2  UNL d   1      -0.648  -3.252   2.031  0.00  0.00    -0.073 A 
ATOM      2  C3  UNL d   1      -0.375  -3.695   3.330  0.00  0.00    -0.002 A 
ATOM      3  C4  UNL d   1      -0.949  -4.875   3.807  0.00  0.00     0.004 A 
ATOM      4  C5  UNL d   1      -1.793  -5.625   2.989  0.00  0.00    -0.004 A 
ATOM      5  C6  UNL d   1      -2.068  -5.205   1.684  0.00  0.00    -0.075 A 
ATOM      6  C7  UNL d   1      -2.977  -6.000   0.793  0.00  0.00     0.076 C 
ATOM      7  C8  UNL d   1      -1.491  -4.018   1.213  0.00  0.00     0.001 A 
ENDROOT
BRANCH   1   8
ATOM      8  C1  UNL d   1      -0.026  -1.982   1.509  0.00  0.00     0.053 C 
ATOM      9  C   UNL d   1       0.959  -2.251   0.383  0.00  0.00     0.018 C 
ENDBRANCH   1   8
TORSDOF 1
ENDMDL
