MODEL 1
REMARK minimizedAffinity 5.69866514
REMARK minimizedRMSD -1
REMARK  1 active torsions:
REMARK  status: ('A' for Active; 'I' for Inactive)
REMARK    1  A    between atoms: C1_2  and  C2_3 
ROOT
ATOM      1  C2  UNL d   1      -5.890   4.071  -2.302  0.00  0.00    -0.073 A 
ATOM      2  C3  UNL d   1      -6.000   5.040  -1.297  0.00  0.00    -0.002 A 
ATOM      3  C4  UNL d   1      -5.910   4.674   0.047  0.00  0.00     0.004 A 
ATOM      4  C5  UNL d   1      -5.704   3.341   0.399  0.00  0.00    -0.004 A 
ATOM      5  C6  UNL d   1      -5.580   2.360  -0.590  0.00  0.00    -0.075 A 
ATOM      6  C7  UNL d   1      -5.360   0.921  -0.227  0.00  0.00     0.076 C 
ATOM      7  C8  UNL d   1      -5.674   2.734  -1.937  0.00  0.00     0.001 A 
ENDROOT
BRANCH   1   8
ATOM      8  C1  UNL d   1      -5.980   4.462  -3.754  0.00  0.00     0.053 C 
ATOM      9  C   UNL d   1      -5.999   5.971  -3.939  0.00  0.00     0.018 C 
ENDBRANCH   1   8
TORSDOF 1
ENDMDL
