MODEL 1
REMARK minimizedAffinity 2.51201105
REMARK minimizedRMSD -1
REMARK  1 active torsions:
REMARK  status: ('A' for Active; 'I' for Inactive)
REMARK    1  A    between atoms: C1_2  and  C2_3 
ROOT
ATOM      1  C2  UNL d   1      -0.604   2.119   0.758  0.00  0.00    -0.073 A 
ATOM      2  C3  UNL d   1      -0.774   0.735   0.878  0.00  0.00    -0.002 A 
ATOM      3  C4  UNL d   1       0.335  -0.106   0.967  0.00  0.00     0.004 A 
ATOM      4  C5  UNL d   1       1.624   0.426   0.944  0.00  0.00    -0.004 A 
ATOM      5  C6  UNL d   1       1.815   1.808   0.836  0.00  0.00    -0.075 A 
ATOM      6  C7  UNL d   1       3.195   2.396   0.808  0.00  0.00     0.076 C 
ATOM      7  C8  UNL d   1       0.696   2.646   0.745  0.00  0.00     0.001 A 
ENDROOT
BRANCH   1   8
ATOM      8  C1  UNL d   1      -1.799   3.032   0.668  0.00  0.00     0.053 C 
ATOM      9  C   UNL d   1      -2.983   2.358  -0.007  0.00  0.00     0.018 C 
ENDBRANCH   1   8
TORSDOF 1
ENDMDL
