MODEL 1
REMARK minimizedAffinity 7.79586315
REMARK minimizedRMSD -1
REMARK  1 active torsions:
REMARK  status: ('A' for Active; 'I' for Inactive)
REMARK    1  A    between atoms: C1_2  and  C2_3 
ROOT
ATOM      1  C2  UNL d   1       1.999   0.273  -0.067  0.00  0.00    -0.073 A 
ATOM      2  C3  UNL d   1       1.767  -1.079   0.213  0.00  0.00    -0.002 A 
ATOM      3  C4  UNL d   1       1.581  -1.992  -0.826  0.00  0.00     0.004 A 
ATOM      4  C5  UNL d   1       1.632  -1.565  -2.153  0.00  0.00    -0.004 A 
ATOM      5  C6  UNL d   1       1.874  -0.221  -2.453  0.00  0.00    -0.075 A 
ATOM      6  C7  UNL d   1       1.929   0.255  -3.875  0.00  0.00     0.076 C 
ATOM      7  C8  UNL d   1       2.057   0.690  -1.404  0.00  0.00     0.001 A 
ENDROOT
BRANCH   1   8
ATOM      8  C1  UNL d   1       2.206   1.261   1.051  0.00  0.00     0.053 C 
ATOM      9  C   UNL d   1       0.913   1.957   1.444  0.00  0.00     0.018 C 
ENDBRANCH   1   8
TORSDOF 1
ENDMDL
