MODEL 1
REMARK minimizedAffinity -0.189753115
REMARK minimizedRMSD -1
REMARK  1 active torsions:
REMARK  status: ('A' for Active; 'I' for Inactive)
REMARK    1  A    between atoms: C1_2  and  C2_3 
ROOT
ATOM      1  C2  UNL d   1       0.037   2.612   0.636  0.00  0.00    -0.073 A 
ATOM      2  C3  UNL d   1       0.415   3.603  -0.277  0.00  0.00    -0.002 A 
ATOM      3  C4  UNL d   1       1.632   3.512  -0.952  0.00  0.00     0.004 A 
ATOM      4  C5  UNL d   1       2.480   2.427  -0.729  0.00  0.00    -0.004 A 
ATOM      5  C6  UNL d   1       2.114   1.420   0.171  0.00  0.00    -0.075 A 
ATOM      6  C7  UNL d   1       3.016   0.248   0.424  0.00  0.00     0.076 C 
ATOM      7  C8  UNL d   1       0.891   1.521   0.847  0.00  0.00     0.001 A 
ENDROOT
BRANCH   1   8
ATOM      8  C1  UNL d   1      -1.280   2.703   1.363  0.00  0.00     0.053 C 
ATOM      9  C   UNL d   1      -2.461   2.462   0.436  0.00  0.00     0.018 C 
ENDBRANCH   1   8
TORSDOF 1
ENDMDL
