MODEL 1
REMARK minimizedAffinity 6.30976152
REMARK minimizedRMSD -1
REMARK  1 active torsions:
REMARK  status: ('A' for Active; 'I' for Inactive)
REMARK    1  A    between atoms: C1_2  and  C2_3 
ROOT
ATOM      1  C2  UNL d   1       1.424   0.084   0.554  0.00  0.00    -0.073 A 
ATOM      2  C3  UNL d   1       2.286   1.172   0.378  0.00  0.00    -0.002 A 
ATOM      3  C4  UNL d   1       1.837   2.472   0.610  0.00  0.00     0.004 A 
ATOM      4  C5  UNL d   1       0.524   2.698   1.026  0.00  0.00    -0.004 A 
ATOM      5  C6  UNL d   1      -0.349   1.623   1.218  0.00  0.00    -0.075 A 
ATOM      6  C7  UNL d   1      -1.764   1.849   1.663  0.00  0.00     0.076 C 
ATOM      7  C8  UNL d   1       0.109   0.320   0.981  0.00  0.00     0.001 A 
ENDROOT
BRANCH   1   8
ATOM      8  C1  UNL d   1       1.907  -1.323   0.311  0.00  0.00     0.053 C 
ATOM      9  C   UNL d   1       1.812  -1.713  -1.156  0.00  0.00     0.018 C 
ENDBRANCH   1   8
TORSDOF 1
ENDMDL
