MODEL 1
REMARK minimizedAffinity -5.71743584
REMARK minimizedRMSD -1
REMARK  1 active torsions:
REMARK  status: ('A' for Active; 'I' for Inactive)
REMARK    1  A    between atoms: C3_4  and  O_7 
ROOT
ATOM      1  C   UNL d   1       0.505   0.542  -0.829  0.00  0.00    -0.033 A 
ATOM      2  C1  UNL d   1       0.043  -0.320   0.167  0.00  0.00     0.039 A 
ATOM      3  C2  UNL d   1      -0.946   0.104   1.057  0.00  0.00    -0.080 A 
ATOM      4  C3  UNL d   1      -1.464   1.391   0.939  0.00  0.00     0.150 A 
ATOM      5  C4  UNL d   1      -1.011   2.254  -0.053  0.00  0.00    -0.007 A 
ATOM      6  C5  UNL d   1      -0.023   1.829  -0.940  0.00  0.00     0.039 A 
ENDROOT
BRANCH   4   7
ATOM      7  O   UNL d   1      -2.427   1.852   1.787  0.00  0.00    -0.526 OA
ATOM      8  H5  UNL d   1      -2.622   1.157   2.438  0.00  0.00     0.418 HD
ENDBRANCH   4   7
TORSDOF 1
ENDMDL
