MODEL 1
REMARK minimizedAffinity -4.61775446
REMARK minimizedRMSD -1
REMARK  1 active torsions:
REMARK  status: ('A' for Active; 'I' for Inactive)
REMARK    1  A    between atoms: C3_4  and  O_7 
ROOT
ATOM      1  C   UNL d   1      -1.721   1.886   1.185  0.00  0.00    -0.033 A 
ATOM      2  C1  UNL d   1      -1.451   0.714   1.895  0.00  0.00     0.039 A 
ATOM      3  C2  UNL d   1      -0.684  -0.297   1.312  0.00  0.00    -0.080 A 
ATOM      4  C3  UNL d   1      -0.193  -0.123   0.021  0.00  0.00     0.150 A 
ATOM      5  C4  UNL d   1      -0.455   1.043  -0.691  0.00  0.00    -0.007 A 
ATOM      6  C5  UNL d   1      -1.222   2.051  -0.108  0.00  0.00     0.039 A 
ENDROOT
BRANCH   4   7
ATOM      7  O   UNL d   1       0.556  -1.084  -0.591  0.00  0.00    -0.526 OA
ATOM      8  H5  UNL d   1       0.631  -1.844   0.009  0.00  0.00     0.418 HD
ENDBRANCH   4   7
TORSDOF 1
ENDMDL
