MODEL 1
REMARK minimizedAffinity -1.76527059
REMARK minimizedRMSD -1
REMARK  1 active torsions:
REMARK  status: ('A' for Active; 'I' for Inactive)
REMARK    1  A    between atoms: C3_4  and  O_7 
ROOT
ATOM      1  C   UNL d   1       0.430  -1.263   0.414  0.00  0.00    -0.033 A 
ATOM      2  C1  UNL d   1      -0.403  -0.360   1.077  0.00  0.00     0.039 A 
ATOM      3  C2  UNL d   1      -0.653   0.898   0.524  0.00  0.00    -0.080 A 
ATOM      4  C3  UNL d   1      -0.065   1.239  -0.691  0.00  0.00     0.150 A 
ATOM      5  C4  UNL d   1       0.763   0.343  -1.359  0.00  0.00    -0.007 A 
ATOM      6  C5  UNL d   1       1.012  -0.912  -0.804  0.00  0.00     0.039 A 
ENDROOT
BRANCH   4   7
ATOM      7  O   UNL d   1      -0.275   2.456  -1.267  0.00  0.00    -0.526 OA
ATOM      8  H5  UNL d   1      -0.844   2.981  -0.679  0.00  0.00     0.418 HD
ENDBRANCH   4   7
TORSDOF 1
ENDMDL
