MODEL 1
REMARK minimizedAffinity -4.69833803
REMARK minimizedRMSD -1
REMARK  1 active torsions:
REMARK  status: ('A' for Active; 'I' for Inactive)
REMARK    1  A    between atoms: C3_4  and  O_7 
ROOT
ATOM      1  C   UNL d   1       0.421   0.217  -0.163  0.00  0.00    -0.033 A 
ATOM      2  C1  UNL d   1      -0.077  -0.392   0.991  0.00  0.00     0.039 A 
ATOM      3  C2  UNL d   1      -1.071   0.239   1.742  0.00  0.00    -0.080 A 
ATOM      4  C3  UNL d   1      -1.558   1.475   1.329  0.00  0.00     0.150 A 
ATOM      5  C4  UNL d   1      -1.070   2.086   0.179  0.00  0.00    -0.007 A 
ATOM      6  C5  UNL d   1      -0.077   1.455  -0.570  0.00  0.00     0.039 A 
ENDROOT
BRANCH   4   7
ATOM      7  O   UNL d   1      -2.525   2.131   2.032  0.00  0.00    -0.526 OA
ATOM      8  H5  UNL d   1      -2.745   1.604   2.818  0.00  0.00     0.418 HD
ENDBRANCH   4   7
TORSDOF 1
ENDMDL
