MODEL 1
REMARK minimizedAffinity -5.77321196
REMARK minimizedRMSD -1
REMARK  1 active torsions:
REMARK  status: ('A' for Active; 'I' for Inactive)
REMARK    1  A    between atoms: C3_4  and  O_7 
ROOT
ATOM      1  C   UNL d   1       0.192  -0.447   0.466  0.00  0.00    -0.033 A 
ATOM      2  C1  UNL d   1       0.009   0.641  -0.389  0.00  0.00     0.039 A 
ATOM      3  C2  UNL d   1      -0.850   1.680  -0.026  0.00  0.00    -0.080 A 
ATOM      4  C3  UNL d   1      -1.518   1.620   1.193  0.00  0.00     0.150 A 
ATOM      5  C4  UNL d   1      -1.338   0.541   2.052  0.00  0.00    -0.007 A 
ATOM      6  C5  UNL d   1      -0.481  -0.497   1.688  0.00  0.00     0.039 A 
ENDROOT
BRANCH   4   7
ATOM      7  O   UNL d   1      -2.370   2.608   1.588  0.00  0.00    -0.526 OA
ATOM      8  H5  UNL d   1      -2.418   3.274   0.882  0.00  0.00     0.418 HD
ENDBRANCH   4   7
TORSDOF 1
ENDMDL
