MODEL 1
REMARK minimizedAffinity -5.35449314
REMARK minimizedRMSD -1
REMARK  1 active torsions:
REMARK  status: ('A' for Active; 'I' for Inactive)
REMARK    1  A    between atoms: C3_4  and  O_7 
ROOT
ATOM      1  C   UNL d   1      -2.325   1.505   1.314  0.00  0.00    -0.033 A 
ATOM      2  C1  UNL d   1      -1.598   0.508   1.967  0.00  0.00     0.039 A 
ATOM      3  C2  UNL d   1      -0.438  -0.007   1.386  0.00  0.00    -0.080 A 
ATOM      4  C3  UNL d   1      -0.016   0.483   0.153  0.00  0.00     0.150 A 
ATOM      5  C4  UNL d   1      -0.733   1.479  -0.501  0.00  0.00    -0.007 A 
ATOM      6  C5  UNL d   1      -1.892   1.991   0.080  0.00  0.00     0.039 A 
ENDROOT
BRANCH   4   7
ATOM      7  O   UNL d   1       1.108   0.008  -0.455  0.00  0.00    -0.526 OA
ATOM      8  H5  UNL d   1       1.484  -0.696   0.099  0.00  0.00     0.418 HD
ENDBRANCH   4   7
TORSDOF 1
ENDMDL
