MODEL 1
REMARK minimizedAffinity -3.59907556
REMARK minimizedRMSD -1
REMARK  1 active torsions:
REMARK  status: ('A' for Active; 'I' for Inactive)
REMARK    1  A    between atoms: C3_4  and  O_7 
ROOT
ATOM      1  C   UNL d   1       1.187   0.803  -0.550  0.00  0.00    -0.033 A 
ATOM      2  C1  UNL d   1       0.463   1.845  -1.134  0.00  0.00     0.039 A 
ATOM      3  C2  UNL d   1      -0.753   2.249  -0.580  0.00  0.00    -0.080 A 
ATOM      4  C3  UNL d   1      -1.232   1.606   0.558  0.00  0.00     0.150 A 
ATOM      5  C4  UNL d   1      -0.515   0.571   1.148  0.00  0.00    -0.007 A 
ATOM      6  C5  UNL d   1       0.699   0.168   0.592  0.00  0.00     0.039 A 
ENDROOT
BRANCH   4   7
ATOM      7  O   UNL d   1      -2.416   1.963   1.132  0.00  0.00    -0.526 OA
ATOM      8  H5  UNL d   1      -2.815   2.672   0.601  0.00  0.00     0.418 HD
ENDBRANCH   4   7
TORSDOF 1
ENDMDL
