MODEL 1
REMARK minimizedAffinity -2.31388235
REMARK minimizedRMSD -1
REMARK  1 active torsions:
REMARK  status: ('A' for Active; 'I' for Inactive)
REMARK    1  A    between atoms: C3_4  and  O_7 
ROOT
ATOM      1  C   UNL d   1      -1.560   2.687   1.561  0.00  0.00    -0.033 A 
ATOM      2  C1  UNL d   1      -0.869   3.051   0.404  0.00  0.00     0.039 A 
ATOM      3  C2  UNL d   1      -0.183   2.085  -0.335  0.00  0.00    -0.080 A 
ATOM      4  C3  UNL d   1      -0.196   0.760   0.094  0.00  0.00     0.150 A 
ATOM      5  C4  UNL d   1      -0.885   0.390   1.245  0.00  0.00    -0.007 A 
ATOM      6  C5  UNL d   1      -1.569   1.357   1.981  0.00  0.00     0.039 A 
ENDROOT
BRANCH   4   7
ATOM      7  O   UNL d   1       0.463  -0.217  -0.591  0.00  0.00    -0.526 OA
ATOM      8  H5  UNL d   1       0.917   0.190  -1.347  0.00  0.00     0.418 HD
ENDBRANCH   4   7
TORSDOF 1
ENDMDL
