MODEL 1
REMARK minimizedAffinity -3.4954052
REMARK minimizedRMSD -1
REMARK  1 active torsions:
REMARK  status: ('A' for Active; 'I' for Inactive)
REMARK    1  A    between atoms: C3_4  and  O_7 
ROOT
ATOM      1  C   UNL d   1      -1.412  -0.477   2.018  0.00  0.00    -0.033 A 
ATOM      2  C1  UNL d   1      -0.311  -0.287   1.181  0.00  0.00     0.039 A 
ATOM      3  C2  UNL d   1      -0.109   0.947   0.559  0.00  0.00    -0.080 A 
ATOM      4  C3  UNL d   1      -1.014   1.981   0.783  0.00  0.00     0.150 A 
ATOM      5  C4  UNL d   1      -2.111   1.800   1.619  0.00  0.00    -0.007 A 
ATOM      6  C5  UNL d   1      -2.311   0.567   2.239  0.00  0.00     0.039 A 
ENDROOT
BRANCH   4   7
ATOM      7  O   UNL d   1      -0.861   3.201   0.195  0.00  0.00    -0.526 OA
ATOM      8  H5  UNL d   1      -0.077   3.171  -0.377  0.00  0.00     0.418 HD
ENDBRANCH   4   7
TORSDOF 1
ENDMDL
