MODEL 1
REMARK minimizedAffinity -2.49213862
REMARK minimizedRMSD -1
REMARK  1 active torsions:
REMARK  status: ('A' for Active; 'I' for Inactive)
REMARK    1  A    between atoms: C3_4  and  O_7 
ROOT
ATOM      1  C   UNL d   1       0.726  -3.756  -3.053  0.00  0.00    -0.033 A 
ATOM      2  C1  UNL d   1       1.420  -3.923  -1.853  0.00  0.00     0.039 A 
ATOM      3  C2  UNL d   1       1.500  -2.870  -0.939  0.00  0.00    -0.080 A 
ATOM      4  C3  UNL d   1       0.882  -1.659  -1.236  0.00  0.00     0.150 A 
ATOM      5  C4  UNL d   1       0.185  -1.487  -2.428  0.00  0.00    -0.007 A 
ATOM      6  C5  UNL d   1       0.107  -2.539  -3.340  0.00  0.00     0.039 A 
ENDROOT
BRANCH   4   7
ATOM      7  O   UNL d   1       0.937  -0.601  -0.377  0.00  0.00    -0.526 OA
ATOM      8  H5  UNL d   1       1.475  -0.856   0.391  0.00  0.00     0.418 HD
ENDBRANCH   4   7
TORSDOF 1
ENDMDL
