MODEL 1
REMARK minimizedAffinity -3.56215572
REMARK minimizedRMSD -1
REMARK  1 active torsions:
REMARK  status: ('A' for Active; 'I' for Inactive)
REMARK    1  A    between atoms: C3_4  and  O_7 
ROOT
ATOM      1  C   UNL d   1       0.685  -0.885   0.266  0.00  0.00    -0.033 A 
ATOM      2  C1  UNL d   1      -0.039  -0.013  -0.548  0.00  0.00     0.039 A 
ATOM      3  C2  UNL d   1      -0.739   1.055   0.017  0.00  0.00    -0.080 A 
ATOM      4  C3  UNL d   1      -0.704   1.240   1.396  0.00  0.00     0.150 A 
ATOM      5  C4  UNL d   1       0.019   0.378   2.214  0.00  0.00    -0.007 A 
ATOM      6  C5  UNL d   1       0.716  -0.689   1.647  0.00  0.00     0.039 A 
ENDROOT
BRANCH   4   7
ATOM      7  O   UNL d   1      -1.375   2.266   1.994  0.00  0.00    -0.526 OA
ATOM      8  H5  UNL d   1      -1.853   2.762   1.309  0.00  0.00     0.418 HD
ENDBRANCH   4   7
TORSDOF 1
ENDMDL
