MODEL 1
REMARK minimizedAffinity -4.89168215
REMARK minimizedRMSD -1
REMARK  1 active torsions:
REMARK  status: ('A' for Active; 'I' for Inactive)
REMARK    1  A    between atoms: C3_4  and  O_7 
ROOT
ATOM      1  C   UNL d   1       0.523  -0.581   0.388  0.00  0.00    -0.033 A 
ATOM      2  C1  UNL d   1      -0.081   0.229  -0.576  0.00  0.00     0.039 A 
ATOM      3  C2  UNL d   1      -1.141   1.066  -0.222  0.00  0.00    -0.080 A 
ATOM      4  C3  UNL d   1      -1.585   1.086   1.097  0.00  0.00     0.150 A 
ATOM      5  C4  UNL d   1      -0.986   0.285   2.063  0.00  0.00    -0.007 A 
ATOM      6  C5  UNL d   1       0.072  -0.552   1.708  0.00  0.00     0.039 A 
ENDROOT
BRANCH   4   7
ATOM      7  O   UNL d   1      -2.620   1.883   1.489  0.00  0.00    -0.526 OA
ATOM      8  H5  UNL d   1      -2.954   2.358   0.710  0.00  0.00     0.418 HD
ENDBRANCH   4   7
TORSDOF 1
ENDMDL
