MODEL 1
REMARK minimizedAffinity -3.32811666
REMARK minimizedRMSD -1
REMARK  1 active torsions:
REMARK  status: ('A' for Active; 'I' for Inactive)
REMARK    1  A    between atoms: C3_4  and  O_7 
ROOT
ATOM      1  C   UNL d   1       0.571  -0.740  -0.151  0.00  0.00    -0.033 A 
ATOM      2  C1  UNL d   1       0.143   0.300  -0.978  0.00  0.00     0.039 A 
ATOM      3  C2  UNL d   1      -0.844   1.184  -0.537  0.00  0.00    -0.080 A 
ATOM      4  C3  UNL d   1      -1.393   1.017   0.731  0.00  0.00     0.150 A 
ATOM      5  C4  UNL d   1      -0.969  -0.015   1.562  0.00  0.00    -0.007 A 
ATOM      6  C5  UNL d   1       0.016  -0.897   1.119  0.00  0.00     0.039 A 
ENDROOT
BRANCH   4   7
ATOM      7  O   UNL d   1      -2.362   1.852   1.203  0.00  0.00    -0.526 OA
ATOM      8  H5  UNL d   1      -2.576   2.499   0.511  0.00  0.00     0.418 HD
ENDBRANCH   4   7
TORSDOF 1
ENDMDL
