MODEL 1
REMARK minimizedAffinity -3.53489113
REMARK minimizedRMSD -1
REMARK  1 active torsions:
REMARK  status: ('A' for Active; 'I' for Inactive)
REMARK    1  A    between atoms: C3_4  and  O_7 
ROOT
ATOM      1  C   UNL d   1       0.526  -0.343   0.634  0.00  0.00    -0.033 A 
ATOM      2  C1  UNL d   1      -0.827  -0.674   0.540  0.00  0.00     0.039 A 
ATOM      3  C2  UNL d   1      -1.292  -1.410  -0.552  0.00  0.00    -0.080 A 
ATOM      4  C3  UNL d   1      -0.396  -1.808  -1.540  0.00  0.00     0.150 A 
ATOM      5  C4  UNL d   1       0.954  -1.484  -1.450  0.00  0.00    -0.007 A 
ATOM      6  C5  UNL d   1       1.417  -0.749  -0.360  0.00  0.00     0.039 A 
ENDROOT
BRANCH   4   7
ATOM      7  O   UNL d   1      -0.804  -2.523  -2.626  0.00  0.00    -0.526 OA
ATOM      8  H5  UNL d   1      -1.766  -2.649  -2.568  0.00  0.00     0.418 HD
ENDBRANCH   4   7
TORSDOF 1
ENDMDL
