MODEL 1
REMARK minimizedAffinity -4.9967103
REMARK minimizedRMSD -1
REMARK  1 active torsions:
REMARK  status: ('A' for Active; 'I' for Inactive)
REMARK    1  A    between atoms: C3_4  and  O_7 
ROOT
ATOM      1  C   UNL d   1       0.539   0.199   0.150  0.00  0.00    -0.033 A 
ATOM      2  C1  UNL d   1       0.061   1.145  -0.759  0.00  0.00     0.039 A 
ATOM      3  C2  UNL d   1      -1.054   1.921  -0.439  0.00  0.00    -0.080 A 
ATOM      4  C3  UNL d   1      -1.680   1.744   0.792  0.00  0.00     0.150 A 
ATOM      5  C4  UNL d   1      -1.207   0.806   1.704  0.00  0.00    -0.007 A 
ATOM      6  C5  UNL d   1      -0.094   0.031   1.382  0.00  0.00     0.039 A 
ENDROOT
BRANCH   4   7
ATOM      7  O   UNL d   1      -2.775   2.475   1.147  0.00  0.00    -0.526 OA
ATOM      8  H5  UNL d   1      -3.006   3.062   0.408  0.00  0.00     0.418 HD
ENDBRANCH   4   7
TORSDOF 1
ENDMDL
