MODEL 1
REMARK minimizedAffinity -2.95645046
REMARK minimizedRMSD -1
REMARK  1 active torsions:
REMARK  status: ('A' for Active; 'I' for Inactive)
REMARK    1  A    between atoms: C3_4  and  O_7 
ROOT
ATOM      1  C   UNL d   1      -1.562   1.555   2.486  0.00  0.00    -0.033 A 
ATOM      2  C1  UNL d   1      -1.915   0.204   2.493  0.00  0.00     0.039 A 
ATOM      3  C2  UNL d   1      -1.329  -0.678   1.583  0.00  0.00    -0.080 A 
ATOM      4  C3  UNL d   1      -0.391  -0.197   0.673  0.00  0.00     0.150 A 
ATOM      5  C4  UNL d   1      -0.032   1.146   0.663  0.00  0.00    -0.007 A 
ATOM      6  C5  UNL d   1      -0.619   2.026   1.572  0.00  0.00     0.039 A 
ENDROOT
BRANCH   4   7
ATOM      7  O   UNL d   1       0.204  -1.019  -0.237  0.00  0.00    -0.526 OA
ATOM      8  H5  UNL d   1      -0.163  -1.912  -0.132  0.00  0.00     0.418 HD
ENDBRANCH   4   7
TORSDOF 1
ENDMDL
