MODEL 1
REMARK minimizedAffinity 8.68431568
REMARK minimizedRMSD -1
REMARK  0 active torsions:
REMARK  status: ('A' for Active; 'I' for Inactive)
ROOT
ATOM      1  C4' PXY d   1       0.419   1.138   2.259  0.00  0.00     0.077 C 
ATOM      2  C1' PXY d   1      -5.174  -0.064   1.430  0.00  0.00     0.077 C 
ATOM      3  C1  PXY d   1      -3.708   0.261   1.639  0.00  0.00    -0.082 A 
ATOM      4  C2  PXY d   1      -2.891  -0.670   2.105  0.00  0.00     0.003 A 
ATOM      5  C3  PXY d   1      -1.569  -0.384   2.330  0.00  0.00     0.003 A 
ATOM      6  C4  PXY d   1      -1.066   0.852   2.024  0.00  0.00    -0.082 A 
ATOM      7  C5  PXY d   1      -1.891   1.804   1.537  0.00  0.00     0.003 A 
ATOM      8  C6  PXY d   1      -3.238   1.506   1.355  0.00  0.00     0.003 A 
ENDROOT
TORSDOF 0
ENDMDL
