MODEL 1
REMARK minimizedAffinity 7.44704676
REMARK minimizedRMSD -1
REMARK  0 active torsions:
REMARK  status: ('A' for Active; 'I' for Inactive)
ROOT
ATOM      1  C4' PXY d   1       1.036   2.397   0.541  0.00  0.00     0.077 C 
ATOM      2  C1' PXY d   1       4.431   2.923   5.190  0.00  0.00     0.077 C 
ATOM      3  C1  PXY d   1       3.536   2.774   3.975  0.00  0.00    -0.082 A 
ATOM      4  C2  PXY d   1       3.821   3.439   2.867  0.00  0.00     0.003 A 
ATOM      5  C3  PXY d   1       3.005   3.340   1.769  0.00  0.00     0.003 A 
ATOM      6  C4  PXY d   1       1.916   2.511   1.789  0.00  0.00    -0.082 A 
ATOM      7  C5  PXY d   1       1.625   1.821   2.912  0.00  0.00     0.003 A 
ATOM      8  C6  PXY d   1       2.442   1.967   4.028  0.00  0.00     0.003 A 
ENDROOT
TORSDOF 0
ENDMDL
