MODEL 1
REMARK minimizedAffinity 7.96456289
REMARK minimizedRMSD -1
REMARK  0 active torsions:
REMARK  status: ('A' for Active; 'I' for Inactive)
ROOT
ATOM      1  C4' PXY d   1       3.888   5.015  -4.874  0.00  0.00     0.077 C 
ATOM      2  C1' PXY d   1      -1.874   4.573  -5.027  0.00  0.00     0.077 C 
ATOM      3  C1  PXY d   1      -0.363   4.689  -4.973  0.00  0.00    -0.082 A 
ATOM      4  C2  PXY d   1       0.289   5.210  -6.000  0.00  0.00     0.003 A 
ATOM      5  C3  PXY d   1       1.658   5.293  -5.982  0.00  0.00     0.003 A 
ATOM      6  C4  PXY d   1       2.362   4.887  -4.880  0.00  0.00    -0.082 A 
ATOM      7  C5  PXY d   1       1.702   4.365  -3.824  0.00  0.00     0.003 A 
ATOM      8  C6  PXY d   1       0.316   4.251  -3.879  0.00  0.00     0.003 A 
ENDROOT
TORSDOF 0
ENDMDL
