MODEL 1
REMARK minimizedAffinity 10.1053419
REMARK minimizedRMSD -1
REMARK  0 active torsions:
REMARK  status: ('A' for Active; 'I' for Inactive)
ROOT
ATOM      1  C4' PXY d   1      -0.441  -5.812   4.117  0.00  0.00     0.077 C 
ATOM      2  C1' PXY d   1      -5.962  -5.960   2.407  0.00  0.00     0.077 C 
ATOM      3  C1  PXY d   1      -4.510  -5.927   2.845  0.00  0.00    -0.082 A 
ATOM      4  C2  PXY d   1      -4.217  -5.822   4.130  0.00  0.00     0.003 A 
ATOM      5  C3  PXY d   1      -2.910  -5.759   4.541  0.00  0.00     0.003 A 
ATOM      6  C4  PXY d   1      -1.893  -5.858   3.630  0.00  0.00    -0.082 A 
ATOM      7  C5  PXY d   1      -2.184  -5.976   2.317  0.00  0.00     0.003 A 
ATOM      8  C6  PXY d   1      -3.517  -5.997   1.918  0.00  0.00     0.003 A 
ENDROOT
TORSDOF 0
ENDMDL
