MODEL 1
REMARK minimizedAffinity 10.4726801
REMARK minimizedRMSD -1
REMARK  0 active torsions:
REMARK  status: ('A' for Active; 'I' for Inactive)
ROOT
ATOM      1  C4' PXY d   1       1.914  -2.425  -0.330  0.00  0.00     0.077 C 
ATOM      2  C1' PXY d   1       1.721  -6.000  -4.869  0.00  0.00     0.077 C 
ATOM      3  C1  PXY d   1       1.768  -5.052  -3.686  0.00  0.00    -0.082 A 
ATOM      4  C2  PXY d   1       2.529  -5.345  -2.644  0.00  0.00     0.003 A 
ATOM      5  C3  PXY d   1       2.559  -4.515  -1.552  0.00  0.00     0.003 A 
ATOM      6  C4  PXY d   1       1.843  -3.348  -1.550  0.00  0.00    -0.082 A 
ATOM      7  C5  PXY d   1       1.073  -3.037  -2.614  0.00  0.00     0.003 A 
ATOM      8  C6  PXY d   1       1.025  -3.913  -3.695  0.00  0.00     0.003 A 
ENDROOT
TORSDOF 0
ENDMDL
