MODEL 1
REMARK minimizedAffinity 0.324964911
REMARK minimizedRMSD -1
REMARK  0 active torsions:
REMARK  status: ('A' for Active; 'I' for Inactive)
ROOT
ATOM      1  C4' PXY d   1      -6.000   5.999  -6.000  0.00  0.00     0.077 C 
ATOM      2  C1' PXY d   1      -1.396   3.883  -3.217  0.00  0.00     0.077 C 
ATOM      3  C1  PXY d   1      -2.596   4.441  -3.957  0.00  0.00    -0.082 A 
ATOM      4  C2  PXY d   1      -3.636   4.888  -3.273  0.00  0.00     0.003 A 
ATOM      5  C3  PXY d   1      -4.743   5.366  -3.927  0.00  0.00     0.003 A 
ATOM      6  C4  PXY d   1      -4.763   5.436  -5.294  0.00  0.00    -0.082 A 
ATOM      7  C5  PXY d   1      -3.701   4.992  -5.999  0.00  0.00     0.003 A 
ATOM      8  C6  PXY d   1      -2.604   4.472  -5.318  0.00  0.00     0.003 A 
ENDROOT
TORSDOF 0
ENDMDL
