MODEL 1
REMARK minimizedAffinity 0.548625112
REMARK minimizedRMSD -1
REMARK  0 active torsions:
REMARK  status: ('A' for Active; 'I' for Inactive)
ROOT
ATOM      1  C4' PXY d   1      -4.246  -1.436   3.242  0.00  0.00     0.077 C 
ATOM      2  C1' PXY d   1       0.632   0.531   0.844  0.00  0.00     0.077 C 
ATOM      3  C1  PXY d   1      -0.644   0.003   1.470  0.00  0.00    -0.082 A 
ATOM      4  C2  PXY d   1      -1.691   0.802   1.593  0.00  0.00     0.003 A 
ATOM      5  C3  PXY d   1      -2.842   0.350   2.185  0.00  0.00     0.003 A 
ATOM      6  C4  PXY d   1      -2.940  -0.949   2.608  0.00  0.00    -0.082 A 
ATOM      7  C5  PXY d   1      -1.880  -1.773   2.476  0.00  0.00     0.003 A 
ATOM      8  C6  PXY d   1      -0.706  -1.284   1.909  0.00  0.00     0.003 A 
ENDROOT
TORSDOF 0
ENDMDL
