MODEL 1
REMARK minimizedAffinity 2.47037506
REMARK minimizedRMSD -1
REMARK  0 active torsions:
REMARK  status: ('A' for Active; 'I' for Inactive)
ROOT
ATOM      1  C4' PXY d   1      -4.709  -1.303   4.006  0.00  0.00     0.077 C 
ATOM      2  C1' PXY d   1      -0.534   1.189   0.880  0.00  0.00     0.077 C 
ATOM      3  C1  PXY d   1      -1.625   0.524   1.695  0.00  0.00    -0.082 A 
ATOM      4  C2  PXY d   1      -2.707   1.211   2.024  0.00  0.00     0.003 A 
ATOM      5  C3  PXY d   1      -3.688   0.634   2.789  0.00  0.00     0.003 A 
ATOM      6  C4  PXY d   1      -3.586  -0.675   3.175  0.00  0.00    -0.082 A 
ATOM      7  C5  PXY d   1      -2.490  -1.386   2.834  0.00  0.00     0.003 A 
ATOM      8  C6  PXY d   1      -1.486  -0.770   2.093  0.00  0.00     0.003 A 
ENDROOT
TORSDOF 0
ENDMDL
