MODEL 1
REMARK minimizedAffinity 1.74703383
REMARK minimizedRMSD -1
REMARK  0 active torsions:
REMARK  status: ('A' for Active; 'I' for Inactive)
ROOT
ATOM      1  C4' PXY d   1      -4.391  -4.877  -0.551  0.00  0.00     0.077 C 
ATOM      2  C1' PXY d   1       0.419  -2.576  -2.783  0.00  0.00     0.077 C 
ATOM      3  C1  PXY d   1      -0.839  -3.175  -2.186  0.00  0.00    -0.082 A 
ATOM      4  C2  PXY d   1      -1.431  -4.192  -2.792  0.00  0.00     0.003 A 
ATOM      5  C3  PXY d   1      -2.587  -4.725  -2.283  0.00  0.00     0.003 A 
ATOM      6  C4  PXY d   1      -3.114  -4.247  -1.113  0.00  0.00    -0.082 A 
ATOM      7  C5  PXY d   1      -2.510  -3.217  -0.483  0.00  0.00     0.003 A 
ATOM      8  C6  PXY d   1      -1.360  -2.663  -1.039  0.00  0.00     0.003 A 
ENDROOT
TORSDOF 0
ENDMDL
