MODEL 1
REMARK minimizedAffinity 5.23741245
REMARK minimizedRMSD -1
REMARK  0 active torsions:
REMARK  status: ('A' for Active; 'I' for Inactive)
ROOT
ATOM      1  C4' PXY d   1      -0.428  -0.811   1.204  0.00  0.00     0.077 C 
ATOM      2  C1' PXY d   1      -5.268  -1.920   4.162  0.00  0.00     0.077 C 
ATOM      3  C1  PXY d   1      -3.993  -1.638   3.393  0.00  0.00    -0.082 A 
ATOM      4  C2  PXY d   1      -3.837  -0.471   2.789  0.00  0.00     0.003 A 
ATOM      5  C3  PXY d   1      -2.704  -0.212   2.063  0.00  0.00     0.003 A 
ATOM      6  C4  PXY d   1      -1.695  -1.136   1.999  0.00  0.00    -0.082 A 
ATOM      7  C5  PXY d   1      -1.841  -2.324   2.622  0.00  0.00     0.003 A 
ATOM      8  C6  PXY d   1      -3.018  -2.584   3.319  0.00  0.00     0.003 A 
ENDROOT
TORSDOF 0
ENDMDL
