MODEL 1
REMARK minimizedAffinity 5.67885113
REMARK minimizedRMSD -1
REMARK  0 active torsions:
REMARK  status: ('A' for Active; 'I' for Inactive)
ROOT
ATOM      1  C4' PXY d   1       3.437   5.999  -5.865  0.00  0.00     0.077 C 
ATOM      2  C1' PXY d   1       5.411   0.566  -5.818  0.00  0.00     0.077 C 
ATOM      3  C1  PXY d   1       4.905   1.995  -5.827  0.00  0.00    -0.082 A 
ATOM      4  C2  PXY d   1       3.612   2.232  -5.674  0.00  0.00     0.003 A 
ATOM      5  C3  PXY d   1       3.133   3.517  -5.711  0.00  0.00     0.003 A 
ATOM      6  C4  PXY d   1       3.993   4.573  -5.853  0.00  0.00    -0.082 A 
ATOM      7  C5  PXY d   1       5.315   4.340  -5.999  0.00  0.00     0.003 A 
ATOM      8  C6  PXY d   1       5.776   3.026  -6.000  0.00  0.00     0.003 A 
ENDROOT
TORSDOF 0
ENDMDL
