MODEL 1
REMARK minimizedAffinity 9.81398582
REMARK minimizedRMSD -1
REMARK  0 active torsions:
REMARK  status: ('A' for Active; 'I' for Inactive)
ROOT
ATOM      1  C4' PXY d   1       1.900   2.637   0.956  0.00  0.00     0.077 C 
ATOM      2  C1' PXY d   1       5.109   4.555   5.364  0.00  0.00     0.077 C 
ATOM      3  C1  PXY d   1       4.270   4.063   4.201  0.00  0.00    -0.082 A 
ATOM      4  C2  PXY d   1       3.319   3.168   4.414  0.00  0.00     0.003 A 
ATOM      5  C3  PXY d   1       2.572   2.688   3.369  0.00  0.00     0.003 A 
ATOM      6  C4  PXY d   1       2.765   3.169   2.101  0.00  0.00    -0.082 A 
ATOM      7  C5  PXY d   1       3.727   4.090   1.878  0.00  0.00     0.003 A 
ATOM      8  C6  PXY d   1       4.502   4.533   2.946  0.00  0.00     0.003 A 
ENDROOT
TORSDOF 0
ENDMDL
