MODEL 1
REMARK minimizedAffinity 3.2394073
REMARK minimizedRMSD -1
REMARK  0 active torsions:
REMARK  status: ('A' for Active; 'I' for Inactive)
ROOT
ATOM      1  C4' PXY d   1       1.217   4.192  -3.654  0.00  0.00     0.077 C 
ATOM      2  C1' PXY d   1       5.144   5.245   0.456  0.00  0.00     0.077 C 
ATOM      3  C1  PXY d   1       4.107   4.980  -0.618  0.00  0.00    -0.082 A 
ATOM      4  C2  PXY d   1       3.954   3.753  -1.090  0.00  0.00     0.003 A 
ATOM      5  C3  PXY d   1       3.043   3.501  -2.084  0.00  0.00     0.003 A 
ATOM      6  C4  PXY d   1       2.244   4.505  -2.563  0.00  0.00    -0.082 A 
ATOM      7  C5  PXY d   1       2.387   5.757  -2.078  0.00  0.00     0.003 A 
ATOM      8  C6  PXY d   1       3.346   6.000  -1.099  0.00  0.00     0.003 A 
ENDROOT
TORSDOF 0
ENDMDL
