MODEL 1
REMARK minimizedAffinity 8.50472355
REMARK minimizedRMSD -1
REMARK  0 active torsions:
REMARK  status: ('A' for Active; 'I' for Inactive)
ROOT
ATOM      1  C4' PXY d   1      -5.157  -1.157   4.331  0.00  0.00     0.077 C 
ATOM      2  C1' PXY d   1      -2.647   1.785   0.035  0.00  0.00     0.077 C 
ATOM      3  C1  PXY d   1      -3.315   1.022   1.162  0.00  0.00    -0.082 A 
ATOM      4  C2  PXY d   1      -2.589   0.237   1.941  0.00  0.00     0.003 A 
ATOM      5  C3  PXY d   1      -3.182  -0.484   2.945  0.00  0.00     0.003 A 
ATOM      6  C4  PXY d   1      -4.524  -0.361   3.187  0.00  0.00    -0.082 A 
ATOM      7  C5  PXY d   1      -5.270   0.446   2.403  0.00  0.00     0.003 A 
ATOM      8  C6  PXY d   1      -4.656   1.139   1.364  0.00  0.00     0.003 A 
ENDROOT
TORSDOF 0
ENDMDL
