MODEL 1
REMARK minimizedAffinity 11.4807005
REMARK minimizedRMSD -1
REMARK  0 active torsions:
REMARK  status: ('A' for Active; 'I' for Inactive)
ROOT
ATOM      1  C4' PXY d   1       0.644   0.348   1.668  0.00  0.00     0.077 C 
ATOM      2  C1' PXY d   1      -4.804   1.931   0.564  0.00  0.00     0.077 C 
ATOM      3  C1  PXY d   1      -3.378   1.516   0.866  0.00  0.00    -0.082 A 
ATOM      4  C2  PXY d   1      -2.417   1.800   0.002  0.00  0.00     0.003 A 
ATOM      5  C3  PXY d   1      -1.127   1.403   0.245  0.00  0.00     0.003 A 
ATOM      6  C4  PXY d   1      -0.808   0.756   1.409  0.00  0.00    -0.082 A 
ATOM      7  C5  PXY d   1      -1.781   0.472   2.300  0.00  0.00     0.003 A 
ATOM      8  C6  PXY d   1      -3.091   0.847   2.016  0.00  0.00     0.003 A 
ENDROOT
TORSDOF 0
ENDMDL
