MODEL 1
REMARK minimizedAffinity 13.9674025
REMARK minimizedRMSD -1
REMARK  0 active torsions:
REMARK  status: ('A' for Active; 'I' for Inactive)
ROOT
ATOM      1  C4' PXY d   1       2.195   2.454   3.317  0.00  0.00     0.077 C 
ATOM      2  C1' PXY d   1       5.889   5.999   6.000  0.00  0.00     0.077 C 
ATOM      3  C1  PXY d   1       4.927   5.072   5.285  0.00  0.00    -0.082 A 
ATOM      4  C2  PXY d   1       3.736   4.833   5.811  0.00  0.00     0.003 A 
ATOM      5  C3  PXY d   1       2.865   3.972   5.194  0.00  0.00     0.003 A 
ATOM      6  C4  PXY d   1       3.196   3.391   3.999  0.00  0.00    -0.082 A 
ATOM      7  C5  PXY d   1       4.404   3.638   3.450  0.00  0.00     0.003 A 
ATOM      8  C6  PXY d   1       5.290   4.483   4.113  0.00  0.00     0.003 A 
ENDROOT
TORSDOF 0
ENDMDL
