MODEL 1
REMARK minimizedAffinity 0.926753819
REMARK minimizedRMSD -1
REMARK  0 active torsions:
REMARK  status: ('A' for Active; 'I' for Inactive)
ROOT
ATOM      1  C4' PXY d   1       5.996   5.965  -5.913  0.00  0.00     0.077 C 
ATOM      2  C1' PXY d   1       1.674   2.408  -4.470  0.00  0.00     0.077 C 
ATOM      3  C1  PXY d   1       2.814   3.338  -4.838  0.00  0.00    -0.082 A 
ATOM      4  C2  PXY d   1       2.585   4.372  -5.631  0.00  0.00     0.003 A 
ATOM      5  C3  PXY d   1       3.610   5.204  -5.999  0.00  0.00     0.003 A 
ATOM      6  C4  PXY d   1       4.873   5.006  -5.508  0.00  0.00    -0.082 A 
ATOM      7  C5  PXY d   1       5.113   3.959  -4.690  0.00  0.00     0.003 A 
ATOM      8  C6  PXY d   1       4.066   3.102  -4.361  0.00  0.00     0.003 A 
ENDROOT
TORSDOF 0
ENDMDL
