MODEL 1
REMARK minimizedAffinity 4.29054689
REMARK minimizedRMSD -1
REMARK  0 active torsions:
REMARK  status: ('A' for Active; 'I' for Inactive)
ROOT
ATOM      1  C4' PXY d   1      -4.591  -2.013   3.922  0.00  0.00     0.077 C 
ATOM      2  C1' PXY d   1      -2.522   1.832   0.134  0.00  0.00     0.077 C 
ATOM      3  C1  PXY d   1      -3.074   0.832   1.131  0.00  0.00    -0.082 A 
ATOM      4  C2  PXY d   1      -2.289  -0.123   1.602  0.00  0.00     0.003 A 
ATOM      5  C3  PXY d   1      -2.780  -1.055   2.480  0.00  0.00     0.003 A 
ATOM      6  C4  PXY d   1      -4.074  -0.976   2.921  0.00  0.00    -0.082 A 
ATOM      7  C5  PXY d   1      -4.878   0.002   2.454  0.00  0.00     0.003 A 
ATOM      8  C6  PXY d   1      -4.372   0.913   1.532  0.00  0.00     0.003 A 
ENDROOT
TORSDOF 0
ENDMDL
