MODEL 1
REMARK minimizedAffinity 1.79458296
REMARK minimizedRMSD -1
REMARK  0 active torsions:
REMARK  status: ('A' for Active; 'I' for Inactive)
ROOT
ATOM      1  C4' PXY d   1       0.468   3.633  -6.000  0.00  0.00     0.077 C 
ATOM      2  C1' PXY d   1       5.991   1.939  -5.787  0.00  0.00     0.077 C 
ATOM      3  C1  PXY d   1       4.546   2.395  -5.839  0.00  0.00    -0.082 A 
ATOM      4  C2  PXY d   1       3.575   1.499  -5.773  0.00  0.00     0.003 A 
ATOM      5  C3  PXY d   1       2.263   1.891  -5.850  0.00  0.00     0.003 A 
ATOM      6  C4  PXY d   1       1.941   3.219  -5.942  0.00  0.00    -0.082 A 
ATOM      7  C5  PXY d   1       2.927   4.140  -6.000  0.00  0.00     0.003 A 
ATOM      8  C6  PXY d   1       4.252   3.718  -5.961  0.00  0.00     0.003 A 
ENDROOT
TORSDOF 0
ENDMDL
