MODEL 1
REMARK minimizedAffinity 4.54623175
REMARK minimizedRMSD -1
REMARK  0 active torsions:
REMARK  status: ('A' for Active; 'I' for Inactive)
ROOT
ATOM      1  C4' PXY d   1      -3.541   2.440   0.650  0.00  0.00     0.077 C 
ATOM      2  C1' PXY d   1       1.751   2.709   2.961  0.00  0.00     0.077 C 
ATOM      3  C1  PXY d   1       0.365   2.650   2.349  0.00  0.00    -0.082 A 
ATOM      4  C2  PXY d   1      -0.567   1.900   2.913  0.00  0.00     0.003 A 
ATOM      5  C3  PXY d   1      -1.817   1.810   2.355  0.00  0.00     0.003 A 
ATOM      6  C4  PXY d   1      -2.130   2.537   1.238  0.00  0.00    -0.082 A 
ATOM      7  C5  PXY d   1      -1.187   3.313   0.663  0.00  0.00     0.003 A 
ATOM      8  C6  PXY d   1       0.087   3.359   1.222  0.00  0.00     0.003 A 
ENDROOT
TORSDOF 0
ENDMDL
