MODEL 1
REMARK minimizedAffinity 6.16372919
REMARK minimizedRMSD -1
REMARK  1 active torsions:
REMARK  status: ('A' for Active; 'I' for Inactive)
REMARK    1  A    between atoms: C1_2  and  C2_3 
ROOT
ATOM      1  C2  UNL d   1      -1.445  -2.559  -1.303  0.00  0.00    -0.081 A 
ATOM      2  C3  UNL d   1      -1.308  -3.353  -2.448  0.00  0.00     0.006 A 
ATOM      3  C4  UNL d   1      -0.186  -3.223  -3.270  0.00  0.00     0.002 A 
ATOM      4  C5  UNL d   1       0.821  -2.304  -2.956  0.00  0.00    -0.080 A 
ATOM      5  C6  UNL d   1       2.046  -2.177  -3.813  0.00  0.00     0.076 C 
ATOM      6  C7  UNL d   1       0.677  -1.499  -1.821  0.00  0.00     0.002 A 
ATOM      7  C8  UNL d   1      -0.446  -1.628  -1.000  0.00  0.00     0.006 A 
ENDROOT
BRANCH   1   8
ATOM      8  C1  UNL d   1      -2.622  -2.742  -0.380  0.00  0.00     0.054 C 
ATOM      9  C   UNL d   1      -2.188  -3.301   0.967  0.00  0.00     0.018 C 
ENDBRANCH   1   8
TORSDOF 1
ENDMDL
