MODEL 1
REMARK minimizedAffinity 5.59200573
REMARK minimizedRMSD -1
REMARK  1 active torsions:
REMARK  status: ('A' for Active; 'I' for Inactive)
REMARK    1  A    between atoms: C1_2  and  C2_3 
ROOT
ATOM      1  C2  UNL d   1      -0.461  -2.979  -0.812  0.00  0.00    -0.081 A 
ATOM      2  C3  UNL d   1      -0.189  -1.836  -1.574  0.00  0.00     0.006 A 
ATOM      3  C4  UNL d   1      -0.111  -1.916  -2.967  0.00  0.00     0.002 A 
ATOM      4  C5  UNL d   1      -0.311  -3.137  -3.620  0.00  0.00    -0.080 A 
ATOM      5  C6  UNL d   1      -0.260  -3.231  -5.116  0.00  0.00     0.076 C 
ATOM      6  C7  UNL d   1      -0.565  -4.282  -2.857  0.00  0.00     0.002 A 
ATOM      7  C8  UNL d   1      -0.642  -4.203  -1.465  0.00  0.00     0.006 A 
ENDROOT
BRANCH   1   8
ATOM      8  C1  UNL d   1      -0.609  -2.883   0.685  0.00  0.00     0.054 C 
ATOM      9  C   UNL d   1      -1.913  -2.197   1.069  0.00  0.00     0.018 C 
ENDBRANCH   1   8
TORSDOF 1
ENDMDL
