MODEL 1
REMARK minimizedAffinity 6.56540918
REMARK minimizedRMSD -1
REMARK  1 active torsions:
REMARK  status: ('A' for Active; 'I' for Inactive)
REMARK    1  A    between atoms: C1_2  and  C2_3 
ROOT
ATOM      1  C2  UNL d   1       1.328  -1.838   4.178  0.00  0.00    -0.081 A 
ATOM      2  C3  UNL d   1       0.218  -2.417   3.551  0.00  0.00     0.006 A 
ATOM      3  C4  UNL d   1      -1.046  -2.346   4.142  0.00  0.00     0.002 A 
ATOM      4  C5  UNL d   1      -1.222  -1.689   5.365  0.00  0.00    -0.080 A 
ATOM      5  C6  UNL d   1      -2.578  -1.580   5.996  0.00  0.00     0.076 C 
ATOM      6  C7  UNL d   1      -0.109  -1.126   5.999  0.00  0.00     0.002 A 
ATOM      7  C8  UNL d   1       1.154  -1.197   5.409  0.00  0.00     0.006 A 
ENDROOT
BRANCH   1   8
ATOM      8  C1  UNL d   1       2.680  -1.856   3.511  0.00  0.00     0.054 C 
ATOM      9  C   UNL d   1       2.550  -1.861   1.995  0.00  0.00     0.018 C 
ENDBRANCH   1   8
TORSDOF 1
ENDMDL
