MODEL 1
REMARK minimizedAffinity 3.2180903
REMARK minimizedRMSD -1
REMARK  1 active torsions:
REMARK  status: ('A' for Active; 'I' for Inactive)
REMARK    1  A    between atoms: C1_2  and  C2_3 
ROOT
ATOM      1  C2  UNL d   1       0.827  -2.161  -2.818  0.00  0.00    -0.081 A 
ATOM      2  C3  UNL d   1      -0.319  -2.959  -2.916  0.00  0.00     0.006 A 
ATOM      3  C4  UNL d   1      -1.143  -3.155  -1.805  0.00  0.00     0.002 A 
ATOM      4  C5  UNL d   1      -0.840  -2.550  -0.581  0.00  0.00    -0.080 A 
ATOM      5  C6  UNL d   1      -1.733  -2.727   0.611  0.00  0.00     0.076 C 
ATOM      6  C7  UNL d   1       0.315  -1.766  -0.478  0.00  0.00     0.002 A 
ATOM      7  C8  UNL d   1       1.139  -1.571  -1.588  0.00  0.00     0.006 A 
ENDROOT
BRANCH   1   8
ATOM      8  C1  UNL d   1       1.682  -1.895  -4.030  0.00  0.00     0.054 C 
ATOM      9  C   UNL d   1       0.832  -1.724  -5.281  0.00  0.00     0.018 C 
ENDBRANCH   1   8
TORSDOF 1
ENDMDL
