MODEL 1
REMARK minimizedAffinity 13.3639812
REMARK minimizedRMSD -1
REMARK  1 active torsions:
REMARK  status: ('A' for Active; 'I' for Inactive)
REMARK    1  A    between atoms: C1_2  and  C2_3 
ROOT
ATOM      1  C2  UNL d   1      -1.763  -2.259  -0.210  0.00  0.00    -0.081 A 
ATOM      2  C3  UNL d   1      -0.366  -2.158  -0.217  0.00  0.00     0.006 A 
ATOM      3  C4  UNL d   1       0.343  -2.234  -1.418  0.00  0.00     0.002 A 
ATOM      4  C5  UNL d   1      -0.331  -2.402  -2.632  0.00  0.00    -0.080 A 
ATOM      5  C6  UNL d   1       0.416  -2.454  -3.931  0.00  0.00     0.076 C 
ATOM      6  C7  UNL d   1      -1.726  -2.520  -2.623  0.00  0.00     0.002 A 
ATOM      7  C8  UNL d   1      -2.435  -2.446  -1.423  0.00  0.00     0.006 A 
ENDROOT
BRANCH   1   8
ATOM      8  C1  UNL d   1      -2.536  -2.113   1.076  0.00  0.00     0.054 C 
ATOM      9  C   UNL d   1      -4.031  -2.280   0.845  0.00  0.00     0.018 C 
ENDBRANCH   1   8
TORSDOF 1
ENDMDL
