MODEL 1
REMARK minimizedAffinity 1.16457391
REMARK minimizedRMSD -1
REMARK  1 active torsions:
REMARK  status: ('A' for Active; 'I' for Inactive)
REMARK    1  A    between atoms: C1_2  and  C2_3 
ROOT
ATOM      1  C2  UNL d   1       4.995   4.746  -3.788  0.00  0.00    -0.081 A 
ATOM      2  C3  UNL d   1       5.413   4.920  -2.463  0.00  0.00     0.006 A 
ATOM      3  C4  UNL d   1       4.487   4.882  -1.418  0.00  0.00     0.002 A 
ATOM      4  C5  UNL d   1       3.130   4.661  -1.679  0.00  0.00    -0.080 A 
ATOM      5  C6  UNL d   1       2.131   4.587  -0.564  0.00  0.00     0.076 C 
ATOM      6  C7  UNL d   1       2.710   4.505  -3.004  0.00  0.00     0.002 A 
ATOM      7  C8  UNL d   1       3.636   4.544  -4.050  0.00  0.00     0.006 A 
ENDROOT
BRANCH   1   8
ATOM      8  C1  UNL d   1       6.000   4.722  -4.912  0.00  0.00     0.054 C 
ATOM      9  C   UNL d   1       6.000   3.378  -5.626  0.00  0.00     0.018 C 
ENDBRANCH   1   8
TORSDOF 1
ENDMDL
