MODEL 1
REMARK minimizedAffinity 5.68338203
REMARK minimizedRMSD -1
REMARK  1 active torsions:
REMARK  status: ('A' for Active; 'I' for Inactive)
REMARK    1  A    between atoms: C1_2  and  C2_3 
ROOT
ATOM      1  C2  UNL d   1      -0.213  -2.140  -1.581  0.00  0.00    -0.081 A 
ATOM      2  C3  UNL d   1       0.459  -1.658  -0.450  0.00  0.00     0.006 A 
ATOM      3  C4  UNL d   1      -0.038  -1.912   0.830  0.00  0.00     0.002 A 
ATOM      4  C5  UNL d   1      -1.209  -2.658   1.002  0.00  0.00    -0.080 A 
ATOM      5  C6  UNL d   1      -1.736  -2.964   2.373  0.00  0.00     0.076 C 
ATOM      6  C7  UNL d   1      -1.889  -3.124  -0.128  0.00  0.00     0.002 A 
ATOM      7  C8  UNL d   1      -1.394  -2.870  -1.408  0.00  0.00     0.006 A 
ENDROOT
BRANCH   1   8
ATOM      8  C1  UNL d   1       0.355  -1.923  -2.960  0.00  0.00     0.054 C 
ATOM      9  C   UNL d   1       1.841  -2.249  -3.004  0.00  0.00     0.018 C 
ENDBRANCH   1   8
TORSDOF 1
ENDMDL
