MODEL 1
REMARK minimizedAffinity 3.51898837
REMARK minimizedRMSD -1
REMARK  1 active torsions:
REMARK  status: ('A' for Active; 'I' for Inactive)
REMARK    1  A    between atoms: C1_2  and  C2_3 
ROOT
ATOM      1  C2  UNL d   1       5.236   5.486  -2.219  0.00  0.00    -0.081 A 
ATOM      2  C3  UNL d   1       4.016   5.922  -2.749  0.00  0.00     0.006 A 
ATOM      3  C4  UNL d   1       3.562   5.435  -3.977  0.00  0.00     0.002 A 
ATOM      4  C5  UNL d   1       4.317   4.499  -4.691  0.00  0.00    -0.080 A 
ATOM      5  C6  UNL d   1       3.828   3.945  -5.996  0.00  0.00     0.076 C 
ATOM      6  C7  UNL d   1       5.545   4.076  -4.171  0.00  0.00     0.002 A 
ATOM      7  C8  UNL d   1       5.999   4.563  -2.943  0.00  0.00     0.006 A 
ENDROOT
BRANCH   1   8
ATOM      8  C1  UNL d   1       5.697   5.960  -0.864  0.00  0.00     0.054 C 
ATOM      9  C   UNL d   1       5.941   4.790   0.078  0.00  0.00     0.018 C 
ENDBRANCH   1   8
TORSDOF 1
ENDMDL
