MODEL 1
REMARK minimizedAffinity 10.0999813
REMARK minimizedRMSD -1
REMARK  1 active torsions:
REMARK  status: ('A' for Active; 'I' for Inactive)
REMARK    1  A    between atoms: C1_2  and  C2_3 
ROOT
ATOM      1  C2  UNL d   1      -0.139  -2.745  -1.427  0.00  0.00    -0.081 A 
ATOM      2  C3  UNL d   1       1.075  -2.275  -1.941  0.00  0.00     0.006 A 
ATOM      3  C4  UNL d   1       1.195  -1.956  -3.296  0.00  0.00     0.002 A 
ATOM      4  C5  UNL d   1       0.102  -2.095  -4.157  0.00  0.00    -0.080 A 
ATOM      5  C6  UNL d   1       0.209  -1.728  -5.607  0.00  0.00     0.076 C 
ATOM      6  C7  UNL d   1      -1.107  -2.582  -3.647  0.00  0.00     0.002 A 
ATOM      7  C8  UNL d   1      -1.227  -2.901  -2.293  0.00  0.00     0.006 A 
ENDROOT
BRANCH   1   8
ATOM      8  C1  UNL d   1      -0.290  -3.028   0.046  0.00  0.00     0.054 C 
ATOM      9  C   UNL d   1      -1.661  -2.603   0.553  0.00  0.00     0.018 C 
ENDBRANCH   1   8
TORSDOF 1
ENDMDL
