MODEL 1
REMARK minimizedAffinity 12.4026146
REMARK minimizedRMSD -1
REMARK  1 active torsions:
REMARK  status: ('A' for Active; 'I' for Inactive)
REMARK    1  A    between atoms: C1_2  and  C2_3 
ROOT
ATOM      1  C2  UNL d   1       0.972  -2.185  -3.081  0.00  0.00    -0.081 A 
ATOM      2  C3  UNL d   1      -0.302  -2.284  -3.654  0.00  0.00     0.006 A 
ATOM      3  C4  UNL d   1      -1.446  -2.185  -2.858  0.00  0.00     0.002 A 
ATOM      4  C5  UNL d   1      -1.336  -1.978  -1.479  0.00  0.00    -0.080 A 
ATOM      5  C6  UNL d   1      -2.556  -1.840  -0.618  0.00  0.00     0.076 C 
ATOM      6  C7  UNL d   1      -0.063  -1.897  -0.904  0.00  0.00     0.002 A 
ATOM      7  C8  UNL d   1       1.081  -1.996  -1.699  0.00  0.00     0.006 A 
ENDROOT
BRANCH   1   8
ATOM      8  C1  UNL d   1       2.206  -2.226  -3.945  0.00  0.00     0.054 C 
ATOM      9  C   UNL d   1       3.435  -1.760  -3.178  0.00  0.00     0.018 C 
ENDBRANCH   1   8
TORSDOF 1
ENDMDL
