MODEL 1
REMARK minimizedAffinity 7.49425888
REMARK minimizedRMSD -1
REMARK  1 active torsions:
REMARK  status: ('A' for Active; 'I' for Inactive)
REMARK    1  A    between atoms: C1_2  and  C2_3 
ROOT
ATOM      1  C2  UNL d   1       0.223  -2.224  -2.676  0.00  0.00    -0.081 A 
ATOM      2  C3  UNL d   1      -1.131  -1.911  -2.845  0.00  0.00     0.006 A 
ATOM      3  C4  UNL d   1      -1.988  -1.856  -1.743  0.00  0.00     0.002 A 
ATOM      4  C5  UNL d   1      -1.503  -2.104  -0.454  0.00  0.00    -0.080 A 
ATOM      5  C6  UNL d   1      -2.406  -2.018   0.741  0.00  0.00     0.076 C 
ATOM      6  C7  UNL d   1      -0.154  -2.433  -0.288  0.00  0.00     0.002 A 
ATOM      7  C8  UNL d   1       0.703  -2.490  -1.389  0.00  0.00     0.006 A 
ENDROOT
BRANCH   1   8
ATOM      8  C1  UNL d   1       1.163  -2.221  -3.855  0.00  0.00     0.054 C 
ATOM      9  C   UNL d   1       2.593  -2.512  -3.423  0.00  0.00     0.018 C 
ENDBRANCH   1   8
TORSDOF 1
ENDMDL
