MODEL 1
REMARK minimizedAffinity 0.969338834
REMARK minimizedRMSD -1
REMARK  1 active torsions:
REMARK  status: ('A' for Active; 'I' for Inactive)
REMARK    1  A    between atoms: C1_2  and  C2_3 
ROOT
ATOM      1  C2  UNL d   1       0.263  -2.060  -2.108  0.00  0.00    -0.081 A 
ATOM      2  C3  UNL d   1       0.372  -1.157  -1.043  0.00  0.00     0.006 A 
ATOM      3  C4  UNL d   1      -0.363  -1.351   0.129  0.00  0.00     0.002 A 
ATOM      4  C5  UNL d   1      -1.212  -2.455   0.259  0.00  0.00    -0.080 A 
ATOM      5  C6  UNL d   1      -1.984  -2.691   1.524  0.00  0.00     0.076 C 
ATOM      6  C7  UNL d   1      -1.335  -3.348  -0.811  0.00  0.00     0.002 A 
ATOM      7  C8  UNL d   1      -0.601  -3.154  -1.983  0.00  0.00     0.006 A 
ENDROOT
BRANCH   1   8
ATOM      8  C1  UNL d   1       1.103  -1.889  -3.348  0.00  0.00     0.054 C 
ATOM      9  C   UNL d   1       2.586  -2.028  -3.035  0.00  0.00     0.018 C 
ENDBRANCH   1   8
TORSDOF 1
ENDMDL
