MODEL 1
REMARK minimizedAffinity 5.43761587
REMARK minimizedRMSD -1
REMARK  1 active torsions:
REMARK  status: ('A' for Active; 'I' for Inactive)
REMARK    1  A    between atoms: C1_2  and  C2_3 
ROOT
ATOM      1  C2  UNL d   1       4.032   5.374  -1.884  0.00  0.00    -0.081 A 
ATOM      2  C3  UNL d   1       3.334   4.732  -2.913  0.00  0.00     0.006 A 
ATOM      3  C4  UNL d   1       3.963   4.450  -4.128  0.00  0.00     0.002 A 
ATOM      4  C5  UNL d   1       5.303   4.798  -4.331  0.00  0.00    -0.080 A 
ATOM      5  C6  UNL d   1       6.000   4.474  -5.619  0.00  0.00     0.076 C 
ATOM      6  C7  UNL d   1       5.996   5.455  -3.308  0.00  0.00     0.002 A 
ATOM      7  C8  UNL d   1       5.367   5.738  -2.094  0.00  0.00     0.006 A 
ENDROOT
BRANCH   1   8
ATOM      8  C1  UNL d   1       3.375   5.621  -0.550  0.00  0.00     0.054 C 
ATOM      9  C   UNL d   1       2.016   4.941  -0.468  0.00  0.00     0.018 C 
ENDBRANCH   1   8
TORSDOF 1
ENDMDL
