MODEL 1
REMARK minimizedAffinity 0.358197153
REMARK minimizedRMSD -1
REMARK  1 active torsions:
REMARK  status: ('A' for Active; 'I' for Inactive)
REMARK    1  A    between atoms: C1_2  and  C2_3 
ROOT
ATOM      1  C2  UNL d   1       5.286   3.952  -4.823  0.00  0.00    -0.081 A 
ATOM      2  C3  UNL d   1       6.000   4.675  -3.860  0.00  0.00     0.006 A 
ATOM      3  C4  UNL d   1       5.345   5.215  -2.750  0.00  0.00     0.002 A 
ATOM      4  C5  UNL d   1       3.968   5.035  -2.581  0.00  0.00    -0.080 A 
ATOM      5  C6  UNL d   1       3.259   5.583  -1.379  0.00  0.00     0.076 C 
ATOM      6  C7  UNL d   1       3.252   4.327  -3.552  0.00  0.00     0.002 A 
ATOM      7  C8  UNL d   1       3.905   3.788  -4.662  0.00  0.00     0.006 A 
ENDROOT
BRANCH   1   8
ATOM      8  C1  UNL d   1       5.999   3.314  -5.987  0.00  0.00     0.054 C 
ATOM      9  C   UNL d   1       6.000   1.796  -5.871  0.00  0.00     0.018 C 
ENDBRANCH   1   8
TORSDOF 1
ENDMDL
