MODEL 1
REMARK minimizedAffinity 3.68763328
REMARK minimizedRMSD -1
REMARK  1 active torsions:
REMARK  status: ('A' for Active; 'I' for Inactive)
REMARK    1  A    between atoms: C1_2  and  C2_3 
ROOT
ATOM      1  C2  UNL d   1       5.059   3.851  -4.651  0.00  0.00    -0.081 A 
ATOM      2  C3  UNL d   1       4.215   4.941  -4.406  0.00  0.00     0.006 A 
ATOM      3  C4  UNL d   1       4.266   5.615  -3.183  0.00  0.00     0.002 A 
ATOM      4  C5  UNL d   1       5.166   5.216  -2.189  0.00  0.00    -0.080 A 
ATOM      5  C6  UNL d   1       5.252   5.949  -0.884  0.00  0.00     0.076 C 
ATOM      6  C7  UNL d   1       5.997   4.116  -2.428  0.00  0.00     0.002 A 
ATOM      7  C8  UNL d   1       5.946   3.442  -3.650  0.00  0.00     0.006 A 
ENDROOT
BRANCH   1   8
ATOM      8  C1  UNL d   1       5.052   3.163  -5.992  0.00  0.00     0.054 C 
ATOM      9  C   UNL d   1       5.787   1.832  -5.935  0.00  0.00     0.018 C 
ENDBRANCH   1   8
TORSDOF 1
ENDMDL
