MODEL 1
REMARK minimizedAffinity -1.78398395
REMARK minimizedRMSD -1
REMARK  0 active torsions:
REMARK  status: ('A' for Active; 'I' for Inactive)
ROOT
ATOM      1  N1  IND d   1       2.124   4.071  -4.900  0.00  0.00    -0.196 N 
ATOM      2  C2  IND d   1       1.482   5.114  -5.507  0.00  0.00     0.054 A 
ATOM      3  C3  IND d   1       2.380   6.000  -5.995  0.00  0.00    -0.031 A 
ATOM      4  C4  IND d   1       4.951   5.886  -6.000  0.00  0.00     0.051 A 
ATOM      5  C5  IND d   1       5.998   5.143  -5.531  0.00  0.00    -0.031 A 
ATOM      6  C6  IND d   1       5.802   3.979  -4.815  0.00  0.00     0.015 A 
ATOM      7  C7  IND d   1       4.548   3.508  -4.551  0.00  0.00    -0.016 A 
ATOM      8  C8  IND d   1       3.483   4.264  -5.020  0.00  0.00    -0.047 A 
ATOM      9  C9  IND d   1       3.674   5.468  -5.710  0.00  0.00    -0.096 A 
ATOM     10  HN1 IND d   1       1.743   3.407  -4.509  0.00  0.00     0.298 HD
ENDROOT
TORSDOF 0
ENDMDL
