MODEL 1
REMARK minimizedAffinity -3.36707973
REMARK minimizedRMSD -1
REMARK  0 active torsions:
REMARK  status: ('A' for Active; 'I' for Inactive)
ROOT
ATOM      1  N1  IND d   1       2.115   6.000  -5.996  0.00  0.00    -0.196 N 
ATOM      2  C2  IND d   1       1.124   5.187  -5.521  0.00  0.00     0.054 A 
ATOM      3  C3  IND d   1       1.650   4.190  -4.775  0.00  0.00    -0.031 A 
ATOM      4  C4  IND d   1       4.101   3.759  -4.116  0.00  0.00     0.051 A 
ATOM      5  C5  IND d   1       5.371   4.211  -4.338  0.00  0.00    -0.031 A 
ATOM      6  C6  IND d   1       5.627   5.306  -5.139  0.00  0.00     0.015 A 
ATOM      7  C7  IND d   1       4.615   6.000  -5.740  0.00  0.00    -0.016 A 
ATOM      8  C8  IND d   1       3.324   5.540  -5.522  0.00  0.00    -0.047 A 
ATOM      9  C9  IND d   1       3.062   4.404  -4.745  0.00  0.00    -0.096 A 
ATOM     10  HN1 IND d   1       2.003   6.684  -6.505  0.00  0.00     0.298 HD
ENDROOT
TORSDOF 0
ENDMDL
