MODEL 1
REMARK minimizedAffinity 0.473042428
REMARK minimizedRMSD -1
REMARK  0 active torsions:
REMARK  status: ('A' for Active; 'I' for Inactive)
ROOT
ATOM      1  N1  IND d   1       1.005   5.976  -4.049  0.00  0.00    -0.196 N 
ATOM      2  C2  IND d   1       1.110   5.944  -5.411  0.00  0.00     0.054 A 
ATOM      3  C3  IND d   1      -0.118   5.909  -5.977  0.00  0.00    -0.031 A 
ATOM      4  C4  IND d   1      -2.436   5.998  -4.861  0.00  0.00     0.051 A 
ATOM      5  C5  IND d   1      -3.043   5.996  -3.636  0.00  0.00    -0.031 A 
ATOM      6  C6  IND d   1      -2.317   5.989  -2.463  0.00  0.00     0.015 A 
ATOM      7  C7  IND d   1      -0.951   5.996  -2.470  0.00  0.00    -0.016 A 
ATOM      8  C8  IND d   1      -0.331   5.992  -3.712  0.00  0.00    -0.047 A 
ATOM      9  C9  IND d   1      -1.063   5.956  -4.906  0.00  0.00    -0.096 A 
ATOM     10  HN1 IND d   1       1.662   5.985  -3.495  0.00  0.00     0.298 HD
ENDROOT
TORSDOF 0
ENDMDL
