MODEL 1
REMARK minimizedAffinity 12.1008596
REMARK minimizedRMSD -1
REMARK  0 active torsions:
REMARK  status: ('A' for Active; 'I' for Inactive)
ROOT
ATOM      1  N1  IND d   1       2.112   3.212  -3.809  0.00  0.00    -0.196 N 
ATOM      2  C2  IND d   1       3.028   2.598  -3.002  0.00  0.00     0.054 A 
ATOM      3  C3  IND d   1       4.251   3.150  -3.173  0.00  0.00    -0.031 A 
ATOM      4  C4  IND d   1       4.955   5.137  -4.650  0.00  0.00     0.051 A 
ATOM      5  C5  IND d   1       4.476   6.000  -5.595  0.00  0.00    -0.031 A 
ATOM      6  C6  IND d   1       3.157   5.979  -6.000  0.00  0.00     0.015 A 
ATOM      7  C7  IND d   1       2.261   5.097  -5.463  0.00  0.00    -0.016 A 
ATOM      8  C8  IND d   1       2.746   4.215  -4.508  0.00  0.00    -0.047 A 
ATOM      9  C9  IND d   1       4.093   4.204  -4.124  0.00  0.00    -0.096 A 
ATOM     10  HN1 IND d   1       1.279   3.006  -3.870  0.00  0.00     0.298 HD
ENDROOT
TORSDOF 0
ENDMDL
