MODEL 1
REMARK minimizedAffinity 3.55274677
REMARK minimizedRMSD -1
REMARK  0 active torsions:
REMARK  status: ('A' for Active; 'I' for Inactive)
ROOT
ATOM      1  N1  IND d   1       0.539   5.998  -5.565  0.00  0.00    -0.196 N 
ATOM      2  C2  IND d   1      -0.292   5.193  -4.836  0.00  0.00     0.054 A 
ATOM      3  C3  IND d   1       0.414   4.206  -4.241  0.00  0.00    -0.031 A 
ATOM      4  C4  IND d   1       2.953   3.780  -4.243  0.00  0.00     0.051 A 
ATOM      5  C5  IND d   1       4.120   4.227  -4.798  0.00  0.00    -0.031 A 
ATOM      6  C6  IND d   1       4.153   5.311  -5.651  0.00  0.00     0.015 A 
ATOM      7  C7  IND d   1       3.018   5.998  -5.974  0.00  0.00    -0.016 A 
ATOM      8  C8  IND d   1       1.830   5.543  -5.419  0.00  0.00    -0.047 A 
ATOM      9  C9  IND d   1       1.784   4.417  -4.586  0.00  0.00    -0.096 A 
ATOM     10  HN1 IND d   1       0.295   6.676  -6.035  0.00  0.00     0.298 HD
ENDROOT
TORSDOF 0
ENDMDL
