MODEL 1
REMARK minimizedAffinity 5.17576933
REMARK minimizedRMSD -1
REMARK  0 active torsions:
REMARK  status: ('A' for Active; 'I' for Inactive)
ROOT
ATOM      1  N1  IND d   1       1.058  -0.492   0.986  0.00  0.00    -0.196 N 
ATOM      2  C2  IND d   1       0.787   0.160   2.157  0.00  0.00     0.054 A 
ATOM      3  C3  IND d   1       0.824   1.498   1.970  0.00  0.00    -0.031 A 
ATOM      4  C4  IND d   1       1.207   2.836  -0.196  0.00  0.00     0.051 A 
ATOM      5  C5  IND d   1       1.531   2.682  -1.515  0.00  0.00    -0.031 A 
ATOM      6  C6  IND d   1       1.715   1.436  -2.079  0.00  0.00     0.015 A 
ATOM      7  C7  IND d   1       1.570   0.293  -1.345  0.00  0.00    -0.016 A 
ATOM      8  C8  IND d   1       1.248   0.446  -0.004  0.00  0.00    -0.047 A 
ATOM      9  C9  IND d   1       1.101   1.709   0.584  0.00  0.00    -0.096 A 
ATOM     10  HN1 IND d   1       1.101  -1.345   0.885  0.00  0.00     0.298 HD
ENDROOT
TORSDOF 0
ENDMDL
