MODEL 1
REMARK minimizedAffinity 5.71371746
REMARK minimizedRMSD -1
REMARK  0 active torsions:
REMARK  status: ('A' for Active; 'I' for Inactive)
ROOT
ATOM      1  N1  IND d   1       0.039  -0.601   0.786  0.00  0.00    -0.196 N 
ATOM      2  C2  IND d   1      -0.008  -0.169   2.082  0.00  0.00     0.054 A 
ATOM      3  C3  IND d   1       0.470   1.092   2.175  0.00  0.00    -0.031 A 
ATOM      4  C4  IND d   1       1.286   2.673   0.314  0.00  0.00     0.051 A 
ATOM      5  C5  IND d   1       1.548   2.714  -1.026  0.00  0.00    -0.031 A 
ATOM      6  C6  IND d   1       1.314   1.631  -1.849  0.00  0.00     0.015 A 
ATOM      7  C7  IND d   1       0.795   0.465  -1.360  0.00  0.00    -0.016 A 
ATOM      8  C8  IND d   1       0.534   0.418   0.002  0.00  0.00    -0.047 A 
ATOM      9  C9  IND d   1       0.809   1.499   0.848  0.00  0.00    -0.096 A 
ATOM     10  HN1 IND d   1      -0.201  -1.378   0.507  0.00  0.00     0.298 HD
ENDROOT
TORSDOF 0
ENDMDL
