MODEL 1
REMARK minimizedAffinity 9.83953667
REMARK minimizedRMSD -1
REMARK  0 active torsions:
REMARK  status: ('A' for Active; 'I' for Inactive)
ROOT
ATOM      1  N1  IND d   1       4.650   3.963  -4.232  0.00  0.00    -0.196 N 
ATOM      2  C2  IND d   1       5.482   4.993  -4.574  0.00  0.00     0.054 A 
ATOM      3  C3  IND d   1       4.817   5.908  -5.315  0.00  0.00    -0.031 A 
ATOM      4  C4  IND d   1       2.336   5.969  -5.998  0.00  0.00     0.051 A 
ATOM      5  C5  IND d   1       1.187   5.230  -5.951  0.00  0.00    -0.031 A 
ATOM      6  C6  IND d   1       1.132   4.007  -5.313  0.00  0.00     0.015 A 
ATOM      7  C7  IND d   1       2.226   3.481  -4.686  0.00  0.00    -0.016 A 
ATOM      8  C8  IND d   1       3.396   4.226  -4.738  0.00  0.00    -0.047 A 
ATOM      9  C9  IND d   1       3.469   5.447  -5.421  0.00  0.00    -0.096 A 
ATOM     10  HN1 IND d   1       4.873   3.268  -3.778  0.00  0.00     0.298 HD
ENDROOT
TORSDOF 0
ENDMDL
