MODEL 1
REMARK minimizedAffinity 4.44761467
REMARK minimizedRMSD -1
REMARK  0 active torsions:
REMARK  status: ('A' for Active; 'I' for Inactive)
ROOT
ATOM      1  N1  IND d   1       1.536   3.880  -5.285  0.00  0.00    -0.196 N 
ATOM      2  C2  IND d   1       1.268   5.047  -5.946  0.00  0.00     0.054 A 
ATOM      3  C3  IND d   1       2.367   5.834  -5.974  0.00  0.00    -0.031 A 
ATOM      4  C4  IND d   1       4.739   5.364  -5.088  0.00  0.00     0.051 A 
ATOM      5  C5  IND d   1       5.461   4.447  -4.377  0.00  0.00    -0.031 A 
ATOM      6  C6  IND d   1       4.901   3.269  -3.925  0.00  0.00     0.015 A 
ATOM      7  C7  IND d   1       3.595   2.958  -4.179  0.00  0.00    -0.016 A 
ATOM      8  C8  IND d   1       2.857   3.890  -4.895  0.00  0.00    -0.047 A 
ATOM      9  C9  IND d   1       3.408   5.106  -5.319  0.00  0.00    -0.096 A 
ATOM     10  HN1 IND d   1       0.973   3.247  -5.138  0.00  0.00     0.298 HD
ENDROOT
TORSDOF 0
ENDMDL
