MODEL 1
REMARK minimizedAffinity 3.04756212
REMARK minimizedRMSD -1
REMARK  0 active torsions:
REMARK  status: ('A' for Active; 'I' for Inactive)
ROOT
ATOM      1  N1  IND d   1       0.519  -0.408   0.933  0.00  0.00    -0.196 N 
ATOM      2  C2  IND d   1      -0.807  -0.078   0.895  0.00  0.00     0.054 A 
ATOM      3  C3  IND d   1      -0.957   1.266   0.886  0.00  0.00    -0.031 A 
ATOM      4  C4  IND d   1       0.837   3.111   0.826  0.00  0.00     0.051 A 
ATOM      5  C5  IND d   1       2.189   3.302   0.885  0.00  0.00    -0.031 A 
ATOM      6  C6  IND d   1       3.071   2.244   0.962  0.00  0.00     0.015 A 
ATOM      7  C7  IND d   1       2.633   0.950   0.971  0.00  0.00    -0.016 A 
ATOM      8  C8  IND d   1       1.260   0.753   0.919  0.00  0.00    -0.047 A 
ATOM      9  C9  IND d   1       0.358   1.824   0.884  0.00  0.00    -0.096 A 
ATOM     10  HN1 IND d   1       0.836  -1.207   0.962  0.00  0.00     0.298 HD
ENDROOT
TORSDOF 0
ENDMDL
