MODEL 1
REMARK minimizedAffinity -2.30571103
REMARK minimizedRMSD -1
REMARK  0 active torsions:
REMARK  status: ('A' for Active; 'I' for Inactive)
ROOT
ATOM      1  N1  IND d   1       2.190   4.268  -4.535  0.00  0.00    -0.196 N 
ATOM      2  C2  IND d   1       1.491   5.168  -5.290  0.00  0.00     0.054 A 
ATOM      3  C3  IND d   1       2.339   5.998  -5.937  0.00  0.00    -0.031 A 
ATOM      4  C4  IND d   1       4.913   5.997  -5.982  0.00  0.00     0.051 A 
ATOM      5  C5  IND d   1       6.000   5.386  -5.421  0.00  0.00    -0.031 A 
ATOM      6  C6  IND d   1       5.870   4.349  -4.520  0.00  0.00     0.015 A 
ATOM      7  C7  IND d   1       4.642   3.874  -4.153  0.00  0.00    -0.016 A 
ATOM      8  C8  IND d   1       3.536   4.496  -4.716  0.00  0.00    -0.047 A 
ATOM      9  C9  IND d   1       3.662   5.577  -5.598  0.00  0.00    -0.096 A 
ATOM     10  HN1 IND d   1       1.846   3.661  -4.032  0.00  0.00     0.298 HD
ENDROOT
TORSDOF 0
ENDMDL
