MODEL 1
REMARK minimizedAffinity 2.77522349
REMARK minimizedRMSD -1
REMARK  0 active torsions:
REMARK  status: ('A' for Active; 'I' for Inactive)
ROOT
ATOM      1  N1  IND d   1       0.593   5.910  -5.988  0.00  0.00    -0.196 N 
ATOM      2  C2  IND d   1       1.727   5.930  -5.225  0.00  0.00     0.054 A 
ATOM      3  C3  IND d   1       1.410   5.992  -3.913  0.00  0.00    -0.031 A 
ATOM      4  C4  IND d   1      -0.905   5.966  -2.787  0.00  0.00     0.051 A 
ATOM      5  C5  IND d   1      -2.242   5.992  -3.072  0.00  0.00    -0.031 A 
ATOM      6  C6  IND d   1      -2.711   5.989  -4.369  0.00  0.00     0.015 A 
ATOM      7  C7  IND d   1      -1.858   5.948  -5.435  0.00  0.00    -0.016 A 
ATOM      8  C8  IND d   1      -0.500   5.929  -5.150  0.00  0.00    -0.047 A 
ATOM      9  C9  IND d   1      -0.017   5.975  -3.836  0.00  0.00    -0.096 A 
ATOM     10  HN1 IND d   1       0.567   5.889  -6.848  0.00  0.00     0.298 HD
ENDROOT
TORSDOF 0
ENDMDL
