MODEL 1
REMARK minimizedAffinity 3.82144833
REMARK minimizedRMSD -1
REMARK  0 active torsions:
REMARK  status: ('A' for Active; 'I' for Inactive)
ROOT
ATOM      1  N1  IND d   1       4.457   4.271  -4.489  0.00  0.00    -0.196 N 
ATOM      2  C2  IND d   1       5.173   5.136  -5.269  0.00  0.00     0.054 A 
ATOM      3  C3  IND d   1       4.341   5.910  -6.000  0.00  0.00    -0.031 A 
ATOM      4  C4  IND d   1       1.768   6.000  -5.999  0.00  0.00     0.051 A 
ATOM      5  C5  IND d   1       0.668   5.376  -5.479  0.00  0.00    -0.031 A 
ATOM      6  C6  IND d   1       0.778   4.333  -4.583  0.00  0.00     0.015 A 
ATOM      7  C7  IND d   1       1.996   3.880  -4.162  0.00  0.00    -0.016 A 
ATOM      8  C8  IND d   1       3.115   4.506  -4.693  0.00  0.00    -0.047 A 
ATOM      9  C9  IND d   1       3.011   5.537  -5.636  0.00  0.00    -0.096 A 
ATOM     10  HN1 IND d   1       4.789   3.680  -3.960  0.00  0.00     0.298 HD
ENDROOT
TORSDOF 0
ENDMDL
