MODEL 1
REMARK minimizedAffinity 8.03017426
REMARK minimizedRMSD -1
REMARK  1 active torsions:
REMARK  status: ('A' for Active; 'I' for Inactive)
REMARK    1  A    between atoms: C1_2  and  C2_3 
ROOT
ATOM      1  C2  UNL d   1       0.096   3.196   0.043  0.00  0.00    -0.077 A 
ATOM      2  C3  UNL d   1      -0.063   3.899   1.246  0.00  0.00     0.002 A 
ATOM      3  C4  UNL d   1      -0.049   5.295   1.255  0.00  0.00     0.002 A 
ATOM      4  C5  UNL d   1       0.119   6.000   0.064  0.00  0.00    -0.004 A 
ATOM      5  C6  UNL d   1       0.280   5.310  -1.136  0.00  0.00     0.002 A 
ATOM      6  C7  UNL d   1       0.268   3.914  -1.147  0.00  0.00     0.002 A 
ENDROOT
BRANCH   1   7
ATOM      7  C1  UNL d   1       0.032   1.691   0.024  0.00  0.00     0.055 C 
ATOM      8  C   UNL d   1      -1.407   1.198   0.049  0.00  0.00     0.019 C 
ENDBRANCH   1   7
TORSDOF 1
ENDMDL
