MODEL 1
REMARK minimizedAffinity 2.60975099
REMARK minimizedRMSD -1
REMARK  1 active torsions:
REMARK  status: ('A' for Active; 'I' for Inactive)
REMARK    1  A    between atoms: C1_2  and  C2_3 
ROOT
ATOM      1  C2  UNL d   1       0.913   4.024   0.814  0.00  0.00    -0.077 A 
ATOM      2  C3  UNL d   1       0.160   3.028   1.450  0.00  0.00     0.002 A 
ATOM      3  C4  UNL d   1       0.640   2.410   2.607  0.00  0.00     0.002 A 
ATOM      4  C5  UNL d   1       1.872   2.785   3.139  0.00  0.00    -0.004 A 
ATOM      5  C6  UNL d   1       2.629   3.774   2.512  0.00  0.00     0.002 A 
ATOM      6  C7  UNL d   1       2.152   4.391   1.355  0.00  0.00     0.002 A 
ENDROOT
BRANCH   1   7
ATOM      7  C1  UNL d   1       0.375   4.726  -0.406  0.00  0.00     0.055 C 
ATOM      8  C   UNL d   1      -0.368   6.000  -0.029  0.00  0.00     0.019 C 
ENDBRANCH   1   7
TORSDOF 1
ENDMDL
