MODEL 1
REMARK minimizedAffinity 9.05356693
REMARK minimizedRMSD -1
REMARK  1 active torsions:
REMARK  status: ('A' for Active; 'I' for Inactive)
REMARK    1  A    between atoms: C1_2  and  C2_3 
ROOT
ATOM      1  C2  UNL d   1       0.321   5.104  -0.752  0.00  0.00    -0.077 A 
ATOM      2  C3  UNL d   1      -0.460   5.988   0.006  0.00  0.00     0.002 A 
ATOM      3  C4  UNL d   1      -1.132   5.539   1.144  0.00  0.00     0.002 A 
ATOM      4  C5  UNL d   1      -1.028   4.206   1.536  0.00  0.00    -0.004 A 
ATOM      5  C6  UNL d   1      -0.256   3.318   0.788  0.00  0.00     0.002 A 
ATOM      6  C7  UNL d   1       0.416   3.766  -0.351  0.00  0.00     0.002 A 
ENDROOT
BRANCH   1   7
ATOM      7  C1  UNL d   1       1.087   5.598  -1.951  0.00  0.00     0.055 C 
ATOM      8  C   UNL d   1       0.241   5.529  -3.215  0.00  0.00     0.019 C 
ENDBRANCH   1   7
TORSDOF 1
ENDMDL
