MODEL 1
REMARK minimizedAffinity 3.57857847
REMARK minimizedRMSD -1
REMARK  1 active torsions:
REMARK  status: ('A' for Active; 'I' for Inactive)
REMARK    1  A    between atoms: C1_2  and  C2_3 
ROOT
ATOM      1  C2  UNL d   1      -0.112   3.880   1.053  0.00  0.00    -0.077 A 
ATOM      2  C3  UNL d   1       0.699   3.928  -0.089  0.00  0.00     0.002 A 
ATOM      3  C4  UNL d   1       0.574   4.980  -0.999  0.00  0.00     0.002 A 
ATOM      4  C5  UNL d   1      -0.356   5.992  -0.774  0.00  0.00    -0.004 A 
ATOM      5  C6  UNL d   1      -1.169   5.952   0.358  0.00  0.00     0.002 A 
ATOM      6  C7  UNL d   1      -1.046   4.901   1.269  0.00  0.00     0.002 A 
ENDROOT
BRANCH   1   7
ATOM      7  C1  UNL d   1       0.055   2.773   2.061  0.00  0.00     0.055 C 
ATOM      8  C   UNL d   1       1.510   2.619   2.478  0.00  0.00     0.019 C 
ENDBRANCH   1   7
TORSDOF 1
ENDMDL
