MODEL 1
REMARK minimizedAffinity 8.31783676
REMARK minimizedRMSD -1
REMARK  1 active torsions:
REMARK  status: ('A' for Active; 'I' for Inactive)
REMARK    1  A    between atoms: C1_2  and  C2_3 
ROOT
ATOM      1  C2  UNL d   1      -4.469   4.937  -3.649  0.00  0.00    -0.077 A 
ATOM      2  C3  UNL d   1      -4.465   5.997  -4.566  0.00  0.00     0.002 A 
ATOM      3  C4  UNL d   1      -5.222   5.920  -5.737  0.00  0.00     0.002 A 
ATOM      4  C5  UNL d   1      -5.991   4.789  -5.999  0.00  0.00    -0.004 A 
ATOM      5  C6  UNL d   1      -6.000   3.728  -5.093  0.00  0.00     0.002 A 
ATOM      6  C7  UNL d   1      -5.243   3.803  -3.923  0.00  0.00     0.002 A 
ENDROOT
BRANCH   1   7
ATOM      7  C1  UNL d   1      -3.692   5.039  -2.362  0.00  0.00     0.055 C 
ATOM      8  C   UNL d   1      -2.193   5.079  -2.622  0.00  0.00     0.019 C 
ENDBRANCH   1   7
TORSDOF 1
ENDMDL
