MODEL 1
REMARK minimizedAffinity -0.0359086096
REMARK minimizedRMSD -1
REMARK  1 active torsions:
REMARK  status: ('A' for Active; 'I' for Inactive)
REMARK    1  A    between atoms: C1_2  and  C2_3 
ROOT
ATOM      1  C2  UNL d   1      -5.904   3.919  -4.827  0.00  0.00    -0.077 A 
ATOM      2  C3  UNL d   1      -5.674   3.266  -3.608  0.00  0.00     0.002 A 
ATOM      3  C4  UNL d   1      -5.543   1.877  -3.564  0.00  0.00     0.002 A 
ATOM      4  C5  UNL d   1      -5.635   1.129  -4.736  0.00  0.00    -0.004 A 
ATOM      5  C6  UNL d   1      -5.865   1.768  -5.953  0.00  0.00     0.002 A 
ATOM      6  C7  UNL d   1      -5.998   3.157  -5.999  0.00  0.00     0.002 A 
ENDROOT
BRANCH   1   7
ATOM      7  C1  UNL d   1      -5.997   5.421  -4.884  0.00  0.00     0.055 C 
ATOM      8  C   UNL d   1      -5.115   5.989  -5.986  0.00  0.00     0.019 C 
ENDBRANCH   1   7
TORSDOF 1
ENDMDL
