MODEL 1
REMARK minimizedAffinity 9.95636177
REMARK minimizedRMSD -1
REMARK  0 active torsions:
REMARK  status: ('A' for Active; 'I' for Inactive)
ROOT
ATOM      1  C1  BNZ d   1       3.545  -1.232   1.118  0.00  0.00     0.000 A 
ATOM      2  C2  BNZ d   1       2.480  -0.458   0.742  0.00  0.00     0.000 A 
ATOM      3  C3  BNZ d   1       1.221  -0.730   1.200  0.00  0.00     0.000 A 
ATOM      4  C4  BNZ d   1       1.023  -1.797   2.002  0.00  0.00     0.000 A 
ATOM      5  C5  BNZ d   1       2.086  -2.591   2.383  0.00  0.00     0.000 A 
ATOM      6  C6  BNZ d   1       3.358  -2.292   1.950  0.00  0.00     0.000 A 
ENDROOT
TORSDOF 0
ENDMDL
