MODEL 1
REMARK minimizedAffinity 6.22578573
REMARK minimizedRMSD -1
REMARK  0 active torsions:
REMARK  status: ('A' for Active; 'I' for Inactive)
ROOT
ATOM      1  C1  BNZ d   1       3.468  -2.343   2.453  0.00  0.00     0.000 A 
ATOM      2  C2  BNZ d   1       2.165  -2.434   2.864  0.00  0.00     0.000 A 
ATOM      3  C3  BNZ d   1       1.197  -1.649   2.300  0.00  0.00     0.000 A 
ATOM      4  C4  BNZ d   1       1.540  -0.749   1.356  0.00  0.00     0.000 A 
ATOM      5  C5  BNZ d   1       2.851  -0.639   0.938  0.00  0.00     0.000 A 
ATOM      6  C6  BNZ d   1       3.816  -1.458   1.480  0.00  0.00     0.000 A 
ENDROOT
TORSDOF 0
ENDMDL
