MODEL 1
REMARK minimizedAffinity 4.40596294
REMARK minimizedRMSD -1
REMARK  0 active torsions:
REMARK  status: ('A' for Active; 'I' for Inactive)
ROOT
ATOM      1  C1  BNZ d   1      -5.130  -3.269  -5.238  0.00  0.00     0.000 A 
ATOM      2  C2  BNZ d   1      -5.999  -4.020  -5.983  0.00  0.00     0.000 A 
ATOM      3  C3  BNZ d   1      -5.909  -5.384  -6.000  0.00  0.00     0.000 A 
ATOM      4  C4  BNZ d   1      -4.925  -5.992  -5.305  0.00  0.00     0.000 A 
ATOM      5  C5  BNZ d   1      -4.035  -5.247  -4.557  0.00  0.00     0.000 A 
ATOM      6  C6  BNZ d   1      -4.154  -3.877  -4.511  0.00  0.00     0.000 A 
ENDROOT
TORSDOF 0
ENDMDL
