MODEL 1
REMARK minimizedAffinity 0.692099869
REMARK minimizedRMSD -1
REMARK  0 active torsions:
REMARK  status: ('A' for Active; 'I' for Inactive)
ROOT
ATOM      1  C1  BNZ d   1       2.039  -3.678   2.819  0.00  0.00     0.000 A 
ATOM      2  C2  BNZ d   1       2.259  -5.024   2.940  0.00  0.00     0.000 A 
ATOM      3  C3  BNZ d   1       1.670  -5.910   2.082  0.00  0.00     0.000 A 
ATOM      4  C4  BNZ d   1       0.830  -5.453   1.131  0.00  0.00     0.000 A 
ATOM      5  C5  BNZ d   1       0.590  -4.100   1.002  0.00  0.00     0.000 A 
ATOM      6  C6  BNZ d   1       1.215  -3.208   1.842  0.00  0.00     0.000 A 
ENDROOT
TORSDOF 0
ENDMDL
