MODEL 1
REMARK minimizedAffinity 5.02096319
REMARK minimizedRMSD -1
REMARK  0 active torsions:
REMARK  status: ('A' for Active; 'I' for Inactive)
ROOT
ATOM      1  C1  BNZ d   1      -4.552   4.150   0.138  0.00  0.00     0.000 A 
ATOM      2  C2  BNZ d   1      -3.319   3.670   0.493  0.00  0.00     0.000 A 
ATOM      3  C3  BNZ d   1      -2.956   3.576   1.807  0.00  0.00     0.000 A 
ATOM      4  C4  BNZ d   1      -3.809   4.000   2.762  0.00  0.00     0.000 A 
ATOM      5  C5  BNZ d   1      -5.051   4.496   2.420  0.00  0.00     0.000 A 
ATOM      6  C6  BNZ d   1      -5.428   4.552   1.098  0.00  0.00     0.000 A 
ENDROOT
TORSDOF 0
ENDMDL
