MODEL 1
REMARK minimizedAffinity 2.43167782
REMARK minimizedRMSD -1
REMARK  0 active torsions:
REMARK  status: ('A' for Active; 'I' for Inactive)
ROOT
ATOM      1  C1  BNZ d   1       1.950  -0.944   1.409  0.00  0.00     0.000 A 
ATOM      2  C2  BNZ d   1       2.214  -2.163   1.975  0.00  0.00     0.000 A 
ATOM      3  C3  BNZ d   1       1.819  -2.442   3.253  0.00  0.00     0.000 A 
ATOM      4  C4  BNZ d   1       1.196  -1.489   3.977  0.00  0.00     0.000 A 
ATOM      5  C5  BNZ d   1       0.930  -0.253   3.424  0.00  0.00     0.000 A 
ATOM      6  C6  BNZ d   1       1.295   0.011   2.124  0.00  0.00     0.000 A 
ENDROOT
TORSDOF 0
ENDMDL
