MODEL 1
REMARK minimizedAffinity 4.28738403
REMARK minimizedRMSD -1
REMARK  0 active torsions:
REMARK  status: ('A' for Active; 'I' for Inactive)
ROOT
ATOM      1  C1  BNZ d   1       0.431  -2.206   3.065  0.00  0.00     0.000 A 
ATOM      2  C2  BNZ d   1       0.722  -1.248   2.131  0.00  0.00     0.000 A 
ATOM      3  C3  BNZ d   1       1.211  -0.028   2.508  0.00  0.00     0.000 A 
ATOM      4  C4  BNZ d   1       1.370   0.245   3.819  0.00  0.00     0.000 A 
ATOM      5  C5  BNZ d   1       1.072  -0.707   4.773  0.00  0.00     0.000 A 
ATOM      6  C6  BNZ d   1       0.618  -1.947   4.388  0.00  0.00     0.000 A 
ENDROOT
TORSDOF 0
ENDMDL
