MODEL 1
REMARK minimizedAffinity 7.19431114
REMARK minimizedRMSD -1
REMARK  0 active torsions:
REMARK  status: ('A' for Active; 'I' for Inactive)
ROOT
ATOM      1  C1  BNZ d   1       3.539  -0.020   1.000  0.00  0.00     0.000 A 
ATOM      2  C2  BNZ d   1       2.955  -1.236   1.233  0.00  0.00     0.000 A 
ATOM      3  C3  BNZ d   1       1.732  -1.320   1.837  0.00  0.00     0.000 A 
ATOM      4  C4  BNZ d   1       1.113  -0.193   2.242  0.00  0.00     0.000 A 
ATOM      5  C5  BNZ d   1       1.693   1.041   2.022  0.00  0.00     0.000 A 
ATOM      6  C6  BNZ d   1       2.907   1.124   1.379  0.00  0.00     0.000 A 
ENDROOT
TORSDOF 0
ENDMDL
