MODEL 1
REMARK minimizedAffinity -4.04060364
REMARK minimizedRMSD -1
REMARK  2 active torsions:
REMARK  status: ('A' for Active; 'I' for Inactive)
REMARK    1  A    between atoms: C1_2  and  C2_3 
REMARK    2  A    between atoms: C2_3  and  C3_4 
ROOT
ATOM      1  C3  UNL d   1      -5.161   0.881   1.906  0.00  0.00    -0.075 A 
ATOM      2  C4  UNL d   1      -3.767   0.738   1.851  0.00  0.00     0.002 A 
ATOM      3  C5  UNL d   1      -3.000   0.822   3.014  0.00  0.00     0.002 A 
ATOM      4  C6  UNL d   1      -3.614   1.058   4.241  0.00  0.00    -0.004 A 
ATOM      5  C7  UNL d   1      -4.997   1.218   4.305  0.00  0.00     0.002 A 
ATOM      6  C8  UNL d   1      -5.767   1.131   3.144  0.00  0.00     0.002 A 
ENDROOT
BRANCH   1   7
ATOM      7  C2  UNL d   1      -5.999   0.762   0.655  0.00  0.00     0.056 C 
BRANCH   7   8
ATOM      8  C1  UNL d   1      -5.735   1.862  -0.379  0.00  0.00     0.007 C 
ATOM      9  C   UNL d   1      -6.000   1.415  -1.811  0.00  0.00     0.009 C 
ENDBRANCH   7   8
ENDBRANCH   1   7
TORSDOF 2
ENDMDL
