MODEL 1
REMARK minimizedAffinity 8.67674446
REMARK minimizedRMSD -1
REMARK  2 active torsions:
REMARK  status: ('A' for Active; 'I' for Inactive)
REMARK    1  A    between atoms: C1_2  and  C2_3 
REMARK    2  A    between atoms: C2_3  and  C3_4 
ROOT
ATOM      1  C3  UNL d   1       3.600   3.326  -3.221  0.00  0.00    -0.075 A 
ATOM      2  C4  UNL d   1       3.887   3.162  -4.584  0.00  0.00     0.002 A 
ATOM      3  C5  UNL d   1       4.856   3.951  -5.204  0.00  0.00     0.002 A 
ATOM      4  C6  UNL d   1       5.542   4.919  -4.474  0.00  0.00    -0.004 A 
ATOM      5  C7  UNL d   1       5.254   5.101  -3.123  0.00  0.00     0.002 A 
ATOM      6  C8  UNL d   1       4.288   4.310  -2.499  0.00  0.00     0.002 A 
ENDROOT
BRANCH   1   7
ATOM      7  C2  UNL d   1       2.573   2.455  -2.538  0.00  0.00     0.056 C 
BRANCH   7   8
ATOM      8  C1  UNL d   1       3.153   1.186  -1.905  0.00  0.00     0.007 C 
ATOM      9  C   UNL d   1       3.369   1.309  -0.402  0.00  0.00     0.009 C 
ENDBRANCH   7   8
ENDBRANCH   1   7
TORSDOF 2
ENDMDL
