MODEL 1
REMARK minimizedAffinity 3.79780316
REMARK minimizedRMSD -1
REMARK  2 active torsions:
REMARK  status: ('A' for Active; 'I' for Inactive)
REMARK    1  A    between atoms: C1_2  and  C2_3 
REMARK    2  A    between atoms: C2_3  and  C3_4 
ROOT
ATOM      1  C3  UNL d   1      -2.078  -0.783   1.831  0.00  0.00    -0.075 A 
ATOM      2  C4  UNL d   1      -3.227  -0.902   1.035  0.00  0.00     0.002 A 
ATOM      3  C5  UNL d   1      -4.229   0.068   1.087  0.00  0.00     0.002 A 
ATOM      4  C6  UNL d   1      -4.100   1.161   1.941  0.00  0.00    -0.004 A 
ATOM      5  C7  UNL d   1      -2.971   1.281   2.748  0.00  0.00     0.002 A 
ATOM      6  C8  UNL d   1      -1.965   0.314   2.695  0.00  0.00     0.002 A 
ENDROOT
BRANCH   1   7
ATOM      7  C2  UNL d   1      -0.977  -1.814   1.757  0.00  0.00     0.056 C 
BRANCH   7   8
ATOM      8  C1  UNL d   1       0.262  -1.463   2.588  0.00  0.00     0.007 C 
ATOM      9  C   UNL d   1       0.255  -2.096   3.973  0.00  0.00     0.009 C 
ENDBRANCH   7   8
ENDBRANCH   1   7
TORSDOF 2
ENDMDL
