MODEL 1
REMARK minimizedAffinity 6.58022785
REMARK minimizedRMSD -1
REMARK  2 active torsions:
REMARK  status: ('A' for Active; 'I' for Inactive)
REMARK    1  A    between atoms: C1_2  and  C2_3 
REMARK    2  A    between atoms: C2_3  and  C3_4 
ROOT
ATOM      1  C3  UNL d   1       4.905   4.016  -0.829  0.00  0.00    -0.075 A 
ATOM      2  C4  UNL d   1       3.794   3.237  -0.475  0.00  0.00     0.002 A 
ATOM      3  C5  UNL d   1       3.772   2.544   0.736  0.00  0.00     0.002 A 
ATOM      4  C6  UNL d   1       4.861   2.614   1.602  0.00  0.00    -0.004 A 
ATOM      5  C7  UNL d   1       5.976   3.372   1.253  0.00  0.00     0.002 A 
ATOM      6  C8  UNL d   1       6.000   4.070   0.044  0.00  0.00     0.002 A 
ENDROOT
BRANCH   1   7
ATOM      7  C2  UNL d   1       4.923   4.792  -2.125  0.00  0.00     0.056 C 
BRANCH   7   8
ATOM      8  C1  UNL d   1       4.218   4.082  -3.286  0.00  0.00     0.007 C 
ATOM      9  C   UNL d   1       5.010   4.126  -4.586  0.00  0.00     0.009 C 
ENDBRANCH   7   8
ENDBRANCH   1   7
TORSDOF 2
ENDMDL
