MODEL 1
REMARK minimizedAffinity 6.40931749
REMARK minimizedRMSD -1
REMARK  2 active torsions:
REMARK  status: ('A' for Active; 'I' for Inactive)
REMARK    1  A    between atoms: C1_2  and  C2_3 
REMARK    2  A    between atoms: C2_3  and  C3_4 
ROOT
ATOM      1  C3  UNL d   1       3.630   4.141  -3.209  0.00  0.00    -0.075 A 
ATOM      2  C4  UNL d   1       3.057   2.983  -2.665  0.00  0.00     0.002 A 
ATOM      3  C5  UNL d   1       1.745   2.997  -2.191  0.00  0.00     0.002 A 
ATOM      4  C6  UNL d   1       0.994   4.169  -2.244  0.00  0.00    -0.004 A 
ATOM      5  C7  UNL d   1       1.559   5.330  -2.767  0.00  0.00     0.002 A 
ATOM      6  C8  UNL d   1       2.870   5.318  -3.246  0.00  0.00     0.002 A 
ENDROOT
BRANCH   1   7
ATOM      7  C2  UNL d   1       5.039   4.125  -3.750  0.00  0.00     0.056 C 
BRANCH   7   8
ATOM      8  C1  UNL d   1       5.998   5.073  -3.022  0.00  0.00     0.007 C 
ATOM      9  C   UNL d   1       5.999   4.882  -1.511  0.00  0.00     0.009 C 
ENDBRANCH   7   8
ENDBRANCH   1   7
TORSDOF 2
ENDMDL
