MODEL 1
REMARK minimizedAffinity 7.86054754
REMARK minimizedRMSD -1
REMARK  2 active torsions:
REMARK  status: ('A' for Active; 'I' for Inactive)
REMARK    1  A    between atoms: C1_2  and  C2_3 
REMARK    2  A    between atoms: C2_3  and  C3_4 
ROOT
ATOM      1  C3  UNL d   1      -0.374  -0.316   2.023  0.00  0.00    -0.075 A 
ATOM      2  C4  UNL d   1      -0.983  -1.416   1.401  0.00  0.00     0.002 A 
ATOM      3  C5  UNL d   1      -2.328  -1.705   1.630  0.00  0.00     0.002 A 
ATOM      4  C6  UNL d   1      -3.079  -0.906   2.489  0.00  0.00    -0.004 A 
ATOM      5  C7  UNL d   1      -2.480   0.180   3.126  0.00  0.00     0.002 A 
ATOM      6  C8  UNL d   1      -1.135   0.473   2.895  0.00  0.00     0.002 A 
ENDROOT
BRANCH   1   7
ATOM      7  C2  UNL d   1       1.074   0.018   1.757  0.00  0.00     0.056 C 
BRANCH   7   8
ATOM      8  C1  UNL d   1       1.275   1.191   0.791  0.00  0.00     0.007 C 
ATOM      9  C   UNL d   1       2.693   1.281   0.243  0.00  0.00     0.009 C 
ENDBRANCH   7   8
ENDBRANCH   1   7
TORSDOF 2
ENDMDL
