MODEL 1
REMARK minimizedAffinity 6.04448652
REMARK minimizedRMSD -1
REMARK  2 active torsions:
REMARK  status: ('A' for Active; 'I' for Inactive)
REMARK    1  A    between atoms: C1_2  and  C2_3 
REMARK    2  A    between atoms: C2_3  and  C3_4 
ROOT
ATOM      1  C3  UNL d   1       3.146   1.517   0.296  0.00  0.00    -0.075 A 
ATOM      2  C4  UNL d   1       3.167   1.785  -1.081  0.00  0.00     0.002 A 
ATOM      3  C5  UNL d   1       1.988   1.755  -1.826  0.00  0.00     0.002 A 
ATOM      4  C6  UNL d   1       0.777   1.447  -1.208  0.00  0.00    -0.004 A 
ATOM      5  C7  UNL d   1       0.748   1.162   0.155  0.00  0.00     0.002 A 
ATOM      6  C8  UNL d   1       1.925   1.196   0.904  0.00  0.00     0.002 A 
ENDROOT
BRANCH   1   7
ATOM      7  C2  UNL d   1       4.414   1.577   1.114  0.00  0.00     0.056 C 
BRANCH   7   8
ATOM      8  C1  UNL d   1       4.735   2.969   1.666  0.00  0.00     0.007 C 
ATOM      9  C   UNL d   1       5.999   3.575   1.071  0.00  0.00     0.009 C 
ENDBRANCH   7   8
ENDBRANCH   1   7
TORSDOF 2
ENDMDL
