MODEL 1
REMARK minimizedAffinity 7.85662127
REMARK minimizedRMSD -1
REMARK  2 active torsions:
REMARK  status: ('A' for Active; 'I' for Inactive)
REMARK    1  A    between atoms: C1_2  and  C2_3 
REMARK    2  A    between atoms: C2_3  and  C3_4 
ROOT
ATOM      1  C3  UNL d   1      -1.280  -1.061   2.049  0.00  0.00    -0.075 A 
ATOM      2  C4  UNL d   1      -2.126  -0.529   1.066  0.00  0.00     0.002 A 
ATOM      3  C5  UNL d   1      -2.898   0.602   1.332  0.00  0.00     0.002 A 
ATOM      4  C6  UNL d   1      -2.841   1.209   2.585  0.00  0.00    -0.004 A 
ATOM      5  C7  UNL d   1      -2.017   0.679   3.575  0.00  0.00     0.002 A 
ATOM      6  C8  UNL d   1      -1.240  -0.450   3.310  0.00  0.00     0.002 A 
ENDROOT
BRANCH   1   7
ATOM      7  C2  UNL d   1      -0.420  -2.268   1.758  0.00  0.00     0.056 C 
BRANCH   7   8
ATOM      8  C1  UNL d   1       1.057  -2.084   2.124  0.00  0.00     0.007 C 
ATOM      9  C   UNL d   1       1.692  -0.867   1.465  0.00  0.00     0.009 C 
ENDBRANCH   7   8
ENDBRANCH   1   7
TORSDOF 2
ENDMDL
