MODEL 1
REMARK minimizedAffinity 4.27432537
REMARK minimizedRMSD -1
REMARK  2 active torsions:
REMARK  status: ('A' for Active; 'I' for Inactive)
REMARK    1  A    between atoms: C1_2  and  C2_3 
REMARK    2  A    between atoms: C2_3  and  C3_4 
ROOT
ATOM      1  C3  UNL d   1      -3.966   1.616   4.692  0.00  0.00    -0.075 A 
ATOM      2  C4  UNL d   1      -4.832   1.504   3.594  0.00  0.00     0.002 A 
ATOM      3  C5  UNL d   1      -4.403   0.899   2.412  0.00  0.00     0.002 A 
ATOM      4  C6  UNL d   1      -3.102   0.411   2.309  0.00  0.00    -0.004 A 
ATOM      5  C7  UNL d   1      -2.228   0.532   3.387  0.00  0.00     0.002 A 
ATOM      6  C8  UNL d   1      -2.657   1.132   4.573  0.00  0.00     0.002 A 
ENDROOT
BRANCH   1   7
ATOM      7  C2  UNL d   1      -4.434   2.243   5.984  0.00  0.00     0.056 C 
BRANCH   7   8
ATOM      8  C1  UNL d   1      -5.629   3.189   5.822  0.00  0.00     0.007 C 
ATOM      9  C   UNL d   1      -5.261   4.656   5.999  0.00  0.00     0.009 C 
ENDBRANCH   7   8
ENDBRANCH   1   7
TORSDOF 2
ENDMDL
