MODEL 1
REMARK minimizedAffinity 3.98146105
REMARK minimizedRMSD -1
REMARK  2 active torsions:
REMARK  status: ('A' for Active; 'I' for Inactive)
REMARK    1  A    between atoms: C1_2  and  C2_3 
REMARK    2  A    between atoms: C2_3  and  C3_4 
ROOT
ATOM      1  C3  UNL d   1      -0.615  -5.093  -5.260  0.00  0.00    -0.075 A 
ATOM      2  C4  UNL d   1       0.409  -6.000  -5.570  0.00  0.00     0.002 A 
ATOM      3  C5  UNL d   1       1.618  -5.968  -4.874  0.00  0.00     0.002 A 
ATOM      4  C6  UNL d   1       1.823  -5.025  -3.869  0.00  0.00    -0.004 A 
ATOM      5  C7  UNL d   1       0.819  -4.109  -3.564  0.00  0.00     0.002 A 
ATOM      6  C8  UNL d   1      -0.394  -4.141  -4.256  0.00  0.00     0.002 A 
ENDROOT
BRANCH   1   7
ATOM      7  C2  UNL d   1      -1.936  -5.141  -5.989  0.00  0.00     0.056 C 
BRANCH   7   8
ATOM      8  C1  UNL d   1      -3.001  -5.996  -5.293  0.00  0.00     0.007 C 
ATOM      9  C   UNL d   1      -4.353  -5.959  -5.994  0.00  0.00     0.009 C 
ENDBRANCH   7   8
ENDBRANCH   1   7
TORSDOF 2
ENDMDL
