MODEL 1
REMARK minimizedAffinity 4.93046236
REMARK minimizedRMSD -1
REMARK  2 active torsions:
REMARK  status: ('A' for Active; 'I' for Inactive)
REMARK    1  A    between atoms: C1_2  and  C2_3 
REMARK    2  A    between atoms: C2_3  and  C3_4 
ROOT
ATOM      1  C3  UNL d   1      -4.786   5.047  -3.495  0.00  0.00    -0.075 A 
ATOM      2  C4  UNL d   1      -5.684   4.041  -3.113  0.00  0.00     0.002 A 
ATOM      3  C5  UNL d   1      -5.999   3.845  -1.768  0.00  0.00     0.002 A 
ATOM      4  C6  UNL d   1      -5.413   4.645  -0.789  0.00  0.00    -0.004 A 
ATOM      5  C7  UNL d   1      -4.506   5.637  -1.156  0.00  0.00     0.002 A 
ATOM      6  C8  UNL d   1      -4.193   5.838  -2.501  0.00  0.00     0.002 A 
ENDROOT
BRANCH   1   7
ATOM      7  C2  UNL d   1      -4.463   5.283  -4.951  0.00  0.00     0.056 C 
BRANCH   7   8
ATOM      8  C1  UNL d   1      -3.129   6.000  -5.187  0.00  0.00     0.007 C 
ATOM      9  C   UNL d   1      -1.926   5.070  -5.101  0.00  0.00     0.009 C 
ENDBRANCH   7   8
ENDBRANCH   1   7
TORSDOF 2
ENDMDL
