MODEL 1
REMARK minimizedAffinity 6.24784851
REMARK minimizedRMSD -1
REMARK  0 active torsions:
REMARK  status: ('A' for Active; 'I' for Inactive)
ROOT
ATOM      1  C   UNL d   1      -4.028  -1.057  -3.858  0.00  0.00     0.077 C 
ATOM      2  C1  UNL d   1      -4.494  -2.323  -4.513  0.00  0.00    -0.074 A 
ATOM      3  C2  UNL d   1      -5.583  -2.319  -5.391  0.00  0.00    -0.005 A 
ATOM      4  C3  UNL d   1      -6.000  -3.503  -6.000  0.00  0.00     0.006 A 
ATOM      5  C4  UNL d   1      -5.333  -4.700  -5.738  0.00  0.00    -0.005 A 
ATOM      6  C5  UNL d   1      -4.241  -4.723  -4.864  0.00  0.00    -0.074 A 
ATOM      7  C6  UNL d   1      -3.507  -6.000  -4.580  0.00  0.00     0.077 C 
ATOM      8  C7  UNL d   1      -3.824  -3.528  -4.262  0.00  0.00    -0.001 A 
ENDROOT
TORSDOF 0
ENDMDL
