MODEL 1
REMARK minimizedAffinity -0.841895819
REMARK minimizedRMSD -1
REMARK  0 active torsions:
REMARK  status: ('A' for Active; 'I' for Inactive)
ROOT
ATOM      1  C   UNL d   1       3.817   2.773  -5.964  0.00  0.00     0.077 C 
ATOM      2  C1  UNL d   1       4.534   3.897  -5.277  0.00  0.00    -0.074 A 
ATOM      3  C2  UNL d   1       5.340   4.784  -5.999  0.00  0.00    -0.005 A 
ATOM      4  C3  UNL d   1       5.993   5.830  -5.348  0.00  0.00     0.006 A 
ATOM      5  C4  UNL d   1       5.848   6.000  -3.971  0.00  0.00    -0.005 A 
ATOM      6  C5  UNL d   1       5.047   5.124  -3.232  0.00  0.00    -0.074 A 
ATOM      7  C6  UNL d   1       4.872   5.298  -1.753  0.00  0.00     0.077 C 
ATOM      8  C7  UNL d   1       4.388   4.079  -3.895  0.00  0.00    -0.001 A 
ENDROOT
TORSDOF 0
ENDMDL
