MODEL 1
REMARK minimizedAffinity -2.6781106
REMARK minimizedRMSD -1
REMARK  0 active torsions:
REMARK  status: ('A' for Active; 'I' for Inactive)
ROOT
ATOM      1  C   UNL d   1       2.518   4.542  -1.884  0.00  0.00     0.077 C 
ATOM      2  C1  UNL d   1       3.730   4.821  -2.721  0.00  0.00    -0.074 A 
ATOM      3  C2  UNL d   1       4.685   5.757  -2.313  0.00  0.00    -0.005 A 
ATOM      4  C3  UNL d   1       5.813   5.999  -3.098  0.00  0.00     0.006 A 
ATOM      5  C4  UNL d   1       5.997   5.308  -4.296  0.00  0.00    -0.005 A 
ATOM      6  C5  UNL d   1       5.053   4.367  -4.720  0.00  0.00    -0.074 A 
ATOM      7  C6  UNL d   1       5.240   3.608  -6.000  0.00  0.00     0.077 C 
ATOM      8  C7  UNL d   1       3.926   4.124  -3.922  0.00  0.00    -0.001 A 
ENDROOT
TORSDOF 0
ENDMDL
