MODEL 1
REMARK minimizedAffinity 15.8583364
REMARK minimizedRMSD -1
REMARK  0 active torsions:
REMARK  status: ('A' for Active; 'I' for Inactive)
ROOT
ATOM      1  C   UNL d   1       0.392   1.091   1.739  0.00  0.00     0.077 C 
ATOM      2  C1  UNL d   1       0.659  -0.362   1.995  0.00  0.00    -0.074 A 
ATOM      3  C2  UNL d   1       1.393  -1.130   1.086  0.00  0.00    -0.005 A 
ATOM      4  C3  UNL d   1       1.641  -2.478   1.342  0.00  0.00     0.006 A 
ATOM      5  C4  UNL d   1       1.158  -3.071   2.509  0.00  0.00    -0.005 A 
ATOM      6  C5  UNL d   1       0.423  -2.320   3.431  0.00  0.00    -0.074 A 
ATOM      7  C6  UNL d   1      -0.095  -2.939   4.695  0.00  0.00     0.077 C 
ATOM      8  C7  UNL d   1       0.184  -0.964   3.169  0.00  0.00    -0.001 A 
ENDROOT
TORSDOF 0
ENDMDL
