MODEL 1
REMARK minimizedAffinity 3.07080841
REMARK minimizedRMSD -1
REMARK  0 active torsions:
REMARK  status: ('A' for Active; 'I' for Inactive)
ROOT
ATOM      1  C   UNL d   1       4.900   5.994  -0.771  0.00  0.00     0.077 C 
ATOM      2  C1  UNL d   1       4.526   5.630  -2.178  0.00  0.00    -0.074 A 
ATOM      3  C2  UNL d   1       3.316   4.987  -2.457  0.00  0.00    -0.005 A 
ATOM      4  C3  UNL d   1       2.978   4.663  -3.771  0.00  0.00     0.006 A 
ATOM      5  C4  UNL d   1       3.846   4.979  -4.817  0.00  0.00    -0.005 A 
ATOM      6  C5  UNL d   1       5.060   5.623  -4.557  0.00  0.00    -0.074 A 
ATOM      7  C6  UNL d   1       5.999   5.978  -5.672  0.00  0.00     0.077 C 
ATOM      8  C7  UNL d   1       5.389   5.951  -3.235  0.00  0.00    -0.001 A 
ENDROOT
TORSDOF 0
ENDMDL
