MODEL 1
REMARK minimizedAffinity 11.0931177
REMARK minimizedRMSD -1
REMARK  0 active torsions:
REMARK  status: ('A' for Active; 'I' for Inactive)
ROOT
ATOM      1  C   UNL d   1       2.501   4.594  -1.664  0.00  0.00     0.077 C 
ATOM      2  C1  UNL d   1       3.723   5.061  -2.398  0.00  0.00    -0.074 A 
ATOM      3  C2  UNL d   1       4.827   5.569  -1.707  0.00  0.00    -0.005 A 
ATOM      4  C3  UNL d   1       5.960   5.991  -2.403  0.00  0.00     0.006 A 
ATOM      5  C4  UNL d   1       6.000   5.908  -3.795  0.00  0.00    -0.005 A 
ATOM      6  C5  UNL d   1       4.906   5.402  -4.504  0.00  0.00    -0.074 A 
ATOM      7  C6  UNL d   1       4.936   5.297  -5.999  0.00  0.00     0.077 C 
ATOM      8  C7  UNL d   1       3.774   4.974  -3.796  0.00  0.00    -0.001 A 
ENDROOT
TORSDOF 0
ENDMDL
