MODEL 1
REMARK minimizedAffinity 0.662408471
REMARK minimizedRMSD -1
REMARK  0 active torsions:
REMARK  status: ('A' for Active; 'I' for Inactive)
ROOT
ATOM      1  C   UNL d   1       2.904   1.084   0.741  0.00  0.00     0.077 C 
ATOM      2  C1  UNL d   1       2.269   0.589   2.007  0.00  0.00    -0.074 A 
ATOM      3  C2  UNL d   1       2.257   1.378   3.162  0.00  0.00    -0.005 A 
ATOM      4  C3  UNL d   1       1.655   0.908   4.328  0.00  0.00     0.006 A 
ATOM      5  C4  UNL d   1       1.060  -0.354   4.353  0.00  0.00    -0.005 A 
ATOM      6  C5  UNL d   1       1.061  -1.157   3.208  0.00  0.00    -0.074 A 
ATOM      7  C6  UNL d   1       0.417  -2.512   3.214  0.00  0.00     0.077 C 
ATOM      8  C7  UNL d   1       1.662  -0.675   2.037  0.00  0.00    -0.001 A 
ENDROOT
TORSDOF 0
ENDMDL
