MODEL 1
REMARK minimizedAffinity 10.0444241
REMARK minimizedRMSD -1
REMARK  0 active torsions:
REMARK  status: ('A' for Active; 'I' for Inactive)
ROOT
ATOM      1  C   UNL d   1      -4.520  -1.524  -2.660  0.00  0.00     0.077 C 
ATOM      2  C1  UNL d   1      -4.337  -0.035  -2.624  0.00  0.00    -0.074 A 
ATOM      3  C2  UNL d   1      -3.559   0.570  -1.631  0.00  0.00    -0.005 A 
ATOM      4  C3  UNL d   1      -3.390   1.954  -1.617  0.00  0.00     0.006 A 
ATOM      5  C4  UNL d   1      -3.996   2.746  -2.593  0.00  0.00    -0.005 A 
ATOM      6  C5  UNL d   1      -4.776   2.159  -3.594  0.00  0.00    -0.074 A 
ATOM      7  C6  UNL d   1      -5.425   2.995  -4.657  0.00  0.00     0.077 C 
ATOM      8  C7  UNL d   1      -4.935   0.767  -3.606  0.00  0.00    -0.001 A 
ENDROOT
TORSDOF 0
ENDMDL
