MODEL 1
REMARK minimizedAffinity 6.50332689
REMARK minimizedRMSD -1
REMARK  0 active torsions:
REMARK  status: ('A' for Active; 'I' for Inactive)
ROOT
ATOM      1  C   UNL d   1       1.614  -4.625   2.564  0.00  0.00     0.077 C 
ATOM      2  C1  UNL d   1       1.536  -3.172   2.930  0.00  0.00    -0.074 A 
ATOM      3  C2  UNL d   1       1.074  -2.772   4.188  0.00  0.00    -0.005 A 
ATOM      4  C3  UNL d   1       1.016  -1.417   4.517  0.00  0.00     0.006 A 
ATOM      5  C4  UNL d   1       1.420  -0.452   3.595  0.00  0.00    -0.005 A 
ATOM      6  C5  UNL d   1       1.887  -0.834   2.333  0.00  0.00    -0.074 A 
ATOM      7  C6  UNL d   1       2.334   0.191   1.333  0.00  0.00     0.077 C 
ATOM      8  C7  UNL d   1       1.948  -2.197   2.011  0.00  0.00    -0.001 A 
ENDROOT
TORSDOF 0
ENDMDL
