MODEL 1
REMARK minimizedAffinity 6.17442465
REMARK minimizedRMSD -1
REMARK  0 active torsions:
REMARK  status: ('A' for Active; 'I' for Inactive)
ROOT
ATOM      1  C1  DEN d   1       1.443  -2.820  -0.648  0.00  0.00     0.130 A 
ATOM      2  C2  DEN d   1       1.320  -1.371  -0.777  0.00  0.00    -0.031 A 
ATOM      3  C3  DEN d   1       2.632  -0.837  -1.195  0.00  0.00     0.027 A 
ATOM      4  C4  DEN d   1       4.829  -2.107  -1.656  0.00  0.00     0.027 A 
ATOM      5  C5  DEN d   1       5.426  -3.348  -1.668  0.00  0.00    -0.003 A 
ATOM      6  C6  DEN d   1       4.753  -4.486  -1.311  0.00  0.00     0.001 A 
ATOM      7  C7  DEN d   1       3.429  -4.413  -0.970  0.00  0.00     0.017 A 
ATOM      8  C8  DEN d   1       2.821  -3.164  -0.948  0.00  0.00    -0.094 A 
ATOM      9  C9  DEN d   1       3.515  -2.027  -1.325  0.00  0.00    -0.072 A 
ENDROOT
TORSDOF 0
ENDMDL
