MODEL 1
REMARK minimizedAffinity -0.137572184
REMARK minimizedRMSD -1
REMARK  0 active torsions:
REMARK  status: ('A' for Active; 'I' for Inactive)
ROOT
ATOM      1  C1  DEN d   1      -0.047   0.446  -1.152  0.00  0.00     0.130 A 
ATOM      2  C2  DEN d   1      -0.193   1.119  -2.440  0.00  0.00    -0.031 A 
ATOM      3  C3  DEN d   1      -0.414   2.556  -2.182  0.00  0.00     0.027 A 
ATOM      4  C4  DEN d   1      -0.538   3.799   0.074  0.00  0.00     0.027 A 
ATOM      5  C5  DEN d   1      -0.483   3.650   1.443  0.00  0.00    -0.003 A 
ATOM      6  C6  DEN d   1      -0.315   2.428   2.038  0.00  0.00     0.001 A 
ATOM      7  C7  DEN d   1      -0.150   1.312   1.261  0.00  0.00     0.017 A 
ATOM      8  C8  DEN d   1      -0.211   1.453  -0.119  0.00  0.00    -0.094 A 
ATOM      9  C9  DEN d   1      -0.370   2.699  -0.702  0.00  0.00    -0.072 A 
ENDROOT
TORSDOF 0
ENDMDL
