MODEL 1
REMARK minimizedAffinity 4.21785831
REMARK minimizedRMSD -1
REMARK  0 active torsions:
REMARK  status: ('A' for Active; 'I' for Inactive)
ROOT
ATOM      1  C1  DEN d   1      -0.284   0.265   4.387  0.00  0.00     0.130 A 
ATOM      2  C2  DEN d   1      -0.044  -1.129   4.022  0.00  0.00    -0.031 A 
ATOM      3  C3  DEN d   1       0.252  -1.178   2.576  0.00  0.00     0.027 A 
ATOM      4  C4  DEN d   1       0.366   0.759   0.876  0.00  0.00     0.027 A 
ATOM      5  C5  DEN d   1       0.225   2.120   0.714  0.00  0.00    -0.003 A 
ATOM      6  C6  DEN d   1      -0.126   2.946   1.748  0.00  0.00     0.001 A 
ATOM      7  C7  DEN d   1      -0.304   2.426   3.003  0.00  0.00     0.017 A 
ATOM      8  C8  DEN d   1      -0.171   1.054   3.173  0.00  0.00    -0.094 A 
ATOM      9  C9  DEN d   1       0.197   0.237   2.117  0.00  0.00    -0.072 A 
ENDROOT
TORSDOF 0
ENDMDL
