MODEL 1
REMARK minimizedAffinity -2.62753797
REMARK minimizedRMSD -1
REMARK  0 active torsions:
REMARK  status: ('A' for Active; 'I' for Inactive)
ROOT
ATOM      1  C1  DEN d   1       0.575   0.360   0.025  0.00  0.00     0.130 A 
ATOM      2  C2  DEN d   1       0.323   0.994  -1.267  0.00  0.00    -0.031 A 
ATOM      3  C3  DEN d   1      -0.552   2.161  -1.040  0.00  0.00     0.027 A 
ATOM      4  C4  DEN d   1      -1.532   3.048   1.175  0.00  0.00     0.027 A 
ATOM      5  C5  DEN d   1      -1.608   2.835   2.534  0.00  0.00    -0.003 A 
ATOM      6  C6  DEN d   1      -0.994   1.773   3.142  0.00  0.00     0.001 A 
ATOM      7  C7  DEN d   1      -0.239   0.906   2.396  0.00  0.00     0.017 A 
ATOM      8  C8  DEN d   1      -0.165   1.110   1.024  0.00  0.00    -0.094 A 
ATOM      9  C9  DEN d   1      -0.783   2.197   0.430  0.00  0.00    -0.072 A 
ENDROOT
TORSDOF 0
ENDMDL
