MODEL 1
REMARK minimizedAffinity 6.21979618
REMARK minimizedRMSD -1
REMARK  0 active torsions:
REMARK  status: ('A' for Active; 'I' for Inactive)
ROOT
ATOM      1  C1  DEN d   1      -1.910   2.642  -0.056  0.00  0.00     0.130 A 
ATOM      2  C2  DEN d   1      -0.722   3.486  -0.153  0.00  0.00    -0.031 A 
ATOM      3  C3  DEN d   1       0.162   2.912  -1.187  0.00  0.00     0.027 A 
ATOM      4  C4  DEN d   1      -0.193   0.813  -2.643  0.00  0.00     0.027 A 
ATOM      5  C5  DEN d   1      -1.045  -0.236  -2.913  0.00  0.00    -0.003 A 
ATOM      6  C6  DEN d   1      -2.219  -0.416  -2.231  0.00  0.00     0.001 A 
ATOM      7  C7  DEN d   1      -2.596   0.491  -1.276  0.00  0.00     0.017 A 
ATOM      8  C8  DEN d   1      -1.739   1.547  -0.994  0.00  0.00    -0.094 A 
ATOM      9  C9  DEN d   1      -0.562   1.719  -1.703  0.00  0.00    -0.072 A 
ENDROOT
TORSDOF 0
ENDMDL
