MODEL 1
REMARK minimizedAffinity 10.2920856
REMARK minimizedRMSD -1
REMARK  0 active torsions:
REMARK  status: ('A' for Active; 'I' for Inactive)
ROOT
ATOM      1  C1  DEN d   1       0.042   0.468  -0.736  0.00  0.00     0.130 A 
ATOM      2  C2  DEN d   1      -1.124  -0.045  -1.449  0.00  0.00    -0.031 A 
ATOM      3  C3  DEN d   1      -2.310   0.699  -0.980  0.00  0.00     0.027 A 
ATOM      4  C4  DEN d   1      -2.452   2.589   0.770  0.00  0.00     0.027 A 
ATOM      5  C5  DEN d   1      -1.726   3.357   1.654  0.00  0.00    -0.003 A 
ATOM      6  C6  DEN d   1      -0.377   3.195   1.826  0.00  0.00     0.001 A 
ATOM      7  C7  DEN d   1       0.297   2.271   1.071  0.00  0.00     0.017 A 
ATOM      8  C8  DEN d   1      -0.429   1.488   0.184  0.00  0.00    -0.094 A 
ATOM      9  C9  DEN d   1      -1.790   1.676   0.015  0.00  0.00    -0.072 A 
ENDROOT
TORSDOF 0
ENDMDL
