MODEL 1
REMARK minimizedAffinity 2.80476069
REMARK minimizedRMSD -1
REMARK  0 active torsions:
REMARK  status: ('A' for Active; 'I' for Inactive)
ROOT
ATOM      1  C1  DEN d   1       3.327  -2.977  -0.220  0.00  0.00     0.130 A 
ATOM      2  C2  DEN d   1       4.636  -2.368   0.000  0.00  0.00    -0.031 A 
ATOM      3  C3  DEN d   1       5.626  -3.108  -0.809  0.00  0.00     0.027 A 
ATOM      4  C4  DEN d   1       5.259  -5.123  -2.376  0.00  0.00     0.027 A 
ATOM      5  C5  DEN d   1       4.322  -6.000  -2.877  0.00  0.00    -0.003 A 
ATOM      6  C6  DEN d   1       3.005  -5.952  -2.505  0.00  0.00     0.001 A 
ATOM      7  C7  DEN d   1       2.579  -4.979  -1.639  0.00  0.00     0.017 A 
ATOM      8  C8  DEN d   1       3.519  -4.097  -1.124  0.00  0.00    -0.094 A 
ATOM      9  C9  DEN d   1       4.844  -4.153  -1.522  0.00  0.00    -0.072 A 
ENDROOT
TORSDOF 0
ENDMDL
