MODEL 1
REMARK minimizedAffinity -6.25149298
REMARK minimizedRMSD -1
REMARK  2 active torsions:
REMARK  status: ('A' for Active; 'I' for Inactive)
REMARK    1  A    between atoms: C1_2  and  C2_3 
REMARK    2  A    between atoms: C2_3  and  C3_4 
ROOT
ATOM      1  C3  UNL d   1       0.730  -0.026   0.216  0.00  0.00    -0.075 A 
ATOM      2  C4  UNL d   1       1.726   0.899   0.562  0.00  0.00     0.002 A 
ATOM      3  C5  UNL d   1       2.986   0.463   0.975  0.00  0.00     0.002 A 
ATOM      4  C6  UNL d   1       3.262  -0.900   1.056  0.00  0.00    -0.004 A 
ATOM      5  C7  UNL d   1       2.275  -1.828   0.730  0.00  0.00     0.002 A 
ATOM      6  C8  UNL d   1       1.015  -1.394   0.313  0.00  0.00     0.002 A 
ENDROOT
BRANCH   1   7
ATOM      7  C2  UNL d   1      -0.625   0.440  -0.259  0.00  0.00     0.056 C 
BRANCH   7   8
ATOM      8  C1  UNL d   1      -1.781   0.043   0.666  0.00  0.00     0.007 C 
ATOM      9  C   UNL d   1      -3.091   0.740   0.323  0.00  0.00     0.009 C 
ENDBRANCH   7   8
ENDBRANCH   1   7
TORSDOF 2
ENDMDL
