MODEL 1
REMARK minimizedAffinity -4.76414967
REMARK minimizedRMSD -1
REMARK  2 active torsions:
REMARK  status: ('A' for Active; 'I' for Inactive)
REMARK    1  A    between atoms: C1_2  and  C2_3 
REMARK    2  A    between atoms: C2_3  and  C3_4 
ROOT
ATOM      1  C3  UNL d   1      -0.710   0.393  -0.520  0.00  0.00    -0.075 A 
ATOM      2  C4  UNL d   1      -0.777  -0.734  -1.352  0.00  0.00     0.002 A 
ATOM      3  C5  UNL d   1       0.071  -1.822  -1.140  0.00  0.00     0.002 A 
ATOM      4  C6  UNL d   1       1.001  -1.792  -0.104  0.00  0.00    -0.004 A 
ATOM      5  C7  UNL d   1       1.088  -0.671   0.718  0.00  0.00     0.002 A 
ATOM      6  C8  UNL d   1       0.238   0.417   0.512  0.00  0.00     0.002 A 
ENDROOT
BRANCH   1   7
ATOM      7  C2  UNL d   1      -1.645   1.561  -0.725  0.00  0.00     0.056 C 
BRANCH   7   8
ATOM      8  C1  UNL d   1      -3.112   1.249  -0.411  0.00  0.00     0.007 C 
ATOM      9  C   UNL d   1      -3.555   1.760   0.954  0.00  0.00     0.009 C 
ENDBRANCH   7   8
ENDBRANCH   1   7
TORSDOF 2
ENDMDL
