MODEL 1
REMARK minimizedAffinity -3.77336168
REMARK minimizedRMSD -1
REMARK  2 active torsions:
REMARK  status: ('A' for Active; 'I' for Inactive)
REMARK    1  A    between atoms: C1_2  and  C2_3 
REMARK    2  A    between atoms: C2_3  and  C3_4 
ROOT
ATOM      1  C3  UNL d   1       0.010   0.044  -0.183  0.00  0.00    -0.075 A 
ATOM      2  C4  UNL d   1       1.183   0.433   0.480  0.00  0.00     0.002 A 
ATOM      3  C5  UNL d   1       2.230  -0.471   0.657  0.00  0.00     0.002 A 
ATOM      4  C6  UNL d   1       2.115  -1.776   0.184  0.00  0.00    -0.004 A 
ATOM      5  C7  UNL d   1       0.947  -2.179  -0.462  0.00  0.00     0.002 A 
ATOM      6  C8  UNL d   1      -0.100  -1.275  -0.644  0.00  0.00     0.002 A 
ENDROOT
BRANCH   1   7
ATOM      7  C2  UNL d   1      -1.116   1.027  -0.404  0.00  0.00     0.056 C 
BRANCH   7   8
ATOM      8  C1  UNL d   1      -2.509   0.449  -0.136  0.00  0.00     0.007 C 
ATOM      9  C   UNL d   1      -3.201   1.081   1.065  0.00  0.00     0.009 C 
ENDBRANCH   7   8
ENDBRANCH   1   7
TORSDOF 2
ENDMDL
