MODEL 1
REMARK minimizedAffinity -2.06164336
REMARK minimizedRMSD -1
REMARK  2 active torsions:
REMARK  status: ('A' for Active; 'I' for Inactive)
REMARK    1  A    between atoms: C1_2  and  C2_3 
REMARK    2  A    between atoms: C2_3  and  C3_4 
ROOT
ATOM      1  C3  UNL d   1       0.904   0.528  -0.032  0.00  0.00    -0.075 A 
ATOM      2  C4  UNL d   1      -0.018   1.317  -0.734  0.00  0.00     0.002 A 
ATOM      3  C5  UNL d   1      -0.902   0.734  -1.642  0.00  0.00     0.002 A 
ATOM      4  C6  UNL d   1      -0.868  -0.640  -1.868  0.00  0.00    -0.004 A 
ATOM      5  C7  UNL d   1       0.055  -1.431  -1.188  0.00  0.00     0.002 A 
ATOM      6  C8  UNL d   1       0.938  -0.851  -0.275  0.00  0.00     0.002 A 
ENDROOT
BRANCH   1   7
ATOM      7  C2  UNL d   1       1.844   1.149   0.975  0.00  0.00     0.056 C 
BRANCH   7   8
ATOM      8  C1  UNL d   1       1.255   1.273   2.384  0.00  0.00     0.007 C 
ATOM      9  C   UNL d   1       1.697   0.156   3.320  0.00  0.00     0.009 C 
ENDBRANCH   7   8
ENDBRANCH   1   7
TORSDOF 2
ENDMDL
