MODEL 1
REMARK minimizedAffinity 3.74979997
REMARK minimizedRMSD -1
REMARK  0 active torsions:
REMARK  status: ('A' for Active; 'I' for Inactive)
ROOT
ATOM      1  C   UNL d   1      -2.450  -5.771  -2.829  0.00  0.00     0.078 C 
ATOM      2  C1  UNL d   1      -1.571  -5.275  -3.938  0.00  0.00    -0.077 A 
ATOM      3  C2  UNL d   1      -0.444  -6.000  -4.345  0.00  0.00    -0.001 A 
ATOM      4  C3  UNL d   1       0.370  -5.521  -5.372  0.00  0.00     0.003 A 
ATOM      5  C4  UNL d   1       0.068  -4.314  -6.000  0.00  0.00    -0.005 A 
ATOM      6  C5  UNL d   1      -1.049  -3.584  -5.600  0.00  0.00     0.003 A 
ATOM      7  C6  UNL d   1      -1.865  -4.062  -4.573  0.00  0.00    -0.001 A 
ENDROOT
TORSDOF 0
ENDMDL
