MODEL 1
REMARK minimizedAffinity 11.6262598
REMARK minimizedRMSD -1
REMARK  0 active torsions:
REMARK  status: ('A' for Active; 'I' for Inactive)
ROOT
ATOM      1  C   UNL d   1      -0.213  -4.713   5.996  0.00  0.00     0.078 C 
ATOM      2  C1  UNL d   1       0.599  -3.818   5.108  0.00  0.00    -0.077 A 
ATOM      3  C2  UNL d   1       0.088  -3.356   3.889  0.00  0.00    -0.001 A 
ATOM      4  C3  UNL d   1       0.859  -2.531   3.068  0.00  0.00     0.003 A 
ATOM      5  C4  UNL d   1       2.145  -2.162   3.457  0.00  0.00    -0.005 A 
ATOM      6  C5  UNL d   1       2.663  -2.619   4.668  0.00  0.00     0.003 A 
ATOM      7  C6  UNL d   1       1.893  -3.443   5.490  0.00  0.00    -0.001 A 
ENDROOT
TORSDOF 0
ENDMDL
