MODEL 1
REMARK minimizedAffinity 9.00605392
REMARK minimizedRMSD -1
REMARK  0 active torsions:
REMARK  status: ('A' for Active; 'I' for Inactive)
ROOT
ATOM      1  C   UNL d   1      -2.022  -4.041  -5.606  0.00  0.00     0.078 C 
ATOM      2  C1  UNL d   1      -1.323  -2.990  -4.796  0.00  0.00    -0.077 A 
ATOM      3  C2  UNL d   1      -1.392  -2.993  -3.397  0.00  0.00    -0.001 A 
ATOM      4  C3  UNL d   1      -0.745  -2.003  -2.656  0.00  0.00     0.003 A 
ATOM      5  C4  UNL d   1      -0.024  -1.003  -3.305  0.00  0.00    -0.005 A 
ATOM      6  C5  UNL d   1       0.049  -0.990  -4.697  0.00  0.00     0.003 A 
ATOM      7  C6  UNL d   1      -0.598  -1.979  -5.439  0.00  0.00    -0.001 A 
ENDROOT
TORSDOF 0
ENDMDL
