MODEL 1
REMARK minimizedAffinity 2.66762352
REMARK minimizedRMSD -1
REMARK  0 active torsions:
REMARK  status: ('A' for Active; 'I' for Inactive)
ROOT
ATOM      1  C   UNL d   1      -0.021  -0.980  -4.498  0.00  0.00     0.078 C 
ATOM      2  C1  UNL d   1      -0.671  -2.325  -4.633  0.00  0.00    -0.077 A 
ATOM      3  C2  UNL d   1      -0.835  -2.923  -5.888  0.00  0.00    -0.001 A 
ATOM      4  C3  UNL d   1      -1.450  -4.171  -6.000  0.00  0.00     0.003 A 
ATOM      5  C4  UNL d   1      -1.906  -4.831  -4.861  0.00  0.00    -0.005 A 
ATOM      6  C5  UNL d   1      -1.749  -4.242  -3.608  0.00  0.00     0.003 A 
ATOM      7  C6  UNL d   1      -1.135  -2.994  -3.494  0.00  0.00    -0.001 A 
ENDROOT
TORSDOF 0
ENDMDL
