MODEL 1
REMARK minimizedAffinity 8.52237415
REMARK minimizedRMSD -1
REMARK  0 active torsions:
REMARK  status: ('A' for Active; 'I' for Inactive)
ROOT
ATOM      1  C   UNL d   1       0.222  -1.078  -4.134  0.00  0.00     0.078 C 
ATOM      2  C1  UNL d   1      -0.549  -2.323  -4.453  0.00  0.00    -0.077 A 
ATOM      3  C2  UNL d   1      -0.427  -2.947  -5.701  0.00  0.00    -0.001 A 
ATOM      4  C3  UNL d   1      -1.158  -4.100  -5.988  0.00  0.00     0.003 A 
ATOM      5  C4  UNL d   1      -2.018  -4.640  -5.033  0.00  0.00    -0.005 A 
ATOM      6  C5  UNL d   1      -2.148  -4.025  -3.790  0.00  0.00     0.003 A 
ATOM      7  C6  UNL d   1      -1.417  -2.871  -3.501  0.00  0.00    -0.001 A 
ENDROOT
TORSDOF 0
ENDMDL
