MODEL 1
REMARK minimizedAffinity -1.63819087
REMARK minimizedRMSD -1
REMARK  0 active torsions:
REMARK  status: ('A' for Active; 'I' for Inactive)
ROOT
ATOM      1  C1  BNZ d   1       0.123  -1.967   0.384  0.00  0.00     0.000 A 
ATOM      2  C2  BNZ d   1      -0.825  -1.188   0.992  0.00  0.00     0.000 A 
ATOM      3  C3  BNZ d   1      -1.135   0.049   0.499  0.00  0.00     0.000 A 
ATOM      4  C4  BNZ d   1      -0.470   0.521  -0.574  0.00  0.00     0.000 A 
ATOM      5  C5  BNZ d   1       0.495  -0.249  -1.193  0.00  0.00     0.000 A 
ATOM      6  C6  BNZ d   1       0.777  -1.509  -0.718  0.00  0.00     0.000 A 
ENDROOT
TORSDOF 0
ENDMDL
