MODEL 1
REMARK minimizedAffinity -1.65003097
REMARK minimizedRMSD -1
REMARK  0 active torsions:
REMARK  status: ('A' for Active; 'I' for Inactive)
ROOT
ATOM      1  C1  BNZ d   1      -0.111   0.020   0.168  0.00  0.00     0.000 A 
ATOM      2  C2  BNZ d   1       0.347  -1.199   0.592  0.00  0.00     0.000 A 
ATOM      3  C3  BNZ d   1       1.197  -1.936  -0.185  0.00  0.00     0.000 A 
ATOM      4  C4  BNZ d   1       1.555  -1.473  -1.400  0.00  0.00     0.000 A 
ATOM      5  C5  BNZ d   1       1.094  -0.250  -1.845  0.00  0.00     0.000 A 
ATOM      6  C6  BNZ d   1       0.270   0.507  -1.044  0.00  0.00     0.000 A 
ENDROOT
TORSDOF 0
ENDMDL
