MODEL 1
REMARK minimizedAffinity -3.14810514
REMARK minimizedRMSD -1
REMARK  0 active torsions:
REMARK  status: ('A' for Active; 'I' for Inactive)
ROOT
ATOM      1  C1  BNZ d   1       1.570  -1.258  -1.503  0.00  0.00     0.000 A 
ATOM      2  C2  BNZ d   1       0.892  -0.077  -1.646  0.00  0.00     0.000 A 
ATOM      3  C3  BNZ d   1      -0.109   0.265  -0.781  0.00  0.00     0.000 A 
ATOM      4  C4  BNZ d   1      -0.457  -0.590   0.202  0.00  0.00     0.000 A 
ATOM      5  C5  BNZ d   1       0.211  -1.789   0.354  0.00  0.00     0.000 A 
ATOM      6  C6  BNZ d   1       1.244  -2.113  -0.496  0.00  0.00     0.000 A 
ENDROOT
TORSDOF 0
ENDMDL
