MODEL 1
REMARK minimizedAffinity -2.19787955
REMARK minimizedRMSD -1
REMARK  0 active torsions:
REMARK  status: ('A' for Active; 'I' for Inactive)
ROOT
ATOM      1  C1  BNZ d   1       1.171  -1.869  -0.055  0.00  0.00     0.000 A 
ATOM      2  C2  BNZ d   1       0.306  -1.241   0.802  0.00  0.00     0.000 A 
ATOM      3  C3  BNZ d   1      -0.264  -0.045   0.468  0.00  0.00     0.000 A 
ATOM      4  C4  BNZ d   1       0.061   0.541  -0.702  0.00  0.00     0.000 A 
ATOM      5  C5  BNZ d   1       0.938  -0.075  -1.572  0.00  0.00     0.000 A 
ATOM      6  C6  BNZ d   1       1.480  -1.298  -1.250  0.00  0.00     0.000 A 
ENDROOT
TORSDOF 0
ENDMDL
