MODEL 1
REMARK minimizedAffinity 4.90904808
REMARK minimizedRMSD -1
REMARK  0 active torsions:
REMARK  status: ('A' for Active; 'I' for Inactive)
ROOT
ATOM      1  C1  BNZ d   1      -4.265  -1.966   2.977  0.00  0.00     0.000 A 
ATOM      2  C2  BNZ d   1      -3.487  -1.055   2.314  0.00  0.00     0.000 A 
ATOM      3  C3  BNZ d   1      -2.522  -0.346   2.974  0.00  0.00     0.000 A 
ATOM      4  C4  BNZ d   1      -2.364  -0.520   4.302  0.00  0.00     0.000 A 
ATOM      5  C5  BNZ d   1      -3.147  -1.427   4.986  0.00  0.00     0.000 A 
ATOM      6  C6  BNZ d   1      -4.091  -2.167   4.311  0.00  0.00     0.000 A 
ENDROOT
TORSDOF 0
ENDMDL
