MODEL 1
REMARK minimizedAffinity -2.39795184
REMARK minimizedRMSD -1
REMARK  0 active torsions:
REMARK  status: ('A' for Active; 'I' for Inactive)
ROOT
ATOM      1  C1  BNZ d   1       0.907   0.144  -1.078  0.00  0.00     0.000 A 
ATOM      2  C2  BNZ d   1       1.540  -1.068  -1.004  0.00  0.00     0.000 A 
ATOM      3  C3  BNZ d   1       2.512  -1.407  -1.904  0.00  0.00     0.000 A 
ATOM      4  C4  BNZ d   1       2.821  -0.551  -2.899  0.00  0.00     0.000 A 
ATOM      5  C5  BNZ d   1       2.185   0.671  -2.993  0.00  0.00     0.000 A 
ATOM      6  C6  BNZ d   1       1.235   1.024  -2.063  0.00  0.00     0.000 A 
ENDROOT
TORSDOF 0
ENDMDL
