MODEL 1
REMARK minimizedAffinity -3.26308417
REMARK minimizedRMSD -1
REMARK  0 active torsions:
REMARK  status: ('A' for Active; 'I' for Inactive)
ROOT
ATOM      1  C1  BNZ d   1      -0.040  -0.379   0.315  0.00  0.00     0.000 A 
ATOM      2  C2  BNZ d   1       1.020  -0.643  -0.510  0.00  0.00     0.000 A 
ATOM      3  C3  BNZ d   1       1.334   0.200  -1.539  0.00  0.00     0.000 A 
ATOM      4  C4  BNZ d   1       0.564   1.283  -1.767  0.00  0.00     0.000 A 
ATOM      5  C5  BNZ d   1      -0.514   1.559  -0.950  0.00  0.00     0.000 A 
ATOM      6  C6  BNZ d   1      -0.803   0.729   0.109  0.00  0.00     0.000 A 
ENDROOT
TORSDOF 0
ENDMDL
