MODEL 1
REMARK minimizedAffinity -3.10950089
REMARK minimizedRMSD -1
REMARK  0 active torsions:
REMARK  status: ('A' for Active; 'I' for Inactive)
ROOT
ATOM      1  C1  BNZ d   1       1.472  -2.658  -0.639  0.00  0.00     0.000 A 
ATOM      2  C2  BNZ d   1       0.315  -2.547   0.084  0.00  0.00     0.000 A 
ATOM      3  C3  BNZ d   1      -0.277  -1.329   0.274  0.00  0.00     0.000 A 
ATOM      4  C4  BNZ d   1       0.309  -0.222  -0.225  0.00  0.00     0.000 A 
ATOM      5  C5  BNZ d   1       1.482  -0.317  -0.948  0.00  0.00     0.000 A 
ATOM      6  C6  BNZ d   1       2.054  -1.548  -1.170  0.00  0.00     0.000 A 
ENDROOT
TORSDOF 0
ENDMDL
