MODEL 1
REMARK minimizedAffinity -4.89753532
REMARK minimizedRMSD -1
REMARK  0 active torsions:
REMARK  status: ('A' for Active; 'I' for Inactive)
ROOT
ATOM      1  C1  BNZ d   1       1.802  -0.309  -0.435  0.00  0.00     0.000 A 
ATOM      2  C2  BNZ d   1       0.912   0.719  -0.594  0.00  0.00     0.000 A 
ATOM      3  C3  BNZ d   1       1.144   1.712  -1.505  0.00  0.00     0.000 A 
ATOM      4  C4  BNZ d   1       2.284   1.696  -2.226  0.00  0.00     0.000 A 
ATOM      5  C5  BNZ d   1       3.196   0.671  -2.071  0.00  0.00     0.000 A 
ATOM      6  C6  BNZ d   1       2.940  -0.347  -1.181  0.00  0.00     0.000 A 
ENDROOT
TORSDOF 0
ENDMDL
