MODEL 1
REMARK minimizedAffinity -3.13098192
REMARK minimizedRMSD -1
REMARK  0 active torsions:
REMARK  status: ('A' for Active; 'I' for Inactive)
ROOT
ATOM      1  C1  BNZ d   1      -1.552  -0.147  -0.009  0.00  0.00     0.000 A 
ATOM      2  C2  BNZ d   1      -0.773  -1.273   0.007  0.00  0.00     0.000 A 
ATOM      3  C3  BNZ d   1       0.530  -1.228  -0.405  0.00  0.00     0.000 A 
ATOM      4  C4  BNZ d   1       1.039  -0.069  -0.869  0.00  0.00     0.000 A 
ATOM      5  C5  BNZ d   1       0.264   1.073  -0.900  0.00  0.00     0.000 A 
ATOM      6  C6  BNZ d   1      -1.035   1.033  -0.448  0.00  0.00     0.000 A 
ENDROOT
TORSDOF 0
ENDMDL
