MODEL 1
REMARK minimizedAffinity -3.38363647
REMARK minimizedRMSD -1
REMARK  0 active torsions:
REMARK  status: ('A' for Active; 'I' for Inactive)
ROOT
ATOM      1  C1  BNZ d   1      -1.033   0.110   0.522  0.00  0.00     0.000 A 
ATOM      2  C2  BNZ d   1      -1.143   1.286  -0.170  0.00  0.00     0.000 A 
ATOM      3  C3  BNZ d   1      -0.488   1.464  -1.357  0.00  0.00     0.000 A 
ATOM      4  C4  BNZ d   1       0.307   0.483  -1.829  0.00  0.00     0.000 A 
ATOM      5  C5  BNZ d   1       0.436  -0.706  -1.138  0.00  0.00     0.000 A 
ATOM      6  C6  BNZ d   1      -0.255  -0.896   0.036  0.00  0.00     0.000 A 
ENDROOT
TORSDOF 0
ENDMDL
