MODEL 1
REMARK minimizedAffinity -2.76335454
REMARK minimizedRMSD -1
REMARK  0 active torsions:
REMARK  status: ('A' for Active; 'I' for Inactive)
ROOT
ATOM      1  C1  BNZ d   1       1.602  -0.122  -2.539  0.00  0.00     0.000 A 
ATOM      2  C2  BNZ d   1       0.821   0.991  -2.371  0.00  0.00     0.000 A 
ATOM      3  C3  BNZ d   1      -0.075   1.069  -1.342  0.00  0.00     0.000 A 
ATOM      4  C4  BNZ d   1      -0.218   0.020  -0.507  0.00  0.00     0.000 A 
ATOM      5  C5  BNZ d   1       0.555  -1.113  -0.669  0.00  0.00     0.000 A 
ATOM      6  C6  BNZ d   1       1.484  -1.172  -1.682  0.00  0.00     0.000 A 
ENDROOT
TORSDOF 0
ENDMDL
