MODEL 1
REMARK minimizedAffinity -4.30505514
REMARK minimizedRMSD -1
REMARK  0 active torsions:
REMARK  status: ('A' for Active; 'I' for Inactive)
ROOT
ATOM      1  C1  BNZ d   1      -1.415   0.107   0.153  0.00  0.00     0.000 A 
ATOM      2  C2  BNZ d   1      -0.819  -1.104  -0.075  0.00  0.00     0.000 A 
ATOM      3  C3  BNZ d   1       0.413  -1.179  -0.661  0.00  0.00     0.000 A 
ATOM      4  C4  BNZ d   1       1.030  -0.046  -1.054  0.00  0.00     0.000 A 
ATOM      5  C5  BNZ d   1       0.439   1.183  -0.839  0.00  0.00     0.000 A 
ATOM      6  C6  BNZ d   1      -0.785   1.256  -0.214  0.00  0.00     0.000 A 
ENDROOT
TORSDOF 0
ENDMDL
