MODEL 1
REMARK minimizedAffinity -3.63641858
REMARK minimizedRMSD -1
REMARK  0 active torsions:
REMARK  status: ('A' for Active; 'I' for Inactive)
ROOT
ATOM      1  C1  BNZ d   1       1.198   0.389  -1.395  0.00  0.00     0.000 A 
ATOM      2  C2  BNZ d   1       0.177   1.301  -1.358  0.00  0.00     0.000 A 
ATOM      3  C3  BNZ d   1      -0.976   1.034  -0.673  0.00  0.00     0.000 A 
ATOM      4  C4  BNZ d   1      -1.122  -0.158  -0.060  0.00  0.00     0.000 A 
ATOM      5  C5  BNZ d   1      -0.105  -1.092  -0.096  0.00  0.00     0.000 A 
ATOM      6  C6  BNZ d   1       1.069  -0.804  -0.753  0.00  0.00     0.000 A 
ENDROOT
TORSDOF 0
ENDMDL
