MODEL 1
REMARK minimizedAffinity -3.89613128
REMARK minimizedRMSD -1
REMARK  0 active torsions:
REMARK  status: ('A' for Active; 'I' for Inactive)
ROOT
ATOM      1  C1  BNZ d   1       1.348   0.571  -0.868  0.00  0.00     0.000 A 
ATOM      2  C2  BNZ d   1       0.106   0.275  -0.376  0.00  0.00     0.000 A 
ATOM      3  C3  BNZ d   1      -0.228  -1.009  -0.045  0.00  0.00     0.000 A 
ATOM      4  C4  BNZ d   1       0.666  -1.999  -0.245  0.00  0.00     0.000 A 
ATOM      5  C5  BNZ d   1       1.920  -1.717  -0.750  0.00  0.00     0.000 A 
ATOM      6  C6  BNZ d   1       2.266  -0.419  -1.045  0.00  0.00     0.000 A 
ENDROOT
TORSDOF 0
ENDMDL
