MODEL 1
REMARK minimizedAffinity -4.14294481
REMARK minimizedRMSD -1
REMARK  0 active torsions:
REMARK  status: ('A' for Active; 'I' for Inactive)
ROOT
ATOM      1  C1  BNZ d   1       2.705   1.723  -3.742  0.00  0.00     0.000 A 
ATOM      2  C2  BNZ d   1       1.955   1.062  -2.805  0.00  0.00     0.000 A 
ATOM      3  C3  BNZ d   1       2.305  -0.190  -2.385  0.00  0.00     0.000 A 
ATOM      4  C4  BNZ d   1       3.380  -0.796  -2.930  0.00  0.00     0.000 A 
ATOM      5  C5  BNZ d   1       4.141  -0.146  -3.882  0.00  0.00     0.000 A 
ATOM      6  C6  BNZ d   1       3.808   1.130  -4.274  0.00  0.00     0.000 A 
ENDROOT
TORSDOF 0
ENDMDL
