MODEL 1
REMARK minimizedAffinity -0.598101199
REMARK minimizedRMSD -1
REMARK  3 active torsions:
REMARK  status: ('A' for Active; 'I' for Inactive)
REMARK    1  A    between atoms: C3'_2  and  C2'_3 
REMARK    2  A    between atoms: C2'_3  and  C1'_4 
REMARK    3  A    between atoms: C1'_4  and  C1_5 
ROOT
ATOM      1  C1  N4B d   1      -4.865   4.331  -3.526  0.00  0.00    -0.075 A 
ATOM      2  C2  N4B d   1      -5.998   5.053  -3.962  0.00  0.00     0.002 A 
ATOM      3  C3  N4B d   1      -5.994   5.660  -5.194  0.00  0.00     0.002 A 
ATOM      4  C4  N4B d   1      -4.866   5.575  -5.996  0.00  0.00    -0.004 A 
ATOM      5  C5  N4B d   1      -3.785   4.854  -5.579  0.00  0.00     0.002 A 
ATOM      6  C6  N4B d   1      -3.777   4.236  -4.345  0.00  0.00     0.002 A 
ENDROOT
BRANCH   1   7
ATOM      7  C1' N4B d   1      -4.791   3.723  -2.152  0.00  0.00     0.057 C 
BRANCH   7   8
ATOM      8  C2' N4B d   1      -5.626   2.446  -2.124  0.00  0.00     0.009 C 
BRANCH   8   9
ATOM      9  C3' N4B d   1      -5.998   1.979  -3.521  0.00  0.00     0.004 C 
ATOM     10  C4' N4B d   1      -4.981   1.049  -4.112  0.00  0.00     0.003 C 
ENDBRANCH   8   9
ENDBRANCH   7   8
ENDBRANCH   1   7
TORSDOF 3
ENDMDL
