MODEL 1
REMARK minimizedAffinity 15.2948694
REMARK minimizedRMSD -1
REMARK  3 active torsions:
REMARK  status: ('A' for Active; 'I' for Inactive)
REMARK    1  A    between atoms: C3'_2  and  C2'_3 
REMARK    2  A    between atoms: C2'_3  and  C1'_4 
REMARK    3  A    between atoms: C1'_4  and  C1_5 
ROOT
ATOM      1  C1  N4B d   1       1.244  -1.197   4.412  0.00  0.00    -0.075 A 
ATOM      2  C2  N4B d   1       0.137  -1.059   5.277  0.00  0.00     0.002 A 
ATOM      3  C3  N4B d   1      -0.692   0.029   5.163  0.00  0.00     0.002 A 
ATOM      4  C4  N4B d   1      -0.425   0.998   4.208  0.00  0.00    -0.004 A 
ATOM      5  C5  N4B d   1       0.632   0.845   3.359  0.00  0.00     0.002 A 
ATOM      6  C6  N4B d   1       1.472  -0.246   3.460  0.00  0.00     0.002 A 
ENDROOT
BRANCH   1   7
ATOM      7  C1' N4B d   1       2.228  -2.325   4.555  0.00  0.00     0.057 C 
BRANCH   7   8
ATOM      8  C2' N4B d   1       3.003  -2.153   5.858  0.00  0.00     0.009 C 
BRANCH   8   9
ATOM      9  C3' N4B d   1       4.503  -2.103   5.625  0.00  0.00     0.004 C 
ATOM     10  C4' N4B d   1       4.860  -1.873   4.187  0.00  0.00     0.003 C 
ENDBRANCH   8   9
ENDBRANCH   7   8
ENDBRANCH   1   7
TORSDOF 3
ENDMDL
