MODEL 1
REMARK minimizedAffinity -2.90763998
REMARK minimizedRMSD -1
REMARK  3 active torsions:
REMARK  status: ('A' for Active; 'I' for Inactive)
REMARK    1  A    between atoms: C3'_2  and  C2'_3 
REMARK    2  A    between atoms: C2'_3  and  C1'_4 
REMARK    3  A    between atoms: C1'_4  and  C1_5 
ROOT
ATOM      1  C1  N4B d   1      -0.435   2.335   1.476  0.00  0.00    -0.075 A 
ATOM      2  C2  N4B d   1      -1.434   1.611   2.164  0.00  0.00     0.002 A 
ATOM      3  C3  N4B d   1      -1.080   0.697   3.126  0.00  0.00     0.002 A 
ATOM      4  C4  N4B d   1       0.260   0.477   3.402  0.00  0.00    -0.004 A 
ATOM      5  C5  N4B d   1       1.218   1.198   2.752  0.00  0.00     0.002 A 
ATOM      6  C6  N4B d   1       0.877   2.123   1.786  0.00  0.00     0.002 A 
ENDROOT
BRANCH   1   7
ATOM      7  C1' N4B d   1      -0.769   3.282   0.357  0.00  0.00     0.057 C 
BRANCH   7   8
ATOM      8  C2' N4B d   1       0.192   3.045  -0.804  0.00  0.00     0.009 C 
BRANCH   8   9
ATOM      9  C3' N4B d   1       1.211   4.164  -0.936  0.00  0.00     0.004 C 
ATOM     10  C4' N4B d   1       0.989   5.012  -2.153  0.00  0.00     0.003 C 
ENDBRANCH   8   9
ENDBRANCH   7   8
ENDBRANCH   1   7
TORSDOF 3
ENDMDL
