MODEL 1
REMARK minimizedAffinity 0.0448416844
REMARK minimizedRMSD -1
REMARK  0 active torsions:
REMARK  status: ('A' for Active; 'I' for Inactive)
ROOT
ATOM      1  C   UNL d   1       3.207  -1.771  -3.681  0.00  0.00     0.172 C 
ATOM      2  N   UNL d   1       4.053  -0.982  -4.545  0.00  0.00    -0.070 N 
ATOM      3  C1  UNL d   1       5.146  -1.443  -5.229  0.00  0.00    -0.004 A 
ATOM      4  C2  UNL d   1       5.678  -0.387  -5.937  0.00  0.00    -0.047 A 
ATOM      5  C3  UNL d   1       4.877   0.748  -5.669  0.00  0.00    -0.047 A 
ATOM      6  C4  UNL d   1       3.879   0.352  -4.804  0.00  0.00    -0.004 A 
ENDROOT
TORSDOF 0
ENDMDL
