MODEL 1
REMARK minimizedAffinity 7.91548252
REMARK minimizedRMSD -1
REMARK  0 active torsions:
REMARK  status: ('A' for Active; 'I' for Inactive)
ROOT
ATOM      1  C   UNL d   1      -1.702   0.405   0.517  0.00  0.00     0.172 C 
ATOM      2  N   UNL d   1      -0.446  -0.110   1.008  0.00  0.00    -0.070 N 
ATOM      3  C1  UNL d   1      -0.162  -1.429   1.245  0.00  0.00    -0.004 A 
ATOM      4  C2  UNL d   1       1.136  -1.505   1.702  0.00  0.00    -0.047 A 
ATOM      5  C3  UNL d   1       1.649  -0.187   1.742  0.00  0.00    -0.047 A 
ATOM      6  C4  UNL d   1       0.649   0.657   1.307  0.00  0.00    -0.004 A 
ENDROOT
TORSDOF 0
ENDMDL
