MODEL 1
REMARK minimizedAffinity 5.50307322
REMARK minimizedRMSD -1
REMARK  0 active torsions:
REMARK  status: ('A' for Active; 'I' for Inactive)
ROOT
ATOM      1  C   UNL d   1      -2.559   2.175   0.259  0.00  0.00     0.172 C 
ATOM      2  N   UNL d   1      -3.082   1.878  -1.054  0.00  0.00    -0.070 N 
ATOM      3  C1  UNL d   1      -4.379   1.546  -1.340  0.00  0.00    -0.004 A 
ATOM      4  C2  UNL d   1      -4.472   1.340  -2.700  0.00  0.00    -0.047 A 
ATOM      5  C3  UNL d   1      -3.186   1.554  -3.249  0.00  0.00    -0.047 A 
ATOM      6  C4  UNL d   1      -2.344   1.885  -2.208  0.00  0.00    -0.004 A 
ENDROOT
TORSDOF 0
ENDMDL
