MODEL 1
REMARK minimizedAffinity 7.60168648
REMARK minimizedRMSD -1
REMARK  0 active torsions:
REMARK  status: ('A' for Active; 'I' for Inactive)
ROOT
ATOM      1  C   UNL d   1       1.491  -0.433   1.114  0.00  0.00     0.172 C 
ATOM      2  N   UNL d   1       1.294  -1.530   2.032  0.00  0.00    -0.070 N 
ATOM      3  C1  UNL d   1       1.755  -1.585   3.320  0.00  0.00    -0.004 A 
ATOM      4  C2  UNL d   1       1.360  -2.791   3.859  0.00  0.00    -0.047 A 
ATOM      5  C3  UNL d   1       0.637  -3.484   2.859  0.00  0.00    -0.047 A 
ATOM      6  C4  UNL d   1       0.611  -2.681   1.739  0.00  0.00    -0.004 A 
ENDROOT
TORSDOF 0
ENDMDL
