MODEL 1
REMARK minimizedAffinity -1.87283075
REMARK minimizedRMSD -1
REMARK  0 active torsions:
REMARK  status: ('A' for Active; 'I' for Inactive)
ROOT
ATOM      1  C   UNL d   1       2.455  -2.591   3.013  0.00  0.00     0.172 C 
ATOM      2  N   UNL d   1       3.792  -2.799   3.517  0.00  0.00    -0.070 N 
ATOM      3  C1  UNL d   1       4.125  -3.018   4.827  0.00  0.00    -0.004 A 
ATOM      4  C2  UNL d   1       5.494  -3.168   4.895  0.00  0.00    -0.047 A 
ATOM      5  C3  UNL d   1       6.000  -3.033   3.580  0.00  0.00    -0.047 A 
ATOM      6  C4  UNL d   1       4.925  -2.805   2.747  0.00  0.00    -0.004 A 
ENDROOT
TORSDOF 0
ENDMDL
