MODEL 1
REMARK minimizedAffinity -1.28930998
REMARK minimizedRMSD -1
REMARK  0 active torsions:
REMARK  status: ('A' for Active; 'I' for Inactive)
ROOT
ATOM      1  C   UNL d   1      -4.416  -2.435  -4.913  0.00  0.00     0.172 C 
ATOM      2  N   UNL d   1      -4.817  -3.782  -5.245  0.00  0.00    -0.070 N 
ATOM      3  C1  UNL d   1      -5.988  -4.137  -5.860  0.00  0.00    -0.004 A 
ATOM      4  C2  UNL d   1      -5.993  -5.508  -5.998  0.00  0.00    -0.047 A 
ATOM      5  C3  UNL d   1      -4.784  -5.994  -5.446  0.00  0.00    -0.047 A 
ATOM      6  C4  UNL d   1      -4.075  -4.904  -4.987  0.00  0.00    -0.004 A 
ENDROOT
TORSDOF 0
ENDMDL
