MODEL 1
REMARK minimizedAffinity 9.8836441
REMARK minimizedRMSD -1
REMARK  0 active torsions:
REMARK  status: ('A' for Active; 'I' for Inactive)
ROOT
ATOM      1  C   UNL d   1      -5.149   2.641  -4.485  0.00  0.00     0.172 C 
ATOM      2  N   UNL d   1      -4.486   2.296  -3.249  0.00  0.00    -0.070 N 
ATOM      3  C1  UNL d   1      -4.948   2.575  -1.991  0.00  0.00    -0.004 A 
ATOM      4  C2  UNL d   1      -4.033   2.082  -1.086  0.00  0.00    -0.047 A 
ATOM      5  C3  UNL d   1      -2.983   1.488  -1.827  0.00  0.00    -0.047 A 
ATOM      6  C4  UNL d   1      -3.290   1.634  -3.163  0.00  0.00    -0.004 A 
ENDROOT
TORSDOF 0
ENDMDL
