MODEL 1
REMARK minimizedAffinity -6.05267239
REMARK minimizedRMSD -1
REMARK  1 active torsions:
REMARK  status: ('A' for Active; 'I' for Inactive)
REMARK    1  A    between atoms: C1_2  and  C2_3 
ROOT
ATOM      1  C2  UNL d   1       0.424   0.371   0.028  0.00  0.00    -0.076 A 
ATOM      2  C3  UNL d   1       1.765   0.777  -0.083  0.00  0.00     0.004 A 
ATOM      3  C4  UNL d   1       2.116   2.124  -0.005  0.00  0.00    -0.003 A 
ATOM      4  C5  UNL d   1       1.131   3.087   0.185  0.00  0.00     0.000 A 
ATOM      5  C6  UNL d   1      -0.203   2.701   0.314  0.00  0.00     0.000 A 
ATOM      6  C7  UNL d   1      -0.572   1.346   0.254  0.00  0.00    -0.073 A 
ATOM      7  C8  UNL d   1      -2.026   0.986   0.393  0.00  0.00     0.078 C 
ENDROOT
BRANCH   1   8
ATOM      8  C1  UNL d   1       0.101  -1.101  -0.092  0.00  0.00     0.053 C 
ATOM      9  C   UNL d   1       0.064  -1.574  -1.537  0.00  0.00     0.018 C 
ENDBRANCH   1   8
TORSDOF 1
ENDMDL
