MODEL 1
REMARK minimizedAffinity -2.78531146
REMARK minimizedRMSD -1
REMARK  1 active torsions:
REMARK  status: ('A' for Active; 'I' for Inactive)
REMARK    1  A    between atoms: C1_2  and  C2_3 
ROOT
ATOM      1  C2  UNL d   1       0.111  -0.113   0.287  0.00  0.00    -0.076 A 
ATOM      2  C3  UNL d   1      -1.225   0.323   0.334  0.00  0.00     0.004 A 
ATOM      3  C4  UNL d   1      -1.542   1.622   0.726  0.00  0.00    -0.003 A 
ATOM      4  C5  UNL d   1      -0.530   2.507   1.077  0.00  0.00     0.000 A 
ATOM      5  C6  UNL d   1       0.802   2.098   1.020  0.00  0.00     0.000 A 
ATOM      6  C7  UNL d   1       1.141   0.797   0.611  0.00  0.00    -0.073 A 
ATOM      7  C8  UNL d   1       2.593   0.407   0.574  0.00  0.00     0.078 C 
ENDROOT
BRANCH   1   8
ATOM      8  C1  UNL d   1       0.394  -1.541  -0.120  0.00  0.00     0.053 C 
ATOM      9  C   UNL d   1      -0.720  -2.137  -0.968  0.00  0.00     0.018 C 
ENDBRANCH   1   8
TORSDOF 1
ENDMDL
