MODEL 1
REMARK minimizedAffinity -3.04820704
REMARK minimizedRMSD -1
REMARK  1 active torsions:
REMARK  status: ('A' for Active; 'I' for Inactive)
REMARK    1  A    between atoms: C1_2  and  C2_3 
ROOT
ATOM      1  C2  UNL d   1      -0.165  -0.142   0.382  0.00  0.00    -0.076 A 
ATOM      2  C3  UNL d   1      -1.380   0.565   0.368  0.00  0.00     0.004 A 
ATOM      3  C4  UNL d   1      -1.432   1.911   0.723  0.00  0.00    -0.003 A 
ATOM      4  C5  UNL d   1      -0.268   2.574   1.098  0.00  0.00     0.000 A 
ATOM      5  C6  UNL d   1       0.949   1.894   1.101  0.00  0.00     0.000 A 
ATOM      6  C7  UNL d   1       1.021   0.540   0.730  0.00  0.00    -0.073 A 
ATOM      7  C8  UNL d   1       2.359  -0.146   0.757  0.00  0.00     0.078 C 
ENDROOT
BRANCH   1   8
ATOM      8  C1  UNL d   1      -0.175  -1.608   0.013  0.00  0.00     0.053 C 
ATOM      9  C   UNL d   1      -0.552  -1.840  -1.442  0.00  0.00     0.018 C 
ENDBRANCH   1   8
TORSDOF 1
ENDMDL
