MODEL 1
REMARK minimizedAffinity 5.57862616
REMARK minimizedRMSD -1
REMARK  1 active torsions:
REMARK  status: ('A' for Active; 'I' for Inactive)
REMARK    1  A    between atoms: C1_2  and  C2_3 
ROOT
ATOM      1  C2  UNL d   1      -1.198  -0.187   0.088  0.00  0.00    -0.076 A 
ATOM      2  C3  UNL d   1      -0.505  -0.005   1.297  0.00  0.00     0.004 A 
ATOM      3  C4  UNL d   1      -0.498   1.231   1.942  0.00  0.00    -0.003 A 
ATOM      4  C5  UNL d   1      -1.185   2.305   1.388  0.00  0.00     0.000 A 
ATOM      5  C6  UNL d   1      -1.892   2.139   0.198  0.00  0.00     0.000 A 
ATOM      6  C7  UNL d   1      -1.923   0.895  -0.457  0.00  0.00    -0.073 A 
ATOM      7  C8  UNL d   1      -2.697   0.774  -1.741  0.00  0.00     0.078 C 
ENDROOT
BRANCH   1   8
ATOM      8  C1  UNL d   1      -1.148  -1.542  -0.580  0.00  0.00     0.053 C 
ATOM      9  C   UNL d   1      -1.779  -2.634   0.270  0.00  0.00     0.018 C 
ENDBRANCH   1   8
TORSDOF 1
ENDMDL
