MODEL 1
REMARK minimizedAffinity -3.65904832
REMARK minimizedRMSD -1
REMARK  1 active torsions:
REMARK  status: ('A' for Active; 'I' for Inactive)
REMARK    1  A    between atoms: C1_2  and  C2_3 
ROOT
ATOM      1  C2  UNL d   1       0.250  -1.897  -0.824  0.00  0.00    -0.076 A 
ATOM      2  C3  UNL d   1      -0.423  -2.556   0.220  0.00  0.00     0.004 A 
ATOM      3  C4  UNL d   1      -1.243  -3.654  -0.035  0.00  0.00    -0.003 A 
ATOM      4  C5  UNL d   1      -1.402  -4.112  -1.338  0.00  0.00     0.000 A 
ATOM      5  C6  UNL d   1      -0.728  -3.482  -2.384  0.00  0.00     0.000 A 
ATOM      6  C7  UNL d   1       0.115  -2.383  -2.142  0.00  0.00    -0.073 A 
ATOM      7  C8  UNL d   1       0.813  -1.738  -3.308  0.00  0.00     0.078 C 
ENDROOT
BRANCH   1   8
ATOM      8  C1  UNL d   1       1.104  -0.695  -0.490  0.00  0.00     0.053 C 
ATOM      9  C   UNL d   1       2.215  -1.024   0.494  0.00  0.00     0.018 C 
ENDBRANCH   1   8
TORSDOF 1
ENDMDL
