MODEL 1
REMARK minimizedAffinity 0.160369366
REMARK minimizedRMSD -1
REMARK  1 active torsions:
REMARK  status: ('A' for Active; 'I' for Inactive)
REMARK    1  A    between atoms: C1_2  and  C2_3 
ROOT
ATOM      1  C2  UNL d   1      -0.332  -1.084  -0.793  0.00  0.00    -0.076 A 
ATOM      2  C3  UNL d   1      -1.564  -0.467  -1.070  0.00  0.00     0.004 A 
ATOM      3  C4  UNL d   1      -1.913   0.740  -0.467  0.00  0.00    -0.003 A 
ATOM      4  C5  UNL d   1      -1.035   1.350   0.422  0.00  0.00     0.000 A 
ATOM      5  C6  UNL d   1       0.199   0.761   0.694  0.00  0.00     0.000 A 
ATOM      6  C7  UNL d   1       0.574  -0.447   0.082  0.00  0.00    -0.073 A 
ATOM      7  C8  UNL d   1       1.914  -1.041   0.417  0.00  0.00     0.078 C 
ENDROOT
BRANCH   1   8
ATOM      8  C1  UNL d   1      -0.019  -2.407  -1.456  0.00  0.00     0.053 C 
ATOM      9  C   UNL d   1      -1.273  -3.185  -1.824  0.00  0.00     0.018 C 
ENDBRANCH   1   8
TORSDOF 1
ENDMDL
