MODEL 1
REMARK minimizedAffinity -3.97704959
REMARK minimizedRMSD -1
REMARK  1 active torsions:
REMARK  status: ('A' for Active; 'I' for Inactive)
REMARK    1  A    between atoms: C1_2  and  C2_3 
ROOT
ATOM      1  C2  UNL d   1       0.312  -0.284   0.338  0.00  0.00    -0.076 A 
ATOM      2  C3  UNL d   1      -1.039   0.096   0.260  0.00  0.00     0.004 A 
ATOM      3  C4  UNL d   1      -1.422   1.423   0.442  0.00  0.00    -0.003 A 
ATOM      4  C5  UNL d   1      -0.460   2.393   0.704  0.00  0.00     0.000 A 
ATOM      5  C6  UNL d   1       0.886   2.037   0.768  0.00  0.00     0.000 A 
ATOM      6  C7  UNL d   1       1.291   0.705   0.571  0.00  0.00    -0.073 A 
ATOM      7  C8  UNL d   1       2.756   0.376   0.657  0.00  0.00     0.078 C 
ENDROOT
BRANCH   1   8
ATOM      8  C1  UNL d   1       0.666  -1.744   0.160  0.00  0.00     0.053 C 
ATOM      9  C   UNL d   1      -0.467  -2.545  -0.464  0.00  0.00     0.018 C 
ENDBRANCH   1   8
TORSDOF 1
ENDMDL
