MODEL 1
REMARK minimizedAffinity -5.53325033
REMARK minimizedRMSD -1
REMARK  1 active torsions:
REMARK  status: ('A' for Active; 'I' for Inactive)
REMARK    1  A    between atoms: C1_2  and  C2_3 
ROOT
ATOM      1  C2  UNL d   1       0.577   1.409  -0.163  0.00  0.00    -0.076 A 
ATOM      2  C3  UNL d   1       0.016   2.697  -0.105  0.00  0.00     0.004 A 
ATOM      3  C4  UNL d   1       0.821   3.825   0.041  0.00  0.00    -0.003 A 
ATOM      4  C5  UNL d   1       2.202   3.684   0.131  0.00  0.00     0.000 A 
ATOM      5  C6  UNL d   1       2.777   2.415   0.058  0.00  0.00     0.000 A 
ATOM      6  C7  UNL d   1       1.980   1.269  -0.105  0.00  0.00    -0.073 A 
ATOM      7  C8  UNL d   1       2.653  -0.074  -0.172  0.00  0.00     0.078 C 
ENDROOT
BRANCH   1   8
ATOM      8  C1  UNL d   1      -0.349   0.221  -0.295  0.00  0.00     0.053 C 
ATOM      9  C   UNL d   1      -1.591   0.351   0.572  0.00  0.00     0.018 C 
ENDBRANCH   1   8
TORSDOF 1
ENDMDL
