MODEL 1
REMARK minimizedAffinity -6.12078905
REMARK minimizedRMSD -1
REMARK  1 active torsions:
REMARK  status: ('A' for Active; 'I' for Inactive)
REMARK    1  A    between atoms: C1_2  and  C2_3 
ROOT
ATOM      1  C2  UNL d   1       0.657   0.239   0.724  0.00  0.00    -0.076 A 
ATOM      2  C3  UNL d   1       1.978   0.717   0.777  0.00  0.00     0.004 A 
ATOM      3  C4  UNL d   1       2.243   2.074   0.958  0.00  0.00    -0.003 A 
ATOM      4  C5  UNL d   1       1.191   2.974   1.088  0.00  0.00     0.000 A 
ATOM      5  C6  UNL d   1      -0.125   2.515   1.056  0.00  0.00     0.000 A 
ATOM      6  C7  UNL d   1      -0.410   1.148   0.891  0.00  0.00    -0.073 A 
ATOM      7  C8  UNL d   1      -1.848   0.709   0.857  0.00  0.00     0.078 C 
ENDROOT
BRANCH   1   8
ATOM      8  C1  UNL d   1       0.430  -1.239   0.500  0.00  0.00     0.053 C 
ATOM      9  C   UNL d   1       0.440  -1.612  -0.975  0.00  0.00     0.018 C 
ENDBRANCH   1   8
TORSDOF 1
ENDMDL
