MODEL 1
REMARK minimizedAffinity 0.371461421
REMARK minimizedRMSD -1
REMARK  1 active torsions:
REMARK  status: ('A' for Active; 'I' for Inactive)
REMARK    1  A    between atoms: C1_2  and  C2_3 
ROOT
ATOM      1  C2  UNL d   1       0.706  -2.188  -1.215  0.00  0.00    -0.076 A 
ATOM      2  C3  UNL d   1      -0.459  -2.245  -0.430  0.00  0.00     0.004 A 
ATOM      3  C4  UNL d   1      -1.589  -2.931  -0.872  0.00  0.00    -0.003 A 
ATOM      4  C5  UNL d   1      -1.572  -3.572  -2.106  0.00  0.00     0.000 A 
ATOM      5  C6  UNL d   1      -0.419  -3.541  -2.890  0.00  0.00     0.000 A 
ATOM      6  C7  UNL d   1       0.734  -2.868  -2.452  0.00  0.00    -0.073 A 
ATOM      7  C8  UNL d   1       1.948  -2.862  -3.341  0.00  0.00     0.078 C 
ENDROOT
BRANCH   1   8
ATOM      8  C1  UNL d   1       1.892  -1.407  -0.696  0.00  0.00     0.053 C 
ATOM      9  C   UNL d   1       1.485  -0.299   0.263  0.00  0.00     0.018 C 
ENDBRANCH   1   8
TORSDOF 1
ENDMDL
