MODEL 1
REMARK minimizedAffinity -3.69012308
REMARK minimizedRMSD -1
REMARK  1 active torsions:
REMARK  status: ('A' for Active; 'I' for Inactive)
REMARK    1  A    between atoms: C1_2  and  C2_3 
ROOT
ATOM      1  C2  UNL d   1       0.281   0.211   0.234  0.00  0.00    -0.076 A 
ATOM      2  C3  UNL d   1      -1.123   0.280   0.210  0.00  0.00     0.004 A 
ATOM      3  C4  UNL d   1      -1.788   1.466   0.515  0.00  0.00    -0.003 A 
ATOM      4  C5  UNL d   1      -1.061   2.603   0.849  0.00  0.00     0.000 A 
ATOM      5  C6  UNL d   1       0.333   2.558   0.860  0.00  0.00     0.000 A 
ATOM      6  C7  UNL d   1       1.020   1.375   0.539  0.00  0.00    -0.073 A 
ATOM      7  C8  UNL d   1       2.524   1.381   0.573  0.00  0.00     0.078 C 
ENDROOT
BRANCH   1   8
ATOM      8  C1  UNL d   1       0.947  -1.109  -0.080  0.00  0.00     0.053 C 
ATOM      9  C   UNL d   1      -0.029  -2.139  -0.627  0.00  0.00     0.018 C 
ENDBRANCH   1   8
TORSDOF 1
ENDMDL
