MODEL 1
REMARK minimizedAffinity 18.782402
REMARK minimizedRMSD -1
REMARK  0 active torsions:
REMARK  status: ('A' for Active; 'I' for Inactive)
ROOT
ATOM      1  C   UNL d   1      -1.691  -5.582  -0.621  0.00  0.00    -0.002 A 
ATOM      2  C1  UNL d   1      -1.433  -4.788   0.488  0.00  0.00     0.010 A 
ATOM      3  C2  UNL d   1      -0.190  -4.172   0.647  0.00  0.00     0.041 A 
ATOM      4  C3  UNL d   1       0.798  -4.368  -0.338  0.00  0.00    -0.075 A 
ATOM      5  S   UNL d   1       2.392  -3.712  -0.355  0.00  0.00     0.015 SA
ATOM      6  C4  UNL d   1       2.768  -4.469  -1.834  0.00  0.00     0.022 A 
ATOM      7  C5  UNL d   1       1.715  -5.209  -2.318  0.00  0.00     0.026 A 
ATOM      8  C6  UNL d   1       0.562  -5.162  -1.464  0.00  0.00    -0.082 A 
ATOM      9  C7  UNL d   1      -0.708  -5.773  -1.596  0.00  0.00     0.045 A 
ENDROOT
TORSDOF 0
ENDMDL
