MODEL 1
REMARK minimizedAffinity 11.5027723
REMARK minimizedRMSD -1
REMARK  0 active torsions:
REMARK  status: ('A' for Active; 'I' for Inactive)
ROOT
ATOM      1  C   UNL d   1      -1.795  -4.290  -0.481  0.00  0.00    -0.002 A 
ATOM      2  C1  UNL d   1      -2.306  -3.082  -0.026  0.00  0.00     0.010 A 
ATOM      3  C2  UNL d   1      -1.575  -2.292   0.864  0.00  0.00     0.041 A 
ATOM      4  C3  UNL d   1      -0.309  -2.740   1.291  0.00  0.00    -0.075 A 
ATOM      5  S   UNL d   1       0.765  -1.939   2.375  0.00  0.00     0.015 SA
ATOM      6  C4  UNL d   1       1.927  -3.180   2.259  0.00  0.00     0.022 A 
ATOM      7  C5  UNL d   1       1.522  -4.189   1.418  0.00  0.00     0.026 A 
ATOM      8  C6  UNL d   1       0.227  -3.952   0.845  0.00  0.00    -0.082 A 
ATOM      9  C7  UNL d   1      -0.539  -4.730  -0.055  0.00  0.00     0.045 A 
ENDROOT
TORSDOF 0
ENDMDL
