MODEL 1
REMARK minimizedAffinity 2.42625928
REMARK minimizedRMSD -1
REMARK  0 active torsions:
REMARK  status: ('A' for Active; 'I' for Inactive)
ROOT
ATOM      1  C   UNL d   1       0.134   1.953  -2.800  0.00  0.00     0.172 C 
ATOM      2  N   UNL d   1       1.149   1.697  -1.806  0.00  0.00    -0.070 N 
ATOM      3  C1  UNL d   1       0.930   1.530  -0.465  0.00  0.00    -0.004 A 
ATOM      4  C2  UNL d   1       2.149   1.307   0.138  0.00  0.00    -0.047 A 
ATOM      5  C3  UNL d   1       3.135   1.342  -0.875  0.00  0.00    -0.047 A 
ATOM      6  C4  UNL d   1       2.489   1.585  -2.069  0.00  0.00    -0.004 A 
ENDROOT
TORSDOF 0
ENDMDL
