MODEL 1
REMARK minimizedAffinity 0.518871009
REMARK minimizedRMSD -1
REMARK  0 active torsions:
REMARK  status: ('A' for Active; 'I' for Inactive)
ROOT
ATOM      1  C   UNL d   1      -2.430   5.182  -5.600  0.00  0.00     0.172 C 
ATOM      2  N   UNL d   1      -3.824   5.325  -5.251  0.00  0.00    -0.070 N 
ATOM      3  C1  UNL d   1      -4.423   4.812  -4.132  0.00  0.00    -0.004 A 
ATOM      4  C2  UNL d   1      -5.754   5.166  -4.165  0.00  0.00    -0.047 A 
ATOM      5  C3  UNL d   1      -5.963   5.917  -5.347  0.00  0.00    -0.047 A 
ATOM      6  C4  UNL d   1      -4.751   6.000  -6.000  0.00  0.00    -0.004 A 
ENDROOT
TORSDOF 0
ENDMDL
