MODEL 1
REMARK minimizedAffinity 1.78605032
REMARK minimizedRMSD -1
REMARK  0 active torsions:
REMARK  status: ('A' for Active; 'I' for Inactive)
ROOT
ATOM      1  C   UNL d   1      -5.909   6.000  -4.264  0.00  0.00     0.172 C 
ATOM      2  N   UNL d   1      -4.530   5.962  -4.689  0.00  0.00    -0.070 N 
ATOM      3  C1  UNL d   1      -3.441   5.884  -3.862  0.00  0.00    -0.004 A 
ATOM      4  C2  UNL d   1      -2.312   5.871  -4.652  0.00  0.00    -0.047 A 
ATOM      5  C3  UNL d   1      -2.736   5.944  -6.000  0.00  0.00    -0.047 A 
ATOM      6  C4  UNL d   1      -4.114   5.999  -5.994  0.00  0.00    -0.004 A 
ENDROOT
TORSDOF 0
ENDMDL
