MODEL 1
REMARK minimizedAffinity 6.34092283
REMARK minimizedRMSD -1
REMARK  0 active torsions:
REMARK  status: ('A' for Active; 'I' for Inactive)
ROOT
ATOM      1  C   UNL d   1      -2.331   1.070   4.532  0.00  0.00     0.172 C 
ATOM      2  N   UNL d   1      -1.944   0.399   3.313  0.00  0.00    -0.070 N 
ATOM      3  C1  UNL d   1      -1.592  -0.920   3.205  0.00  0.00    -0.004 A 
ATOM      4  C2  UNL d   1      -1.294  -1.170   1.883  0.00  0.00    -0.047 A 
ATOM      5  C3  UNL d   1      -1.472   0.040   1.172  0.00  0.00    -0.047 A 
ATOM      6  C4  UNL d   1      -1.874   0.996   2.082  0.00  0.00    -0.004 A 
ENDROOT
TORSDOF 0
ENDMDL
