MODEL 1
REMARK minimizedAffinity 9.35369682
REMARK minimizedRMSD -1
REMARK  0 active torsions:
REMARK  status: ('A' for Active; 'I' for Inactive)
ROOT
ATOM      1  C   UNL d   1       2.268   1.855   0.385  0.00  0.00     0.172 C 
ATOM      2  N   UNL d   1       1.965   2.331  -0.944  0.00  0.00    -0.070 N 
ATOM      3  C1  UNL d   1       2.473   3.464  -1.521  0.00  0.00    -0.004 A 
ATOM      4  C2  UNL d   1       1.942   3.567  -2.788  0.00  0.00    -0.047 A 
ATOM      5  C3  UNL d   1       1.084   2.458  -2.979  0.00  0.00    -0.047 A 
ATOM      6  C4  UNL d   1       1.117   1.709  -1.822  0.00  0.00    -0.004 A 
ENDROOT
TORSDOF 0
ENDMDL
