MODEL 1
REMARK minimizedAffinity 8.37412167
REMARK minimizedRMSD -1
REMARK  0 active torsions:
REMARK  status: ('A' for Active; 'I' for Inactive)
ROOT
ATOM      1  C   UNL d   1       1.620  -4.123   0.396  0.00  0.00     0.172 C 
ATOM      2  N   UNL d   1       2.987  -4.176  -0.065  0.00  0.00    -0.070 N 
ATOM      3  C1  UNL d   1       3.760  -3.095  -0.397  0.00  0.00    -0.004 A 
ATOM      4  C2  UNL d   1       4.996  -3.564  -0.786  0.00  0.00    -0.047 A 
ATOM      5  C3  UNL d   1       4.965  -4.975  -0.685  0.00  0.00    -0.047 A 
ATOM      6  C4  UNL d   1       3.709  -5.327  -0.237  0.00  0.00    -0.004 A 
ENDROOT
TORSDOF 0
ENDMDL
