MODEL 1
REMARK minimizedAffinity 7.21656656
REMARK minimizedRMSD -1
REMARK  0 active torsions:
REMARK  status: ('A' for Active; 'I' for Inactive)
ROOT
ATOM      1  C   UNL d   1      -0.193   4.093  -3.871  0.00  0.00     0.172 C 
ATOM      2  N   UNL d   1       0.913   3.355  -3.308  0.00  0.00    -0.070 N 
ATOM      3  C1  UNL d   1       2.226   3.479  -3.677  0.00  0.00    -0.004 A 
ATOM      4  C2  UNL d   1       2.965   2.608  -2.906  0.00  0.00    -0.047 A 
ATOM      5  C3  UNL d   1       2.065   1.937  -2.044  0.00  0.00    -0.047 A 
ATOM      6  C4  UNL d   1       0.801   2.418  -2.314  0.00  0.00    -0.004 A 
ENDROOT
TORSDOF 0
ENDMDL
