MODEL 1
REMARK minimizedAffinity 8.55340481
REMARK minimizedRMSD -1
REMARK  0 active torsions:
REMARK  status: ('A' for Active; 'I' for Inactive)
ROOT
ATOM      1  C   UNL d   1      -4.908  -1.878   2.796  0.00  0.00     0.172 C 
ATOM      2  N   UNL d   1      -3.502  -1.589   2.646  0.00  0.00    -0.070 N 
ATOM      3  C1  UNL d   1      -2.813  -0.607   3.307  0.00  0.00    -0.004 A 
ATOM      4  C2  UNL d   1      -1.501  -0.657   2.889  0.00  0.00    -0.047 A 
ATOM      5  C3  UNL d   1      -1.397  -1.704   1.943  0.00  0.00    -0.047 A 
ATOM      6  C4  UNL d   1      -2.650  -2.264   1.811  0.00  0.00    -0.004 A 
ENDROOT
TORSDOF 0
ENDMDL
