MODEL 1
REMARK minimizedAffinity 1.92198527
REMARK minimizedRMSD -1
REMARK  0 active torsions:
REMARK  status: ('A' for Active; 'I' for Inactive)
ROOT
ATOM      1  C   UNL d   1      -1.622   5.008  -5.031  0.00  0.00     0.172 C 
ATOM      2  N   UNL d   1      -1.540   4.963  -3.589  0.00  0.00    -0.070 N 
ATOM      3  C1  UNL d   1      -0.396   4.786  -2.860  0.00  0.00    -0.004 A 
ATOM      4  C2  UNL d   1      -0.739   4.804  -1.525  0.00  0.00    -0.047 A 
ATOM      5  C3  UNL d   1      -2.138   4.999  -1.450  0.00  0.00    -0.047 A 
ATOM      6  C4  UNL d   1      -2.609   5.094  -2.743  0.00  0.00    -0.004 A 
ENDROOT
TORSDOF 0
ENDMDL
