MODEL 1
REMARK minimizedAffinity 8.06112194
REMARK minimizedRMSD -1
REMARK  0 active torsions:
REMARK  status: ('A' for Active; 'I' for Inactive)
ROOT
ATOM      1  C   UNL d   1      -0.746  -6.000  -5.922  0.00  0.00     0.172 C 
ATOM      2  N   UNL d   1      -0.734  -5.252  -4.686  0.00  0.00    -0.070 N 
ATOM      3  C1  UNL d   1      -1.745  -5.218  -3.764  0.00  0.00    -0.004 A 
ATOM      4  C2  UNL d   1      -1.347  -4.395  -2.732  0.00  0.00    -0.047 A 
ATOM      5  C3  UNL d   1      -0.053  -3.916  -3.047  0.00  0.00    -0.047 A 
ATOM      6  C4  UNL d   1       0.303  -4.463  -4.262  0.00  0.00    -0.004 A 
ENDROOT
TORSDOF 0
ENDMDL
