MODEL 1
REMARK minimizedAffinity 12.7494822
REMARK minimizedRMSD -1
REMARK  0 active torsions:
REMARK  status: ('A' for Active; 'I' for Inactive)
ROOT
ATOM      1  C   UNL d   1       5.018   4.143   0.245  0.00  0.00     0.172 C 
ATOM      2  N   UNL d   1       5.271   4.673  -1.074  0.00  0.00    -0.070 N 
ATOM      3  C1  UNL d   1       4.855   4.113  -2.252  0.00  0.00    -0.004 A 
ATOM      4  C2  UNL d   1       5.294   4.918  -3.281  0.00  0.00    -0.047 A 
ATOM      5  C3  UNL d   1       6.000   5.999  -2.700  0.00  0.00    -0.047 A 
ATOM      6  C4  UNL d   1       5.970   5.822  -1.333  0.00  0.00    -0.004 A 
ENDROOT
TORSDOF 0
ENDMDL
