MODEL 1
REMARK minimizedAffinity 6.02952194
REMARK minimizedRMSD -1
REMARK  0 active torsions:
REMARK  status: ('A' for Active; 'I' for Inactive)
ROOT
ATOM      1  C   UNL d   1       5.999   5.624  -1.966  0.00  0.00     0.172 C 
ATOM      2  N   UNL d   1       5.347   4.880  -3.017  0.00  0.00    -0.070 N 
ATOM      3  C1  UNL d   1       5.901   4.551  -4.225  0.00  0.00    -0.004 A 
ATOM      4  C2  UNL d   1       4.961   3.843  -4.943  0.00  0.00    -0.047 A 
ATOM      5  C3  UNL d   1       3.801   3.744  -4.138  0.00  0.00    -0.047 A 
ATOM      6  C4  UNL d   1       4.067   4.394  -2.952  0.00  0.00    -0.004 A 
ENDROOT
TORSDOF 0
ENDMDL
