MODEL 1
REMARK minimizedAffinity 9.8535471
REMARK minimizedRMSD -1
REMARK  0 active torsions:
REMARK  status: ('A' for Active; 'I' for Inactive)
ROOT
ATOM      1  C   UNL d   1       5.424  -2.635  -1.047  0.00  0.00     0.172 C 
ATOM      2  N   UNL d   1       4.196  -3.212  -0.551  0.00  0.00    -0.070 N 
ATOM      3  C1  UNL d   1       3.670  -4.418  -0.931  0.00  0.00    -0.004 A 
ATOM      4  C2  UNL d   1       2.497  -4.606  -0.232  0.00  0.00    -0.047 A 
ATOM      5  C3  UNL d   1       2.311  -3.473   0.595  0.00  0.00    -0.047 A 
ATOM      6  C4  UNL d   1       3.378  -2.626   0.378  0.00  0.00    -0.004 A 
ENDROOT
TORSDOF 0
ENDMDL
