MODEL 1
REMARK minimizedAffinity 8.91303158
REMARK minimizedRMSD -1
REMARK  0 active torsions:
REMARK  status: ('A' for Active; 'I' for Inactive)
ROOT
ATOM      1  C   UNL d   1       5.717   5.582  -1.947  0.00  0.00     0.172 C 
ATOM      2  N   UNL d   1       5.251   4.762  -3.040  0.00  0.00    -0.070 N 
ATOM      3  C1  UNL d   1       5.961   4.461  -4.172  0.00  0.00    -0.004 A 
ATOM      4  C2  UNL d   1       5.170   3.657  -4.965  0.00  0.00    -0.047 A 
ATOM      5  C3  UNL d   1       3.942   3.470  -4.287  0.00  0.00    -0.047 A 
ATOM      6  C4  UNL d   1       4.019   4.164  -3.098  0.00  0.00    -0.004 A 
ENDROOT
TORSDOF 0
ENDMDL
