MODEL 1
REMARK minimizedAffinity 8.09034538
REMARK minimizedRMSD -1
REMARK  0 active torsions:
REMARK  status: ('A' for Active; 'I' for Inactive)
ROOT
ATOM      1  C   UNL d   1       5.870   4.333  -0.465  0.00  0.00     0.172 C 
ATOM      2  N   UNL d   1       4.789   3.699   0.254  0.00  0.00    -0.070 N 
ATOM      3  C1  UNL d   1       4.124   2.569  -0.140  0.00  0.00    -0.004 A 
ATOM      4  C2  UNL d   1       3.168   2.288   0.813  0.00  0.00    -0.047 A 
ATOM      5  C3  UNL d   1       3.263   3.285   1.813  0.00  0.00    -0.047 A 
ATOM      6  C4  UNL d   1       4.274   4.145   1.442  0.00  0.00    -0.004 A 
ENDROOT
TORSDOF 0
ENDMDL
