MODEL 1
REMARK minimizedAffinity 4.38303661
REMARK minimizedRMSD -1
REMARK  0 active torsions:
REMARK  status: ('A' for Active; 'I' for Inactive)
ROOT
ATOM      1  C   UNL d   1      -0.496   5.145  -2.406  0.00  0.00     0.172 C 
ATOM      2  N   UNL d   1      -0.687   5.181  -3.837  0.00  0.00    -0.070 N 
ATOM      3  C1  UNL d   1      -1.574   5.983  -4.504  0.00  0.00    -0.004 A 
ATOM      4  C2  UNL d   1      -1.451   5.719  -5.851  0.00  0.00    -0.047 A 
ATOM      5  C3  UNL d   1      -0.456   4.723  -5.998  0.00  0.00    -0.047 A 
ATOM      6  C4  UNL d   1       0.000   4.408  -4.736  0.00  0.00    -0.004 A 
ENDROOT
TORSDOF 0
ENDMDL
