MODEL 1
REMARK minimizedAffinity 3.992805
REMARK minimizedRMSD -1
REMARK  0 active torsions:
REMARK  status: ('A' for Active; 'I' for Inactive)
ROOT
ATOM      1  C   UNL d   1      -6.000   0.042  -5.999  0.00  0.00     0.172 C 
ATOM      2  N   UNL d   1      -5.983   0.015  -4.555  0.00  0.00    -0.070 N 
ATOM      3  C1  UNL d   1      -5.947   1.113  -3.737  0.00  0.00    -0.004 A 
ATOM      4  C2  UNL d   1      -5.942   0.668  -2.433  0.00  0.00    -0.047 A 
ATOM      5  C3  UNL d   1      -5.975  -0.746  -2.468  0.00  0.00    -0.047 A 
ATOM      6  C4  UNL d   1      -6.000  -1.124  -3.794  0.00  0.00    -0.004 A 
ENDROOT
TORSDOF 0
ENDMDL
