MODEL 1
REMARK minimizedAffinity 0.655670345
REMARK minimizedRMSD -1
REMARK  0 active torsions:
REMARK  status: ('A' for Active; 'I' for Inactive)
ROOT
ATOM      1  C   UNL d   1      -4.556  -5.319   2.607  0.00  0.00     0.172 C 
ATOM      2  N   UNL d   1      -4.996  -5.146   3.971  0.00  0.00    -0.070 N 
ATOM      3  C1  UNL d   1      -5.816  -5.999   4.660  0.00  0.00    -0.004 A 
ATOM      4  C2  UNL d   1      -5.997  -5.483   5.925  0.00  0.00    -0.047 A 
ATOM      5  C3  UNL d   1      -5.260  -4.277   5.999  0.00  0.00    -0.047 A 
ATOM      6  C4  UNL d   1      -4.650  -4.093   4.776  0.00  0.00    -0.004 A 
ENDROOT
TORSDOF 0
ENDMDL
