MODEL 1
REMARK minimizedAffinity 3.63313866
REMARK minimizedRMSD -1
REMARK  1 active torsions:
REMARK  status: ('A' for Active; 'I' for Inactive)
REMARK    1  A    between atoms: C3_4  and  O_7 
ROOT
ATOM      1  C   UNL d   1      -1.909   0.017   3.402  0.00  0.00    -0.033 A 
ATOM      2  C1  UNL d   1      -0.755  -0.569   3.924  0.00  0.00     0.039 A 
ATOM      3  C2  UNL d   1       0.420  -0.595   3.169  0.00  0.00    -0.080 A 
ATOM      4  C3  UNL d   1       0.426  -0.030   1.896  0.00  0.00     0.150 A 
ATOM      5  C4  UNL d   1      -0.719   0.559   1.372  0.00  0.00    -0.007 A 
ATOM      6  C5  UNL d   1      -1.891   0.583   2.127  0.00  0.00     0.039 A 
ENDROOT
BRANCH   4   7
ATOM      7  O   UNL d   1       1.547  -0.035   1.121  0.00  0.00    -0.526 OA
ATOM      8  H5  UNL d   1       2.252  -0.501   1.601  0.00  0.00     0.418 HD
ENDBRANCH   4   7
TORSDOF 1
ENDMDL
