MODEL 1
REMARK minimizedAffinity 6.8504138
REMARK minimizedRMSD -1
REMARK  1 active torsions:
REMARK  status: ('A' for Active; 'I' for Inactive)
REMARK    1  A    between atoms: C3_4  and  O_7 
ROOT
ATOM      1  C   UNL d   1      -1.980   1.034   1.267  0.00  0.00    -0.033 A 
ATOM      2  C1  UNL d   1      -0.944   0.699   2.141  0.00  0.00     0.039 A 
ATOM      3  C2  UNL d   1      -1.086  -0.383   3.013  0.00  0.00    -0.080 A 
ATOM      4  C3  UNL d   1      -2.267  -1.120   3.000  0.00  0.00     0.150 A 
ATOM      5  C4  UNL d   1      -3.302  -0.794   2.129  0.00  0.00    -0.007 A 
ATOM      6  C5  UNL d   1      -3.158   0.287   1.260  0.00  0.00     0.039 A 
ENDROOT
BRANCH   4   7
ATOM      7  O   UNL d   1      -2.454  -2.181   3.835  0.00  0.00    -0.526 OA
ATOM      8  H5  UNL d   1      -1.668  -2.271   4.399  0.00  0.00     0.418 HD
ENDBRANCH   4   7
TORSDOF 1
ENDMDL
