MODEL 1
REMARK minimizedAffinity 12.1389761
REMARK minimizedRMSD -1
REMARK  1 active torsions:
REMARK  status: ('A' for Active; 'I' for Inactive)
REMARK    1  A    between atoms: C3_4  and  O_7 
ROOT
ATOM      1  C   UNL d   1       2.137   0.911   0.737  0.00  0.00    -0.033 A 
ATOM      2  C1  UNL d   1       2.615   2.135   1.208  0.00  0.00     0.039 A 
ATOM      3  C2  UNL d   1       3.237   3.027   0.332  0.00  0.00    -0.080 A 
ATOM      4  C3  UNL d   1       3.374   2.683  -1.010  0.00  0.00     0.150 A 
ATOM      5  C4  UNL d   1       2.896   1.466  -1.487  0.00  0.00    -0.007 A 
ATOM      6  C5  UNL d   1       2.276   0.577  -0.610  0.00  0.00     0.039 A 
ENDROOT
BRANCH   4   7
ATOM      7  O   UNL d   1       3.978   3.518  -1.902  0.00  0.00    -0.526 OA
ATOM      8  H5  UNL d   1       4.283   4.308  -1.426  0.00  0.00     0.418 HD
ENDBRANCH   4   7
TORSDOF 1
ENDMDL
