MODEL 1
REMARK minimizedAffinity 1.89146912
REMARK minimizedRMSD -1
REMARK  1 active torsions:
REMARK  status: ('A' for Active; 'I' for Inactive)
REMARK    1  A    between atoms: C3_4  and  O_7 
ROOT
ATOM      1  C   UNL d   1      -1.795  -1.913   4.682  0.00  0.00    -0.033 A 
ATOM      2  C1  UNL d   1      -0.720  -1.353   3.988  0.00  0.00     0.039 A 
ATOM      3  C2  UNL d   1      -0.953  -0.515   2.896  0.00  0.00    -0.080 A 
ATOM      4  C3  UNL d   1      -2.262  -0.244   2.509  0.00  0.00     0.150 A 
ATOM      5  C4  UNL d   1      -3.338  -0.795   3.198  0.00  0.00    -0.007 A 
ATOM      6  C5  UNL d   1      -3.103  -1.633   4.288  0.00  0.00     0.039 A 
ENDROOT
BRANCH   4   7
ATOM      7  O   UNL d   1      -2.539   0.564   1.446  0.00  0.00    -0.526 OA
ATOM      8  H5  UNL d   1      -1.699   0.849   1.049  0.00  0.00     0.418 HD
ENDBRANCH   4   7
TORSDOF 1
ENDMDL
