MODEL 1
REMARK minimizedAffinity 7.72672319
REMARK minimizedRMSD -1
REMARK  1 active torsions:
REMARK  status: ('A' for Active; 'I' for Inactive)
REMARK    1  A    between atoms: C3_4  and  O_7 
ROOT
ATOM      1  C   UNL d   1      -2.121  -1.998   4.102  0.00  0.00    -0.033 A 
ATOM      2  C1  UNL d   1      -3.217  -1.703   3.288  0.00  0.00     0.039 A 
ATOM      3  C2  UNL d   1      -3.159  -0.628   2.400  0.00  0.00    -0.080 A 
ATOM      4  C3  UNL d   1      -2.002   0.143   2.334  0.00  0.00     0.150 A 
ATOM      5  C4  UNL d   1      -0.905  -0.147   3.139  0.00  0.00    -0.007 A 
ATOM      6  C5  UNL d   1      -0.965  -1.221   4.026  0.00  0.00     0.039 A 
ENDROOT
BRANCH   4   7
ATOM      7  O   UNL d   1      -1.901   1.206   1.486  0.00  0.00    -0.526 OA
ATOM      8  H5  UNL d   1      -2.745   1.304   1.014  0.00  0.00     0.418 HD
ENDBRANCH   4   7
TORSDOF 1
ENDMDL
