MODEL 1
REMARK minimizedAffinity 1.20994103
REMARK minimizedRMSD -1
REMARK  1 active torsions:
REMARK  status: ('A' for Active; 'I' for Inactive)
REMARK    1  A    between atoms: C3_4  and  O_7 
ROOT
ATOM      1  C   UNL d   1       3.119   2.059  -0.280  0.00  0.00    -0.033 A 
ATOM      2  C1  UNL d   1       2.617   1.431  -1.422  0.00  0.00     0.039 A 
ATOM      3  C2  UNL d   1       1.471   0.637  -1.337  0.00  0.00    -0.080 A 
ATOM      4  C3  UNL d   1       0.838   0.480  -0.108  0.00  0.00     0.150 A 
ATOM      5  C4  UNL d   1       1.330   1.106   1.033  0.00  0.00    -0.007 A 
ATOM      6  C5  UNL d   1       2.474   1.897   0.947  0.00  0.00     0.039 A 
ENDROOT
BRANCH   4   7
ATOM      7  O   UNL d   1      -0.280  -0.289   0.025  0.00  0.00    -0.526 OA
ATOM      8  H5  UNL d   1      -0.488  -0.681  -0.840  0.00  0.00     0.418 HD
ENDBRANCH   4   7
TORSDOF 1
ENDMDL
