MODEL 1
REMARK minimizedAffinity 4.71327019
REMARK minimizedRMSD -1
REMARK  1 active torsions:
REMARK  status: ('A' for Active; 'I' for Inactive)
REMARK    1  A    between atoms: C3_4  and  O_7 
ROOT
ATOM      1  C   UNL d   1      -3.597  -0.764   2.831  0.00  0.00    -0.033 A 
ATOM      2  C1  UNL d   1      -3.157  -1.751   3.716  0.00  0.00     0.039 A 
ATOM      3  C2  UNL d   1      -1.810  -1.815   4.078  0.00  0.00    -0.080 A 
ATOM      4  C3  UNL d   1      -0.915  -0.888   3.550  0.00  0.00     0.150 A 
ATOM      5  C4  UNL d   1      -1.348   0.100   2.671  0.00  0.00    -0.007 A 
ATOM      6  C5  UNL d   1      -2.693   0.162   2.310  0.00  0.00     0.039 A 
ENDROOT
BRANCH   4   7
ATOM      7  O   UNL d   1       0.410  -0.914   3.870  0.00  0.00    -0.526 OA
ATOM      8  H5  UNL d   1       0.568  -1.667   4.463  0.00  0.00     0.418 HD
ENDBRANCH   4   7
TORSDOF 1
ENDMDL
