MODEL 1
REMARK minimizedAffinity 4.53604269
REMARK minimizedRMSD -1
REMARK  1 active torsions:
REMARK  status: ('A' for Active; 'I' for Inactive)
REMARK    1  A    between atoms: C3_4  and  O_7 
ROOT
ATOM      1  C   UNL d   1       3.034   1.495  -0.573  0.00  0.00    -0.033 A 
ATOM      2  C1  UNL d   1       2.106   1.469   0.470  0.00  0.00     0.039 A 
ATOM      3  C2  UNL d   1       2.267   2.314   1.570  0.00  0.00    -0.080 A 
ATOM      4  C3  UNL d   1       3.357   3.179   1.615  0.00  0.00     0.150 A 
ATOM      5  C4  UNL d   1       4.283   3.212   0.577  0.00  0.00    -0.007 A 
ATOM      6  C5  UNL d   1       4.122   2.367  -0.520  0.00  0.00     0.039 A 
ENDROOT
BRANCH   4   7
ATOM      7  O   UNL d   1       3.558   4.019   2.669  0.00  0.00    -0.526 OA
ATOM      8  H5  UNL d   1       2.855   3.866   3.323  0.00  0.00     0.418 HD
ENDBRANCH   4   7
TORSDOF 1
ENDMDL
