MODEL 1
REMARK minimizedAffinity 1.96177936
REMARK minimizedRMSD -1
REMARK  1 active torsions:
REMARK  status: ('A' for Active; 'I' for Inactive)
REMARK    1  A    between atoms: C3_4  and  O_7 
ROOT
ATOM      1  C   UNL d   1      -2.036   0.087   2.177  0.00  0.00    -0.033 A 
ATOM      2  C1  UNL d   1      -2.007  -0.454   3.464  0.00  0.00     0.039 A 
ATOM      3  C2  UNL d   1      -0.808  -0.929   3.996  0.00  0.00    -0.080 A 
ATOM      4  C3  UNL d   1       0.355  -0.858   3.234  0.00  0.00     0.150 A 
ATOM      5  C4  UNL d   1       0.334  -0.317   1.952  0.00  0.00    -0.007 A 
ATOM      6  C5  UNL d   1      -0.865   0.156   1.421  0.00  0.00     0.039 A 
ENDROOT
BRANCH   4   7
ATOM      7  O   UNL d   1       1.548  -1.314   3.709  0.00  0.00    -0.526 OA
ATOM      8  H5  UNL d   1       1.404  -1.686   4.595  0.00  0.00     0.418 HD
ENDBRANCH   4   7
TORSDOF 1
ENDMDL
