MODEL 1
REMARK minimizedAffinity 0.481766045
REMARK minimizedRMSD -1
REMARK  1 active torsions:
REMARK  status: ('A' for Active; 'I' for Inactive)
REMARK    1  A    between atoms: C3_4  and  O_7 
ROOT
ATOM      1  C   UNL d   1       0.666   0.434   0.353  0.00  0.00    -0.033 A 
ATOM      2  C1  UNL d   1       1.874   0.662  -0.309  0.00  0.00     0.039 A 
ATOM      3  C2  UNL d   1       1.884   0.904  -1.684  0.00  0.00    -0.080 A 
ATOM      4  C3  UNL d   1       0.681   0.916  -2.384  0.00  0.00     0.150 A 
ATOM      5  C4  UNL d   1      -0.526   0.693  -1.731  0.00  0.00    -0.007 A 
ATOM      6  C5  UNL d   1      -0.534   0.451  -0.358  0.00  0.00     0.039 A 
ENDROOT
BRANCH   4   7
ATOM      7  O   UNL d   1       0.641   1.143  -3.728  0.00  0.00    -0.526 OA
ATOM      8  H5  UNL d   1       1.552   1.252  -4.049  0.00  0.00     0.418 HD
ENDBRANCH   4   7
TORSDOF 1
ENDMDL
