MODEL 1
REMARK minimizedAffinity -0.0439535193
REMARK minimizedRMSD -1
REMARK  1 active torsions:
REMARK  status: ('A' for Active; 'I' for Inactive)
REMARK    1  A    between atoms: C3_4  and  O_7 
ROOT
ATOM      1  C   UNL d   1      -2.101   0.681   1.213  0.00  0.00    -0.033 A 
ATOM      2  C1  UNL d   1      -0.913   0.209   0.651  0.00  0.00     0.039 A 
ATOM      3  C2  UNL d   1       0.051  -0.398   1.459  0.00  0.00    -0.080 A 
ATOM      4  C3  UNL d   1      -0.186  -0.528   2.824  0.00  0.00     0.150 A 
ATOM      5  C4  UNL d   1      -1.369  -0.064   3.390  0.00  0.00    -0.007 A 
ATOM      6  C5  UNL d   1      -2.330   0.543   2.582  0.00  0.00     0.039 A 
ENDROOT
BRANCH   4   7
ATOM      7  O   UNL d   1       0.727  -1.109   3.654  0.00  0.00    -0.526 OA
ATOM      8  H5  UNL d   1       1.507  -1.355   3.129  0.00  0.00     0.418 HD
ENDBRANCH   4   7
TORSDOF 1
ENDMDL
