MODEL 1
REMARK minimizedAffinity 3.99957967
REMARK minimizedRMSD -1
REMARK  1 active torsions:
REMARK  status: ('A' for Active; 'I' for Inactive)
REMARK    1  A    between atoms: C3_4  and  O_7 
ROOT
ATOM      1  C   UNL d   1      -3.158  -0.556   3.045  0.00  0.00    -0.033 A 
ATOM      2  C1  UNL d   1      -2.837  -1.592   3.924  0.00  0.00     0.039 A 
ATOM      3  C2  UNL d   1      -1.502  -1.853   4.241  0.00  0.00    -0.080 A 
ATOM      4  C3  UNL d   1      -0.500  -1.070   3.673  0.00  0.00     0.150 A 
ATOM      5  C4  UNL d   1      -0.814  -0.034   2.800  0.00  0.00    -0.007 A 
ATOM      6  C5  UNL d   1      -2.147   0.224   2.484  0.00  0.00     0.039 A 
ENDROOT
BRANCH   4   7
ATOM      7  O   UNL d   1       0.817  -1.289   3.948  0.00  0.00    -0.526 OA
ATOM      8  H5  UNL d   1       0.884  -2.054   4.543  0.00  0.00     0.418 HD
ENDBRANCH   4   7
TORSDOF 1
ENDMDL
