MODEL 1
REMARK minimizedAffinity -0.716113567
REMARK minimizedRMSD -1
REMARK  1 active torsions:
REMARK  status: ('A' for Active; 'I' for Inactive)
REMARK    1  A    between atoms: C3_4  and  O_7 
ROOT
ATOM      1  C   UNL d   1      -1.575  -0.241   1.867  0.00  0.00    -0.033 A 
ATOM      2  C1  UNL d   1      -0.320  -0.321   1.260  0.00  0.00     0.039 A 
ATOM      3  C2  UNL d   1       0.757  -0.883   1.949  0.00  0.00    -0.080 A 
ATOM      4  C3  UNL d   1       0.566  -1.362   3.242  0.00  0.00     0.150 A 
ATOM      5  C4  UNL d   1      -0.683  -1.290   3.851  0.00  0.00    -0.007 A 
ATOM      6  C5  UNL d   1      -1.756  -0.727   3.162  0.00  0.00     0.039 A 
ENDROOT
BRANCH   4   7
ATOM      7  O   UNL d   1       1.587  -1.914   3.955  0.00  0.00    -0.526 OA
ATOM      8  H5  UNL d   1       2.396  -1.871   3.418  0.00  0.00     0.418 HD
ENDBRANCH   4   7
TORSDOF 1
ENDMDL
