MODEL 1
REMARK minimizedAffinity 4.36677837
REMARK minimizedRMSD -1
REMARK  2 active torsions:
REMARK  status: ('A' for Active; 'I' for Inactive)
REMARK    1  A    between atoms: C2'_3  and  C1'_4 
REMARK    2  A    between atoms: C1'_4  and  C1_5 
ROOT
ATOM      1  C1  I4B d   1      -1.160   0.957  -1.119  0.00  0.00    -0.075 A 
ATOM      2  C2  I4B d   1      -2.172   0.033  -1.040  0.00  0.00     0.003 A 
ATOM      3  C3  I4B d   1      -1.883  -1.350  -1.137  0.00  0.00     0.002 A 
ATOM      4  C4  I4B d   1      -0.584  -1.759  -1.361  0.00  0.00    -0.004 A 
ATOM      5  C5  I4B d   1       0.443  -0.822  -1.418  0.00  0.00     0.002 A 
ATOM      6  C6  I4B d   1       0.156   0.544  -1.284  0.00  0.00     0.003 A 
ENDROOT
BRANCH   1   7
ATOM      7  C1' I4B d   1      -1.504   2.411  -1.046  0.00  0.00     0.060 C 
BRANCH   7   8
ATOM      8  C2' I4B d   1      -0.380   3.121  -0.320  0.00  0.00    -0.013 C 
ATOM      9  C4' I4B d   1      -0.314   4.575  -0.706  0.00  0.00     0.013 C 
ATOM     10  C3' I4B d   1      -0.607   2.961   1.154  0.00  0.00     0.013 C 
ENDBRANCH   7   8
ENDBRANCH   1   7
TORSDOF 2
ENDMDL
