MODEL 1
REMARK minimizedAffinity 8.1375227
REMARK minimizedRMSD -1
REMARK  2 active torsions:
REMARK  status: ('A' for Active; 'I' for Inactive)
REMARK    1  A    between atoms: C2'_3  and  C1'_4 
REMARK    2  A    between atoms: C1'_4  and  C1_5 
ROOT
ATOM      1  C1  I4B d   1       2.525  -1.828  -1.322  0.00  0.00    -0.075 A 
ATOM      2  C2  I4B d   1       3.832  -1.507  -1.053  0.00  0.00     0.003 A 
ATOM      3  C3  I4B d   1       4.678  -2.442  -0.410  0.00  0.00     0.002 A 
ATOM      4  C4  I4B d   1       4.166  -3.660  -0.010  0.00  0.00    -0.004 A 
ATOM      5  C5  I4B d   1       2.847  -3.993  -0.305  0.00  0.00     0.002 A 
ATOM      6  C6  I4B d   1       2.025  -3.076  -0.976  0.00  0.00     0.003 A 
ENDROOT
BRANCH   1   7
ATOM      7  C1' I4B d   1       1.651  -0.804  -1.973  0.00  0.00     0.060 C 
BRANCH   7   8
ATOM      8  C2' I4B d   1       0.369  -1.489  -2.401  0.00  0.00    -0.013 C 
ATOM      9  C4' I4B d   1      -0.841  -0.751  -1.892  0.00  0.00     0.013 C 
ATOM     10  C3' I4B d   1       0.364  -1.568  -3.899  0.00  0.00     0.013 C 
ENDBRANCH   7   8
ENDBRANCH   1   7
TORSDOF 2
ENDMDL
