MODEL 1
REMARK minimizedAffinity 13.7426376
REMARK minimizedRMSD -1
REMARK  2 active torsions:
REMARK  status: ('A' for Active; 'I' for Inactive)
REMARK    1  A    between atoms: C2'_3  and  C1'_4 
REMARK    2  A    between atoms: C1'_4  and  C1_5 
ROOT
ATOM      1  C1  I4B d   1      -1.024   0.961  -1.081  0.00  0.00    -0.075 A 
ATOM      2  C2  I4B d   1      -1.975  -0.029  -1.106  0.00  0.00     0.003 A 
ATOM      3  C3  I4B d   1      -1.656  -1.310  -1.618  0.00  0.00     0.002 A 
ATOM      4  C4  I4B d   1      -0.399  -1.540  -2.139  0.00  0.00    -0.004 A 
ATOM      5  C5  I4B d   1       0.570  -0.542  -2.092  0.00  0.00     0.002 A 
ATOM      6  C6  I4B d   1       0.260   0.713  -1.549  0.00  0.00     0.003 A 
ENDROOT
BRANCH   1   7
ATOM      7  C1' I4B d   1      -1.404   2.312  -0.563  0.00  0.00     0.060 C 
BRANCH   7   8
ATOM      8  C2' I4B d   1      -0.167   2.947   0.038  0.00  0.00    -0.013 C 
ATOM      9  C4' I4B d   1      -0.038   4.389  -0.376  0.00  0.00     0.013 C 
ATOM     10  C3' I4B d   1      -0.258   2.817   1.529  0.00  0.00     0.013 C 
ENDBRANCH   7   8
ENDBRANCH   1   7
TORSDOF 2
ENDMDL
