MODEL 1
REMARK minimizedAffinity 14.3362617
REMARK minimizedRMSD -1
REMARK  2 active torsions:
REMARK  status: ('A' for Active; 'I' for Inactive)
REMARK    1  A    between atoms: C2'_3  and  C1'_4 
REMARK    2  A    between atoms: C1'_4  and  C1_5 
ROOT
ATOM      1  C1  I4B d   1      -1.099   1.115  -0.849  0.00  0.00    -0.075 A 
ATOM      2  C2  I4B d   1      -2.175   0.286  -1.050  0.00  0.00     0.003 A 
ATOM      3  C3  I4B d   1      -1.984  -1.015  -1.575  0.00  0.00     0.002 A 
ATOM      4  C4  I4B d   1      -0.716  -1.425  -1.932  0.00  0.00    -0.004 A 
ATOM      5  C5  I4B d   1       0.377  -0.592  -1.707  0.00  0.00     0.002 A 
ATOM      6  C6  I4B d   1       0.186   0.682  -1.150  0.00  0.00     0.003 A 
ENDROOT
BRANCH   1   7
ATOM      7  C1' I4B d   1      -1.340   2.494  -0.323  0.00  0.00     0.060 C 
BRANCH   7   8
ATOM      8  C2' I4B d   1      -0.012   3.055   0.142  0.00  0.00    -0.013 C 
ATOM      9  C4' I4B d   1       0.190   4.463  -0.354  0.00  0.00     0.013 C 
ATOM     10  C3' I4B d   1       0.014   3.000   1.641  0.00  0.00     0.013 C 
ENDBRANCH   7   8
ENDBRANCH   1   7
TORSDOF 2
ENDMDL
