MODEL 1
REMARK minimizedAffinity 11.7622242
REMARK minimizedRMSD -1
REMARK  2 active torsions:
REMARK  status: ('A' for Active; 'I' for Inactive)
REMARK    1  A    between atoms: C2'_3  and  C1'_4 
REMARK    2  A    between atoms: C1'_4  and  C1_5 
ROOT
ATOM      1  C1  I4B d   1       0.406   0.607   3.073  0.00  0.00    -0.075 A 
ATOM      2  C2  I4B d   1      -0.603   1.426   2.629  0.00  0.00     0.003 A 
ATOM      3  C3  I4B d   1      -0.325   2.767   2.268  0.00  0.00     0.002 A 
ATOM      4  C4  I4B d   1       0.956   3.259   2.413  0.00  0.00    -0.004 A 
ATOM      5  C5  I4B d   1       1.981   2.421   2.841  0.00  0.00     0.002 A 
ATOM      6  C6  I4B d   1       1.707   1.083   3.162  0.00  0.00     0.003 A 
ENDROOT
BRANCH   1   7
ATOM      7  C1' I4B d   1       0.071  -0.793   3.478  0.00  0.00     0.060 C 
BRANCH   7   8
ATOM      8  C2' I4B d   1       0.959  -1.166   4.648  0.00  0.00    -0.013 C 
ATOM      9  C4' I4B d   1       0.167  -1.253   5.926  0.00  0.00     0.013 C 
ATOM     10  C3' I4B d   1       1.620  -2.473   4.330  0.00  0.00     0.013 C 
ENDBRANCH   7   8
ENDBRANCH   1   7
TORSDOF 2
ENDMDL
