MODEL 1
REMARK minimizedAffinity 6.06109333
REMARK minimizedRMSD -1
REMARK  2 active torsions:
REMARK  status: ('A' for Active; 'I' for Inactive)
REMARK    1  A    between atoms: C2'_3  and  C1'_4 
REMARK    2  A    between atoms: C1'_4  and  C1_5 
ROOT
ATOM      1  C1  I4B d   1      -0.270   2.181   2.027  0.00  0.00    -0.075 A 
ATOM      2  C2  I4B d   1      -0.988   1.184   2.640  0.00  0.00     0.003 A 
ATOM      3  C3  I4B d   1      -0.359   0.323   3.571  0.00  0.00     0.002 A 
ATOM      4  C4  I4B d   1       0.991   0.461   3.821  0.00  0.00    -0.004 A 
ATOM      5  C5  I4B d   1       1.712   1.487   3.216  0.00  0.00     0.002 A 
ATOM      6  C6  I4B d   1       1.075   2.360   2.323  0.00  0.00     0.003 A 
ENDROOT
BRANCH   1   7
ATOM      7  C1' I4B d   1      -0.958   3.052   1.024  0.00  0.00     0.060 C 
BRANCH   7   8
ATOM      8  C2' I4B d   1      -0.231   2.907  -0.297  0.00  0.00    -0.013 C 
ATOM      9  C4' I4B d   1      -0.681   1.673  -1.034  0.00  0.00     0.013 C 
ATOM     10  C3' I4B d   1      -0.487   4.144  -1.105  0.00  0.00     0.013 C 
ENDBRANCH   7   8
ENDBRANCH   1   7
TORSDOF 2
ENDMDL
