MODEL 1
REMARK minimizedAffinity 7.88226891
REMARK minimizedRMSD -1
REMARK  2 active torsions:
REMARK  status: ('A' for Active; 'I' for Inactive)
REMARK    1  A    between atoms: C2'_3  and  C1'_4 
REMARK    2  A    between atoms: C1'_4  and  C1_5 
ROOT
ATOM      1  C1  I4B d   1      -0.464   2.229  -0.459  0.00  0.00    -0.075 A 
ATOM      2  C2  I4B d   1      -0.317   3.564  -0.745  0.00  0.00     0.003 A 
ATOM      3  C3  I4B d   1      -0.357   4.525   0.294  0.00  0.00     0.002 A 
ATOM      4  C4  I4B d   1      -0.593   4.115   1.590  0.00  0.00    -0.004 A 
ATOM      5  C5  I4B d   1      -0.719   2.759   1.882  0.00  0.00     0.002 A 
ATOM      6  C6  I4B d   1      -0.641   1.809   0.853  0.00  0.00     0.003 A 
ENDROOT
BRANCH   1   7
ATOM      7  C1' I4B d   1      -0.450   1.245  -1.585  0.00  0.00     0.060 C 
BRANCH   7   8
ATOM      8  C2' I4B d   1      -0.701  -0.132  -1.004  0.00  0.00    -0.013 C 
ATOM      9  C4' I4B d   1      -2.076  -0.632  -1.360  0.00  0.00     0.013 C 
ATOM     10  C3' I4B d   1       0.362  -1.054  -1.522  0.00  0.00     0.013 C 
ENDBRANCH   7   8
ENDBRANCH   1   7
TORSDOF 2
ENDMDL
