MODEL 1
REMARK minimizedAffinity 9.31919098
REMARK minimizedRMSD -1
REMARK  2 active torsions:
REMARK  status: ('A' for Active; 'I' for Inactive)
REMARK    1  A    between atoms: C2'_3  and  C1'_4 
REMARK    2  A    between atoms: C1'_4  and  C1_5 
ROOT
ATOM      1  C1  I4B d   1       0.149   2.931   0.914  0.00  0.00    -0.075 A 
ATOM      2  C2  I4B d   1      -0.439   2.136  -0.038  0.00  0.00     0.003 A 
ATOM      3  C3  I4B d   1      -0.846   2.689  -1.276  0.00  0.00     0.002 A 
ATOM      4  C4  I4B d   1      -0.693   4.043  -1.499  0.00  0.00    -0.004 A 
ATOM      5  C5  I4B d   1      -0.076   4.843  -0.542  0.00  0.00     0.002 A 
ATOM      6  C6  I4B d   1       0.359   4.282   0.668  0.00  0.00     0.003 A 
ENDROOT
BRANCH   1   7
ATOM      7  C1' I4B d   1       0.537   2.321   2.224  0.00  0.00     0.060 C 
BRANCH   7   8
ATOM      8  C2' I4B d   1      -0.383   1.144   2.481  0.00  0.00    -0.013 C 
ATOM      9  C4' I4B d   1       0.239   0.167   3.443  0.00  0.00     0.013 C 
ATOM     10  C3' I4B d   1      -1.679   1.677   3.013  0.00  0.00     0.013 C 
ENDBRANCH   7   8
ENDBRANCH   1   7
TORSDOF 2
ENDMDL
