MODEL 1
REMARK minimizedAffinity 12.5247126
REMARK minimizedRMSD -1
REMARK  2 active torsions:
REMARK  status: ('A' for Active; 'I' for Inactive)
REMARK    1  A    between atoms: C2'_3  and  C1'_4 
REMARK    2  A    between atoms: C1'_4  and  C1_5 
ROOT
ATOM      1  C1  I4B d   1      -0.064   3.536   1.330  0.00  0.00    -0.075 A 
ATOM      2  C2  I4B d   1      -1.275   3.182   1.871  0.00  0.00     0.003 A 
ATOM      3  C3  I4B d   1      -1.332   2.290   2.969  0.00  0.00     0.002 A 
ATOM      4  C4  I4B d   1      -0.165   1.740   3.458  0.00  0.00    -0.004 A 
ATOM      5  C5  I4B d   1       1.064   2.117   2.923  0.00  0.00     0.002 A 
ATOM      6  C6  I4B d   1       1.116   3.030   1.860  0.00  0.00     0.003 A 
ENDROOT
BRANCH   1   7
ATOM      7  C1' I4B d   1      -0.042   4.455   0.150  0.00  0.00     0.060 C 
BRANCH   7   8
ATOM      8  C2' I4B d   1      -0.058   3.605  -1.105  0.00  0.00    -0.013 C 
ATOM      9  C4' I4B d   1      -0.707   2.270  -0.850  0.00  0.00     0.013 C 
ATOM     10  C3' I4B d   1      -0.786   4.366  -2.171  0.00  0.00     0.013 C 
ENDBRANCH   7   8
ENDBRANCH   1   7
TORSDOF 2
ENDMDL
