MODEL 1
REMARK minimizedAffinity 7.95368576
REMARK minimizedRMSD -1
REMARK  2 active torsions:
REMARK  status: ('A' for Active; 'I' for Inactive)
REMARK    1  A    between atoms: C2'_3  and  C1'_4 
REMARK    2  A    between atoms: C1'_4  and  C1_5 
ROOT
ATOM      1  C1  I4B d   1      -0.091  -3.511  -4.720  0.00  0.00    -0.075 A 
ATOM      2  C2  I4B d   1       0.831  -3.941  -3.799  0.00  0.00     0.003 A 
ATOM      3  C3  I4B d   1       1.491  -5.181  -3.976  0.00  0.00     0.002 A 
ATOM      4  C4  I4B d   1       1.163  -5.977  -5.055  0.00  0.00    -0.004 A 
ATOM      5  C5  I4B d   1       0.245  -5.529  -6.000  0.00  0.00     0.002 A 
ATOM      6  C6  I4B d   1      -0.378  -4.282  -5.838  0.00  0.00     0.003 A 
ENDROOT
BRANCH   1   7
ATOM      7  C1' I4B d   1      -0.793  -2.211  -4.484  0.00  0.00     0.060 C 
BRANCH   7   8
ATOM      8  C2' I4B d   1      -0.832  -1.966  -2.990  0.00  0.00    -0.013 C 
ATOM      9  C4' I4B d   1      -0.440  -0.550  -2.659  0.00  0.00     0.013 C 
ATOM     10  C3' I4B d   1      -2.218  -2.270  -2.506  0.00  0.00     0.013 C 
ENDBRANCH   7   8
ENDBRANCH   1   7
TORSDOF 2
ENDMDL
