MODEL 1
REMARK minimizedAffinity 13.0526934
REMARK minimizedRMSD -1
REMARK  0 active torsions:
REMARK  status: ('A' for Active; 'I' for Inactive)
ROOT
ATOM      1  C   UNL d   1       1.595  -2.582   5.434  0.00  0.00     0.077 C 
ATOM      2  C1  UNL d   1       1.589  -1.713   4.211  0.00  0.00    -0.074 A 
ATOM      3  C2  UNL d   1       1.067  -0.416   4.253  0.00  0.00    -0.005 A 
ATOM      4  C3  UNL d   1       1.076   0.383   3.110  0.00  0.00     0.006 A 
ATOM      5  C4  UNL d   1       1.607  -0.105   1.916  0.00  0.00    -0.005 A 
ATOM      6  C5  UNL d   1       2.134  -1.399   1.855  0.00  0.00    -0.074 A 
ATOM      7  C6  UNL d   1       2.717  -1.936   0.582  0.00  0.00     0.077 C 
ATOM      8  C7  UNL d   1       2.127  -2.194   3.009  0.00  0.00    -0.001 A 
ENDROOT
TORSDOF 0
ENDMDL
