MODEL 1
REMARK minimizedAffinity 7.92888689
REMARK minimizedRMSD -1
REMARK  0 active torsions:
REMARK  status: ('A' for Active; 'I' for Inactive)
ROOT
ATOM      1  C   UNL d   1       1.343  -0.337   1.805  0.00  0.00     0.077 C 
ATOM      2  C1  UNL d   1       1.646  -1.287   2.925  0.00  0.00    -0.074 A 
ATOM      3  C2  UNL d   1       1.347  -0.954   4.251  0.00  0.00    -0.005 A 
ATOM      4  C3  UNL d   1       1.625  -1.851   5.281  0.00  0.00     0.006 A 
ATOM      5  C4  UNL d   1       2.204  -3.089   4.998  0.00  0.00    -0.005 A 
ATOM      6  C5  UNL d   1       2.509  -3.440   3.679  0.00  0.00    -0.074 A 
ATOM      7  C6  UNL d   1       3.123  -4.770   3.356  0.00  0.00     0.077 C 
ATOM      8  C7  UNL d   1       2.220  -2.535   2.648  0.00  0.00    -0.001 A 
ENDROOT
TORSDOF 0
ENDMDL
