MODEL 1
REMARK minimizedAffinity 1.69709432
REMARK minimizedRMSD -1
REMARK  0 active torsions:
REMARK  status: ('A' for Active; 'I' for Inactive)
ROOT
ATOM      1  C   UNL d   1      -3.302   5.038  -5.959  0.00  0.00     0.077 C 
ATOM      2  C1  UNL d   1      -3.618   4.395  -4.641  0.00  0.00    -0.074 A 
ATOM      3  C2  UNL d   1      -4.250   5.115  -3.623  0.00  0.00    -0.005 A 
ATOM      4  C3  UNL d   1      -4.545   4.501  -2.406  0.00  0.00     0.006 A 
ATOM      5  C4  UNL d   1      -4.212   3.162  -2.196  0.00  0.00    -0.005 A 
ATOM      6  C5  UNL d   1      -3.580   2.426  -3.203  0.00  0.00    -0.074 A 
ATOM      7  C6  UNL d   1      -3.224   0.983  -2.996  0.00  0.00     0.077 C 
ATOM      8  C7  UNL d   1      -3.293   3.048  -4.425  0.00  0.00    -0.001 A 
ENDROOT
TORSDOF 0
ENDMDL
