MODEL 1
REMARK minimizedAffinity 9.74597645
REMARK minimizedRMSD -1
REMARK  0 active torsions:
REMARK  status: ('A' for Active; 'I' for Inactive)
ROOT
ATOM      1  C   UNL d   1      -2.325   0.753  -1.425  0.00  0.00     0.077 C 
ATOM      2  C1  UNL d   1      -2.990   1.773  -2.300  0.00  0.00    -0.074 A 
ATOM      3  C2  UNL d   1      -3.526   2.946  -1.758  0.00  0.00    -0.005 A 
ATOM      4  C3  UNL d   1      -4.133   3.890  -2.586  0.00  0.00     0.006 A 
ATOM      5  C4  UNL d   1      -4.212   3.671  -3.962  0.00  0.00    -0.005 A 
ATOM      6  C5  UNL d   1      -3.682   2.504  -4.522  0.00  0.00    -0.074 A 
ATOM      7  C6  UNL d   1      -3.749   2.258  -6.000  0.00  0.00     0.077 C 
ATOM      8  C7  UNL d   1      -3.066   1.564  -3.685  0.00  0.00    -0.001 A 
ENDROOT
TORSDOF 0
ENDMDL
