MODEL 1
REMARK minimizedAffinity 6.73171329
REMARK minimizedRMSD -1
REMARK  0 active torsions:
REMARK  status: ('A' for Active; 'I' for Inactive)
ROOT
ATOM      1  C   UNL d   1       1.607  -4.551  -2.482  0.00  0.00     0.077 C 
ATOM      2  C1  UNL d   1       0.676  -4.459  -1.309  0.00  0.00    -0.074 A 
ATOM      3  C2  UNL d   1       1.165  -4.480   0.001  0.00  0.00    -0.005 A 
ATOM      4  C3  UNL d   1       0.288  -4.384   1.081  0.00  0.00     0.006 A 
ATOM      5  C4  UNL d   1      -1.085  -4.267   0.862  0.00  0.00    -0.005 A 
ATOM      6  C5  UNL d   1      -1.593  -4.244  -0.441  0.00  0.00    -0.074 A 
ATOM      7  C6  UNL d   1      -3.065  -4.109  -0.693  0.00  0.00     0.077 C 
ATOM      8  C7  UNL d   1      -0.704  -4.334  -1.521  0.00  0.00    -0.001 A 
ENDROOT
TORSDOF 0
ENDMDL
