MODEL 1
REMARK minimizedAffinity 1.89879632
REMARK minimizedRMSD -1
REMARK  0 active torsions:
REMARK  status: ('A' for Active; 'I' for Inactive)
ROOT
ATOM      1  C   UNL d   1       2.627  -3.033   1.010  0.00  0.00     0.077 C 
ATOM      2  C1  UNL d   1       2.186  -2.372   2.282  0.00  0.00    -0.074 A 
ATOM      3  C2  UNL d   1       1.618  -1.094   2.268  0.00  0.00    -0.005 A 
ATOM      4  C3  UNL d   1       1.203  -0.496   3.458  0.00  0.00     0.006 A 
ATOM      5  C4  UNL d   1       1.353  -1.168   4.672  0.00  0.00    -0.005 A 
ATOM      6  C5  UNL d   1       1.918  -2.447   4.705  0.00  0.00    -0.074 A 
ATOM      7  C6  UNL d   1       2.077  -3.187   6.000  0.00  0.00     0.077 C 
ATOM      8  C7  UNL d   1       2.326  -3.044   3.504  0.00  0.00    -0.001 A 
ENDROOT
TORSDOF 0
ENDMDL
