MODEL 1
REMARK minimizedAffinity 8.08935738
REMARK minimizedRMSD -1
REMARK  0 active torsions:
REMARK  status: ('A' for Active; 'I' for Inactive)
ROOT
ATOM      1  C   UNL d   1      -6.000   4.376  -0.206  0.00  0.00     0.077 C 
ATOM      2  C1  UNL d   1      -5.148   4.146  -1.420  0.00  0.00    -0.074 A 
ATOM      3  C2  UNL d   1      -5.223   5.002  -2.523  0.00  0.00    -0.005 A 
ATOM      4  C3  UNL d   1      -4.418   4.781  -3.641  0.00  0.00     0.006 A 
ATOM      5  C4  UNL d   1      -3.532   3.704  -3.666  0.00  0.00    -0.005 A 
ATOM      6  C5  UNL d   1      -3.443   2.837  -2.572  0.00  0.00    -0.074 A 
ATOM      7  C6  UNL d   1      -2.489   1.680  -2.580  0.00  0.00     0.077 C 
ATOM      8  C7  UNL d   1      -4.250   3.070  -1.450  0.00  0.00    -0.001 A 
ENDROOT
TORSDOF 0
ENDMDL
