MODEL 1
REMARK minimizedAffinity 14.3729582
REMARK minimizedRMSD -1
REMARK  0 active torsions:
REMARK  status: ('A' for Active; 'I' for Inactive)
ROOT
ATOM      1  C   UNL d   1       1.607  -5.616  -2.112  0.00  0.00     0.077 C 
ATOM      2  C1  UNL d   1       0.588  -5.245  -1.075  0.00  0.00    -0.074 A 
ATOM      3  C2  UNL d   1       0.950  -4.507   0.056  0.00  0.00    -0.005 A 
ATOM      4  C3  UNL d   1      -0.010  -4.161   1.007  0.00  0.00     0.006 A 
ATOM      5  C4  UNL d   1      -1.340  -4.550   0.836  0.00  0.00    -0.005 A 
ATOM      6  C5  UNL d   1      -1.720  -5.288  -0.289  0.00  0.00    -0.074 A 
ATOM      7  C6  UNL d   1      -3.146  -5.706  -0.493  0.00  0.00     0.077 C 
ATOM      8  C7  UNL d   1      -0.750  -5.625  -1.243  0.00  0.00    -0.001 A 
ENDROOT
TORSDOF 0
ENDMDL
