MODEL 1
REMARK minimizedAffinity 6.55311823
REMARK minimizedRMSD -1
REMARK  0 active torsions:
REMARK  status: ('A' for Active; 'I' for Inactive)
ROOT
ATOM      1  C   UNL d   1       4.246   0.581  -2.598  0.00  0.00     0.077 C 
ATOM      2  C1  UNL d   1       4.330  -0.890  -2.319  0.00  0.00    -0.074 A 
ATOM      3  C2  UNL d   1       3.770  -1.821  -3.200  0.00  0.00    -0.005 A 
ATOM      4  C3  UNL d   1       3.863  -3.187  -2.933  0.00  0.00     0.006 A 
ATOM      5  C4  UNL d   1       4.516  -3.635  -1.784  0.00  0.00    -0.005 A 
ATOM      6  C5  UNL d   1       5.083  -2.719  -0.892  0.00  0.00    -0.074 A 
ATOM      7  C6  UNL d   1       5.797  -3.184   0.342  0.00  0.00     0.077 C 
ATOM      8  C7  UNL d   1       4.991  -1.349  -1.171  0.00  0.00    -0.001 A 
ENDROOT
TORSDOF 0
ENDMDL
