MODEL 1
REMARK minimizedAffinity -5.02988148
REMARK minimizedRMSD -1
REMARK  0 active torsions:
REMARK  status: ('A' for Active; 'I' for Inactive)
ROOT
ATOM      1  C   UNL d   1      -0.924  -2.841  -1.346  0.00  0.00     0.077 C 
ATOM      2  C1  UNL d   1      -0.159  -1.742  -0.671  0.00  0.00    -0.074 A 
ATOM      3  C2  UNL d   1      -0.688  -0.451  -0.574  0.00  0.00    -0.005 A 
ATOM      4  C3  UNL d   1       0.031   0.558   0.066  0.00  0.00     0.006 A 
ATOM      5  C4  UNL d   1       1.286   0.288   0.614  0.00  0.00    -0.005 A 
ATOM      6  C5  UNL d   1       1.831  -0.997   0.527  0.00  0.00    -0.074 A 
ATOM      7  C6  UNL d   1       3.174  -1.307   1.120  0.00  0.00     0.077 C 
ATOM      8  C7  UNL d   1       1.099  -2.008  -0.111  0.00  0.00    -0.001 A 
ENDROOT
TORSDOF 0
ENDMDL
