MODEL 1
REMARK minimizedAffinity -4.48291492
REMARK minimizedRMSD -1
REMARK  0 active torsions:
REMARK  status: ('A' for Active; 'I' for Inactive)
ROOT
ATOM      1  C   UNL d   1       1.185  -3.096  -1.250  0.00  0.00     0.077 C 
ATOM      2  C1  UNL d   1       1.072  -1.788  -0.526  0.00  0.00    -0.074 A 
ATOM      3  C2  UNL d   1       2.170  -1.240   0.145  0.00  0.00    -0.005 A 
ATOM      4  C3  UNL d   1       2.052  -0.018   0.806  0.00  0.00     0.006 A 
ATOM      5  C4  UNL d   1       0.837   0.669   0.802  0.00  0.00    -0.005 A 
ATOM      6  C5  UNL d   1      -0.271   0.137   0.136  0.00  0.00    -0.074 A 
ATOM      7  C6  UNL d   1      -1.581   0.867   0.114  0.00  0.00     0.077 C 
ATOM      8  C7  UNL d   1      -0.143  -1.088  -0.532  0.00  0.00    -0.001 A 
ENDROOT
TORSDOF 0
ENDMDL
