MODEL 1
REMARK minimizedAffinity -5.6751442
REMARK minimizedRMSD -1
REMARK  0 active torsions:
REMARK  status: ('A' for Active; 'I' for Inactive)
ROOT
ATOM      1  C   UNL d   1      -1.494  -0.042  -0.109  0.00  0.00     0.077 C 
ATOM      2  C1  UNL d   1      -0.052  -0.443  -0.024  0.00  0.00    -0.074 A 
ATOM      3  C2  UNL d   1       0.380  -1.681  -0.510  0.00  0.00    -0.005 A 
ATOM      4  C3  UNL d   1       1.727  -2.037  -0.432  0.00  0.00     0.006 A 
ATOM      5  C4  UNL d   1       2.654  -1.159   0.131  0.00  0.00    -0.005 A 
ATOM      6  C5  UNL d   1       2.241   0.084   0.622  0.00  0.00    -0.074 A 
ATOM      7  C6  UNL d   1       3.225   1.043   1.222  0.00  0.00     0.077 C 
ATOM      8  C7  UNL d   1       0.887   0.437   0.534  0.00  0.00    -0.001 A 
ENDROOT
TORSDOF 0
ENDMDL
