MODEL 1
REMARK minimizedAffinity -3.47475147
REMARK minimizedRMSD -1
REMARK  0 active torsions:
REMARK  status: ('A' for Active; 'I' for Inactive)
ROOT
ATOM      1  C   UNL d   1      -2.311   1.327  -0.619  0.00  0.00     0.077 C 
ATOM      2  C1  UNL d   1      -1.112   0.449  -0.414  0.00  0.00    -0.074 A 
ATOM      3  C2  UNL d   1       0.086   0.973   0.085  0.00  0.00    -0.005 A 
ATOM      4  C3  UNL d   1       1.189   0.142   0.279  0.00  0.00     0.006 A 
ATOM      5  C4  UNL d   1       1.107  -1.218  -0.023  0.00  0.00    -0.005 A 
ATOM      6  C5  UNL d   1      -0.082  -1.759  -0.521  0.00  0.00    -0.074 A 
ATOM      7  C6  UNL d   1      -0.191  -3.220  -0.841  0.00  0.00     0.077 C 
ATOM      8  C7  UNL d   1      -1.189  -0.919  -0.707  0.00  0.00    -0.001 A 
ENDROOT
TORSDOF 0
ENDMDL
