MODEL 1
REMARK minimizedAffinity -1.54385233
REMARK minimizedRMSD -1
REMARK  0 active torsions:
REMARK  status: ('A' for Active; 'I' for Inactive)
ROOT
ATOM      1  C   UNL d   1      -4.682   0.062   1.213  0.00  0.00     0.077 C 
ATOM      2  C1  UNL d   1      -3.434   0.574   0.557  0.00  0.00    -0.074 A 
ATOM      3  C2  UNL d   1      -3.217   1.946   0.399  0.00  0.00    -0.005 A 
ATOM      4  C3  UNL d   1      -2.047   2.408  -0.205  0.00  0.00     0.006 A 
ATOM      5  C4  UNL d   1      -1.085   1.503  -0.656  0.00  0.00    -0.005 A 
ATOM      6  C5  UNL d   1      -1.285   0.127  -0.506  0.00  0.00    -0.074 A 
ATOM      7  C6  UNL d   1      -0.257  -0.858  -0.977  0.00  0.00     0.077 C 
ATOM      8  C7  UNL d   1      -2.460  -0.329   0.108  0.00  0.00    -0.001 A 
ENDROOT
TORSDOF 0
ENDMDL
