MODEL 1
REMARK minimizedAffinity -2.76162291
REMARK minimizedRMSD -1
REMARK  0 active torsions:
REMARK  status: ('A' for Active; 'I' for Inactive)
ROOT
ATOM      1  C   UNL d   1       0.012  -3.846  -0.274  0.00  0.00     0.077 C 
ATOM      2  C1  UNL d   1       0.454  -2.412  -0.263  0.00  0.00    -0.074 A 
ATOM      3  C2  UNL d   1       1.809  -2.077  -0.338  0.00  0.00    -0.005 A 
ATOM      4  C3  UNL d   1       2.204  -0.739  -0.336  0.00  0.00     0.006 A 
ATOM      5  C4  UNL d   1       1.249   0.275  -0.261  0.00  0.00    -0.005 A 
ATOM      6  C5  UNL d   1      -0.111  -0.041  -0.187  0.00  0.00    -0.074 A 
ATOM      7  C6  UNL d   1      -1.152   1.037  -0.115  0.00  0.00     0.077 C 
ATOM      8  C7  UNL d   1      -0.501  -1.388  -0.195  0.00  0.00    -0.001 A 
ENDROOT
TORSDOF 0
ENDMDL
