MODEL 1
REMARK minimizedAffinity -5.32095766
REMARK minimizedRMSD -1
REMARK  0 active torsions:
REMARK  status: ('A' for Active; 'I' for Inactive)
ROOT
ATOM      1  C   UNL d   1       1.104   2.076   1.121  0.00  0.00     0.077 C 
ATOM      2  C1  UNL d   1       1.406   0.699   0.610  0.00  0.00    -0.074 A 
ATOM      3  C2  UNL d   1       2.588   0.043   0.967  0.00  0.00    -0.005 A 
ATOM      4  C3  UNL d   1       2.850  -1.242   0.491  0.00  0.00     0.006 A 
ATOM      5  C4  UNL d   1       1.935  -1.882  -0.345  0.00  0.00    -0.005 A 
ATOM      6  C5  UNL d   1       0.747  -1.242  -0.712  0.00  0.00    -0.074 A 
ATOM      7  C6  UNL d   1      -0.252  -1.919  -1.602  0.00  0.00     0.077 C 
ATOM      8  C7  UNL d   1       0.487   0.046  -0.224  0.00  0.00    -0.001 A 
ENDROOT
TORSDOF 0
ENDMDL
