MODEL 1
REMARK minimizedAffinity -3.64666367
REMARK minimizedRMSD -1
REMARK  0 active torsions:
REMARK  status: ('A' for Active; 'I' for Inactive)
ROOT
ATOM      1  C   UNL d   1       1.890   1.586   0.389  0.00  0.00     0.077 C 
ATOM      2  C1  UNL d   1       0.563   0.939   0.127  0.00  0.00    -0.074 A 
ATOM      3  C2  UNL d   1       0.432  -0.454   0.117  0.00  0.00    -0.005 A 
ATOM      4  C3  UNL d   1      -0.811  -1.041  -0.119  0.00  0.00     0.006 A 
ATOM      5  C4  UNL d   1      -1.933  -0.244  -0.348  0.00  0.00    -0.005 A 
ATOM      6  C5  UNL d   1      -1.821   1.150  -0.342  0.00  0.00    -0.074 A 
ATOM      7  C6  UNL d   1      -3.019   2.021  -0.576  0.00  0.00     0.077 C 
ATOM      8  C7  UNL d   1      -0.571   1.733  -0.097  0.00  0.00    -0.001 A 
ENDROOT
TORSDOF 0
ENDMDL
