MODEL 1
REMARK minimizedAffinity -1.10187316
REMARK minimizedRMSD -1
REMARK  0 active torsions:
REMARK  status: ('A' for Active; 'I' for Inactive)
ROOT
ATOM      1  C   UNL d   1       1.827  -2.985  -0.732  0.00  0.00     0.077 C 
ATOM      2  C1  UNL d   1       1.238  -1.635  -0.450  0.00  0.00    -0.074 A 
ATOM      3  C2  UNL d   1       1.999  -0.633   0.161  0.00  0.00    -0.005 A 
ATOM      4  C3  UNL d   1       1.441   0.621   0.408  0.00  0.00     0.006 A 
ATOM      5  C4  UNL d   1       0.119   0.885   0.048  0.00  0.00    -0.005 A 
ATOM      6  C5  UNL d   1      -0.657  -0.104  -0.564  0.00  0.00    -0.074 A 
ATOM      7  C6  UNL d   1      -2.076   0.166  -0.966  0.00  0.00     0.077 C 
ATOM      8  C7  UNL d   1      -0.087  -1.360  -0.816  0.00  0.00    -0.001 A 
ENDROOT
TORSDOF 0
ENDMDL
