MODEL 1
REMARK minimizedAffinity -2.58561683
REMARK minimizedRMSD -1
REMARK  0 active torsions:
REMARK  status: ('A' for Active; 'I' for Inactive)
ROOT
ATOM      1  C   UNL d   1       1.870   0.679   2.432  0.00  0.00     0.077 C 
ATOM      2  C1  UNL d   1       1.098   0.727   1.147  0.00  0.00    -0.074 A 
ATOM      3  C2  UNL d   1       0.646   1.944   0.625  0.00  0.00    -0.005 A 
ATOM      4  C3  UNL d   1      -0.062   1.974  -0.576  0.00  0.00     0.006 A 
ATOM      5  C4  UNL d   1      -0.326   0.791  -1.267  0.00  0.00    -0.005 A 
ATOM      6  C5  UNL d   1       0.119  -0.435  -0.761  0.00  0.00    -0.074 A 
ATOM      7  C6  UNL d   1      -0.147  -1.715  -1.496  0.00  0.00     0.077 C 
ATOM      8  C7  UNL d   1       0.836  -0.457   0.443  0.00  0.00    -0.001 A 
ENDROOT
TORSDOF 0
ENDMDL
