MODEL 1
REMARK minimizedAffinity 14.4244576
REMARK minimizedRMSD -1
REMARK  0 active torsions:
REMARK  status: ('A' for Active; 'I' for Inactive)
ROOT
ATOM      1  C   UNL d   1       4.379   1.422   5.852  0.00  0.00    -0.002 A 
ATOM      2  C1  UNL d   1       5.648   1.978   5.772  0.00  0.00     0.010 A 
ATOM      3  C2  UNL d   1       5.817   3.364   5.768  0.00  0.00     0.041 A 
ATOM      4  C3  UNL d   1       4.678   4.189   5.848  0.00  0.00    -0.075 A 
ATOM      5  S   UNL d   1       4.643   5.913   5.860  0.00  0.00     0.015 SA
ATOM      6  C4  UNL d   1       2.942   5.952   5.971  0.00  0.00     0.022 A 
ATOM      7  C5  UNL d   1       2.399   4.690   5.999  0.00  0.00     0.026 A 
ATOM      8  C6  UNL d   1       3.390   3.653   5.929  0.00  0.00    -0.082 A 
ATOM      9  C7  UNL d   1       3.252   2.244   5.930  0.00  0.00     0.045 A 
ENDROOT
TORSDOF 0
ENDMDL
