MODEL 1
REMARK minimizedAffinity 10.5885763
REMARK minimizedRMSD -1
REMARK  0 active torsions:
REMARK  status: ('A' for Active; 'I' for Inactive)
ROOT
ATOM      1  C   UNL d   1       3.663   4.799   6.000  0.00  0.00    -0.002 A 
ATOM      2  C1  UNL d   1       5.004   4.440   6.000  0.00  0.00     0.010 A 
ATOM      3  C2  UNL d   1       5.558   3.765   4.911  0.00  0.00     0.041 A 
ATOM      4  C3  UNL d   1       4.736   3.456   3.810  0.00  0.00    -0.075 A 
ATOM      5  S   UNL d   1       5.197   2.635   2.365  0.00  0.00     0.015 SA
ATOM      6  C4  UNL d   1       3.626   2.743   1.714  0.00  0.00     0.022 A 
ATOM      7  C5  UNL d   1       2.758   3.386   2.564  0.00  0.00     0.026 A 
ATOM      8  C6  UNL d   1       3.383   3.808   3.786  0.00  0.00    -0.082 A 
ATOM      9  C7  UNL d   1       2.850   4.490   4.906  0.00  0.00     0.045 A 
ENDROOT
TORSDOF 0
ENDMDL
