MODEL 1
REMARK minimizedAffinity 5.68219948
REMARK minimizedRMSD -1
REMARK  0 active torsions:
REMARK  status: ('A' for Active; 'I' for Inactive)
ROOT
ATOM      1  C   UNL d   1       3.013   2.566  -0.502  0.00  0.00    -0.002 A 
ATOM      2  C1  UNL d   1       4.222   3.230  -0.656  0.00  0.00     0.010 A 
ATOM      3  C2  UNL d   1       4.908   3.723   0.456  0.00  0.00     0.041 A 
ATOM      4  C3  UNL d   1       4.354   3.534   1.737  0.00  0.00    -0.075 A 
ATOM      5  S   UNL d   1       5.018   4.050   3.243  0.00  0.00     0.015 SA
ATOM      6  C4  UNL d   1       3.713   3.400   4.126  0.00  0.00     0.022 A 
ATOM      7  C5  UNL d   1       2.784   2.801   3.308  0.00  0.00     0.026 A 
ATOM      8  C6  UNL d   1       3.139   2.867   1.918  0.00  0.00    -0.082 A 
ATOM      9  C7  UNL d   1       2.467   2.380   0.771  0.00  0.00     0.045 A 
ENDROOT
TORSDOF 0
ENDMDL
