MODEL 1
REMARK minimizedAffinity 20.0096436
REMARK minimizedRMSD -1
REMARK  0 active torsions:
REMARK  status: ('A' for Active; 'I' for Inactive)
ROOT
ATOM      1  C   UNL d   1      -1.104  -2.598  -0.030  0.00  0.00    -0.002 A 
ATOM      2  C1  UNL d   1      -0.692  -2.667  -1.353  0.00  0.00     0.010 A 
ATOM      3  C2  UNL d   1      -1.264  -1.837  -2.320  0.00  0.00     0.041 A 
ATOM      4  C3  UNL d   1      -2.265  -0.926  -1.930  0.00  0.00    -0.075 A 
ATOM      5  S   UNL d   1      -3.106   0.189  -2.940  0.00  0.00     0.015 SA
ATOM      6  C4  UNL d   1      -4.032   0.785  -1.639  0.00  0.00     0.022 A 
ATOM      7  C5  UNL d   1      -3.720   0.159  -0.455  0.00  0.00     0.026 A 
ATOM      8  C6  UNL d   1      -2.696  -0.837  -0.603  0.00  0.00    -0.082 A 
ATOM      9  C7  UNL d   1      -2.098  -1.693   0.353  0.00  0.00     0.045 A 
ENDROOT
TORSDOF 0
ENDMDL
