MODEL 1
REMARK minimizedAffinity 22.386034
REMARK minimizedRMSD -1
REMARK  0 active torsions:
REMARK  status: ('A' for Active; 'I' for Inactive)
ROOT
ATOM      1  C   UNL d   1       4.809   1.528  -3.392  0.00  0.00    -0.002 A 
ATOM      2  C1  UNL d   1       5.981   2.111  -2.933  0.00  0.00     0.010 A 
ATOM      3  C2  UNL d   1       5.998   2.819  -1.729  0.00  0.00     0.041 A 
ATOM      4  C3  UNL d   1       4.806   2.931  -0.988  0.00  0.00    -0.075 A 
ATOM      5  S   UNL d   1       4.588   3.749   0.514  0.00  0.00     0.015 SA
ATOM      6  C4  UNL d   1       2.935   3.343   0.582  0.00  0.00     0.022 A 
ATOM      7  C5  UNL d   1       2.541   2.601  -0.507  0.00  0.00     0.026 A 
ATOM      8  C6  UNL d   1       3.613   2.351  -1.429  0.00  0.00    -0.082 A 
ATOM      9  C7  UNL d   1       3.628   1.641  -2.654  0.00  0.00     0.045 A 
ENDROOT
TORSDOF 0
ENDMDL
