MODEL 1
REMARK minimizedAffinity 16.917532
REMARK minimizedRMSD -1
REMARK  0 active torsions:
REMARK  status: ('A' for Active; 'I' for Inactive)
ROOT
ATOM      1  C   UNL d   1       0.944  -0.317  -1.521  0.00  0.00    -0.002 A 
ATOM      2  C1  UNL d   1       2.101  -0.844  -2.078  0.00  0.00     0.010 A 
ATOM      3  C2  UNL d   1       3.327  -0.197  -1.911  0.00  0.00     0.041 A 
ATOM      4  C3  UNL d   1       3.372   0.998  -1.166  0.00  0.00    -0.075 A 
ATOM      5  S   UNL d   1       4.761   1.962  -0.829  0.00  0.00     0.015 SA
ATOM      6  C4  UNL d   1       3.852   3.094   0.062  0.00  0.00     0.022 A 
ATOM      7  C5  UNL d   1       2.519   2.761   0.112  0.00  0.00     0.026 A 
ATOM      8  C6  UNL d   1       2.220   1.547  -0.594  0.00  0.00    -0.082 A 
ATOM      9  C7  UNL d   1       0.992   0.868  -0.783  0.00  0.00     0.045 A 
ENDROOT
TORSDOF 0
ENDMDL
