MODEL 1
REMARK minimizedAffinity 14.716856
REMARK minimizedRMSD -1
REMARK  0 active torsions:
REMARK  status: ('A' for Active; 'I' for Inactive)
ROOT
ATOM      1  C   UNL d   1      -2.242  -1.878   1.412  0.00  0.00    -0.002 A 
ATOM      2  C1  UNL d   1      -1.246  -2.809   1.154  0.00  0.00     0.010 A 
ATOM      3  C2  UNL d   1      -0.654  -2.884  -0.109  0.00  0.00     0.041 A 
ATOM      4  C3  UNL d   1      -1.082  -1.997  -1.116  0.00  0.00    -0.075 A 
ATOM      5  S   UNL d   1      -0.500  -1.904  -2.736  0.00  0.00     0.015 SA
ATOM      6  C4  UNL d   1      -1.559  -0.625  -3.122  0.00  0.00     0.022 A 
ATOM      7  C5  UNL d   1      -2.345  -0.266  -2.053  0.00  0.00     0.026 A 
ATOM      8  C6  UNL d   1      -2.083  -1.050  -0.879  0.00  0.00    -0.082 A 
ATOM      9  C7  UNL d   1      -2.665  -1.000   0.411  0.00  0.00     0.045 A 
ENDROOT
TORSDOF 0
ENDMDL
