MODEL 1
REMARK minimizedAffinity 22.2001209
REMARK minimizedRMSD -1
REMARK  0 active torsions:
REMARK  status: ('A' for Active; 'I' for Inactive)
ROOT
ATOM      1  C   UNL d   1      -0.400  -2.021   1.185  0.00  0.00    -0.002 A 
ATOM      2  C1  UNL d   1      -1.698  -2.015   0.693  0.00  0.00     0.010 A 
ATOM      3  C2  UNL d   1      -2.787  -2.124   1.560  0.00  0.00     0.041 A 
ATOM      4  C3  UNL d   1      -2.548  -2.237   2.943  0.00  0.00    -0.075 A 
ATOM      5  S   UNL d   1      -3.726  -2.381   4.194  0.00  0.00     0.015 SA
ATOM      6  C4  UNL d   1      -2.535  -2.453   5.411  0.00  0.00     0.022 A 
ATOM      7  C5  UNL d   1      -1.264  -2.371   4.894  0.00  0.00     0.026 A 
ATOM      8  C6  UNL d   1      -1.250  -2.245   3.463  0.00  0.00    -0.082 A 
ATOM      9  C7  UNL d   1      -0.167  -2.134   2.558  0.00  0.00     0.045 A 
ENDROOT
TORSDOF 0
ENDMDL
