MODEL 1
REMARK minimizedAffinity 13.4286251
REMARK minimizedRMSD -1
REMARK  0 active torsions:
REMARK  status: ('A' for Active; 'I' for Inactive)
ROOT
ATOM      1  C   UNL d   1       4.425   1.482   5.561  0.00  0.00    -0.002 A 
ATOM      2  C1  UNL d   1       5.691   2.048   5.615  0.00  0.00     0.010 A 
ATOM      3  C2  UNL d   1       5.847   3.433   5.698  0.00  0.00     0.041 A 
ATOM      4  C3  UNL d   1       4.698   4.248   5.729  0.00  0.00    -0.075 A 
ATOM      5  S   UNL d   1       4.646   5.968   5.830  0.00  0.00     0.015 SA
ATOM      6  C4  UNL d   1       2.942   5.992   5.805  0.00  0.00     0.022 A 
ATOM      7  C5  UNL d   1       2.409   4.728   5.722  0.00  0.00     0.026 A 
ATOM      8  C6  UNL d   1       3.412   3.701   5.678  0.00  0.00    -0.082 A 
ATOM      9  C7  UNL d   1       3.288   2.294   5.592  0.00  0.00     0.045 A 
ENDROOT
TORSDOF 0
ENDMDL
