MODEL 1
REMARK minimizedAffinity 8.56454754
REMARK minimizedRMSD -1
REMARK  0 active torsions:
REMARK  status: ('A' for Active; 'I' for Inactive)
ROOT
ATOM      1  C   UNL d   1       4.012   5.998   5.998  0.00  0.00    -0.002 A 
ATOM      2  C1  UNL d   1       5.359   5.663   5.996  0.00  0.00     0.010 A 
ATOM      3  C2  UNL d   1       5.758   4.326   5.997  0.00  0.00     0.041 A 
ATOM      4  C3  UNL d   1       4.772   3.320   5.997  0.00  0.00    -0.075 A 
ATOM      5  S   UNL d   1       5.026   1.615   5.998  0.00  0.00     0.015 SA
ATOM      6  C4  UNL d   1       3.353   1.290   5.998  0.00  0.00     0.022 A 
ATOM      7  C5  UNL d   1       2.604   2.443   5.999  0.00  0.00     0.026 A 
ATOM      8  C6  UNL d   1       3.409   3.632   5.998  0.00  0.00    -0.082 A 
ATOM      9  C7  UNL d   1       3.036   4.997   5.998  0.00  0.00     0.045 A 
ENDROOT
TORSDOF 0
ENDMDL
