MODEL 1
REMARK minimizedAffinity 11.3398705
REMARK minimizedRMSD -1
REMARK  0 active torsions:
REMARK  status: ('A' for Active; 'I' for Inactive)
ROOT
ATOM      1  C   UNL d   1       3.895   6.000   5.994  0.00  0.00    -0.002 A 
ATOM      2  C1  UNL d   1       5.283   5.964   5.983  0.00  0.00     0.010 A 
ATOM      3  C2  UNL d   1       5.962   4.744   5.973  0.00  0.00     0.041 A 
ATOM      4  C3  UNL d   1       5.217   3.549   5.973  0.00  0.00    -0.075 A 
ATOM      5  S   UNL d   1       5.834   1.939   5.962  0.00  0.00     0.015 SA
ATOM      6  C4  UNL d   1       4.270   1.260   5.970  0.00  0.00     0.022 A 
ATOM      7  C5  UNL d   1       3.290   2.224   5.982  0.00  0.00     0.026 A 
ATOM      8  C6  UNL d   1       3.819   3.559   5.983  0.00  0.00    -0.082 A 
ATOM      9  C7  UNL d   1       3.159   4.812   5.994  0.00  0.00     0.045 A 
ENDROOT
TORSDOF 0
ENDMDL
