MODEL 1
REMARK minimizedAffinity 11.948348
REMARK minimizedRMSD -1
REMARK  0 active torsions:
REMARK  status: ('A' for Active; 'I' for Inactive)
ROOT
ATOM      1  C   UNL d   1       2.481   5.998   5.300  0.00  0.00    -0.002 A 
ATOM      2  C1  UNL d   1       2.135   5.512   4.047  0.00  0.00     0.010 A 
ATOM      3  C2  UNL d   1       2.861   4.471   3.463  0.00  0.00     0.041 A 
ATOM      4  C3  UNL d   1       3.949   3.920   4.168  0.00  0.00    -0.075 A 
ATOM      5  S   UNL d   1       4.980   2.639   3.652  0.00  0.00     0.015 SA
ATOM      6  C4  UNL d   1       5.904   2.705   5.083  0.00  0.00     0.022 A 
ATOM      7  C5  UNL d   1       5.450   3.676   5.944  0.00  0.00     0.026 A 
ATOM      8  C6  UNL d   1       4.316   4.392   5.432  0.00  0.00    -0.082 A 
ATOM      9  C7  UNL d   1       3.561   5.449   5.996  0.00  0.00     0.045 A 
ENDROOT
TORSDOF 0
ENDMDL
