MODEL 1
REMARK minimizedAffinity 17.4657249
REMARK minimizedRMSD -1
REMARK  0 active torsions:
REMARK  status: ('A' for Active; 'I' for Inactive)
ROOT
ATOM      1  C   UNL d   1       4.753   5.844   5.959  0.00  0.00    -0.002 A 
ATOM      2  C1  UNL d   1       3.366   5.791   5.963  0.00  0.00     0.010 A 
ATOM      3  C2  UNL d   1       2.702   4.563   5.973  0.00  0.00     0.041 A 
ATOM      4  C3  UNL d   1       3.462   3.377   5.980  0.00  0.00    -0.075 A 
ATOM      5  S   UNL d   1       2.864   1.760   5.993  0.00  0.00     0.015 SA
ATOM      6  C4  UNL d   1       4.436   1.100   5.994  0.00  0.00     0.022 A 
ATOM      7  C5  UNL d   1       5.405   2.076   5.985  0.00  0.00     0.026 A 
ATOM      8  C6  UNL d   1       4.859   3.404   5.977  0.00  0.00    -0.082 A 
ATOM      9  C7  UNL d   1       5.503   4.665   5.966  0.00  0.00     0.045 A 
ENDROOT
TORSDOF 0
ENDMDL
