MODEL 1
REMARK minimizedAffinity 18.729641
REMARK minimizedRMSD -1
REMARK  0 active torsions:
REMARK  status: ('A' for Active; 'I' for Inactive)
ROOT
ATOM      1  C   UNL d   1       6.000   2.955  -1.510  0.00  0.00    -0.002 A 
ATOM      2  C1  UNL d   1       5.986   1.887  -2.396  0.00  0.00     0.010 A 
ATOM      3  C2  UNL d   1       4.870   1.051  -2.483  0.00  0.00     0.041 A 
ATOM      4  C3  UNL d   1       3.758   1.312  -1.658  0.00  0.00    -0.075 A 
ATOM      5  S   UNL d   1       2.282   0.423  -1.593  0.00  0.00     0.015 SA
ATOM      6  C4  UNL d   1       1.635   1.442  -0.389  0.00  0.00     0.022 A 
ATOM      7  C5  UNL d   1       2.511   2.440  -0.034  0.00  0.00     0.026 A 
ATOM      8  C6  UNL d   1       3.748   2.382  -0.759  0.00  0.00    -0.082 A 
ATOM      9  C7  UNL d   1       4.895   3.210  -0.694  0.00  0.00     0.045 A 
ENDROOT
TORSDOF 0
ENDMDL
