MODEL 1
REMARK minimizedAffinity 4.4277215
REMARK minimizedRMSD -1
REMARK  0 active torsions:
REMARK  status: ('A' for Active; 'I' for Inactive)
ROOT
ATOM      1  C   UNL d   1       0.021   0.415  -2.217  0.00  0.00     0.020 A 
ATOM      2  C1  UNL d   1      -0.480   1.630  -2.684  0.00  0.00     0.020 A 
ATOM      3  C2  UNL d   1      -0.620   2.710  -1.810  0.00  0.00     0.034 A 
ATOM      4  C3  UNL d   1      -0.260   2.578  -0.464  0.00  0.00     0.017 A 
ATOM      5  C4  UNL d   1       0.243   1.358   0.004  0.00  0.00     0.017 A 
ATOM      6  C5  UNL d   1       0.381   0.280  -0.876  0.00  0.00     0.034 A 
ATOM      7 Cl   UNL d   1       0.710   1.118   1.651  0.00  0.00    -0.070 Cl
ATOM      8 Cl1  UNL d   1      -0.459   3.954   0.560  0.00  0.00    -0.070 Cl
ENDROOT
TORSDOF 0
ENDMDL
