MODEL 1
REMARK minimizedAffinity 3.57547188
REMARK minimizedRMSD -1
REMARK  0 active torsions:
REMARK  status: ('A' for Active; 'I' for Inactive)
ROOT
ATOM      1  C   UNL d   1      -0.087   3.278   1.977  0.00  0.00     0.020 A 
ATOM      2  C1  UNL d   1      -1.450   3.176   1.702  0.00  0.00     0.020 A 
ATOM      3  C2  UNL d   1      -2.133   1.993   1.992  0.00  0.00     0.034 A 
ATOM      4  C3  UNL d   1      -1.454   0.908   2.559  0.00  0.00     0.017 A 
ATOM      5  C4  UNL d   1      -0.086   1.012   2.834  0.00  0.00     0.017 A 
ATOM      6  C5  UNL d   1       0.594   2.199   2.542  0.00  0.00     0.034 A 
ATOM      7 Cl   UNL d   1       0.821  -0.284   3.532  0.00  0.00    -0.070 Cl
ATOM      8 Cl1  UNL d   1      -2.362  -0.524   2.891  0.00  0.00    -0.070 Cl
ENDROOT
TORSDOF 0
ENDMDL
