MODEL 1
REMARK minimizedAffinity 5.08965206
REMARK minimizedRMSD -1
REMARK  0 active torsions:
REMARK  status: ('A' for Active; 'I' for Inactive)
ROOT
ATOM      1  C   UNL d   1       0.682   1.844   1.445  0.00  0.00     0.020 A 
ATOM      2  C1  UNL d   1      -0.532   2.058   2.098  0.00  0.00     0.020 A 
ATOM      3  C2  UNL d   1      -0.888   1.260   3.187  0.00  0.00     0.034 A 
ATOM      4  C3  UNL d   1      -0.031   0.245   3.627  0.00  0.00     0.017 A 
ATOM      5  C4  UNL d   1       1.187   0.031   2.971  0.00  0.00     0.017 A 
ATOM      6  C5  UNL d   1       1.539   0.833   1.881  0.00  0.00     0.034 A 
ATOM      7 Cl   UNL d   1       2.296  -1.202   3.455  0.00  0.00    -0.070 Cl
ATOM      8 Cl1  UNL d   1      -0.536  -0.703   4.980  0.00  0.00    -0.070 Cl
ENDROOT
TORSDOF 0
ENDMDL
