MODEL 1
REMARK minimizedAffinity 7.70179415
REMARK minimizedRMSD -1
REMARK  0 active torsions:
REMARK  status: ('A' for Active; 'I' for Inactive)
ROOT
ATOM      1  C   UNL d   1      -3.661   3.811  -2.478  0.00  0.00     0.020 A 
ATOM      2  C1  UNL d   1      -4.720   3.018  -2.039  0.00  0.00     0.020 A 
ATOM      3  C2  UNL d   1      -4.484   1.706  -1.621  0.00  0.00     0.034 A 
ATOM      4  C3  UNL d   1      -3.186   1.184  -1.642  0.00  0.00     0.017 A 
ATOM      5  C4  UNL d   1      -2.123   1.981  -2.083  0.00  0.00     0.017 A 
ATOM      6  C5  UNL d   1      -2.365   3.293  -2.500  0.00  0.00     0.034 A 
ATOM      7 Cl   UNL d   1      -0.494   1.406  -2.136  0.00  0.00    -0.070 Cl
ATOM      8 Cl1  UNL d   1      -2.967  -0.446  -1.111  0.00  0.00    -0.070 Cl
ENDROOT
TORSDOF 0
ENDMDL
