MODEL 1
REMARK minimizedAffinity 8.83242416
REMARK minimizedRMSD -1
REMARK  0 active torsions:
REMARK  status: ('A' for Active; 'I' for Inactive)
ROOT
ATOM      1  C   UNL d   1      -0.927   2.273   3.076  0.00  0.00     0.020 A 
ATOM      2  C1  UNL d   1      -0.373   2.795   1.909  0.00  0.00     0.020 A 
ATOM      3  C2  UNL d   1       0.667   2.119   1.266  0.00  0.00     0.034 A 
ATOM      4  C3  UNL d   1       1.154   0.917   1.790  0.00  0.00     0.017 A 
ATOM      5  C4  UNL d   1       0.596   0.393   2.962  0.00  0.00     0.017 A 
ATOM      6  C5  UNL d   1      -0.444   1.074   3.602  0.00  0.00     0.034 A 
ATOM      7 Cl   UNL d   1       1.145  -1.086   3.669  0.00  0.00    -0.070 Cl
ATOM      8 Cl1  UNL d   1       2.441   0.134   0.943  0.00  0.00    -0.070 Cl
ENDROOT
TORSDOF 0
ENDMDL
