MODEL 1
REMARK minimizedAffinity 1.71494126
REMARK minimizedRMSD -1
REMARK  0 active torsions:
REMARK  status: ('A' for Active; 'I' for Inactive)
ROOT
ATOM      1  C   UNL d   1       0.550   0.586  -2.117  0.00  0.00     0.020 A 
ATOM      2  C1  UNL d   1      -0.426   1.498  -1.718  0.00  0.00     0.020 A 
ATOM      3  C2  UNL d   1      -1.709   1.052  -1.394  0.00  0.00     0.034 A 
ATOM      4  C3  UNL d   1      -2.020  -0.311  -1.467  0.00  0.00     0.017 A 
ATOM      5  C4  UNL d   1      -1.039  -1.226  -1.868  0.00  0.00     0.017 A 
ATOM      6  C5  UNL d   1       0.243  -0.774  -2.191  0.00  0.00     0.034 A 
ATOM      7 Cl   UNL d   1      -1.348  -2.923  -1.982  0.00  0.00    -0.070 Cl
ATOM      8 Cl1  UNL d   1      -3.626  -0.792  -1.051  0.00  0.00    -0.070 Cl
ENDROOT
TORSDOF 0
ENDMDL
