MODEL 1
REMARK minimizedAffinity 7.04483318
REMARK minimizedRMSD -1
REMARK  0 active torsions:
REMARK  status: ('A' for Active; 'I' for Inactive)
ROOT
ATOM      1  C   UNL d   1       0.120   0.798  -2.665  0.00  0.00     0.020 A 
ATOM      2  C1  UNL d   1      -0.524   1.541  -1.676  0.00  0.00     0.020 A 
ATOM      3  C2  UNL d   1      -1.714   1.072  -1.116  0.00  0.00     0.034 A 
ATOM      4  C3  UNL d   1      -2.263  -0.143  -1.543  0.00  0.00     0.017 A 
ATOM      5  C4  UNL d   1      -1.616  -0.887  -2.536  0.00  0.00     0.017 A 
ATOM      6  C5  UNL d   1      -0.424  -0.413  -3.094  0.00  0.00     0.034 A 
ATOM      7 Cl   UNL d   1      -2.232  -2.394  -3.115  0.00  0.00    -0.070 Cl
ATOM      8 Cl1  UNL d   1      -3.737  -0.662  -0.806  0.00  0.00    -0.070 Cl
ENDROOT
TORSDOF 0
ENDMDL
