MODEL 1
REMARK minimizedAffinity 5.7724843
REMARK minimizedRMSD -1
REMARK  0 active torsions:
REMARK  status: ('A' for Active; 'I' for Inactive)
ROOT
ATOM      1  C   UNL d   1      -0.398   1.012   1.754  0.00  0.00     0.020 A 
ATOM      2  C1  UNL d   1      -1.000   1.751   2.772  0.00  0.00     0.020 A 
ATOM      3  C2  UNL d   1      -1.755   2.883   2.459  0.00  0.00     0.034 A 
ATOM      4  C3  UNL d   1      -1.910   3.280   1.126  0.00  0.00     0.017 A 
ATOM      5  C4  UNL d   1      -1.305   2.537   0.106  0.00  0.00     0.017 A 
ATOM      6  C5  UNL d   1      -0.550   1.404   0.424  0.00  0.00     0.034 A 
ATOM      7 Cl   UNL d   1      -1.452   2.965  -1.563  0.00  0.00    -0.070 Cl
ATOM      8 Cl1  UNL d   1      -2.857   4.690   0.813  0.00  0.00    -0.070 Cl
ENDROOT
TORSDOF 0
ENDMDL
