MODEL 1
REMARK minimizedAffinity 5.01730537
REMARK minimizedRMSD -1
REMARK  0 active torsions:
REMARK  status: ('A' for Active; 'I' for Inactive)
ROOT
ATOM      1  C   UNL d   1      -3.785  -0.175  -2.371  0.00  0.00     0.020 A 
ATOM      2  C1  UNL d   1      -3.156   0.456  -1.298  0.00  0.00     0.020 A 
ATOM      3  C2  UNL d   1      -1.762   0.522  -1.248  0.00  0.00     0.034 A 
ATOM      4  C3  UNL d   1      -0.993  -0.043  -2.271  0.00  0.00     0.017 A 
ATOM      5  C4  UNL d   1      -1.625  -0.675  -3.348  0.00  0.00     0.017 A 
ATOM      6  C5  UNL d   1      -3.021  -0.738  -3.394  0.00  0.00     0.034 A 
ATOM      7 Cl   UNL d   1      -0.743  -1.395  -4.648  0.00  0.00    -0.070 Cl
ATOM      8 Cl1  UNL d   1       0.726   0.077  -2.144  0.00  0.00    -0.070 Cl
ENDROOT
TORSDOF 0
ENDMDL
