MODEL 1
REMARK minimizedAffinity 3.92206669
REMARK minimizedRMSD -1
REMARK  0 active torsions:
REMARK  status: ('A' for Active; 'I' for Inactive)
ROOT
ATOM      1  C   UNL d   1       5.668  -5.823  -1.698  0.00  0.00     0.020 A 
ATOM      2  C1  UNL d   1       6.000  -4.893  -0.713  0.00  0.00     0.020 A 
ATOM      3  C2  UNL d   1       5.305  -3.685  -0.631  0.00  0.00     0.034 A 
ATOM      4  C3  UNL d   1       4.275  -3.402  -1.536  0.00  0.00     0.017 A 
ATOM      5  C4  UNL d   1       3.943  -4.336  -2.524  0.00  0.00     0.017 A 
ATOM      6  C5  UNL d   1       4.642  -5.545  -2.601  0.00  0.00     0.034 A 
ATOM      7 Cl   UNL d   1       2.684  -4.059  -3.675  0.00  0.00    -0.070 Cl
ATOM      8 Cl1  UNL d   1       3.458  -1.888  -1.376  0.00  0.00    -0.070 Cl
ENDROOT
TORSDOF 0
ENDMDL
