MODEL 1
REMARK minimizedAffinity 6.93554831
REMARK minimizedRMSD -1
REMARK  0 active torsions:
REMARK  status: ('A' for Active; 'I' for Inactive)
ROOT
ATOM      1  C   UNL d   1       1.216   3.018   2.537  0.00  0.00     0.020 A 
ATOM      2  C1  UNL d   1       0.976   3.562   1.276  0.00  0.00     0.020 A 
ATOM      3  C2  UNL d   1       0.590   2.734   0.220  0.00  0.00     0.034 A 
ATOM      4  C3  UNL d   1       0.443   1.357   0.423  0.00  0.00     0.017 A 
ATOM      5  C4  UNL d   1       0.685   0.811   1.689  0.00  0.00     0.017 A 
ATOM      6  C5  UNL d   1       1.070   1.645   2.743  0.00  0.00     0.034 A 
ATOM      7 Cl   UNL d   1       0.524  -0.878   2.016  0.00  0.00    -0.070 Cl
ATOM      8 Cl1  UNL d   1      -0.036   0.393  -0.928  0.00  0.00    -0.070 Cl
ENDROOT
TORSDOF 0
ENDMDL
