MODEL 1
REMARK minimizedAffinity 1.97484124
REMARK minimizedRMSD -1
REMARK  0 active torsions:
REMARK  status: ('A' for Active; 'I' for Inactive)
ROOT
ATOM      1  C   UNL d   1       0.331  -0.145  -0.241  0.00  0.00     0.020 A 
ATOM      2  C1  UNL d   1       0.386   1.230  -0.465  0.00  0.00     0.020 A 
ATOM      3  C2  UNL d   1       0.775   2.091   0.564  0.00  0.00     0.034 A 
ATOM      4  C3  UNL d   1       1.110   1.577   1.822  0.00  0.00     0.017 A 
ATOM      5  C4  UNL d   1       1.054   0.197   2.046  0.00  0.00     0.017 A 
ATOM      6  C5  UNL d   1       0.665  -0.660   1.012  0.00  0.00     0.034 A 
ATOM      7 Cl   UNL d   1       1.453  -0.512   3.572  0.00  0.00    -0.070 Cl
ATOM      8 Cl1  UNL d   1       1.582   2.699   3.048  0.00  0.00    -0.070 Cl
ENDROOT
TORSDOF 0
ENDMDL
