MODEL 1
REMARK minimizedAffinity -2.47801375
REMARK minimizedRMSD -1
REMARK  0 active torsions:
REMARK  status: ('A' for Active; 'I' for Inactive)
ROOT
ATOM      1  C   UNL d   1       0.640   3.389   0.792  0.00  0.00     0.020 A 
ATOM      2  C1  UNL d   1       0.637   2.705   2.007  0.00  0.00     0.020 A 
ATOM      3  C2  UNL d   1       0.611   1.309   2.022  0.00  0.00     0.034 A 
ATOM      4  C3  UNL d   1       0.589   0.592   0.820  0.00  0.00     0.017 A 
ATOM      5  C4  UNL d   1       0.592   1.279  -0.399  0.00  0.00     0.017 A 
ATOM      6  C5  UNL d   1       0.618   2.677  -0.408  0.00  0.00     0.034 A 
ATOM      7 Cl   UNL d   1       0.566   0.464  -1.923  0.00  0.00    -0.070 Cl
ATOM      8 Cl1  UNL d   1       0.559  -1.133   0.914  0.00  0.00    -0.070 Cl
ENDROOT
TORSDOF 0
ENDMDL
