MODEL 1
REMARK minimizedAffinity -4.07668447
REMARK minimizedRMSD -1
REMARK  1 active torsions:
REMARK  status: ('A' for Active; 'I' for Inactive)
REMARK    1  A    between atoms: C1_2  and  C2_3 
ROOT
ATOM      1  C2  UNL d   1      -0.597   0.151   1.032  0.00  0.00    -0.081 A 
ATOM      2  C3  UNL d   1      -0.007   0.478  -0.194  0.00  0.00     0.006 A 
ATOM      3  C4  UNL d   1       1.239   1.107  -0.235  0.00  0.00     0.002 A 
ATOM      4  C5  UNL d   1       1.920   1.413   0.948  0.00  0.00    -0.080 A 
ATOM      5  C6  UNL d   1       3.272   2.061   0.918  0.00  0.00     0.076 C 
ATOM      6  C7  UNL d   1       1.322   1.102   2.175  0.00  0.00     0.002 A 
ATOM      7  C8  UNL d   1       0.076   0.473   2.216  0.00  0.00     0.006 A 
ENDROOT
BRANCH   1   8
ATOM      8  C1  UNL d   1      -1.911  -0.586   1.079  0.00  0.00     0.054 C 
ATOM      9  C   UNL d   1      -2.980   0.138   0.272  0.00  0.00     0.018 C 
ENDBRANCH   1   8
TORSDOF 1
ENDMDL
