MODEL 1
REMARK minimizedAffinity -2.23173857
REMARK minimizedRMSD -1
REMARK  1 active torsions:
REMARK  status: ('A' for Active; 'I' for Inactive)
REMARK    1  A    between atoms: C1_2  and  C2_3 
ROOT
ATOM      1  C2  UNL d   1      -0.388   0.180  -0.385  0.00  0.00    -0.081 A 
ATOM      2  C3  UNL d   1       0.601   0.506   0.550  0.00  0.00     0.006 A 
ATOM      3  C4  UNL d   1       0.441   0.169   1.896  0.00  0.00     0.002 A 
ATOM      4  C5  UNL d   1      -0.706  -0.506   2.328  0.00  0.00    -0.080 A 
ATOM      5  C6  UNL d   1      -0.876  -0.901   3.765  0.00  0.00     0.076 C 
ATOM      6  C7  UNL d   1      -1.702  -0.816   1.396  0.00  0.00     0.002 A 
ATOM      7  C8  UNL d   1      -1.543  -0.479   0.050  0.00  0.00     0.006 A 
ENDROOT
BRANCH   1   8
ATOM      8  C1  UNL d   1      -0.190   0.485  -1.848  0.00  0.00     0.054 C 
ATOM      9  C   UNL d   1       0.571  -0.631  -2.548  0.00  0.00     0.018 C 
ENDBRANCH   1   8
TORSDOF 1
ENDMDL
