MODEL 1
REMARK minimizedAffinity -5.47269821
REMARK minimizedRMSD -1
REMARK  1 active torsions:
REMARK  status: ('A' for Active; 'I' for Inactive)
REMARK    1  A    between atoms: C1_2  and  C2_3 
ROOT
ATOM      1  C2  UNL d   1      -0.165   0.312  -0.526  0.00  0.00    -0.081 A 
ATOM      2  C3  UNL d   1       0.648   0.270   0.613  0.00  0.00     0.006 A 
ATOM      3  C4  UNL d   1       0.095   0.005   1.869  0.00  0.00     0.002 A 
ATOM      4  C5  UNL d   1      -1.278  -0.229   2.004  0.00  0.00    -0.080 A 
ATOM      5  C6  UNL d   1      -1.880  -0.544   3.342  0.00  0.00     0.076 C 
ATOM      6  C7  UNL d   1      -2.093  -0.169   0.869  0.00  0.00     0.002 A 
ATOM      7  C8  UNL d   1      -1.541   0.096  -0.386  0.00  0.00     0.006 A 
ENDROOT
BRANCH   1   8
ATOM      8  C1  UNL d   1       0.437   0.533  -1.890  0.00  0.00     0.054 C 
ATOM      9  C   UNL d   1       0.660  -0.785  -2.616  0.00  0.00     0.018 C 
ENDBRANCH   1   8
TORSDOF 1
ENDMDL
