MODEL 1
REMARK minimizedAffinity -4.0628233
REMARK minimizedRMSD -1
REMARK  1 active torsions:
REMARK  status: ('A' for Active; 'I' for Inactive)
REMARK    1  A    between atoms: C1_2  and  C2_3 
ROOT
ATOM      1  C2  UNL d   1       0.140   0.343  -0.596  0.00  0.00    -0.081 A 
ATOM      2  C3  UNL d   1       1.165   0.509   0.343  0.00  0.00     0.006 A 
ATOM      3  C4  UNL d   1       0.891   0.434   1.711  0.00  0.00     0.002 A 
ATOM      4  C5  UNL d   1      -0.410   0.184   2.162  0.00  0.00    -0.080 A 
ATOM      5  C6  UNL d   1      -0.713   0.071   3.626  0.00  0.00     0.076 C 
ATOM      6  C7  UNL d   1      -1.437   0.036   1.223  0.00  0.00     0.002 A 
ATOM      7  C8  UNL d   1      -1.164   0.112  -0.144  0.00  0.00     0.006 A 
ENDROOT
BRANCH   1   8
ATOM      8  C1  UNL d   1       0.444   0.359  -2.073  0.00  0.00     0.054 C 
ATOM      9  C   UNL d   1       0.539  -1.052  -2.633  0.00  0.00     0.018 C 
ENDBRANCH   1   8
TORSDOF 1
ENDMDL
