MODEL 1
REMARK minimizedAffinity -5.66892576
REMARK minimizedRMSD -1
REMARK  1 active torsions:
REMARK  status: ('A' for Active; 'I' for Inactive)
REMARK    1  A    between atoms: C1_2  and  C2_3 
ROOT
ATOM      1  C2  UNL d   1       0.093  -0.313  -0.817  0.00  0.00    -0.081 A 
ATOM      2  C3  UNL d   1      -1.148   0.235  -0.469  0.00  0.00     0.006 A 
ATOM      3  C4  UNL d   1      -1.649   0.087   0.827  0.00  0.00     0.002 A 
ATOM      4  C5  UNL d   1      -0.914  -0.603   1.797  0.00  0.00    -0.080 A 
ATOM      5  C6  UNL d   1      -1.426  -0.743   3.200  0.00  0.00     0.076 C 
ATOM      6  C7  UNL d   1       0.318  -1.165   1.444  0.00  0.00     0.002 A 
ATOM      7  C8  UNL d   1       0.818  -1.018   0.149  0.00  0.00     0.006 A 
ENDROOT
BRANCH   1   8
ATOM      8  C1  UNL d   1       0.665  -0.100  -2.196  0.00  0.00     0.054 C 
ATOM      9  C   UNL d   1       1.015  -1.423  -2.860  0.00  0.00     0.018 C 
ENDBRANCH   1   8
TORSDOF 1
ENDMDL
