MODEL 1
REMARK minimizedAffinity -4.57118988
REMARK minimizedRMSD -1
REMARK  1 active torsions:
REMARK  status: ('A' for Active; 'I' for Inactive)
REMARK    1  A    between atoms: C1_2  and  C2_3 
ROOT
ATOM      1  C2  UNL d   1       0.000   0.620  -0.564  0.00  0.00    -0.081 A 
ATOM      2  C3  UNL d   1       0.978   0.690   0.436  0.00  0.00     0.006 A 
ATOM      3  C4  UNL d   1       0.705   0.229   1.726  0.00  0.00     0.002 A 
ATOM      4  C5  UNL d   1      -0.545  -0.318   2.035  0.00  0.00    -0.080 A 
ATOM      5  C6  UNL d   1      -0.840  -0.845   3.408  0.00  0.00     0.076 C 
ATOM      6  C7  UNL d   1      -1.527  -0.372   1.041  0.00  0.00     0.002 A 
ATOM      7  C8  UNL d   1      -1.256   0.090  -0.249  0.00  0.00     0.006 A 
ENDROOT
BRANCH   1   8
ATOM      8  C1  UNL d   1       0.312   1.057  -1.973  0.00  0.00     0.054 C 
ATOM      9  C   UNL d   1       0.834  -0.102  -2.809  0.00  0.00     0.018 C 
ENDBRANCH   1   8
TORSDOF 1
ENDMDL
