MODEL 1
REMARK minimizedAffinity -5.85039997
REMARK minimizedRMSD -1
REMARK  1 active torsions:
REMARK  status: ('A' for Active; 'I' for Inactive)
REMARK    1  A    between atoms: C1_2  and  C2_3 
ROOT
ATOM      1  C2  UNL d   1       0.454   0.523  -1.040  0.00  0.00    -0.081 A 
ATOM      2  C3  UNL d   1       1.443   1.164  -0.284  0.00  0.00     0.006 A 
ATOM      3  C4  UNL d   1       1.482   1.014   1.104  0.00  0.00     0.002 A 
ATOM      4  C5  UNL d   1       0.537   0.217   1.759  0.00  0.00    -0.080 A 
ATOM      5  C6  UNL d   1       0.586   0.024   3.245  0.00  0.00     0.076 C 
ATOM      6  C7  UNL d   1      -0.462  -0.409   1.006  0.00  0.00     0.002 A 
ATOM      7  C8  UNL d   1      -0.502  -0.259  -0.382  0.00  0.00     0.006 A 
ENDROOT
BRANCH   1   8
ATOM      8  C1  UNL d   1       0.448   0.630  -2.543  0.00  0.00     0.054 C 
ATOM      9  C   UNL d   1       0.504  -0.744  -3.196  0.00  0.00     0.018 C 
ENDBRANCH   1   8
TORSDOF 1
ENDMDL
