MODEL 1
REMARK minimizedAffinity 2.72547197
REMARK minimizedRMSD -1
REMARK  1 active torsions:
REMARK  status: ('A' for Active; 'I' for Inactive)
REMARK    1  A    between atoms: C1_2  and  C2_3 
ROOT
ATOM      1  C2  UNL d   1       0.747   0.500   1.771  0.00  0.00    -0.081 A 
ATOM      2  C3  UNL d   1       1.443   1.480   1.052  0.00  0.00     0.006 A 
ATOM      3  C4  UNL d   1       1.393   1.504  -0.344  0.00  0.00     0.002 A 
ATOM      4  C5  UNL d   1       0.642   0.553  -1.044  0.00  0.00    -0.080 A 
ATOM      5  C6  UNL d   1       0.555   0.586  -2.541  0.00  0.00     0.076 C 
ATOM      6  C7  UNL d   1      -0.039  -0.436  -0.326  0.00  0.00     0.002 A 
ATOM      7  C8  UNL d   1       0.011  -0.461   1.069  0.00  0.00     0.006 A 
ENDROOT
BRANCH   1   8
ATOM      8  C1  UNL d   1       0.747   0.511   3.278  0.00  0.00     0.054 C 
ATOM      9  C   UNL d   1      -0.605   0.085   3.834  0.00  0.00     0.018 C 
ENDBRANCH   1   8
TORSDOF 1
ENDMDL
