MODEL 1
REMARK minimizedAffinity -5.19940758
REMARK minimizedRMSD -1
REMARK  1 active torsions:
REMARK  status: ('A' for Active; 'I' for Inactive)
REMARK    1  A    between atoms: C1_2  and  C2_3 
ROOT
ATOM      1  C2  UNL d   1      -0.023   0.376  -0.650  0.00  0.00    -0.081 A 
ATOM      2  C3  UNL d   1       0.849   0.363   0.445  0.00  0.00     0.006 A 
ATOM      3  C4  UNL d   1       0.371   0.091   1.729  0.00  0.00     0.002 A 
ATOM      4  C5  UNL d   1      -0.986  -0.181   1.938  0.00  0.00    -0.080 A 
ATOM      5  C6  UNL d   1      -1.508  -0.504   3.306  0.00  0.00     0.076 C 
ATOM      6  C7  UNL d   1      -1.860  -0.151   0.846  0.00  0.00     0.002 A 
ATOM      7  C8  UNL d   1      -1.382   0.122  -0.437  0.00  0.00     0.006 A 
ENDROOT
BRANCH   1   8
ATOM      8  C1  UNL d   1       0.501   0.605  -2.045  0.00  0.00     0.054 C 
ATOM      9  C   UNL d   1       0.742  -0.712  -2.769  0.00  0.00     0.018 C 
ENDBRANCH   1   8
TORSDOF 1
ENDMDL
