MODEL 1
REMARK minimizedAffinity -5.82971525
REMARK minimizedRMSD -1
REMARK  1 active torsions:
REMARK  status: ('A' for Active; 'I' for Inactive)
REMARK    1  A    between atoms: C1_2  and  C2_3 
ROOT
ATOM      1  C2  UNL d   1      -0.185   0.585  -0.650  0.00  0.00    -0.081 A 
ATOM      2  C3  UNL d   1       0.828   0.560   0.316  0.00  0.00     0.006 A 
ATOM      3  C4  UNL d   1       0.542   0.199   1.634  0.00  0.00     0.002 A 
ATOM      4  C5  UNL d   1      -0.760  -0.151   2.007  0.00  0.00    -0.080 A 
ATOM      5  C6  UNL d   1      -1.076  -0.570   3.413  0.00  0.00     0.076 C 
ATOM      6  C7  UNL d   1      -1.776  -0.110   1.047  0.00  0.00     0.002 A 
ATOM      7  C8  UNL d   1      -1.491   0.252  -0.272  0.00  0.00     0.006 A 
ENDROOT
BRANCH   1   8
ATOM      8  C1  UNL d   1       0.133   0.911  -2.087  0.00  0.00     0.054 C 
ATOM      9  C   UNL d   1       0.655  -0.311  -2.829  0.00  0.00     0.018 C 
ENDBRANCH   1   8
TORSDOF 1
ENDMDL
