MODEL 1
REMARK minimizedAffinity -5.13221359
REMARK minimizedRMSD -1
REMARK  1 active torsions:
REMARK  status: ('A' for Active; 'I' for Inactive)
REMARK    1  A    between atoms: C1_2  and  C2_3 
ROOT
ATOM      1  C2  UNL d   1       0.228   0.192  -0.894  0.00  0.00    -0.081 A 
ATOM      2  C3  UNL d   1       1.198   0.768  -0.064  0.00  0.00     0.006 A 
ATOM      3  C4  UNL d   1       1.076   0.691   1.326  0.00  0.00     0.002 A 
ATOM      4  C5  UNL d   1      -0.011   0.032   1.908  0.00  0.00    -0.080 A 
ATOM      5  C6  UNL d   1      -0.137  -0.084   3.398  0.00  0.00     0.076 C 
ATOM      6  C7  UNL d   1      -0.989  -0.529   1.079  0.00  0.00     0.002 A 
ATOM      7  C8  UNL d   1      -0.869  -0.452  -0.310  0.00  0.00     0.006 A 
ENDROOT
BRANCH   1   8
ATOM      8  C1  UNL d   1       0.389   0.216  -2.392  0.00  0.00     0.054 C 
ATOM      9  C   UNL d   1       0.639  -1.180  -2.945  0.00  0.00     0.018 C 
ENDBRANCH   1   8
TORSDOF 1
ENDMDL
