MODEL 1
REMARK minimizedAffinity -5.38158131
REMARK minimizedRMSD -1
REMARK  1 active torsions:
REMARK  status: ('A' for Active; 'I' for Inactive)
REMARK    1  A    between atoms: C1_2  and  C2_3 
ROOT
ATOM      1  C2  UNL d   1      -0.268   0.624  -0.416  0.00  0.00    -0.081 A 
ATOM      2  C3  UNL d   1      -1.561   0.261  -0.018  0.00  0.00     0.006 A 
ATOM      3  C4  UNL d   1      -1.806  -0.163   1.290  0.00  0.00     0.002 A 
ATOM      4  C5  UNL d   1      -0.766  -0.222   2.224  0.00  0.00    -0.080 A 
ATOM      5  C6  UNL d   1      -1.021  -0.645   3.640  0.00  0.00     0.076 C 
ATOM      6  C7  UNL d   1       0.529   0.125   1.822  0.00  0.00     0.002 A 
ATOM      7  C8  UNL d   1       0.775   0.547   0.513  0.00  0.00     0.006 A 
ENDROOT
BRANCH   1   8
ATOM      8  C1  UNL d   1      -0.012   1.142  -1.808  0.00  0.00     0.054 C 
ATOM      9  C   UNL d   1       0.526   0.046  -2.717  0.00  0.00     0.018 C 
ENDBRANCH   1   8
TORSDOF 1
ENDMDL
