MODEL 1
REMARK minimizedAffinity -6.6244216
REMARK minimizedRMSD -1
REMARK  1 active torsions:
REMARK  status: ('A' for Active; 'I' for Inactive)
REMARK    1  A    between atoms: C1_2  and  C2_3 
ROOT
ATOM      1  C2  UNL d   1      -0.474   0.500  -0.271  0.00  0.00    -0.081 A 
ATOM      2  C3  UNL d   1       0.472   0.314   0.744  0.00  0.00     0.006 A 
ATOM      3  C4  UNL d   1       0.066  -0.006   2.041  0.00  0.00     0.002 A 
ATOM      4  C5  UNL d   1      -1.292  -0.153   2.344  0.00  0.00    -0.080 A 
ATOM      5  C6  UNL d   1      -1.740  -0.526   3.726  0.00  0.00     0.076 C 
ATOM      6  C7  UNL d   1      -2.239   0.049   1.334  0.00  0.00     0.002 A 
ATOM      7  C8  UNL d   1      -1.833   0.370   0.037  0.00  0.00     0.006 A 
ENDROOT
BRANCH   1   8
ATOM      8  C1  UNL d   1      -0.036   0.781  -1.686  0.00  0.00     0.054 C 
ATOM      9  C   UNL d   1       0.305  -0.505  -2.425  0.00  0.00     0.018 C 
ENDBRANCH   1   8
TORSDOF 1
ENDMDL
