MODEL 1
REMARK minimizedAffinity 15.1150103
REMARK minimizedRMSD -1
REMARK  1 active torsions:
REMARK  status: ('A' for Active; 'I' for Inactive)
REMARK    1  A    between atoms: C1_2  and  C2_3 
ROOT
ATOM      1  C2  UNL d   1       5.127   4.567  -2.151  0.00  0.00    -0.081 A 
ATOM      2  C3  UNL d   1       3.891   3.920  -2.269  0.00  0.00     0.006 A 
ATOM      3  C4  UNL d   1       3.473   3.410  -3.501  0.00  0.00     0.002 A 
ATOM      4  C5  UNL d   1       4.288   3.531  -4.632  0.00  0.00    -0.080 A 
ATOM      5  C6  UNL d   1       3.865   2.961  -5.953  0.00  0.00     0.076 C 
ATOM      6  C7  UNL d   1       5.515   4.193  -4.518  0.00  0.00     0.002 A 
ATOM      7  C8  UNL d   1       5.932   4.704  -3.287  0.00  0.00     0.006 A 
ENDROOT
BRANCH   1   8
ATOM      8  C1  UNL d   1       5.608   5.061  -0.811  0.00  0.00     0.054 C 
ATOM      9  C   UNL d   1       5.995   3.904   0.099  0.00  0.00     0.018 C 
ENDBRANCH   1   8
TORSDOF 1
ENDMDL
