MODEL 1
REMARK minimizedAffinity 18.8653431
REMARK minimizedRMSD -1
REMARK  1 active torsions:
REMARK  status: ('A' for Active; 'I' for Inactive)
REMARK    1  A    between atoms: C1_2  and  C2_3 
ROOT
ATOM      1  C2  UNL d   1       4.074  -2.487  -0.762  0.00  0.00    -0.081 A 
ATOM      2  C3  UNL d   1       3.237  -3.459  -0.201  0.00  0.00     0.006 A 
ATOM      3  C4  UNL d   1       3.778  -4.602   0.393  0.00  0.00     0.002 A 
ATOM      4  C5  UNL d   1       5.163  -4.788   0.444  0.00  0.00    -0.080 A 
ATOM      5  C6  UNL d   1       5.758  -5.996   1.106  0.00  0.00     0.076 C 
ATOM      6  C7  UNL d   1       5.999  -3.825  -0.132  0.00  0.00     0.002 A 
ATOM      7  C8  UNL d   1       5.459  -2.683  -0.727  0.00  0.00     0.006 A 
ENDROOT
BRANCH   1   8
ATOM      8  C1  UNL d   1       3.497  -1.223  -1.346  0.00  0.00     0.054 C 
ATOM      9  C   UNL d   1       3.076  -0.251  -0.253  0.00  0.00     0.018 C 
ENDBRANCH   1   8
TORSDOF 1
ENDMDL
