MODEL 1
REMARK minimizedAffinity 21.7695656
REMARK minimizedRMSD -1
REMARK  1 active torsions:
REMARK  status: ('A' for Active; 'I' for Inactive)
REMARK    1  A    between atoms: C1_2  and  C2_3 
ROOT
ATOM      1  C2  UNL d   1       3.437   2.460  -2.234  0.00  0.00    -0.081 A 
ATOM      2  C3  UNL d   1       3.350   2.508  -3.631  0.00  0.00     0.006 A 
ATOM      3  C4  UNL d   1       4.169   3.372  -4.362  0.00  0.00     0.002 A 
ATOM      4  C5  UNL d   1       5.093   4.195  -3.710  0.00  0.00    -0.080 A 
ATOM      5  C6  UNL d   1       5.999   5.105  -4.485  0.00  0.00     0.076 C 
ATOM      6  C7  UNL d   1       5.167   4.160  -2.313  0.00  0.00     0.002 A 
ATOM      7  C8  UNL d   1       4.348   3.297  -1.582  0.00  0.00     0.006 A 
ENDROOT
BRANCH   1   8
ATOM      8  C1  UNL d   1       2.601   1.482  -1.448  0.00  0.00     0.054 C 
ATOM      9  C   UNL d   1       2.984   1.487   0.025  0.00  0.00     0.018 C 
ENDBRANCH   1   8
TORSDOF 1
ENDMDL
