MODEL 1
REMARK minimizedAffinity 7.46440315
REMARK minimizedRMSD -1
REMARK  1 active torsions:
REMARK  status: ('A' for Active; 'I' for Inactive)
REMARK    1  A    between atoms: C1_2  and  C2_3 
ROOT
ATOM      1  C2  UNL d   1       1.923   2.980  -2.170  0.00  0.00    -0.081 A 
ATOM      2  C3  UNL d   1       1.519   4.302  -1.951  0.00  0.00     0.006 A 
ATOM      3  C4  UNL d   1       0.534   4.884  -2.753  0.00  0.00     0.002 A 
ATOM      4  C5  UNL d   1      -0.069   4.150  -3.781  0.00  0.00    -0.080 A 
ATOM      5  C6  UNL d   1      -1.149   4.752  -4.629  0.00  0.00     0.076 C 
ATOM      6  C7  UNL d   1       0.347   2.834  -4.010  0.00  0.00     0.002 A 
ATOM      7  C8  UNL d   1       1.333   2.253  -3.209  0.00  0.00     0.006 A 
ENDROOT
BRANCH   1   8
ATOM      8  C1  UNL d   1       2.939   2.329  -1.266  0.00  0.00     0.054 C 
ATOM      9  C   UNL d   1       2.278   1.724  -0.035  0.00  0.00     0.018 C 
ENDBRANCH   1   8
TORSDOF 1
ENDMDL
