MODEL 1
REMARK minimizedAffinity 22.4618435
REMARK minimizedRMSD -1
REMARK  1 active torsions:
REMARK  status: ('A' for Active; 'I' for Inactive)
REMARK    1  A    between atoms: C1_2  and  C2_3 
ROOT
ATOM      1  C2  UNL d   1      -2.936  -2.523  -0.009  0.00  0.00    -0.081 A 
ATOM      2  C3  UNL d   1      -4.034  -1.853   0.543  0.00  0.00     0.006 A 
ATOM      3  C4  UNL d   1      -4.650  -0.809  -0.152  0.00  0.00     0.002 A 
ATOM      4  C5  UNL d   1      -4.183  -0.425  -1.414  0.00  0.00    -0.080 A 
ATOM      5  C6  UNL d   1      -4.854   0.674  -2.184  0.00  0.00     0.076 C 
ATOM      6  C7  UNL d   1      -3.075  -1.083  -1.958  0.00  0.00     0.002 A 
ATOM      7  C8  UNL d   1      -2.459  -2.125  -1.262  0.00  0.00     0.006 A 
ENDROOT
BRANCH   1   8
ATOM      8  C1  UNL d   1      -2.310  -3.691   0.710  0.00  0.00     0.054 C 
ATOM      9  C   UNL d   1      -3.364  -4.695   1.156  0.00  0.00     0.018 C 
ENDBRANCH   1   8
TORSDOF 1
ENDMDL
