MODEL 1
REMARK minimizedAffinity 17.951685
REMARK minimizedRMSD -1
REMARK  1 active torsions:
REMARK  status: ('A' for Active; 'I' for Inactive)
REMARK    1  A    between atoms: C1_2  and  C2_3 
ROOT
ATOM      1  C2  UNL d   1       2.721   2.545  -1.129  0.00  0.00    -0.081 A 
ATOM      2  C3  UNL d   1       1.974   1.982  -2.171  0.00  0.00     0.006 A 
ATOM      3  C4  UNL d   1       2.287   2.269  -3.502  0.00  0.00     0.002 A 
ATOM      4  C5  UNL d   1       3.354   3.118  -3.813  0.00  0.00    -0.080 A 
ATOM      5  C6  UNL d   1       3.719   3.410  -5.238  0.00  0.00     0.076 C 
ATOM      6  C7  UNL d   1       4.089   3.695  -2.772  0.00  0.00     0.002 A 
ATOM      7  C8  UNL d   1       3.777   3.408  -1.441  0.00  0.00     0.006 A 
ENDROOT
BRANCH   1   8
ATOM      8  C1  UNL d   1       2.427   2.187   0.305  0.00  0.00     0.054 C 
ATOM      9  C   UNL d   1       3.708   2.058   1.117  0.00  0.00     0.018 C 
ENDBRANCH   1   8
TORSDOF 1
ENDMDL
