MODEL 1
REMARK minimizedAffinity 10.6608257
REMARK minimizedRMSD -1
REMARK  1 active torsions:
REMARK  status: ('A' for Active; 'I' for Inactive)
REMARK    1  A    between atoms: C1_2  and  C2_3 
ROOT
ATOM      1  C2  UNL d   1       4.608   4.896  -2.585  0.00  0.00    -0.081 A 
ATOM      2  C3  UNL d   1       3.403   5.233  -1.957  0.00  0.00     0.006 A 
ATOM      3  C4  UNL d   1       2.234   4.522  -2.239  0.00  0.00     0.002 A 
ATOM      4  C5  UNL d   1       2.252   3.458  -3.147  0.00  0.00    -0.080 A 
ATOM      5  C6  UNL d   1       1.011   2.667  -3.436  0.00  0.00     0.076 C 
ATOM      6  C7  UNL d   1       3.453   3.133  -3.788  0.00  0.00     0.002 A 
ATOM      7  C8  UNL d   1       4.621   3.844  -3.507  0.00  0.00     0.006 A 
ENDROOT
BRANCH   1   8
ATOM      8  C1  UNL d   1       5.883   5.619  -2.235  0.00  0.00     0.054 C 
ATOM      9  C   UNL d   1       5.997   5.846  -0.734  0.00  0.00     0.018 C 
ENDBRANCH   1   8
TORSDOF 1
ENDMDL
