MODEL 1
REMARK minimizedAffinity 11.9934311
REMARK minimizedRMSD -1
REMARK  1 active torsions:
REMARK  status: ('A' for Active; 'I' for Inactive)
REMARK    1  A    between atoms: C1_2  and  C2_3 
ROOT
ATOM      1  C2  UNL d   1      -2.039  -2.805   1.724  0.00  0.00    -0.081 A 
ATOM      2  C3  UNL d   1      -1.057  -3.792   1.572  0.00  0.00     0.006 A 
ATOM      3  C4  UNL d   1       0.236  -3.584   2.059  0.00  0.00     0.002 A 
ATOM      4  C5  UNL d   1       0.566  -2.391   2.711  0.00  0.00    -0.080 A 
ATOM      5  C6  UNL d   1       1.941  -2.168   3.265  0.00  0.00     0.076 C 
ATOM      6  C7  UNL d   1      -0.411  -1.399   2.847  0.00  0.00     0.002 A 
ATOM      7  C8  UNL d   1      -1.704  -1.605   2.360  0.00  0.00     0.006 A 
ENDROOT
BRANCH   1   8
ATOM      8  C1  UNL d   1      -3.451  -3.052   1.257  0.00  0.00     0.054 C 
ATOM      9  C   UNL d   1      -3.981  -4.381   1.777  0.00  0.00     0.018 C 
ENDBRANCH   1   8
TORSDOF 1
ENDMDL
