MODEL 1
REMARK minimizedAffinity 13.2228289
REMARK minimizedRMSD -1
REMARK  1 active torsions:
REMARK  status: ('A' for Active; 'I' for Inactive)
REMARK    1  A    between atoms: C1_2  and  C2_3 
ROOT
ATOM      1  C2  UNL d   1      -5.895   0.162  -1.953  0.00  0.00    -0.081 A 
ATOM      2  C3  UNL d   1      -5.779   1.531  -1.686  0.00  0.00     0.006 A 
ATOM      3  C4  UNL d   1      -5.634   1.987  -0.373  0.00  0.00     0.002 A 
ATOM      4  C5  UNL d   1      -5.595   1.081   0.692  0.00  0.00    -0.080 A 
ATOM      5  C6  UNL d   1      -5.410   1.554   2.103  0.00  0.00     0.076 C 
ATOM      6  C7  UNL d   1      -5.729  -0.286   0.427  0.00  0.00     0.002 A 
ATOM      7  C8  UNL d   1      -5.874  -0.742  -0.885  0.00  0.00     0.006 A 
ENDROOT
BRANCH   1   8
ATOM      8  C1  UNL d   1      -5.986  -0.337  -3.373  0.00  0.00     0.054 C 
ATOM      9  C   UNL d   1      -5.991  -1.858  -3.426  0.00  0.00     0.018 C 
ENDBRANCH   1   8
TORSDOF 1
ENDMDL
