MODEL 1
REMARK minimizedAffinity -4.31700468
REMARK minimizedRMSD -1
REMARK  0 active torsions:
REMARK  status: ('A' for Active; 'I' for Inactive)
ROOT
ATOM      1  C1  DEN d   1      -1.344   3.315   0.167  0.00  0.00     0.130 A 
ATOM      2  C2  DEN d   1      -0.597   3.542  -1.067  0.00  0.00    -0.031 A 
ATOM      3  C3  DEN d   1       0.279   2.375  -1.293  0.00  0.00     0.027 A 
ATOM      4  C4  DEN d   1       0.546   0.247   0.140  0.00  0.00     0.027 A 
ATOM      5  C5  DEN d   1       0.131  -0.394   1.287  0.00  0.00    -0.003 A 
ATOM      6  C6  DEN d   1      -0.771   0.167   2.151  0.00  0.00     0.001 A 
ATOM      7  C7  DEN d   1      -1.323   1.386   1.859  0.00  0.00     0.017 A 
ATOM      8  C8  DEN d   1      -0.904   2.042   0.708  0.00  0.00    -0.094 A 
ATOM      9  C9  DEN d   1       0.000   1.453  -0.159  0.00  0.00    -0.072 A 
ENDROOT
TORSDOF 0
ENDMDL
