MODEL 1
REMARK minimizedAffinity -6.54794645
REMARK minimizedRMSD -1
REMARK  0 active torsions:
REMARK  status: ('A' for Active; 'I' for Inactive)
ROOT
ATOM      1  C1  DEN d   1       0.230  -0.101  -0.919  0.00  0.00     0.130 A 
ATOM      2  C2  DEN d   1       0.282  -1.159   0.086  0.00  0.00    -0.031 A 
ATOM      3  C3  DEN d   1      -0.210  -0.601   1.362  0.00  0.00     0.027 A 
ATOM      4  C4  DEN d   1      -1.046   1.784   1.875  0.00  0.00     0.027 A 
ATOM      5  C5  DEN d   1      -1.264   3.036   1.342  0.00  0.00    -0.003 A 
ATOM      6  C6  DEN d   1      -0.970   3.336   0.039  0.00  0.00     0.001 A 
ATOM      7  C7  DEN d   1      -0.483   2.360  -0.790  0.00  0.00     0.017 A 
ATOM      8  C8  DEN d   1      -0.254   1.098  -0.258  0.00  0.00    -0.094 A 
ATOM      9  C9  DEN d   1      -0.569   0.810   1.059  0.00  0.00    -0.072 A 
ENDROOT
TORSDOF 0
ENDMDL
