MODEL 1
REMARK minimizedAffinity -7.35592937
REMARK minimizedRMSD -1
REMARK  0 active torsions:
REMARK  status: ('A' for Active; 'I' for Inactive)
ROOT
ATOM      1  C1  DEN d   1       0.647  -0.225   0.367  0.00  0.00     0.130 A 
ATOM      2  C2  DEN d   1       1.491  -0.126  -0.821  0.00  0.00    -0.031 A 
ATOM      3  C3  DEN d   1       1.117   1.104  -1.546  0.00  0.00     0.027 A 
ATOM      4  C4  DEN d   1      -0.674   2.861  -0.946  0.00  0.00     0.027 A 
ATOM      5  C5  DEN d   1      -1.652   3.202  -0.038  0.00  0.00    -0.003 A 
ATOM      6  C6  DEN d   1      -1.953   2.414   1.042  0.00  0.00     0.001 A 
ATOM      7  C7  DEN d   1      -1.237   1.267   1.265  0.00  0.00     0.017 A 
ATOM      8  C8  DEN d   1      -0.255   0.913   0.350  0.00  0.00    -0.094 A 
ATOM      9  C9  DEN d   1       0.042   1.729  -0.729  0.00  0.00    -0.072 A 
ENDROOT
TORSDOF 0
ENDMDL
