MODEL 1
REMARK minimizedAffinity -5.61549187
REMARK minimizedRMSD -1
REMARK  0 active torsions:
REMARK  status: ('A' for Active; 'I' for Inactive)
ROOT
ATOM      1  C1  DEN d   1       0.437  -0.121  -1.000  0.00  0.00     0.130 A 
ATOM      2  C2  DEN d   1       1.076  -1.071  -0.094  0.00  0.00    -0.031 A 
ATOM      3  C3  DEN d   1       0.691  -0.714   1.287  0.00  0.00     0.027 A 
ATOM      4  C4  DEN d   1      -0.829   1.204   2.103  0.00  0.00     0.027 A 
ATOM      5  C5  DEN d   1      -1.592   2.278   1.704  0.00  0.00    -0.003 A 
ATOM      6  C6  DEN d   1      -1.704   2.646   0.389  0.00  0.00     0.001 A 
ATOM      7  C7  DEN d   1      -1.079   1.906  -0.579  0.00  0.00     0.017 A 
ATOM      8  C8  DEN d   1      -0.302   0.825  -0.183  0.00  0.00    -0.094 A 
ATOM      9  C9  DEN d   1      -0.210   0.462   1.149  0.00  0.00    -0.072 A 
ENDROOT
TORSDOF 0
ENDMDL
