MODEL 1
REMARK minimizedAffinity -4.04348755
REMARK minimizedRMSD -1
REMARK  0 active torsions:
REMARK  status: ('A' for Active; 'I' for Inactive)
ROOT
ATOM      1  C1  DEN d   1      -0.257   3.477   0.014  0.00  0.00     0.130 A 
ATOM      2  C2  DEN d   1       0.419   3.853  -1.225  0.00  0.00    -0.031 A 
ATOM      3  C3  DEN d   1       1.092   2.653  -1.760  0.00  0.00     0.027 A 
ATOM      4  C4  DEN d   1       1.148   0.260  -0.800  0.00  0.00     0.027 A 
ATOM      5  C5  DEN d   1       0.730  -0.543   0.239  0.00  0.00    -0.003 A 
ATOM      6  C6  DEN d   1      -0.011  -0.058   1.284  0.00  0.00     0.001 A 
ATOM      7  C7  DEN d   1      -0.396   1.256   1.291  0.00  0.00     0.017 A 
ATOM      8  C8  DEN d   1       0.028   2.074   0.251  0.00  0.00    -0.094 A 
ATOM      9  C9  DEN d   1       0.766   1.562  -0.803  0.00  0.00    -0.072 A 
ENDROOT
TORSDOF 0
ENDMDL
