MODEL 1
REMARK minimizedAffinity -6.03222799
REMARK minimizedRMSD -1
REMARK  0 active torsions:
REMARK  status: ('A' for Active; 'I' for Inactive)
ROOT
ATOM      1  C1  DEN d   1       0.214   2.453  -0.872  0.00  0.00     0.130 A 
ATOM      2  C2  DEN d   1      -0.391   3.740  -0.541  0.00  0.00    -0.031 A 
ATOM      3  C3  DEN d   1      -1.195   3.565   0.685  0.00  0.00     0.027 A 
ATOM      4  C4  DEN d   1      -1.557   1.437   2.098  0.00  0.00     0.027 A 
ATOM      5  C5  DEN d   1      -1.258   0.097   2.206  0.00  0.00    -0.003 A 
ATOM      6  C6  DEN d   1      -0.481  -0.554   1.285  0.00  0.00     0.001 A 
ATOM      7  C7  DEN d   1       0.061   0.145   0.238  0.00  0.00     0.017 A 
ATOM      8  C8  DEN d   1      -0.243   1.495   0.118  0.00  0.00    -0.094 A 
ATOM      9  C9  DEN d   1      -1.020   2.138   1.067  0.00  0.00    -0.072 A 
ENDROOT
TORSDOF 0
ENDMDL
