MODEL 1
REMARK minimizedAffinity -5.32549715
REMARK minimizedRMSD -1
REMARK  0 active torsions:
REMARK  status: ('A' for Active; 'I' for Inactive)
ROOT
ATOM      1  C1  DEN d   1       1.439   0.687  -0.801  0.00  0.00     0.130 A 
ATOM      2  C2  DEN d   1       1.236   1.827  -1.692  0.00  0.00    -0.031 A 
ATOM      3  C3  DEN d   1       0.015   2.534  -1.256  0.00  0.00     0.027 A 
ATOM      4  C4  DEN d   1      -1.569   1.981   0.702  0.00  0.00     0.027 A 
ATOM      5  C5  DEN d   1      -1.815   1.102   1.734  0.00  0.00    -0.003 A 
ATOM      6  C6  DEN d   1      -1.018   0.013   1.970  0.00  0.00     0.001 A 
ATOM      7  C7  DEN d   1       0.088  -0.201   1.191  0.00  0.00     0.017 A 
ATOM      8  C8  DEN d   1       0.338   0.677   0.144  0.00  0.00    -0.094 A 
ATOM      9  C9  DEN d   1      -0.472   1.779  -0.070  0.00  0.00    -0.072 A 
ENDROOT
TORSDOF 0
ENDMDL
