MODEL 1
REMARK minimizedAffinity -5.66403103
REMARK minimizedRMSD -1
REMARK  0 active torsions:
REMARK  status: ('A' for Active; 'I' for Inactive)
ROOT
ATOM      1  C1  DEN d   1       0.603  -0.203  -0.301  0.00  0.00     0.130 A 
ATOM      2  C2  DEN d   1       0.362  -1.244   0.694  0.00  0.00    -0.031 A 
ATOM      3  C3  DEN d   1      -0.549  -0.694   1.718  0.00  0.00     0.027 A 
ATOM      4  C4  DEN d   1      -1.607   1.654   1.856  0.00  0.00     0.027 A 
ATOM      5  C5  DEN d   1      -1.688   2.886   1.246  0.00  0.00    -0.003 A 
ATOM      6  C6  DEN d   1      -0.990   3.184   0.105  0.00  0.00     0.001 A 
ATOM      7  C7  DEN d   1      -0.215   2.222  -0.487  0.00  0.00     0.017 A 
ATOM      8  C8  DEN d   1      -0.122   0.979   0.127  0.00  0.00    -0.094 A 
ATOM      9  C9  DEN d   1      -0.845   0.694   1.273  0.00  0.00    -0.072 A 
ENDROOT
TORSDOF 0
ENDMDL
