MODEL 1
REMARK minimizedAffinity -4.31948423
REMARK minimizedRMSD -1
REMARK  0 active torsions:
REMARK  status: ('A' for Active; 'I' for Inactive)
ROOT
ATOM      1  C1  DEN d   1      -1.143   2.642   0.191  0.00  0.00     0.130 A 
ATOM      2  C2  DEN d   1      -1.782   2.659   1.504  0.00  0.00    -0.031 A 
ATOM      3  C3  DEN d   1      -1.453   1.393   2.190  0.00  0.00     0.027 A 
ATOM      4  C4  DEN d   1      -0.019  -0.580   1.352  0.00  0.00     0.027 A 
ATOM      5  C5  DEN d   1       0.724  -1.059   0.295  0.00  0.00    -0.003 A 
ATOM      6  C6  DEN d   1       0.867  -0.359  -0.873  0.00  0.00     0.001 A 
ATOM      7  C7  DEN d   1       0.296   0.880  -0.997  0.00  0.00     0.017 A 
ATOM      8  C8  DEN d   1      -0.460   1.367   0.062  0.00  0.00    -0.094 A 
ATOM      9  C9  DEN d   1      -0.583   0.649   1.239  0.00  0.00    -0.072 A 
ENDROOT
TORSDOF 0
ENDMDL
