MODEL 1
REMARK minimizedAffinity -4.48732519
REMARK minimizedRMSD -1
REMARK  0 active torsions:
REMARK  status: ('A' for Active; 'I' for Inactive)
ROOT
ATOM      1  C1  DEN d   1       0.490  -0.619   1.680  0.00  0.00     0.130 A 
ATOM      2  C2  DEN d   1       0.880  -1.134   0.370  0.00  0.00    -0.031 A 
ATOM      3  C3  DEN d   1       0.182  -0.337  -0.659  0.00  0.00     0.027 A 
ATOM      4  C4  DEN d   1      -1.451   1.636  -0.353  0.00  0.00     0.027 A 
ATOM      5  C5  DEN d   1      -2.097   2.425   0.573  0.00  0.00    -0.003 A 
ATOM      6  C6  DEN d   1      -1.954   2.235   1.922  0.00  0.00     0.001 A 
ATOM      7  C7  DEN d   1      -1.110   1.260   2.384  0.00  0.00     0.017 A 
ATOM      8  C8  DEN d   1      -0.461   0.455   1.456  0.00  0.00    -0.094 A 
ATOM      9  C9  DEN d   1      -0.610   0.671   0.097  0.00  0.00    -0.072 A 
ENDROOT
TORSDOF 0
ENDMDL
