MODEL 1
REMARK minimizedAffinity -4.67503262
REMARK minimizedRMSD -1
REMARK  0 active torsions:
REMARK  status: ('A' for Active; 'I' for Inactive)
ROOT
ATOM      1  C1  DEN d   1       1.015   1.808  -1.120  0.00  0.00     0.130 A 
ATOM      2  C2  DEN d   1       1.442   0.412  -1.151  0.00  0.00    -0.031 A 
ATOM      3  C3  DEN d   1       0.628  -0.336  -0.172  0.00  0.00     0.027 A 
ATOM      4  C4  DEN d   1      -1.247   0.526   1.376  0.00  0.00     0.027 A 
ATOM      5  C5  DEN d   1      -1.956   1.640   1.767  0.00  0.00    -0.003 A 
ATOM      6  C6  DEN d   1      -1.703   2.884   1.252  0.00  0.00     0.001 A 
ATOM      7  C7  DEN d   1      -0.747   3.037   0.283  0.00  0.00     0.017 A 
ATOM      8  C8  DEN d   1      -0.023   1.919  -0.111  0.00  0.00    -0.094 A 
ATOM      9  C9  DEN d   1      -0.301   0.668   0.412  0.00  0.00    -0.072 A 
ENDROOT
TORSDOF 0
ENDMDL
