MODEL 1
REMARK minimizedAffinity -5.20452881
REMARK minimizedRMSD -1
REMARK  0 active torsions:
REMARK  status: ('A' for Active; 'I' for Inactive)
ROOT
ATOM      1  C1  DEN d   1      -0.024  -1.135   0.037  0.00  0.00     0.130 A 
ATOM      2  C2  DEN d   1       1.031  -0.560  -0.793  0.00  0.00    -0.031 A 
ATOM      3  C3  DEN d   1       0.880   0.909  -0.772  0.00  0.00     0.027 A 
ATOM      4  C4  DEN d   1      -0.874   2.341   0.462  0.00  0.00     0.027 A 
ATOM      5  C5  DEN d   1      -1.980   2.301   1.283  0.00  0.00    -0.003 A 
ATOM      6  C6  DEN d   1      -2.527   1.122   1.714  0.00  0.00     0.001 A 
ATOM      7  C7  DEN d   1      -1.942  -0.066   1.363  0.00  0.00     0.017 A 
ATOM      8  C8  DEN d   1      -0.831  -0.034   0.530  0.00  0.00    -0.094 A 
ATOM      9  C9  DEN d   1      -0.286   1.169   0.115  0.00  0.00    -0.072 A 
ENDROOT
TORSDOF 0
ENDMDL
