MODEL 1
REMARK minimizedAffinity -5.76298094
REMARK minimizedRMSD -1
REMARK  0 active torsions:
REMARK  status: ('A' for Active; 'I' for Inactive)
ROOT
ATOM      1  C1  DEN d   1       0.874   0.275  -0.755  0.00  0.00     0.130 A 
ATOM      2  C2  DEN d   1       1.557  -0.743   0.038  0.00  0.00    -0.031 A 
ATOM      3  C3  DEN d   1       0.991  -0.715   1.402  0.00  0.00     0.027 A 
ATOM      4  C4  DEN d   1      -0.871   0.794   2.355  0.00  0.00     0.027 A 
ATOM      5  C5  DEN d   1      -1.744   1.819   2.065  0.00  0.00    -0.003 A 
ATOM      6  C6  DEN d   1      -1.782   2.419   0.834  0.00  0.00     0.001 A 
ATOM      7  C7  DEN d   1      -0.962   1.968  -0.166  0.00  0.00     0.017 A 
ATOM      8  C8  DEN d   1      -0.074   0.941   0.121  0.00  0.00    -0.094 A 
ATOM      9  C9  DEN d   1      -0.059   0.339   1.368  0.00  0.00    -0.072 A 
ENDROOT
TORSDOF 0
ENDMDL
