MODEL 1
REMARK minimizedAffinity -3.16731548
REMARK minimizedRMSD -1
REMARK  0 active torsions:
REMARK  status: ('A' for Active; 'I' for Inactive)
ROOT
ATOM      1  C1  DEN d   1       0.684   1.621  -1.173  0.00  0.00     0.130 A 
ATOM      2  C2  DEN d   1       1.536   0.436  -1.141  0.00  0.00    -0.031 A 
ATOM      3  C3  DEN d   1       1.060  -0.439  -0.051  0.00  0.00     0.027 A 
ATOM      4  C4  DEN d   1      -0.906  -0.076   1.580  0.00  0.00     0.027 A 
ATOM      5  C5  DEN d   1      -1.914   0.788   1.948  0.00  0.00    -0.003 A 
ATOM      6  C6  DEN d   1      -2.103   1.995   1.330  0.00  0.00     0.001 A 
ATOM      7  C7  DEN d   1      -1.301   2.353   0.279  0.00  0.00     0.017 A 
ATOM      8  C8  DEN d   1      -0.278   1.490  -0.094  0.00  0.00    -0.094 A 
ATOM      9  C9  DEN d   1      -0.110   0.269   0.536  0.00  0.00    -0.072 A 
ENDROOT
TORSDOF 0
ENDMDL
