MODEL 1
REMARK minimizedAffinity -5.56314325
REMARK minimizedRMSD -1
REMARK  0 active torsions:
REMARK  status: ('A' for Active; 'I' for Inactive)
ROOT
ATOM      1  C1  DEN d   1       1.367   0.854  -0.980  0.00  0.00     0.130 A 
ATOM      2  C2  DEN d   1       1.238   2.150  -1.640  0.00  0.00    -0.031 A 
ATOM      3  C3  DEN d   1       0.124   2.879  -1.000  0.00  0.00     0.027 A 
ATOM      4  C4  DEN d   1      -1.402   2.130   0.940  0.00  0.00     0.027 A 
ATOM      5  C5  DEN d   1      -1.683   1.105   1.816  0.00  0.00    -0.003 A 
ATOM      6  C6  DEN d   1      -0.995  -0.079   1.799  0.00  0.00     0.001 A 
ATOM      7  C7  DEN d   1       0.040  -0.250   0.917  0.00  0.00     0.017 A 
ATOM      8  C8  DEN d   1       0.324   0.776   0.026  0.00  0.00    -0.094 A 
ATOM      9  C9  DEN d   1      -0.376   1.970   0.067  0.00  0.00    -0.072 A 
ENDROOT
TORSDOF 0
ENDMDL
