MODEL 1
REMARK minimizedAffinity 2.87670207
REMARK minimizedRMSD -1
REMARK  1 active torsions:
REMARK  status: ('A' for Active; 'I' for Inactive)
REMARK    1  A    between atoms: C1_2  and  C2_3 
ROOT
ATOM      1  C2  UNL d   1      -4.091  -0.406  -0.573  0.00  0.00    -0.077 A 
ATOM      2  C3  UNL d   1      -4.437   0.399   0.522  0.00  0.00     0.002 A 
ATOM      3  C4  UNL d   1      -3.651   0.397   1.676  0.00  0.00     0.002 A 
ATOM      4  C5  UNL d   1      -2.513  -0.405   1.745  0.00  0.00    -0.004 A 
ATOM      5  C6  UNL d   1      -2.162  -1.210   0.662  0.00  0.00     0.002 A 
ATOM      6  C7  UNL d   1      -2.947  -1.210  -0.492  0.00  0.00     0.002 A 
ENDROOT
BRANCH   1   7
ATOM      7  C1  UNL d   1      -4.910  -0.368  -1.837  0.00  0.00     0.055 C 
ATOM      8  C   UNL d   1      -5.998  -1.432  -1.823  0.00  0.00     0.019 C 
ENDBRANCH   1   7
TORSDOF 1
ENDMDL
