MODEL 1
REMARK minimizedAffinity 0.536638558
REMARK minimizedRMSD -1
REMARK  1 active torsions:
REMARK  status: ('A' for Active; 'I' for Inactive)
REMARK    1  A    between atoms: C1_2  and  C2_3 
ROOT
ATOM      1  C2  UNL d   1      -3.987  -0.478   0.976  0.00  0.00    -0.077 A 
ATOM      2  C3  UNL d   1      -4.464  -1.793   1.070  0.00  0.00     0.002 A 
ATOM      3  C4  UNL d   1      -5.468  -2.243   0.210  0.00  0.00     0.002 A 
ATOM      4  C5  UNL d   1      -6.000  -1.386  -0.751  0.00  0.00    -0.004 A 
ATOM      5  C6  UNL d   1      -5.533  -0.076  -0.851  0.00  0.00     0.002 A 
ATOM      6  C7  UNL d   1      -4.531   0.376   0.008  0.00  0.00     0.002 A 
ENDROOT
BRANCH   1   7
ATOM      7  C1  UNL d   1      -2.870  -0.005   1.869  0.00  0.00     0.055 C 
ATOM      8  C   UNL d   1      -2.858  -0.763   3.189  0.00  0.00     0.019 C 
ENDBRANCH   1   7
TORSDOF 1
ENDMDL
