MODEL 1
REMARK minimizedAffinity 14.5515766
REMARK minimizedRMSD -1
REMARK  1 active torsions:
REMARK  status: ('A' for Active; 'I' for Inactive)
REMARK    1  A    between atoms: C1_2  and  C2_3 
ROOT
ATOM      1  C2  UNL d   1      -2.568  -0.704  -1.658  0.00  0.00    -0.077 A 
ATOM      2  C3  UNL d   1      -3.948  -0.464  -1.601  0.00  0.00     0.002 A 
ATOM      3  C4  UNL d   1      -4.551  -0.095  -0.396  0.00  0.00     0.002 A 
ATOM      4  C5  UNL d   1      -3.782   0.039   0.757  0.00  0.00    -0.004 A 
ATOM      5  C6  UNL d   1      -2.409  -0.200   0.711  0.00  0.00     0.002 A 
ATOM      6  C7  UNL d   1      -1.804  -0.569  -0.492  0.00  0.00     0.002 A 
ENDROOT
BRANCH   1   7
ATOM      7  C1  UNL d   1      -1.908  -1.053  -2.967  0.00  0.00     0.055 C 
ATOM      8  C   UNL d   1      -1.554  -2.532  -3.031  0.00  0.00     0.019 C 
ENDBRANCH   1   7
TORSDOF 1
ENDMDL
