MODEL 1
REMARK minimizedAffinity 13.2224922
REMARK minimizedRMSD -1
REMARK  1 active torsions:
REMARK  status: ('A' for Active; 'I' for Inactive)
REMARK    1  A    between atoms: C1_2  and  C2_3 
ROOT
ATOM      1  C2  UNL d   1       1.393  -3.464   5.376  0.00  0.00    -0.077 A 
ATOM      2  C3  UNL d   1       1.615  -2.167   5.860  0.00  0.00     0.002 A 
ATOM      3  C4  UNL d   1       0.882  -1.090   5.355  0.00  0.00     0.002 A 
ATOM      4  C5  UNL d   1      -0.079  -1.301   4.369  0.00  0.00    -0.004 A 
ATOM      5  C6  UNL d   1      -0.305  -2.587   3.880  0.00  0.00     0.002 A 
ATOM      6  C7  UNL d   1       0.427  -3.664   4.382  0.00  0.00     0.002 A 
ENDROOT
BRANCH   1   7
ATOM      7  C1  UNL d   1       2.147  -4.633   5.954  0.00  0.00     0.055 C 
ATOM      8  C   UNL d   1       1.290  -5.890   5.972  0.00  0.00     0.019 C 
ENDBRANCH   1   7
TORSDOF 1
ENDMDL
