MODEL 1
REMARK minimizedAffinity 8.1285038
REMARK minimizedRMSD -1
REMARK  1 active torsions:
REMARK  status: ('A' for Active; 'I' for Inactive)
REMARK    1  A    between atoms: C1_2  and  C2_3 
ROOT
ATOM      1  C2  UNL d   1       4.914   1.112   0.812  0.00  0.00    -0.077 A 
ATOM      2  C3  UNL d   1       5.465   2.272   1.376  0.00  0.00     0.002 A 
ATOM      3  C4  UNL d   1       5.998   2.245   2.666  0.00  0.00     0.002 A 
ATOM      4  C5  UNL d   1       5.990   1.061   3.401  0.00  0.00    -0.004 A 
ATOM      5  C6  UNL d   1       5.442  -0.097   2.850  0.00  0.00     0.002 A 
ATOM      6  C7  UNL d   1       4.908  -0.071   1.561  0.00  0.00     0.002 A 
ENDROOT
BRANCH   1   7
ATOM      7  C1  UNL d   1       4.383   1.127  -0.598  0.00  0.00     0.055 C 
ATOM      8  C   UNL d   1       5.332   1.855  -1.539  0.00  0.00     0.019 C 
ENDBRANCH   1   7
TORSDOF 1
ENDMDL
