MODEL 1
REMARK minimizedAffinity 15.9626198
REMARK minimizedRMSD -1
REMARK  1 active torsions:
REMARK  status: ('A' for Active; 'I' for Inactive)
REMARK    1  A    between atoms: C1_2  and  C2_3 
ROOT
ATOM      1  C2  UNL d   1      -1.334  -5.212  -1.781  0.00  0.00    -0.077 A 
ATOM      2  C3  UNL d   1      -1.166  -3.833  -1.971  0.00  0.00     0.002 A 
ATOM      3  C4  UNL d   1      -1.788  -3.186  -3.040  0.00  0.00     0.002 A 
ATOM      4  C5  UNL d   1      -2.586  -3.908  -3.925  0.00  0.00    -0.004 A 
ATOM      5  C6  UNL d   1      -2.758  -5.280  -3.746  0.00  0.00     0.002 A 
ATOM      6  C7  UNL d   1      -2.136  -5.929  -2.679  0.00  0.00     0.002 A 
ENDROOT
BRANCH   1   7
ATOM      7  C1  UNL d   1      -0.704  -5.903  -0.600  0.00  0.00     0.055 C 
ATOM      8  C   UNL d   1      -1.117  -5.247   0.710  0.00  0.00     0.019 C 
ENDBRANCH   1   7
TORSDOF 1
ENDMDL
