MODEL 1
REMARK minimizedAffinity 4.64131308
REMARK minimizedRMSD -1
REMARK  1 active torsions:
REMARK  status: ('A' for Active; 'I' for Inactive)
REMARK    1  A    between atoms: C1_2  and  C2_3 
ROOT
ATOM      1  C2  UNL d   1       0.287  -1.262   5.279  0.00  0.00    -0.077 A 
ATOM      2  C3  UNL d   1      -0.761  -2.193   5.278  0.00  0.00     0.002 A 
ATOM      3  C4  UNL d   1      -0.524  -3.522   5.634  0.00  0.00     0.002 A 
ATOM      4  C5  UNL d   1       0.757  -3.931   5.997  0.00  0.00    -0.004 A 
ATOM      5  C6  UNL d   1       1.806  -3.012   6.000  0.00  0.00     0.002 A 
ATOM      6  C7  UNL d   1       1.572  -1.683   5.643  0.00  0.00     0.002 A 
ENDROOT
BRANCH   1   7
ATOM      7  C1  UNL d   1       0.024   0.183   4.943  0.00  0.00     0.055 C 
ATOM      8  C   UNL d   1       0.605   1.112   5.999  0.00  0.00     0.019 C 
ENDBRANCH   1   7
TORSDOF 1
ENDMDL
