MODEL 1
REMARK minimizedAffinity 6.80359554
REMARK minimizedRMSD -1
REMARK  1 active torsions:
REMARK  status: ('A' for Active; 'I' for Inactive)
REMARK    1  A    between atoms: C1_2  and  C2_3 
ROOT
ATOM      1  C2  UNL d   1       1.528   3.403   3.384  0.00  0.00    -0.077 A 
ATOM      2  C3  UNL d   1       2.799   3.655   3.921  0.00  0.00     0.002 A 
ATOM      3  C4  UNL d   1       3.343   4.939   3.874  0.00  0.00     0.002 A 
ATOM      4  C5  UNL d   1       2.624   5.982   3.295  0.00  0.00    -0.004 A 
ATOM      5  C6  UNL d   1       1.361   5.742   2.756  0.00  0.00     0.002 A 
ATOM      6  C7  UNL d   1       0.815   4.458   2.801  0.00  0.00     0.002 A 
ENDROOT
BRANCH   1   7
ATOM      7  C1  UNL d   1       0.919   2.029   3.477  0.00  0.00     0.055 C 
ATOM      8  C   UNL d   1       0.452   1.725   4.894  0.00  0.00     0.019 C 
ENDBRANCH   1   7
TORSDOF 1
ENDMDL
