MODEL 1
REMARK minimizedAffinity 4.12002897
REMARK minimizedRMSD -1
REMARK  2 active torsions:
REMARK  status: ('A' for Active; 'I' for Inactive)
REMARK    1  A    between atoms: C1_2  and  C2_3 
REMARK    2  A    between atoms: C2_3  and  C3_4 
ROOT
ATOM      1  C3  UNL d   1       3.903   1.984  -3.679  0.00  0.00    -0.075 A 
ATOM      2  C4  UNL d   1       3.386   2.610  -4.822  0.00  0.00     0.002 A 
ATOM      3  C5  UNL d   1       4.161   2.730  -5.975  0.00  0.00     0.002 A 
ATOM      4  C6  UNL d   1       5.463   2.236  -5.998  0.00  0.00    -0.004 A 
ATOM      5  C7  UNL d   1       5.993   1.627  -4.863  0.00  0.00     0.002 A 
ATOM      6  C8  UNL d   1       5.218   1.501  -3.709  0.00  0.00     0.002 A 
ENDROOT
BRANCH   1   7
ATOM      7  C2  UNL d   1       3.059   1.824  -2.436  0.00  0.00     0.056 C 
BRANCH   7   8
ATOM      8  C1  UNL d   1       3.297   0.510  -1.686  0.00  0.00     0.007 C 
ATOM      9  C   UNL d   1       2.492   0.400  -0.398  0.00  0.00     0.009 C 
ENDBRANCH   7   8
ENDBRANCH   1   7
TORSDOF 2
ENDMDL
