MODEL 1
REMARK minimizedAffinity 7.09896946
REMARK minimizedRMSD -1
REMARK  2 active torsions:
REMARK  status: ('A' for Active; 'I' for Inactive)
REMARK    1  A    between atoms: C1_2  and  C2_3 
REMARK    2  A    between atoms: C2_3  and  C3_4 
ROOT
ATOM      1  C3  UNL d   1       1.773   0.511  -2.129  0.00  0.00    -0.075 A 
ATOM      2  C4  UNL d   1       0.721   0.778  -1.240  0.00  0.00     0.002 A 
ATOM      3  C5  UNL d   1       0.783   0.337   0.083  0.00  0.00     0.002 A 
ATOM      4  C6  UNL d   1       1.889  -0.383   0.529  0.00  0.00    -0.004 A 
ATOM      5  C7  UNL d   1       2.931  -0.668  -0.350  0.00  0.00     0.002 A 
ATOM      6  C8  UNL d   1       2.874  -0.225  -1.672  0.00  0.00     0.002 A 
ENDROOT
BRANCH   1   7
ATOM      7  C2  UNL d   1       1.726   1.010  -3.553  0.00  0.00     0.056 C 
BRANCH   7   8
ATOM      8  C1  UNL d   1       0.995   0.071  -4.519  0.00  0.00     0.007 C 
ATOM      9  C   UNL d   1       0.250   0.808  -5.624  0.00  0.00     0.009 C 
ENDBRANCH   7   8
ENDBRANCH   1   7
TORSDOF 2
ENDMDL
