MODEL 1
REMARK minimizedAffinity 7.09813452
REMARK minimizedRMSD -1
REMARK  2 active torsions:
REMARK  status: ('A' for Active; 'I' for Inactive)
REMARK    1  A    between atoms: C1_2  and  C2_3 
REMARK    2  A    between atoms: C2_3  and  C3_4 
ROOT
ATOM      1  C3  UNL d   1       3.854   2.750  -1.250  0.00  0.00    -0.075 A 
ATOM      2  C4  UNL d   1       4.936   3.601  -1.520  0.00  0.00     0.002 A 
ATOM      3  C5  UNL d   1       5.999   3.165  -2.311  0.00  0.00     0.002 A 
ATOM      4  C6  UNL d   1       6.000   1.873  -2.832  0.00  0.00    -0.004 A 
ATOM      5  C7  UNL d   1       4.938   1.014  -2.556  0.00  0.00     0.002 A 
ATOM      6  C8  UNL d   1       3.871   1.449  -1.769  0.00  0.00     0.002 A 
ENDROOT
BRANCH   1   7
ATOM      7  C2  UNL d   1       2.686   3.226  -0.419  0.00  0.00     0.056 C 
BRANCH   7   8
ATOM      8  C1  UNL d   1       2.034   2.127   0.427  0.00  0.00     0.007 C 
ATOM      9  C   UNL d   1       2.396   2.211   1.903  0.00  0.00     0.009 C 
ENDBRANCH   7   8
ENDBRANCH   1   7
TORSDOF 2
ENDMDL
