MODEL 1
REMARK minimizedAffinity -0.0578164496
REMARK minimizedRMSD -1
REMARK  2 active torsions:
REMARK  status: ('A' for Active; 'I' for Inactive)
REMARK    1  A    between atoms: C1_2  and  C2_3 
REMARK    2  A    between atoms: C2_3  and  C3_4 
ROOT
ATOM      1  C3  UNL d   1       3.610   3.777   3.907  0.00  0.00    -0.075 A 
ATOM      2  C4  UNL d   1       4.561   4.106   4.883  0.00  0.00     0.002 A 
ATOM      3  C5  UNL d   1       4.357   5.194   5.732  0.00  0.00     0.002 A 
ATOM      4  C6  UNL d   1       3.208   5.972   5.609  0.00  0.00    -0.004 A 
ATOM      5  C7  UNL d   1       2.265   5.665   4.632  0.00  0.00     0.002 A 
ATOM      6  C8  UNL d   1       2.463   4.574   3.784  0.00  0.00     0.002 A 
ENDROOT
BRANCH   1   7
ATOM      7  C2  UNL d   1       3.810   2.583   3.005  0.00  0.00     0.056 C 
BRANCH   7   8
ATOM      8  C1  UNL d   1       2.521   1.815   2.691  0.00  0.00     0.007 C 
ATOM      9  C   UNL d   1       2.200   1.764   1.203  0.00  0.00     0.009 C 
ENDBRANCH   7   8
ENDBRANCH   1   7
TORSDOF 2
ENDMDL
