MODEL 1
REMARK minimizedAffinity 4.02096748
REMARK minimizedRMSD -1
REMARK  2 active torsions:
REMARK  status: ('A' for Active; 'I' for Inactive)
REMARK    1  A    between atoms: C1_2  and  C2_3 
REMARK    2  A    between atoms: C2_3  and  C3_4 
ROOT
ATOM      1  C3  UNL d   1       2.801   2.179   1.880  0.00  0.00    -0.075 A 
ATOM      2  C4  UNL d   1       3.077   2.907   0.714  0.00  0.00     0.002 A 
ATOM      3  C5  UNL d   1       2.300   2.731  -0.432  0.00  0.00     0.002 A 
ATOM      4  C6  UNL d   1       1.247   1.820  -0.430  0.00  0.00    -0.004 A 
ATOM      5  C7  UNL d   1       0.974   1.078   0.718  0.00  0.00     0.002 A 
ATOM      6  C8  UNL d   1       1.746   1.256   1.867  0.00  0.00     0.002 A 
ENDROOT
BRANCH   1   7
ATOM      7  C2  UNL d   1       3.619   2.386   3.132  0.00  0.00     0.056 C 
BRANCH   7   8
ATOM      8  C1  UNL d   1       5.036   1.808   3.054  0.00  0.00     0.007 C 
ATOM      9  C   UNL d   1       5.947   2.302   4.170  0.00  0.00     0.009 C 
ENDBRANCH   7   8
ENDBRANCH   1   7
TORSDOF 2
ENDMDL
