MODEL 1
REMARK minimizedAffinity 1.73922789
REMARK minimizedRMSD -1
REMARK  2 active torsions:
REMARK  status: ('A' for Active; 'I' for Inactive)
REMARK    1  A    between atoms: C1_2  and  C2_3 
REMARK    2  A    between atoms: C2_3  and  C3_4 
ROOT
ATOM      1  C3  UNL d   1       3.043   4.932   2.397  0.00  0.00    -0.075 A 
ATOM      2  C4  UNL d   1       3.025   5.997   1.484  0.00  0.00     0.002 A 
ATOM      3  C5  UNL d   1       2.909   5.754   0.115  0.00  0.00     0.002 A 
ATOM      4  C6  UNL d   1       2.821   4.447  -0.359  0.00  0.00    -0.004 A 
ATOM      5  C7  UNL d   1       2.854   3.381   0.538  0.00  0.00     0.002 A 
ATOM      6  C8  UNL d   1       2.966   3.621   1.908  0.00  0.00     0.002 A 
ENDROOT
BRANCH   1   7
ATOM      7  C2  UNL d   1       3.139   5.189   3.882  0.00  0.00     0.056 C 
BRANCH   7   8
ATOM      8  C1  UNL d   1       1.968   5.998   4.451  0.00  0.00     0.007 C 
ATOM      9  C   UNL d   1       1.919   5.992   5.973  0.00  0.00     0.009 C 
ENDBRANCH   7   8
ENDBRANCH   1   7
TORSDOF 2
ENDMDL
