MODEL 1
REMARK minimizedAffinity 14.2153254
REMARK minimizedRMSD -1
REMARK  2 active torsions:
REMARK  status: ('A' for Active; 'I' for Inactive)
REMARK    1  A    between atoms: C1_2  and  C2_3 
REMARK    2  A    between atoms: C2_3  and  C3_4 
ROOT
ATOM      1  C3  UNL d   1       4.214   3.266   3.651  0.00  0.00    -0.075 A 
ATOM      2  C4  UNL d   1       5.129   2.283   4.055  0.00  0.00     0.002 A 
ATOM      3  C5  UNL d   1       6.000   2.520   5.119  0.00  0.00     0.002 A 
ATOM      4  C6  UNL d   1       5.975   3.744   5.784  0.00  0.00    -0.004 A 
ATOM      5  C7  UNL d   1       5.082   4.734   5.380  0.00  0.00     0.002 A 
ATOM      6  C8  UNL d   1       4.206   4.498   4.319  0.00  0.00     0.002 A 
ENDROOT
BRANCH   1   7
ATOM      7  C2  UNL d   1       3.249   3.005   2.520  0.00  0.00     0.056 C 
BRANCH   7   8
ATOM      8  C1  UNL d   1       3.222   4.107   1.456  0.00  0.00     0.007 C 
ATOM      9  C   UNL d   1       3.162   3.567   0.033  0.00  0.00     0.009 C 
ENDBRANCH   7   8
ENDBRANCH   1   7
TORSDOF 2
ENDMDL
