MODEL 1
REMARK minimizedAffinity 4.78369951
REMARK minimizedRMSD -1
REMARK  2 active torsions:
REMARK  status: ('A' for Active; 'I' for Inactive)
REMARK    1  A    between atoms: C1_2  and  C2_3 
REMARK    2  A    between atoms: C2_3  and  C3_4 
ROOT
ATOM      1  C3  UNL d   1       1.567   2.494  -1.845  0.00  0.00    -0.075 A 
ATOM      2  C4  UNL d   1       0.244   2.938  -1.985  0.00  0.00     0.002 A 
ATOM      3  C5  UNL d   1      -0.463   2.699  -3.163  0.00  0.00     0.002 A 
ATOM      4  C6  UNL d   1       0.145   2.023  -4.219  0.00  0.00    -0.004 A 
ATOM      5  C7  UNL d   1       1.464   1.592  -4.098  0.00  0.00     0.002 A 
ATOM      6  C8  UNL d   1       2.173   1.826  -2.918  0.00  0.00     0.002 A 
ENDROOT
BRANCH   1   7
ATOM      7  C2  UNL d   1       2.328   2.724  -0.561  0.00  0.00     0.056 C 
BRANCH   7   8
ATOM      8  C1  UNL d   1       2.716   1.436   0.173  0.00  0.00     0.007 C 
ATOM      9  C   UNL d   1       1.892   1.190   1.429  0.00  0.00     0.009 C 
ENDBRANCH   7   8
ENDBRANCH   1   7
TORSDOF 2
ENDMDL
