MODEL 1
REMARK minimizedAffinity 11.6327887
REMARK minimizedRMSD -1
REMARK  2 active torsions:
REMARK  status: ('A' for Active; 'I' for Inactive)
REMARK    1  A    between atoms: C1_2  and  C2_3 
REMARK    2  A    between atoms: C2_3  and  C3_4 
ROOT
ATOM      1  C3  UNL d   1       3.753   4.034   3.726  0.00  0.00    -0.075 A 
ATOM      2  C4  UNL d   1       4.894   3.980   4.540  0.00  0.00     0.002 A 
ATOM      3  C5  UNL d   1       5.087   4.918   5.554  0.00  0.00     0.002 A 
ATOM      4  C6  UNL d   1       4.148   5.926   5.762  0.00  0.00    -0.004 A 
ATOM      5  C7  UNL d   1       3.019   6.000   4.949  0.00  0.00     0.002 A 
ATOM      6  C8  UNL d   1       2.822   5.060   3.936  0.00  0.00     0.002 A 
ENDROOT
BRANCH   1   7
ATOM      7  C2  UNL d   1       3.525   3.004   2.646  0.00  0.00     0.056 C 
BRANCH   7   8
ATOM      8  C1  UNL d   1       2.415   1.998   2.969  0.00  0.00     0.007 C 
ATOM      9  C   UNL d   1       2.211   0.958   1.874  0.00  0.00     0.009 C 
ENDBRANCH   7   8
ENDBRANCH   1   7
TORSDOF 2
ENDMDL
