MODEL 1
REMARK minimizedAffinity 17.5491619
REMARK minimizedRMSD -1
REMARK  2 active torsions:
REMARK  status: ('A' for Active; 'I' for Inactive)
REMARK    1  A    between atoms: C1_2  and  C2_3 
REMARK    2  A    between atoms: C2_3  and  C3_4 
ROOT
ATOM      1  C3  UNL d   1       5.052   2.339   2.570  0.00  0.00    -0.075 A 
ATOM      2  C4  UNL d   1       5.465   2.852   1.332  0.00  0.00     0.002 A 
ATOM      3  C5  UNL d   1       4.661   2.707   0.201  0.00  0.00     0.002 A 
ATOM      4  C6  UNL d   1       3.441   2.040   0.291  0.00  0.00    -0.004 A 
ATOM      5  C7  UNL d   1       3.029   1.511   1.512  0.00  0.00     0.002 A 
ATOM      6  C8  UNL d   1       3.830   1.659   2.646  0.00  0.00     0.002 A 
ENDROOT
BRANCH   1   7
ATOM      7  C2  UNL d   1       5.904   2.519   3.804  0.00  0.00     0.056 C 
BRANCH   7   8
ATOM      8  C1  UNL d   1       5.998   3.968   4.291  0.00  0.00     0.007 C 
ATOM      9  C   UNL d   1       5.994   4.093   5.809  0.00  0.00     0.009 C 
ENDBRANCH   7   8
ENDBRANCH   1   7
TORSDOF 2
ENDMDL
