MODEL 1
REMARK minimizedAffinity 16.8353329
REMARK minimizedRMSD -1
REMARK  2 active torsions:
REMARK  status: ('A' for Active; 'I' for Inactive)
REMARK    1  A    between atoms: C1_2  and  C2_3 
REMARK    2  A    between atoms: C2_3  and  C3_4 
ROOT
ATOM      1  C3  UNL d   1       5.884   3.558  -3.447  0.00  0.00    -0.075 A 
ATOM      2  C4  UNL d   1       6.000   2.765  -4.598  0.00  0.00     0.002 A 
ATOM      3  C5  UNL d   1       5.919   3.342  -5.866  0.00  0.00     0.002 A 
ATOM      4  C6  UNL d   1       5.712   4.713  -6.000  0.00  0.00    -0.004 A 
ATOM      5  C7  UNL d   1       5.580   5.507  -4.863  0.00  0.00     0.002 A 
ATOM      6  C8  UNL d   1       5.664   4.934  -3.593  0.00  0.00     0.002 A 
ENDROOT
BRANCH   1   7
ATOM      7  C2  UNL d   1       5.999   2.945  -2.072  0.00  0.00     0.056 C 
BRANCH   7   8
ATOM      8  C1  UNL d   1       4.937   3.431  -1.081  0.00  0.00     0.007 C 
ATOM      9  C   UNL d   1       4.057   2.309  -0.545  0.00  0.00     0.009 C 
ENDBRANCH   7   8
ENDBRANCH   1   7
TORSDOF 2
ENDMDL
