MODEL 1
REMARK minimizedAffinity -2.02768898
REMARK minimizedRMSD -1
REMARK  0 active torsions:
REMARK  status: ('A' for Active; 'I' for Inactive)
ROOT
ATOM      1  C1  BNZ d   1       0.066   4.158  -1.912  0.00  0.00     0.000 A 
ATOM      2  C2  BNZ d   1       0.545   3.505  -0.808  0.00  0.00     0.000 A 
ATOM      3  C3  BNZ d   1      -0.177   3.470   0.353  0.00  0.00     0.000 A 
ATOM      4  C4  BNZ d   1      -1.356   4.121   0.420  0.00  0.00     0.000 A 
ATOM      5  C5  BNZ d   1      -1.848   4.792  -0.682  0.00  0.00     0.000 A 
ATOM      6  C6  BNZ d   1      -1.137   4.792  -1.860  0.00  0.00     0.000 A 
ENDROOT
TORSDOF 0
ENDMDL
