MODEL 1
REMARK minimizedAffinity 4.78712273
REMARK minimizedRMSD -1
REMARK  0 active torsions:
REMARK  status: ('A' for Active; 'I' for Inactive)
ROOT
ATOM      1  C1  BNZ d   1       1.222  -1.872   5.999  0.00  0.00     0.000 A 
ATOM      2  C2  BNZ d   1       1.486  -0.529   5.999  0.00  0.00     0.000 A 
ATOM      3  C3  BNZ d   1       1.736   0.136   4.831  0.00  0.00     0.000 A 
ATOM      4  C4  BNZ d   1       1.761  -0.550   3.670  0.00  0.00     0.000 A 
ATOM      5  C5  BNZ d   1       1.506  -1.907   3.655  0.00  0.00     0.000 A 
ATOM      6  C6  BNZ d   1       1.216  -2.565   4.828  0.00  0.00     0.000 A 
ENDROOT
TORSDOF 0
ENDMDL
