MODEL 1
REMARK minimizedAffinity 2.83092546
REMARK minimizedRMSD -1
REMARK  0 active torsions:
REMARK  status: ('A' for Active; 'I' for Inactive)
ROOT
ATOM      1  C1  BNZ d   1      -0.249   5.106   0.006  0.00  0.00     0.000 A 
ATOM      2  C2  BNZ d   1      -1.156   5.997  -0.503  0.00  0.00     0.000 A 
ATOM      3  C3  BNZ d   1      -1.528   5.943  -1.817  0.00  0.00     0.000 A 
ATOM      4  C4  BNZ d   1      -0.964   5.026  -2.629  0.00  0.00     0.000 A 
ATOM      5  C5  BNZ d   1      -0.041   4.127  -2.133  0.00  0.00     0.000 A 
ATOM      6  C6  BNZ d   1       0.302   4.159  -0.801  0.00  0.00     0.000 A 
ENDROOT
TORSDOF 0
ENDMDL
