MODEL 1
REMARK minimizedAffinity 4.68992853
REMARK minimizedRMSD -1
REMARK  0 active torsions:
REMARK  status: ('A' for Active; 'I' for Inactive)
ROOT
ATOM      1  C1  BNZ d   1      -0.296   1.957   2.565  0.00  0.00     0.000 A 
ATOM      2  C2  BNZ d   1      -0.207   2.917   1.593  0.00  0.00     0.000 A 
ATOM      3  C3  BNZ d   1       0.903   3.708   1.491  0.00  0.00     0.000 A 
ATOM      4  C4  BNZ d   1       1.904   3.565   2.384  0.00  0.00     0.000 A 
ATOM      5  C5  BNZ d   1       1.824   2.608   3.376  0.00  0.00     0.000 A 
ATOM      6  C6  BNZ d   1       0.723   1.787   3.452  0.00  0.00     0.000 A 
ENDROOT
TORSDOF 0
ENDMDL
