MODEL 1
REMARK minimizedAffinity 6.3161149
REMARK minimizedRMSD -1
REMARK  0 active torsions:
REMARK  status: ('A' for Active; 'I' for Inactive)
ROOT
ATOM      1  C1  BNZ d   1       0.914   2.311   1.976  0.00  0.00     0.000 A 
ATOM      2  C2  BNZ d   1       1.155   1.443   3.007  0.00  0.00     0.000 A 
ATOM      3  C3  BNZ d   1       0.123   0.865   3.691  0.00  0.00     0.000 A 
ATOM      4  C4  BNZ d   1      -1.147   1.186   3.371  0.00  0.00     0.000 A 
ATOM      5  C5  BNZ d   1      -1.406   2.066   2.340  0.00  0.00     0.000 A 
ATOM      6  C6  BNZ d   1      -0.365   2.617   1.628  0.00  0.00     0.000 A 
ENDROOT
TORSDOF 0
ENDMDL
