MODEL 1
REMARK minimizedAffinity 9.68196487
REMARK minimizedRMSD -1
REMARK  0 active torsions:
REMARK  status: ('A' for Active; 'I' for Inactive)
ROOT
ATOM      1  C1  BNZ d   1      -0.333   4.132  -2.225  0.00  0.00     0.000 A 
ATOM      2  C2  BNZ d   1      -1.125   5.238  -2.379  0.00  0.00     0.000 A 
ATOM      3  C3  BNZ d   1      -1.483   5.998  -1.300  0.00  0.00     0.000 A 
ATOM      4  C4  BNZ d   1      -1.081   5.629  -0.067  0.00  0.00     0.000 A 
ATOM      5  C5  BNZ d   1      -0.290   4.511   0.106  0.00  0.00     0.000 A 
ATOM      6  C6  BNZ d   1       0.100   3.771  -0.987  0.00  0.00     0.000 A 
ENDROOT
TORSDOF 0
ENDMDL
