MODEL 1
REMARK minimizedAffinity 1.79319274
REMARK minimizedRMSD -1
REMARK  0 active torsions:
REMARK  status: ('A' for Active; 'I' for Inactive)
ROOT
ATOM      1  C1  BNZ d   1       4.029  -4.662  -0.702  0.00  0.00     0.000 A 
ATOM      2  C2  BNZ d   1       3.128  -3.718  -0.286  0.00  0.00     0.000 A 
ATOM      3  C3  BNZ d   1       3.462  -2.393  -0.262  0.00  0.00     0.000 A 
ATOM      4  C4  BNZ d   1       4.708  -2.017  -0.616  0.00  0.00     0.000 A 
ATOM      5  C5  BNZ d   1       5.631  -2.958  -1.029  0.00  0.00     0.000 A 
ATOM      6  C6  BNZ d   1       5.279  -4.286  -1.088  0.00  0.00     0.000 A 
ENDROOT
TORSDOF 0
ENDMDL
