MODEL 1
REMARK minimizedAffinity -1.80577719
REMARK minimizedRMSD -1
REMARK  0 active torsions:
REMARK  status: ('A' for Active; 'I' for Inactive)
ROOT
ATOM      1  C1  BNZ d   1      -1.327   4.968  -2.052  0.00  0.00     0.000 A 
ATOM      2  C2  BNZ d   1      -0.751   3.929  -1.370  0.00  0.00     0.000 A 
ATOM      3  C3  BNZ d   1      -0.746   3.907  -0.003  0.00  0.00     0.000 A 
ATOM      4  C4  BNZ d   1      -1.280   4.941   0.678  0.00  0.00     0.000 A 
ATOM      5  C5  BNZ d   1      -1.856   6.000   0.005  0.00  0.00     0.000 A 
ATOM      6  C6  BNZ d   1      -1.894   6.000  -1.371  0.00  0.00     0.000 A 
ENDROOT
TORSDOF 0
ENDMDL
