MODEL 1
REMARK minimizedAffinity -1.82126439
REMARK minimizedRMSD -1
REMARK  0 active torsions:
REMARK  status: ('A' for Active; 'I' for Inactive)
ROOT
ATOM      1  C1  BNZ d   1       1.022   3.116   2.331  0.00  0.00     0.000 A 
ATOM      2  C2  BNZ d   1      -0.132   3.121   1.595  0.00  0.00     0.000 A 
ATOM      3  C3  BNZ d   1      -0.173   3.708   0.361  0.00  0.00     0.000 A 
ATOM      4  C4  BNZ d   1       0.927   4.324  -0.117  0.00  0.00     0.000 A 
ATOM      5  C5  BNZ d   1       2.096   4.336   0.617  0.00  0.00     0.000 A 
ATOM      6  C6  BNZ d   1       2.145   3.710   1.842  0.00  0.00     0.000 A 
ENDROOT
TORSDOF 0
ENDMDL
