MODEL 1
REMARK minimizedAffinity -3.09625816
REMARK minimizedRMSD -1
REMARK  2 active torsions:
REMARK  status: ('A' for Active; 'I' for Inactive)
REMARK    1  A    between atoms: C1_2  and  C2_3 
REMARK    2  A    between atoms: C2_3  and  C3_4 
ROOT
ATOM      1  C3  UNL d   1      -0.188  -0.230   1.665  0.00  0.00    -0.075 A 
ATOM      2  C4  UNL d   1       0.990   0.530   1.718  0.00  0.00     0.002 A 
ATOM      3  C5  UNL d   1       1.538   1.067   0.553  0.00  0.00     0.002 A 
ATOM      4  C6  UNL d   1       0.925   0.843  -0.677  0.00  0.00    -0.004 A 
ATOM      5  C7  UNL d   1      -0.236   0.075  -0.743  0.00  0.00     0.002 A 
ATOM      6  C8  UNL d   1      -0.790  -0.460   0.421  0.00  0.00     0.002 A 
ENDROOT
BRANCH   1   7
ATOM      7  C2  UNL d   1      -0.803  -0.790   2.926  0.00  0.00     0.056 C 
BRANCH   7   8
ATOM      8  C1  UNL d   1      -2.195  -0.233   3.241  0.00  0.00     0.007 C 
ATOM      9  C   UNL d   1      -2.350   1.238   2.876  0.00  0.00     0.009 C 
ENDBRANCH   7   8
ENDBRANCH   1   7
TORSDOF 2
ENDMDL
