MODEL 1
REMARK minimizedAffinity -5.88411808
REMARK minimizedRMSD -1
REMARK  2 active torsions:
REMARK  status: ('A' for Active; 'I' for Inactive)
REMARK    1  A    between atoms: C1_2  and  C2_3 
REMARK    2  A    between atoms: C2_3  and  C3_4 
ROOT
ATOM      1  C3  UNL d   1      -0.303   0.263  -0.082  0.00  0.00    -0.075 A 
ATOM      2  C4  UNL d   1      -1.423  -0.205   0.621  0.00  0.00     0.002 A 
ATOM      3  C5  UNL d   1      -1.338  -0.481   1.986  0.00  0.00     0.002 A 
ATOM      4  C6  UNL d   1      -0.133  -0.302   2.662  0.00  0.00    -0.004 A 
ATOM      5  C7  UNL d   1       0.990   0.146   1.970  0.00  0.00     0.002 A 
ATOM      6  C8  UNL d   1       0.907   0.427   0.605  0.00  0.00     0.002 A 
ENDROOT
BRANCH   1   7
ATOM      7  C2  UNL d   1      -0.396   0.591  -1.553  0.00  0.00     0.056 C 
BRANCH   7   8
ATOM      8  C1  UNL d   1       0.795   0.095  -2.380  0.00  0.00     0.007 C 
ATOM      9  C   UNL d   1       0.442  -1.056  -3.312  0.00  0.00     0.009 C 
ENDBRANCH   7   8
ENDBRANCH   1   7
TORSDOF 2
ENDMDL
