MODEL 1
REMARK minimizedAffinity -3.82061124
REMARK minimizedRMSD -1
REMARK  2 active torsions:
REMARK  status: ('A' for Active; 'I' for Inactive)
REMARK    1  A    between atoms: C1_2  and  C2_3 
REMARK    2  A    between atoms: C2_3  and  C3_4 
ROOT
ATOM      1  C3  UNL d   1       0.239   0.314  -0.414  0.00  0.00    -0.075 A 
ATOM      2  C4  UNL d   1      -1.041  -0.050   0.027  0.00  0.00     0.002 A 
ATOM      3  C5  UNL d   1      -1.347  -0.056   1.389  0.00  0.00     0.002 A 
ATOM      4  C6  UNL d   1      -0.376   0.293   2.325  0.00  0.00    -0.004 A 
ATOM      5  C7  UNL d   1       0.905   0.640   1.899  0.00  0.00     0.002 A 
ATOM      6  C8  UNL d   1       1.212   0.650   0.537  0.00  0.00     0.002 A 
ENDROOT
BRANCH   1   7
ATOM      7  C2  UNL d   1       0.567   0.350  -1.887  0.00  0.00     0.056 C 
BRANCH   7   8
ATOM      8  C1  UNL d   1       0.187  -0.928  -2.642  0.00  0.00     0.007 C 
ATOM      9  C   UNL d   1       1.303  -1.451  -3.537  0.00  0.00     0.009 C 
ENDBRANCH   7   8
ENDBRANCH   1   7
TORSDOF 2
ENDMDL
