MODEL 1
REMARK minimizedAffinity -4.36693478
REMARK minimizedRMSD -1
REMARK  2 active torsions:
REMARK  status: ('A' for Active; 'I' for Inactive)
REMARK    1  A    between atoms: C1_2  and  C2_3 
REMARK    2  A    between atoms: C2_3  and  C3_4 
ROOT
ATOM      1  C3  UNL d   1      -0.302   0.206   0.370  0.00  0.00    -0.075 A 
ATOM      2  C4  UNL d   1       1.040   0.132   0.769  0.00  0.00     0.002 A 
ATOM      3  C5  UNL d   1       1.372   0.011   2.119  0.00  0.00     0.002 A 
ATOM      4  C6  UNL d   1       0.369  -0.028   3.085  0.00  0.00    -0.004 A 
ATOM      5  C7  UNL d   1      -0.968   0.061   2.701  0.00  0.00     0.002 A 
ATOM      6  C8  UNL d   1      -1.303   0.178   1.351  0.00  0.00     0.002 A 
ENDROOT
BRANCH   1   7
ATOM      7  C2  UNL d   1      -0.669   0.308  -1.091  0.00  0.00     0.056 C 
BRANCH   7   8
ATOM      8  C1  UNL d   1       0.437  -0.154  -2.046  0.00  0.00     0.007 C 
ATOM      9  C   UNL d   1      -0.062  -1.094  -3.134  0.00  0.00     0.009 C 
ENDBRANCH   7   8
ENDBRANCH   1   7
TORSDOF 2
ENDMDL
