MODEL 1
REMARK minimizedAffinity -3.85763359
REMARK minimizedRMSD -1
REMARK  2 active torsions:
REMARK  status: ('A' for Active; 'I' for Inactive)
REMARK    1  A    between atoms: C1_2  and  C2_3 
REMARK    2  A    between atoms: C2_3  and  C3_4 
ROOT
ATOM      1  C3  UNL d   1       0.857   0.346  -1.274  0.00  0.00    -0.075 A 
ATOM      2  C4  UNL d   1      -0.280  -0.260  -1.827  0.00  0.00     0.002 A 
ATOM      3  C5  UNL d   1      -0.229  -0.841  -3.094  0.00  0.00     0.002 A 
ATOM      4  C6  UNL d   1       0.955  -0.813  -3.828  0.00  0.00    -0.004 A 
ATOM      5  C7  UNL d   1       2.087  -0.199  -3.296  0.00  0.00     0.002 A 
ATOM      6  C8  UNL d   1       2.039   0.379  -2.026  0.00  0.00     0.002 A 
ENDROOT
BRANCH   1   7
ATOM      7  C2  UNL d   1       0.815   0.950   0.110  0.00  0.00     0.056 C 
BRANCH   7   8
ATOM      8  C1  UNL d   1       0.851  -0.082   1.242  0.00  0.00     0.007 C 
ATOM      9  C   UNL d   1       0.073   0.354   2.476  0.00  0.00     0.009 C 
ENDBRANCH   7   8
ENDBRANCH   1   7
TORSDOF 2
ENDMDL
