MODEL 1
REMARK minimizedAffinity -3.9539876
REMARK minimizedRMSD -1
REMARK  2 active torsions:
REMARK  status: ('A' for Active; 'I' for Inactive)
REMARK    1  A    between atoms: C1_2  and  C2_3 
REMARK    2  A    between atoms: C2_3  and  C3_4 
ROOT
ATOM      1  C3  UNL d   1       0.529   0.014  -1.163  0.00  0.00    -0.075 A 
ATOM      2  C4  UNL d   1      -0.400  -0.901  -1.679  0.00  0.00     0.002 A 
ATOM      3  C5  UNL d   1      -0.274  -1.379  -2.984  0.00  0.00     0.002 A 
ATOM      4  C6  UNL d   1       0.774  -0.941  -3.791  0.00  0.00    -0.004 A 
ATOM      5  C7  UNL d   1       1.693  -0.019  -3.294  0.00  0.00     0.002 A 
ATOM      6  C8  UNL d   1       1.572   0.457  -1.988  0.00  0.00     0.002 A 
ENDROOT
BRANCH   1   7
ATOM      7  C2  UNL d   1       0.415   0.512   0.258  0.00  0.00     0.056 C 
BRANCH   7   8
ATOM      8  C1  UNL d   1       1.584   0.099   1.159  0.00  0.00     0.007 C 
ATOM      9  C   UNL d   1       1.180  -0.094   2.615  0.00  0.00     0.009 C 
ENDBRANCH   7   8
ENDBRANCH   1   7
TORSDOF 2
ENDMDL
