MODEL 1
REMARK minimizedAffinity -5.14627171
REMARK minimizedRMSD -1
REMARK  2 active torsions:
REMARK  status: ('A' for Active; 'I' for Inactive)
REMARK    1  A    between atoms: C1_2  and  C2_3 
REMARK    2  A    between atoms: C2_3  and  C3_4 
ROOT
ATOM      1  C3  UNL d   1       0.170   0.296  -0.370  0.00  0.00    -0.075 A 
ATOM      2  C4  UNL d   1       1.451   0.474   0.174  0.00  0.00     0.002 A 
ATOM      3  C5  UNL d   1       1.703   0.160   1.509  0.00  0.00     0.002 A 
ATOM      4  C6  UNL d   1       0.679  -0.326   2.319  0.00  0.00    -0.004 A 
ATOM      5  C7  UNL d   1      -0.601  -0.491   1.794  0.00  0.00     0.002 A 
ATOM      6  C8  UNL d   1      -0.855  -0.182   0.456  0.00  0.00     0.002 A 
ENDROOT
BRANCH   1   7
ATOM      7  C2  UNL d   1      -0.102   0.606  -1.823  0.00  0.00     0.056 C 
BRANCH   7   8
ATOM      8  C1  UNL d   1       1.004   0.145  -2.777  0.00  0.00     0.007 C 
ATOM      9  C   UNL d   1       0.716  -1.204  -3.424  0.00  0.00     0.009 C 
ENDBRANCH   7   8
ENDBRANCH   1   7
TORSDOF 2
ENDMDL
