MODEL 1
REMARK minimizedAffinity -3.35677052
REMARK minimizedRMSD -1
REMARK  2 active torsions:
REMARK  status: ('A' for Active; 'I' for Inactive)
REMARK    1  A    between atoms: C1_2  and  C2_3 
REMARK    2  A    between atoms: C2_3  and  C3_4 
ROOT
ATOM      1  C3  UNL d   1       0.213   0.288  -0.587  0.00  0.00    -0.075 A 
ATOM      2  C4  UNL d   1       1.150   0.436   0.445  0.00  0.00     0.002 A 
ATOM      3  C5  UNL d   1       0.738   0.472   1.777  0.00  0.00     0.002 A 
ATOM      4  C6  UNL d   1      -0.615   0.371   2.093  0.00  0.00    -0.004 A 
ATOM      5  C7  UNL d   1      -1.557   0.241   1.075  0.00  0.00     0.002 A 
ATOM      6  C8  UNL d   1      -1.147   0.200  -0.259  0.00  0.00     0.002 A 
ENDROOT
BRANCH   1   7
ATOM      7  C2  UNL d   1       0.655   0.219  -2.029  0.00  0.00     0.056 C 
BRANCH   7   8
ATOM      8  C1  UNL d   1       0.334  -1.111  -2.718  0.00  0.00     0.007 C 
ATOM      9  C   UNL d   1       1.574  -1.861  -3.184  0.00  0.00     0.009 C 
ENDBRANCH   7   8
ENDBRANCH   1   7
TORSDOF 2
ENDMDL
