MODEL 1
REMARK minimizedAffinity -0.918462574
REMARK minimizedRMSD -1
REMARK  2 active torsions:
REMARK  status: ('A' for Active; 'I' for Inactive)
REMARK    1  A    between atoms: C1_2  and  C2_3 
REMARK    2  A    between atoms: C2_3  and  C3_4 
ROOT
ATOM      1  C3  UNL d   1      -0.116   0.368   1.111  0.00  0.00    -0.075 A 
ATOM      2  C4  UNL d   1      -1.472   0.008   1.086  0.00  0.00     0.002 A 
ATOM      3  C5  UNL d   1      -2.309   0.328   2.155  0.00  0.00     0.002 A 
ATOM      4  C6  UNL d   1      -1.802   1.000   3.265  0.00  0.00    -0.004 A 
ATOM      5  C7  UNL d   1      -0.453   1.347   3.308  0.00  0.00     0.002 A 
ATOM      6  C8  UNL d   1       0.386   1.033   2.238  0.00  0.00     0.002 A 
ENDROOT
BRANCH   1   7
ATOM      7  C2  UNL d   1       0.789   0.051  -0.055  0.00  0.00     0.056 C 
BRANCH   7   8
ATOM      8  C1  UNL d   1       0.085   0.076  -1.416  0.00  0.00     0.007 C 
ATOM      9  C   UNL d   1       0.957  -0.438  -2.553  0.00  0.00     0.009 C 
ENDBRANCH   7   8
ENDBRANCH   1   7
TORSDOF 2
ENDMDL
