MODEL 1
REMARK minimizedAffinity -1.64106143
REMARK minimizedRMSD -1
REMARK  2 active torsions:
REMARK  status: ('A' for Active; 'I' for Inactive)
REMARK    1  A    between atoms: C1_2  and  C2_3 
REMARK    2  A    between atoms: C2_3  and  C3_4 
ROOT
ATOM      1  C3  UNL d   1      -2.221   1.533   2.910  0.00  0.00    -0.075 A 
ATOM      2  C4  UNL d   1      -2.844   2.731   3.291  0.00  0.00     0.002 A 
ATOM      3  C5  UNL d   1      -2.107   3.752   3.892  0.00  0.00     0.002 A 
ATOM      4  C6  UNL d   1      -0.744   3.586   4.127  0.00  0.00    -0.004 A 
ATOM      5  C7  UNL d   1      -0.119   2.394   3.768  0.00  0.00     0.002 A 
ATOM      6  C8  UNL d   1      -0.853   1.372   3.163  0.00  0.00     0.002 A 
ENDROOT
BRANCH   1   7
ATOM      7  C2  UNL d   1      -3.007   0.436   2.233  0.00  0.00     0.056 C 
BRANCH   7   8
ATOM      8  C1  UNL d   1      -2.943   0.475   0.703  0.00  0.00     0.007 C 
ATOM      9  C   UNL d   1      -1.558   0.165   0.152  0.00  0.00     0.009 C 
ENDBRANCH   7   8
ENDBRANCH   1   7
TORSDOF 2
ENDMDL
