MODEL 1
REMARK minimizedAffinity -2.5675106
REMARK minimizedRMSD -1
REMARK  2 active torsions:
REMARK  status: ('A' for Active; 'I' for Inactive)
REMARK    1  A    between atoms: C1_2  and  C2_3 
REMARK    2  A    between atoms: C2_3  and  C3_4 
ROOT
ATOM      1  C3  UNL d   1       0.357  -0.225  -1.708  0.00  0.00    -0.075 A 
ATOM      2  C4  UNL d   1      -0.466  -1.179  -2.324  0.00  0.00     0.002 A 
ATOM      3  C5  UNL d   1      -0.055  -1.819  -3.493  0.00  0.00     0.002 A 
ATOM      4  C6  UNL d   1       1.175  -1.507  -4.067  0.00  0.00    -0.004 A 
ATOM      5  C7  UNL d   1       1.993  -0.549  -3.473  0.00  0.00     0.002 A 
ATOM      6  C8  UNL d   1       1.587   0.090  -2.300  0.00  0.00     0.002 A 
ENDROOT
BRANCH   1   7
ATOM      7  C2  UNL d   1      -0.068   0.450  -0.425  0.00  0.00     0.056 C 
BRANCH   7   8
ATOM      8  C1  UNL d   1       1.056   0.593   0.606  0.00  0.00     0.007 C 
ATOM      9  C   UNL d   1       0.707  -0.007   1.961  0.00  0.00     0.009 C 
ENDBRANCH   7   8
ENDBRANCH   1   7
TORSDOF 2
ENDMDL
