MODEL 1
REMARK minimizedAffinity -2.32523179
REMARK minimizedRMSD -1
REMARK  2 active torsions:
REMARK  status: ('A' for Active; 'I' for Inactive)
REMARK    1  A    between atoms: C1_2  and  C2_3 
REMARK    2  A    between atoms: C2_3  and  C3_4 
ROOT
ATOM      1  C3  UNL d   1       0.718  -0.050  -0.188  0.00  0.00    -0.075 A 
ATOM      2  C4  UNL d   1      -0.613   0.384  -0.103  0.00  0.00     0.002 A 
ATOM      3  C5  UNL d   1      -1.226   0.550   1.139  0.00  0.00     0.002 A 
ATOM      4  C6  UNL d   1      -0.521   0.277   2.309  0.00  0.00    -0.004 A 
ATOM      5  C7  UNL d   1       0.797  -0.170   2.236  0.00  0.00     0.002 A 
ATOM      6  C8  UNL d   1       1.414  -0.334   0.994  0.00  0.00     0.002 A 
ENDROOT
BRANCH   1   7
ATOM      7  C2  UNL d   1       1.396  -0.204  -1.529  0.00  0.00     0.056 C 
BRANCH   7   8
ATOM      8  C1  UNL d   1       0.553  -0.944  -2.573  0.00  0.00     0.007 C 
ATOM      9  C   UNL d   1       1.119  -2.308  -2.944  0.00  0.00     0.009 C 
ENDBRANCH   7   8
ENDBRANCH   1   7
TORSDOF 2
ENDMDL
