MODEL 1
REMARK minimizedAffinity 2.71224165
REMARK minimizedRMSD -1
REMARK  0 active torsions:
REMARK  status: ('A' for Active; 'I' for Inactive)
ROOT
ATOM      1  C   UNL d   1      -1.540   4.223  -5.539  0.00  0.00     0.172 C 
ATOM      2  N   UNL d   1      -1.173   3.975  -4.165  0.00  0.00    -0.070 N 
ATOM      3  C1  UNL d   1      -1.790   3.091  -3.321  0.00  0.00    -0.004 A 
ATOM      4  C2  UNL d   1      -1.145   3.149  -2.104  0.00  0.00    -0.047 A 
ATOM      5  C3  UNL d   1      -0.105   4.101  -2.221  0.00  0.00    -0.047 A 
ATOM      6  C4  UNL d   1      -0.145   4.597  -3.507  0.00  0.00    -0.004 A 
ENDROOT
TORSDOF 0
ENDMDL
