MODEL 1
REMARK minimizedAffinity 0.202555567
REMARK minimizedRMSD -1
REMARK  0 active torsions:
REMARK  status: ('A' for Active; 'I' for Inactive)
ROOT
ATOM      1  C   UNL d   1      -3.063  -0.387  -0.457  0.00  0.00     0.172 C 
ATOM      2  N   UNL d   1      -1.687  -0.504  -0.036  0.00  0.00    -0.070 N 
ATOM      3  C1  UNL d   1      -0.839  -1.531  -0.355  0.00  0.00    -0.004 A 
ATOM      4  C2  UNL d   1       0.379  -1.272   0.237  0.00  0.00    -0.047 A 
ATOM      5  C3  UNL d   1       0.258  -0.048   0.936  0.00  0.00    -0.047 A 
ATOM      6  C4  UNL d   1      -1.031   0.406   0.751  0.00  0.00    -0.004 A 
ENDROOT
TORSDOF 0
ENDMDL
