MODEL 1
REMARK minimizedAffinity 3.66771221
REMARK minimizedRMSD -1
REMARK  0 active torsions:
REMARK  status: ('A' for Active; 'I' for Inactive)
ROOT
ATOM      1  C   UNL d   1       1.973  -0.425   2.120  0.00  0.00     0.172 C 
ATOM      2  N   UNL d   1       0.681  -0.995   1.816  0.00  0.00    -0.070 N 
ATOM      3  C1  UNL d   1       0.449  -2.291   1.441  0.00  0.00    -0.004 A 
ATOM      4  C2  UNL d   1      -0.907  -2.437   1.244  0.00  0.00    -0.047 A 
ATOM      5  C3  UNL d   1      -1.511  -1.185   1.509  0.00  0.00    -0.047 A 
ATOM      6  C4  UNL d   1      -0.504  -0.310   1.861  0.00  0.00    -0.004 A 
ENDROOT
TORSDOF 0
ENDMDL
