MODEL 1
REMARK minimizedAffinity 6.68312407
REMARK minimizedRMSD -1
REMARK  0 active torsions:
REMARK  status: ('A' for Active; 'I' for Inactive)
ROOT
ATOM      1  C   UNL d   1      -0.208  -0.925   2.492  0.00  0.00     0.172 C 
ATOM      2  N   UNL d   1      -0.711  -1.741   3.572  0.00  0.00    -0.070 N 
ATOM      3  C1  UNL d   1      -1.225  -3.003   3.446  0.00  0.00    -0.004 A 
ATOM      4  C2  UNL d   1      -1.591  -3.437   4.702  0.00  0.00    -0.047 A 
ATOM      5  C3  UNL d   1      -1.287  -2.399   5.614  0.00  0.00    -0.047 A 
ATOM      6  C4  UNL d   1      -0.743  -1.361   4.888  0.00  0.00    -0.004 A 
ENDROOT
TORSDOF 0
ENDMDL
