MODEL 1
REMARK minimizedAffinity 3.57137632
REMARK minimizedRMSD -1
REMARK  0 active torsions:
REMARK  status: ('A' for Active; 'I' for Inactive)
ROOT
ATOM      1  C   UNL d   1      -0.324  -6.000  -3.541  0.00  0.00     0.172 C 
ATOM      2  N   UNL d   1      -1.409  -5.361  -2.834  0.00  0.00    -0.070 N 
ATOM      3  C1  UNL d   1      -2.488  -6.000  -2.283  0.00  0.00    -0.004 A 
ATOM      4  C2  UNL d   1      -3.292  -5.044  -1.701  0.00  0.00    -0.047 A 
ATOM      5  C3  UNL d   1      -2.675  -3.787  -1.910  0.00  0.00    -0.047 A 
ATOM      6  C4  UNL d   1      -1.511  -4.013  -2.613  0.00  0.00    -0.004 A 
ENDROOT
TORSDOF 0
ENDMDL
