MODEL 1
REMARK minimizedAffinity 8.00667095
REMARK minimizedRMSD -1
REMARK  0 active torsions:
REMARK  status: ('A' for Active; 'I' for Inactive)
ROOT
ATOM      1  C   UNL d   1       2.237   0.672  -0.656  0.00  0.00     0.172 C 
ATOM      2  N   UNL d   1       2.268   2.115  -0.617  0.00  0.00    -0.070 N 
ATOM      3  C1  UNL d   1       1.174   2.936  -0.561  0.00  0.00    -0.004 A 
ATOM      4  C2  UNL d   1       1.623   4.238  -0.538  0.00  0.00    -0.047 A 
ATOM      5  C3  UNL d   1       3.037   4.199  -0.583  0.00  0.00    -0.047 A 
ATOM      6  C4  UNL d   1       3.410   2.872  -0.631  0.00  0.00    -0.004 A 
ENDROOT
TORSDOF 0
ENDMDL
