MODEL 1
REMARK minimizedAffinity 0.0339243449
REMARK minimizedRMSD -1
REMARK  0 active torsions:
REMARK  status: ('A' for Active; 'I' for Inactive)
ROOT
ATOM      1  C   UNL d   1       0.680   0.091   0.420  0.00  0.00     0.172 C 
ATOM      2  N   UNL d   1       1.177   1.276  -0.239  0.00  0.00    -0.070 N 
ATOM      3  C1  UNL d   1       0.489   2.448  -0.399  0.00  0.00    -0.004 A 
ATOM      4  C2  UNL d   1       1.306   3.329  -1.075  0.00  0.00    -0.047 A 
ATOM      5  C3  UNL d   1       2.528   2.661  -1.329  0.00  0.00    -0.047 A 
ATOM      6  C4  UNL d   1       2.421   1.392  -0.801  0.00  0.00    -0.004 A 
ENDROOT
TORSDOF 0
ENDMDL
