MODEL 1
REMARK minimizedAffinity -1.98545778
REMARK minimizedRMSD -1
REMARK  0 active torsions:
REMARK  status: ('A' for Active; 'I' for Inactive)
ROOT
ATOM      1  C   UNL d   1      -4.757  -5.999   1.478  0.00  0.00     0.172 C 
ATOM      2  N   UNL d   1      -4.720  -5.638   0.080  0.00  0.00    -0.070 N 
ATOM      3  C1  UNL d   1      -5.646  -5.999  -0.862  0.00  0.00    -0.004 A 
ATOM      4  C2  UNL d   1      -5.254  -5.458  -2.067  0.00  0.00    -0.047 A 
ATOM      5  C3  UNL d   1      -4.051  -4.747  -1.842  0.00  0.00    -0.047 A 
ATOM      6  C4  UNL d   1      -3.744  -4.875  -0.504  0.00  0.00    -0.004 A 
ENDROOT
TORSDOF 0
ENDMDL
