MODEL 1
REMARK minimizedAffinity 2.55519104
REMARK minimizedRMSD -1
REMARK  0 active torsions:
REMARK  status: ('A' for Active; 'I' for Inactive)
ROOT
ATOM      1  C   UNL d   1       0.156  -1.239   1.200  0.00  0.00     0.172 C 
ATOM      2  N   UNL d   1       1.359  -0.718   0.595  0.00  0.00    -0.070 N 
ATOM      3  C1  UNL d   1       1.415   0.048  -0.539  0.00  0.00    -0.004 A 
ATOM      4  C2  UNL d   1       2.739   0.340  -0.785  0.00  0.00    -0.047 A 
ATOM      5  C3  UNL d   1       3.505  -0.271   0.236  0.00  0.00    -0.047 A 
ATOM      6  C4  UNL d   1       2.626  -0.920   1.077  0.00  0.00    -0.004 A 
ENDROOT
TORSDOF 0
ENDMDL
