MODEL 1
REMARK minimizedAffinity 6.32096291
REMARK minimizedRMSD -1
REMARK  0 active torsions:
REMARK  status: ('A' for Active; 'I' for Inactive)
ROOT
ATOM      1  C   UNL d   1      -6.000  -6.000  -2.333  0.00  0.00     0.172 C 
ATOM      2  N   UNL d   1      -4.730  -5.315  -2.271  0.00  0.00    -0.070 N 
ATOM      3  C1  UNL d   1      -3.512  -5.863  -2.573  0.00  0.00    -0.004 A 
ATOM      4  C2  UNL d   1      -2.554  -4.890  -2.390  0.00  0.00    -0.047 A 
ATOM      5  C3  UNL d   1      -3.219  -3.716  -1.962  0.00  0.00    -0.047 A 
ATOM      6  C4  UNL d   1      -4.565  -4.008  -1.897  0.00  0.00    -0.004 A 
ENDROOT
TORSDOF 0
ENDMDL
