MODEL 1
REMARK minimizedAffinity 3.31162596
REMARK minimizedRMSD -1
REMARK  0 active torsions:
REMARK  status: ('A' for Active; 'I' for Inactive)
ROOT
ATOM      1  C   UNL d   1       0.005   0.733   0.244  0.00  0.00     0.172 C 
ATOM      2  N   UNL d   1       0.272   1.954  -0.479  0.00  0.00    -0.070 N 
ATOM      3  C1  UNL d   1       1.504   2.527  -0.651  0.00  0.00    -0.004 A 
ATOM      4  C2  UNL d   1       1.336   3.675  -1.394  0.00  0.00    -0.047 A 
ATOM      5  C3  UNL d   1      -0.045   3.797  -1.678  0.00  0.00    -0.047 A 
ATOM      6  C4  UNL d   1      -0.680   2.719  -1.100  0.00  0.00    -0.004 A 
ENDROOT
TORSDOF 0
ENDMDL
