MODEL 1
REMARK minimizedAffinity -1.22199249
REMARK minimizedRMSD -1
REMARK  0 active torsions:
REMARK  status: ('A' for Active; 'I' for Inactive)
ROOT
ATOM      1  C   UNL d   1       3.388  -0.997   0.185  0.00  0.00     0.172 C 
ATOM      2  N   UNL d   1       2.033  -1.460   0.374  0.00  0.00    -0.070 N 
ATOM      3  C1  UNL d   1       1.595  -2.745   0.195  0.00  0.00    -0.004 A 
ATOM      4  C2  UNL d   1       0.246  -2.774   0.474  0.00  0.00    -0.047 A 
ATOM      5  C3  UNL d   1      -0.141  -1.461   0.833  0.00  0.00    -0.047 A 
ATOM      6  C4  UNL d   1       0.985  -0.668   0.762  0.00  0.00    -0.004 A 
ENDROOT
TORSDOF 0
ENDMDL
