MODEL 1
REMARK minimizedAffinity 7.07839918
REMARK minimizedRMSD -1
REMARK  0 active torsions:
REMARK  status: ('A' for Active; 'I' for Inactive)
ROOT
ATOM      1  C   UNL d   1      -1.326  -1.213   4.136  0.00  0.00     0.172 C 
ATOM      2  N   UNL d   1      -0.655  -0.915   2.893  0.00  0.00    -0.070 N 
ATOM      3  C1  UNL d   1       0.592  -0.363   2.771  0.00  0.00    -0.004 A 
ATOM      4  C2  UNL d   1       0.869  -0.239   1.426  0.00  0.00    -0.047 A 
ATOM      5  C3  UNL d   1      -0.251  -0.733   0.716  0.00  0.00    -0.047 A 
ATOM      6  C4  UNL d   1      -1.179  -1.145   1.648  0.00  0.00    -0.004 A 
ENDROOT
TORSDOF 0
ENDMDL
