MODEL 1
REMARK minimizedAffinity 3.06336355
REMARK minimizedRMSD -1
REMARK  0 active torsions:
REMARK  status: ('A' for Active; 'I' for Inactive)
ROOT
ATOM      1  C   UNL d   1      -0.995  -1.958   1.031  0.00  0.00     0.172 C 
ATOM      2  N   UNL d   1      -1.580  -2.911   0.117  0.00  0.00    -0.070 N 
ATOM      3  C1  UNL d   1      -2.913  -3.024  -0.173  0.00  0.00    -0.004 A 
ATOM      4  C2  UNL d   1      -3.062  -4.046  -1.086  0.00  0.00    -0.047 A 
ATOM      5  C3  UNL d   1      -1.773  -4.566  -1.353  0.00  0.00    -0.047 A 
ATOM      6  C4  UNL d   1      -0.874  -3.845  -0.595  0.00  0.00    -0.004 A 
ENDROOT
TORSDOF 0
ENDMDL
