MODEL 1
REMARK minimizedAffinity 2.9923327
REMARK minimizedRMSD -1
REMARK  0 active torsions:
REMARK  status: ('A' for Active; 'I' for Inactive)
ROOT
ATOM      1  C   UNL d   1      -2.949  -4.171   4.500  0.00  0.00     0.172 C 
ATOM      2  N   UNL d   1      -4.190  -4.909   4.505  0.00  0.00    -0.070 N 
ATOM      3  C1  UNL d   1      -4.870  -5.336   3.395  0.00  0.00    -0.004 A 
ATOM      4  C2  UNL d   1      -6.000  -6.000   3.822  0.00  0.00    -0.047 A 
ATOM      5  C3  UNL d   1      -5.999  -5.971   5.236  0.00  0.00    -0.047 A 
ATOM      6  C4  UNL d   1      -4.868  -5.290   5.633  0.00  0.00    -0.004 A 
ENDROOT
TORSDOF 0
ENDMDL
