MODEL 1
REMARK minimizedAffinity 8.34434319
REMARK minimizedRMSD -1
REMARK  0 active torsions:
REMARK  status: ('A' for Active; 'I' for Inactive)
ROOT
ATOM      1  C   UNL d   1       1.800   0.146   0.711  0.00  0.00     0.172 C 
ATOM      2  N   UNL d   1       1.007  -1.027   0.994  0.00  0.00    -0.070 N 
ATOM      3  C1  UNL d   1       0.027  -1.116   1.946  0.00  0.00    -0.004 A 
ATOM      4  C2  UNL d   1      -0.489  -2.393   1.901  0.00  0.00    -0.047 A 
ATOM      5  C3  UNL d   1       0.205  -3.096   0.888  0.00  0.00    -0.047 A 
ATOM      6  C4  UNL d   1       1.126  -2.226   0.343  0.00  0.00    -0.004 A 
ENDROOT
TORSDOF 0
ENDMDL
