MODEL 1
REMARK minimizedAffinity 2.13285446
REMARK minimizedRMSD -1
REMARK  0 active torsions:
REMARK  status: ('A' for Active; 'I' for Inactive)
ROOT
ATOM      1  C   UNL d   1       0.726  -1.229   1.344  0.00  0.00     0.124 A 
ATOM      2  C1  UNL d   1       1.428  -0.841   0.211  0.00  0.00     0.062 A 
ATOM      3  C2  UNL d   1       0.880   0.088  -0.668  0.00  0.00     0.162 A 
ATOM      4  C3  UNL d   1      -0.378   0.637  -0.418  0.00  0.00    -0.034 A 
ATOM      5  C4  UNL d   1      -1.078   0.242   0.723  0.00  0.00     0.162 A 
ATOM      6  C5  UNL d   1      -0.526  -0.688   1.599  0.00  0.00     0.062 A 
ATOM      7  F   UNL d   1      -1.206  -1.061   2.693  0.00  0.00    -0.097 F 
ATOM      8  F1  UNL d   1      -2.290   0.750   0.994  0.00  0.00    -0.096 F 
ATOM      9  I   UNL d   1      -1.201   2.027  -1.730  0.00  0.00    -0.060 I 
ATOM     10  F2  UNL d   1       1.580   0.445  -1.755  0.00  0.00    -0.096 F 
ATOM     11  F3  UNL d   1       2.638  -1.363  -0.038  0.00  0.00    -0.097 F 
ATOM     12  F4  UNL d   1       1.256  -2.124   2.188  0.00  0.00    -0.092 F 
ENDROOT
TORSDOF 0
ENDMDL
