MODEL 1
REMARK minimizedAffinity 1.7755034
REMARK minimizedRMSD -1
REMARK  0 active torsions:
REMARK  status: ('A' for Active; 'I' for Inactive)
ROOT
ATOM      1  C   UNL d   1       0.973  -1.628   1.552  0.00  0.00     0.124 A 
ATOM      2  C1  UNL d   1      -0.234  -0.979   1.774  0.00  0.00     0.062 A 
ATOM      3  C2  UNL d   1      -0.619   0.081   0.958  0.00  0.00     0.162 A 
ATOM      4  C3  UNL d   1       0.203   0.498  -0.089  0.00  0.00    -0.034 A 
ATOM      5  C4  UNL d   1       1.415  -0.160  -0.305  0.00  0.00     0.162 A 
ATOM      6  C5  UNL d   1       1.796  -1.218   0.513  0.00  0.00     0.062 A 
ATOM      7  F   UNL d   1       2.962  -1.845   0.296  0.00  0.00    -0.097 F 
ATOM      8  F1  UNL d   1       2.230   0.216  -1.303  0.00  0.00    -0.096 F 
ATOM      9  I   UNL d   1      -0.369   2.082  -1.311  0.00  0.00    -0.060 I 
ATOM     10  F2  UNL d   1      -1.790   0.690   1.196  0.00  0.00    -0.096 F 
ATOM     11  F3  UNL d   1      -1.030  -1.373   2.778  0.00  0.00    -0.097 F 
ATOM     12  F4  UNL d   1       1.341  -2.647   2.339  0.00  0.00    -0.092 F 
ENDROOT
TORSDOF 0
ENDMDL
