MODEL 1
REMARK minimizedAffinity 4.43723059
REMARK minimizedRMSD -1
REMARK  0 active torsions:
REMARK  status: ('A' for Active; 'I' for Inactive)
ROOT
ATOM      1  C   UNL d   1      -2.173   1.874  -2.193  0.00  0.00     0.124 A 
ATOM      2  C1  UNL d   1      -0.931   2.207  -1.671  0.00  0.00     0.062 A 
ATOM      3  C2  UNL d   1      -0.319   1.378  -0.735  0.00  0.00     0.162 A 
ATOM      4  C3  UNL d   1      -0.949   0.206  -0.316  0.00  0.00    -0.034 A 
ATOM      5  C4  UNL d   1      -2.199  -0.122  -0.844  0.00  0.00     0.162 A 
ATOM      6  C5  UNL d   1      -2.806   0.710  -1.779  0.00  0.00     0.062 A 
ATOM      7  F   UNL d   1      -4.006   0.387  -2.282  0.00  0.00    -0.097 F 
ATOM      8  F1  UNL d   1      -2.832  -1.241  -0.463  0.00  0.00    -0.096 F 
ATOM      9  I   UNL d   1      -0.038  -1.037   1.083  0.00  0.00    -0.060 I 
ATOM     10  F2  UNL d   1       0.881   1.725  -0.248  0.00  0.00    -0.096 F 
ATOM     11  F3  UNL d   1      -0.318   3.332  -2.068  0.00  0.00    -0.097 F 
ATOM     12  F4  UNL d   1      -2.760   2.675  -3.092  0.00  0.00    -0.092 F 
ENDROOT
TORSDOF 0
ENDMDL
