MODEL 1
REMARK minimizedAffinity -1.31709599
REMARK minimizedRMSD -1
REMARK  0 active torsions:
REMARK  status: ('A' for Active; 'I' for Inactive)
ROOT
ATOM      1  C   UNL d   1      -1.655   1.408  -2.456  0.00  0.00     0.124 A 
ATOM      2  C1  UNL d   1      -1.415   1.924  -1.190  0.00  0.00     0.062 A 
ATOM      3  C2  UNL d   1      -0.515   1.292  -0.336  0.00  0.00     0.162 A 
ATOM      4  C3  UNL d   1       0.153   0.139  -0.746  0.00  0.00    -0.034 A 
ATOM      5  C4  UNL d   1      -0.094  -0.374  -2.021  0.00  0.00     0.162 A 
ATOM      6  C5  UNL d   1      -0.994   0.261  -2.870  0.00  0.00     0.062 A 
ATOM      7  F   UNL d   1      -1.225  -0.239  -4.093  0.00  0.00    -0.097 F 
ATOM      8  F1  UNL d   1       0.532  -1.481  -2.447  0.00  0.00    -0.096 F 
ATOM      9  I   UNL d   1       1.500  -0.808   0.527  0.00  0.00    -0.060 I 
ATOM     10  F2  UNL d   1      -0.303   1.812   0.882  0.00  0.00    -0.096 F 
ATOM     11  F3  UNL d   1      -2.053   3.032  -0.786  0.00  0.00    -0.097 F 
ATOM     12  F4  UNL d   1      -2.522   2.017  -3.275  0.00  0.00    -0.092 F 
ENDROOT
TORSDOF 0
ENDMDL
