MODEL 1
REMARK minimizedAffinity 8.40398979
REMARK minimizedRMSD -1
REMARK  0 active torsions:
REMARK  status: ('A' for Active; 'I' for Inactive)
ROOT
ATOM      1  C   UNL d   1       1.105  -1.109   1.327  0.00  0.00     0.124 A 
ATOM      2  C1  UNL d   1      -0.164  -0.553   1.404  0.00  0.00     0.062 A 
ATOM      3  C2  UNL d   1      -0.605   0.325   0.418  0.00  0.00     0.162 A 
ATOM      4  C3  UNL d   1       0.225   0.653  -0.655  0.00  0.00    -0.034 A 
ATOM      5  C4  UNL d   1       1.501   0.090  -0.724  0.00  0.00     0.162 A 
ATOM      6  C5  UNL d   1       1.936  -0.787   0.263  0.00  0.00     0.062 A 
ATOM      7  F   UNL d   1       3.163  -1.323   0.188  0.00  0.00    -0.097 F 
ATOM      8  F1  UNL d   1       2.325   0.384  -1.742  0.00  0.00    -0.096 F 
ATOM      9  I   UNL d   1      -0.429   1.966  -2.131  0.00  0.00    -0.060 I 
ATOM     10  F2  UNL d   1      -1.836   0.847   0.517  0.00  0.00    -0.096 F 
ATOM     11  F3  UNL d   1      -0.969  -0.863   2.431  0.00  0.00    -0.097 F 
ATOM     12  F4  UNL d   1       1.526  -1.953   2.277  0.00  0.00    -0.092 F 
ENDROOT
TORSDOF 0
ENDMDL
