MODEL 1
REMARK minimizedAffinity -2.32323813
REMARK minimizedRMSD -1
REMARK  0 active torsions:
REMARK  status: ('A' for Active; 'I' for Inactive)
ROOT
ATOM      1  C   UNL d   1       0.714  -1.692   1.804  0.00  0.00     0.124 A 
ATOM      2  C1  UNL d   1      -0.445  -0.997   2.119  0.00  0.00     0.062 A 
ATOM      3  C2  UNL d   1      -0.978  -0.079   1.219  0.00  0.00     0.162 A 
ATOM      4  C3  UNL d   1      -0.353   0.148  -0.008  0.00  0.00    -0.034 A 
ATOM      5  C4  UNL d   1       0.813  -0.555  -0.317  0.00  0.00     0.162 A 
ATOM      6  C5  UNL d   1       1.342  -1.471   0.586  0.00  0.00     0.062 A 
ATOM      7  F   UNL d   1       2.462  -2.142   0.280  0.00  0.00    -0.097 F 
ATOM      8  F1  UNL d   1       1.440  -0.361  -1.487  0.00  0.00    -0.096 F 
ATOM      9  I   UNL d   1      -1.146   1.519  -1.357  0.00  0.00    -0.060 I 
ATOM     10  F2  UNL d   1      -2.099   0.579   1.550  0.00  0.00    -0.096 F 
ATOM     11  F3  UNL d   1      -1.053  -1.208   3.296  0.00  0.00    -0.097 F 
ATOM     12  F4  UNL d   1       1.225  -2.574   2.673  0.00  0.00    -0.092 F 
ENDROOT
TORSDOF 0
ENDMDL
