MODEL 1
REMARK minimizedAffinity -1.03366637
REMARK minimizedRMSD -1
REMARK  0 active torsions:
REMARK  status: ('A' for Active; 'I' for Inactive)
ROOT
ATOM      1  C   UNL d   1       0.870  -1.125   1.314  0.00  0.00     0.124 A 
ATOM      2  C1  UNL d   1       1.543  -0.812   0.141  0.00  0.00     0.062 A 
ATOM      3  C2  UNL d   1       1.020   0.135  -0.735  0.00  0.00     0.162 A 
ATOM      4  C3  UNL d   1      -0.183   0.777  -0.441  0.00  0.00    -0.034 A 
ATOM      5  C4  UNL d   1      -0.855   0.456   0.740  0.00  0.00     0.162 A 
ATOM      6  C5  UNL d   1      -0.328  -0.491   1.613  0.00  0.00     0.062 A 
ATOM      7  F   UNL d   1      -0.979  -0.792   2.745  0.00  0.00    -0.097 F 
ATOM      8  F1  UNL d   1      -2.014   1.054   1.054  0.00  0.00    -0.096 F 
ATOM      9  I   UNL d   1      -0.969   2.192  -1.748  0.00  0.00    -0.060 I 
ATOM     10  F2  UNL d   1       1.691   0.418  -1.861  0.00  0.00    -0.096 F 
ATOM     11  F3  UNL d   1       2.700  -1.423  -0.150  0.00  0.00    -0.097 F 
ATOM     12  F4  UNL d   1       1.376  -2.037   2.155  0.00  0.00    -0.092 F 
ENDROOT
TORSDOF 0
ENDMDL
