MODEL 1
REMARK minimizedAffinity -2.56076765
REMARK minimizedRMSD -1
REMARK  0 active torsions:
REMARK  status: ('A' for Active; 'I' for Inactive)
ROOT
ATOM      1  C   UNL d   1       0.996  -1.144   1.720  0.00  0.00     0.124 A 
ATOM      2  C1  UNL d   1      -0.146  -0.406   1.996  0.00  0.00     0.062 A 
ATOM      3  C2  UNL d   1      -0.652   0.482   1.051  0.00  0.00     0.162 A 
ATOM      4  C3  UNL d   1      -0.015   0.636  -0.181  0.00  0.00    -0.034 A 
ATOM      5  C4  UNL d   1       1.134  -0.109  -0.451  0.00  0.00     0.162 A 
ATOM      6  C5  UNL d   1       1.635  -0.995   0.497  0.00  0.00     0.062 A 
ATOM      7  F   UNL d   1       2.740  -1.707   0.229  0.00  0.00    -0.097 F 
ATOM      8  F1  UNL d   1       1.771   0.015  -1.625  0.00  0.00    -0.096 F 
ATOM      9  I   UNL d   1      -0.768   1.962  -1.597  0.00  0.00    -0.060 I 
ATOM     10  F2  UNL d   1      -1.758   1.182   1.344  0.00  0.00    -0.096 F 
ATOM     11  F3  UNL d   1      -0.765  -0.547   3.177  0.00  0.00    -0.097 F 
ATOM     12  F4  UNL d   1       1.481  -1.996   2.632  0.00  0.00    -0.092 F 
ENDROOT
TORSDOF 0
ENDMDL
