MODEL 1
REMARK minimizedAffinity 1.86766171
REMARK minimizedRMSD -1
REMARK  0 active torsions:
REMARK  status: ('A' for Active; 'I' for Inactive)
ROOT
ATOM      1  C   UNL d   1       0.671  -1.462   1.531  0.00  0.00     0.124 A 
ATOM      2  C1  UNL d   1      -0.595  -0.939   1.756  0.00  0.00     0.062 A 
ATOM      3  C2  UNL d   1      -1.087   0.076   0.940  0.00  0.00     0.162 A 
ATOM      4  C3  UNL d   1      -0.314   0.573  -0.110  0.00  0.00    -0.034 A 
ATOM      5  C4  UNL d   1       0.958   0.041  -0.329  0.00  0.00     0.162 A 
ATOM      6  C5  UNL d   1       1.446  -0.972   0.490  0.00  0.00     0.062 A 
ATOM      7  F   UNL d   1       2.669  -1.477   0.272  0.00  0.00    -0.097 F 
ATOM      8  F1  UNL d   1       1.728   0.496  -1.328  0.00  0.00    -0.096 F 
ATOM      9  I   UNL d   1      -1.047   2.089  -1.332  0.00  0.00    -0.060 I 
ATOM     10  F2  UNL d   1      -2.314   0.563   1.180  0.00  0.00    -0.096 F 
ATOM     11  F3  UNL d   1      -1.345  -1.410   2.762  0.00  0.00    -0.097 F 
ATOM     12  F4  UNL d   1       1.143  -2.438   2.319  0.00  0.00    -0.092 F 
ENDROOT
TORSDOF 0
ENDMDL
