MODEL 1
REMARK minimizedAffinity -0.536549985
REMARK minimizedRMSD -1
REMARK  0 active torsions:
REMARK  status: ('A' for Active; 'I' for Inactive)
ROOT
ATOM      1  C   UNL d   1       1.778  -0.274  -0.788  0.00  0.00     0.124 A 
ATOM      2  C1  UNL d   1       0.646   0.466  -0.476  0.00  0.00     0.062 A 
ATOM      3  C2  UNL d   1      -0.094   0.166   0.664  0.00  0.00     0.162 A 
ATOM      4  C3  UNL d   1       0.295  -0.881   1.500  0.00  0.00    -0.034 A 
ATOM      5  C4  UNL d   1       1.434  -1.622   1.179  0.00  0.00     0.162 A 
ATOM      6  C5  UNL d   1       2.171  -1.317   0.039  0.00  0.00     0.062 A 
ATOM      7  F   UNL d   1       3.263  -2.034  -0.262  0.00  0.00    -0.097 F 
ATOM      8  F1  UNL d   1       1.836  -2.634   1.961  0.00  0.00    -0.096 F 
ATOM      9  I   UNL d   1      -0.810  -1.333   3.205  0.00  0.00    -0.060 I 
ATOM     10  F2  UNL d   1      -1.183   0.898   0.941  0.00  0.00    -0.096 F 
ATOM     11  F3  UNL d   1       0.265   1.474  -1.274  0.00  0.00    -0.097 F 
ATOM     12  F4  UNL d   1       2.488   0.017  -1.886  0.00  0.00    -0.092 F 
ENDROOT
TORSDOF 0
ENDMDL
