MODEL 1
REMARK minimizedAffinity -2.42729878
REMARK minimizedRMSD -1
REMARK  0 active torsions:
REMARK  status: ('A' for Active; 'I' for Inactive)
ROOT
ATOM      1  C   UNL d   1      -2.412   1.697  -2.969  0.00  0.00     0.124 A 
ATOM      2  C1  UNL d   1      -1.865   0.433  -3.140  0.00  0.00     0.062 A 
ATOM      3  C2  UNL d   1      -1.033  -0.108  -2.164  0.00  0.00     0.162 A 
ATOM      4  C3  UNL d   1      -0.744   0.615  -1.006  0.00  0.00    -0.034 A 
ATOM      5  C4  UNL d   1      -1.297   1.886  -0.842  0.00  0.00     0.162 A 
ATOM      6  C5  UNL d   1      -2.128   2.422  -1.820  0.00  0.00     0.062 A 
ATOM      7  F   UNL d   1      -2.656   3.644  -1.653  0.00  0.00    -0.097 F 
ATOM      8  F1  UNL d   1      -1.040   2.608   0.259  0.00  0.00    -0.096 F 
ATOM      9  I   UNL d   1       0.499  -0.190   0.456  0.00  0.00    -0.060 I 
ATOM     10  F2  UNL d   1      -0.519  -1.331  -2.355  0.00  0.00    -0.096 F 
ATOM     11  F3  UNL d   1      -2.137  -0.269  -4.249  0.00  0.00    -0.097 F 
ATOM     12  F4  UNL d   1      -3.211   2.215  -3.910  0.00  0.00    -0.092 F 
ENDROOT
TORSDOF 0
ENDMDL
