MODEL 1
REMARK minimizedAffinity -1.98963892
REMARK minimizedRMSD -1
REMARK  0 active torsions:
REMARK  status: ('A' for Active; 'I' for Inactive)
ROOT
ATOM      1  C   UNL d   1       1.243  -1.087   1.349  0.00  0.00     0.124 A 
ATOM      2  C1  UNL d   1       1.747  -1.012   0.057  0.00  0.00     0.062 A 
ATOM      3  C2  UNL d   1       1.107  -0.228  -0.899  0.00  0.00     0.162 A 
ATOM      4  C3  UNL d   1      -0.043   0.488  -0.567  0.00  0.00    -0.034 A 
ATOM      5  C4  UNL d   1      -0.544   0.407   0.733  0.00  0.00     0.162 A 
ATOM      6  C5  UNL d   1       0.099  -0.378   1.685  0.00  0.00     0.062 A 
ATOM      7  F   UNL d   1      -0.389  -0.449   2.932  0.00  0.00    -0.097 F 
ATOM      8  F1  UNL d   1      -1.648   1.083   1.086  0.00  0.00    -0.096 F 
ATOM      9  I   UNL d   1      -1.002   1.661  -1.995  0.00  0.00    -0.060 I 
ATOM     10  F2  UNL d   1       1.616  -0.174  -2.139  0.00  0.00    -0.096 F 
ATOM     11  F3  UNL d   1       2.852  -1.697  -0.271  0.00  0.00    -0.097 F 
ATOM     12  F4  UNL d   1       1.860  -1.842   2.266  0.00  0.00    -0.092 F 
ENDROOT
TORSDOF 0
ENDMDL
