MODEL 1
REMARK minimizedAffinity -1.32649851
REMARK minimizedRMSD -1
REMARK  0 active torsions:
REMARK  status: ('A' for Active; 'I' for Inactive)
ROOT
ATOM      1  C   UNL d   1       0.360  -2.379   1.986  0.00  0.00     0.124 A 
ATOM      2  C1  UNL d   1       1.053  -2.096   0.817  0.00  0.00     0.062 A 
ATOM      3  C2  UNL d   1       0.774  -0.936   0.101  0.00  0.00     0.162 A 
ATOM      4  C3  UNL d   1      -0.203  -0.048   0.553  0.00  0.00    -0.034 A 
ATOM      5  C4  UNL d   1      -0.897  -0.340   1.729  0.00  0.00     0.162 A 
ATOM      6  C5  UNL d   1      -0.614  -1.501   2.441  0.00  0.00     0.062 A 
ATOM      7  F   UNL d   1      -1.284  -1.773   3.570  0.00  0.00    -0.097 F 
ATOM      8  F1  UNL d   1      -1.842   0.491   2.191  0.00  0.00    -0.096 F 
ATOM      9  I   UNL d   1      -0.624   1.688  -0.515  0.00  0.00    -0.060 I 
ATOM     10  F2  UNL d   1       1.459  -0.688  -1.025  0.00  0.00    -0.096 F 
ATOM     11  F3  UNL d   1       1.994  -2.943   0.375  0.00  0.00    -0.097 F 
ATOM     12  F4  UNL d   1       0.630  -3.497   2.672  0.00  0.00    -0.092 F 
ENDROOT
TORSDOF 0
ENDMDL
