MODEL 1
REMARK minimizedAffinity -0.923303783
REMARK minimizedRMSD -1
REMARK  0 active torsions:
REMARK  status: ('A' for Active; 'I' for Inactive)
ROOT
ATOM      1  C   UNL d   1      -2.054   0.835   0.423  0.00  0.00     0.124 A 
ATOM      2  C1  UNL d   1      -0.986   0.846  -0.463  0.00  0.00     0.062 A 
ATOM      3  C2  UNL d   1       0.178   0.145  -0.165  0.00  0.00     0.162 A 
ATOM      4  C3  UNL d   1       0.281  -0.575   1.026  0.00  0.00    -0.034 A 
ATOM      5  C4  UNL d   1      -0.797  -0.580   1.913  0.00  0.00     0.162 A 
ATOM      6  C5  UNL d   1      -1.959   0.122   1.610  0.00  0.00     0.062 A 
ATOM      7  F   UNL d   1      -2.990   0.111   2.468  0.00  0.00    -0.097 F 
ATOM      8  F1  UNL d   1      -0.732  -1.262   3.066  0.00  0.00    -0.096 F 
ATOM      9  I   UNL d   1       2.020  -1.626   1.475  0.00  0.00    -0.060 I 
ATOM     10  F2  UNL d   1       1.194   0.173  -1.040  0.00  0.00    -0.096 F 
ATOM     11  F3  UNL d   1      -1.076   1.535  -1.610  0.00  0.00    -0.097 F 
ATOM     12  F4  UNL d   1      -3.173   1.512   0.134  0.00  0.00    -0.092 F 
ENDROOT
TORSDOF 0
ENDMDL
