MODEL 1
REMARK minimizedAffinity 0.930712223
REMARK minimizedRMSD -1
REMARK  0 active torsions:
REMARK  status: ('A' for Active; 'I' for Inactive)
ROOT
ATOM      1  C   UNL d   1      -2.745   0.561  -0.920  0.00  0.00     0.124 A 
ATOM      2  C1  UNL d   1      -2.000  -0.250  -0.076  0.00  0.00     0.062 A 
ATOM      3  C2  UNL d   1      -0.633  -0.036   0.072  0.00  0.00     0.162 A 
ATOM      4  C3  UNL d   1      -0.001   0.994  -0.624  0.00  0.00    -0.034 A 
ATOM      5  C4  UNL d   1      -0.758   1.805  -1.472  0.00  0.00     0.162 A 
ATOM      6  C5  UNL d   1      -2.124   1.588  -1.617  0.00  0.00     0.062 A 
ATOM      7  F   UNL d   1      -2.842   2.373  -2.433  0.00  0.00    -0.097 F 
ATOM      8  F1  UNL d   1      -0.183   2.805  -2.157  0.00  0.00    -0.096 F 
ATOM      9  I   UNL d   1       2.043   1.317  -0.404  0.00  0.00    -0.060 I 
ATOM     10  F2  UNL d   1       0.063  -0.836   0.895  0.00  0.00    -0.096 F 
ATOM     11  F3  UNL d   1      -2.598  -1.243   0.597  0.00  0.00    -0.097 F 
ATOM     12  F4  UNL d   1      -4.061   0.353  -1.063  0.00  0.00    -0.092 F 
ENDROOT
TORSDOF 0
ENDMDL
