MODEL 1
REMARK minimizedAffinity -3.59658957
REMARK minimizedRMSD -1
REMARK  0 active torsions:
REMARK  status: ('A' for Active; 'I' for Inactive)
ROOT
ATOM      1  C   UNL d   1      -2.728  -3.207   0.900  0.00  0.00     0.020 A 
ATOM      2  C1  UNL d   1      -3.058  -2.125   0.086  0.00  0.00     0.020 A 
ATOM      3  C2  UNL d   1      -2.123  -1.114  -0.146  0.00  0.00     0.034 A 
ATOM      4  C3  UNL d   1      -0.852  -1.184   0.438  0.00  0.00     0.017 A 
ATOM      5  C4  UNL d   1      -0.522  -2.271   1.255  0.00  0.00     0.017 A 
ATOM      6  C5  UNL d   1      -1.462  -3.280   1.484  0.00  0.00     0.034 A 
ATOM      7 Cl   UNL d   1       1.026  -2.426   2.010  0.00  0.00    -0.070 Cl
ATOM      8 Cl1  UNL d   1       0.255   0.101   0.108  0.00  0.00    -0.070 Cl
ENDROOT
TORSDOF 0
ENDMDL
