MODEL 1
REMARK minimizedAffinity -5.88594246
REMARK minimizedRMSD -1
REMARK  0 active torsions:
REMARK  status: ('A' for Active; 'I' for Inactive)
ROOT
ATOM      1  C   UNL d   1      -3.110  -1.514   0.084  0.00  0.00     0.020 A 
ATOM      2  C1  UNL d   1      -2.326  -2.018   1.121  0.00  0.00     0.020 A 
ATOM      3  C2  UNL d   1      -0.958  -1.744   1.159  0.00  0.00     0.034 A 
ATOM      4  C3  UNL d   1      -0.369  -0.963   0.158  0.00  0.00     0.017 A 
ATOM      5  C4  UNL d   1      -1.156  -0.457  -0.882  0.00  0.00     0.017 A 
ATOM      6  C5  UNL d   1      -2.526  -0.735  -0.915  0.00  0.00     0.034 A 
ATOM      7 Cl   UNL d   1      -0.501   0.514  -2.153  0.00  0.00    -0.070 Cl
ATOM      8 Cl1  UNL d   1       1.329  -0.662   0.268  0.00  0.00    -0.070 Cl
ENDROOT
TORSDOF 0
ENDMDL
