MODEL 1
REMARK minimizedAffinity -4.85369492
REMARK minimizedRMSD -1
REMARK  0 active torsions:
REMARK  status: ('A' for Active; 'I' for Inactive)
ROOT
ATOM      1  C   UNL d   1      -2.978  -1.111  -0.484  0.00  0.00     0.020 A 
ATOM      2  C1  UNL d   1      -2.275  -1.550   0.638  0.00  0.00     0.020 A 
ATOM      3  C2  UNL d   1      -0.938  -1.185   0.811  0.00  0.00     0.034 A 
ATOM      4  C3  UNL d   1      -0.300  -0.379  -0.138  0.00  0.00     0.017 A 
ATOM      5  C4  UNL d   1      -1.006   0.062  -1.264  0.00  0.00     0.017 A 
ATOM      6  C5  UNL d   1      -2.344  -0.307  -1.432  0.00  0.00     0.034 A 
ATOM      7 Cl   UNL d   1      -0.287   1.059  -2.478  0.00  0.00    -0.070 Cl
ATOM      8 Cl1  UNL d   1       1.355   0.035   0.140  0.00  0.00    -0.070 Cl
ENDROOT
TORSDOF 0
ENDMDL
