MODEL 1
REMARK minimizedAffinity -4.7594285
REMARK minimizedRMSD -1
REMARK  0 active torsions:
REMARK  status: ('A' for Active; 'I' for Inactive)
ROOT
ATOM      1  C   UNL d   1      -2.650  -1.719   0.472  0.00  0.00     0.020 A 
ATOM      2  C1  UNL d   1      -1.901  -2.009   1.612  0.00  0.00     0.020 A 
ATOM      3  C2  UNL d   1      -0.596  -1.526   1.732  0.00  0.00     0.034 A 
ATOM      4  C3  UNL d   1      -0.036  -0.752   0.710  0.00  0.00     0.017 A 
ATOM      5  C4  UNL d   1      -0.788  -0.461  -0.434  0.00  0.00     0.017 A 
ATOM      6  C5  UNL d   1      -2.094  -0.947  -0.549  0.00  0.00     0.034 A 
ATOM      7 Cl   UNL d   1      -0.165   0.489  -1.737  0.00  0.00    -0.070 Cl
ATOM      8 Cl1  UNL d   1       1.583  -0.188   0.925  0.00  0.00    -0.070 Cl
ENDROOT
TORSDOF 0
ENDMDL
