MODEL 1
REMARK minimizedAffinity -4.92392635
REMARK minimizedRMSD -1
REMARK  0 active torsions:
REMARK  status: ('A' for Active; 'I' for Inactive)
ROOT
ATOM      1  C   UNL d   1      -3.013  -0.817  -0.830  0.00  0.00     0.020 A 
ATOM      2  C1  UNL d   1      -3.461  -1.920  -0.104  0.00  0.00     0.020 A 
ATOM      3  C2  UNL d   1      -2.650  -2.482   0.883  0.00  0.00     0.034 A 
ATOM      4  C3  UNL d   1      -1.385  -1.943   1.147  0.00  0.00     0.017 A 
ATOM      5  C4  UNL d   1      -0.936  -0.836   0.417  0.00  0.00     0.017 A 
ATOM      6  C5  UNL d   1      -1.753  -0.276  -0.570  0.00  0.00     0.034 A 
ATOM      7 Cl   UNL d   1       0.612  -0.115   0.685  0.00  0.00    -0.070 Cl
ATOM      8 Cl1  UNL d   1      -0.435  -2.689   2.381  0.00  0.00    -0.070 Cl
ENDROOT
TORSDOF 0
ENDMDL
