MODEL 1
REMARK minimizedAffinity -4.00092888
REMARK minimizedRMSD -1
REMARK  0 active torsions:
REMARK  status: ('A' for Active; 'I' for Inactive)
ROOT
ATOM      1  C   UNL d   1      -2.475  -0.913  -0.286  0.00  0.00     0.020 A 
ATOM      2  C1  UNL d   1      -1.558  -1.087   0.750  0.00  0.00     0.020 A 
ATOM      3  C2  UNL d   1      -0.317  -0.450   0.697  0.00  0.00     0.034 A 
ATOM      4  C3  UNL d   1       0.011   0.365  -0.393  0.00  0.00     0.017 A 
ATOM      5  C4  UNL d   1      -0.911   0.539  -1.432  0.00  0.00     0.017 A 
ATOM      6  C5  UNL d   1      -2.152  -0.102  -1.374  0.00  0.00     0.034 A 
ATOM      7 Cl   UNL d   1      -0.578   1.529  -2.809  0.00  0.00    -0.070 Cl
ATOM      8 Cl1  UNL d   1       1.564   1.123  -0.391  0.00  0.00    -0.070 Cl
ENDROOT
TORSDOF 0
ENDMDL
