MODEL 1
REMARK minimizedAffinity -5.63813257
REMARK minimizedRMSD -1
REMARK  0 active torsions:
REMARK  status: ('A' for Active; 'I' for Inactive)
ROOT
ATOM      1  C   UNL d   1      -3.147  -1.712   0.507  0.00  0.00     0.020 A 
ATOM      2  C1  UNL d   1      -3.172  -0.396   0.050  0.00  0.00     0.020 A 
ATOM      3  C2  UNL d   1      -1.994   0.354   0.013  0.00  0.00     0.034 A 
ATOM      4  C3  UNL d   1      -0.786  -0.213   0.436  0.00  0.00     0.017 A 
ATOM      5  C4  UNL d   1      -0.762  -1.535   0.895  0.00  0.00     0.017 A 
ATOM      6  C5  UNL d   1      -1.944  -2.281   0.929  0.00  0.00     0.034 A 
ATOM      7 Cl   UNL d   1       0.690  -2.303   1.433  0.00  0.00    -0.070 Cl
ATOM      8 Cl1  UNL d   1       0.632   0.771   0.363  0.00  0.00    -0.070 Cl
ENDROOT
TORSDOF 0
ENDMDL
