MODEL 1
REMARK minimizedAffinity -5.34195995
REMARK minimizedRMSD -1
REMARK  0 active torsions:
REMARK  status: ('A' for Active; 'I' for Inactive)
ROOT
ATOM      1  C   UNL d   1       0.391   0.043  -0.957  0.00  0.00     0.020 A 
ATOM      2  C1  UNL d   1       1.105  -0.604   0.051  0.00  0.00     0.020 A 
ATOM      3  C2  UNL d   1       0.427  -1.352   1.016  0.00  0.00     0.034 A 
ATOM      4  C3  UNL d   1      -0.968  -1.455   0.976  0.00  0.00     0.017 A 
ATOM      5  C4  UNL d   1      -1.684  -0.805  -0.036  0.00  0.00     0.017 A 
ATOM      6  C5  UNL d   1      -1.000  -0.057  -1.000  0.00  0.00     0.034 A 
ATOM      7 Cl   UNL d   1      -3.406  -0.886  -0.151  0.00  0.00    -0.070 Cl
ATOM      8 Cl1  UNL d   1      -1.740  -2.397   2.202  0.00  0.00    -0.070 Cl
ENDROOT
TORSDOF 0
ENDMDL
