MODEL 1
REMARK minimizedAffinity -5.42747021
REMARK minimizedRMSD -1
REMARK  0 active torsions:
REMARK  status: ('A' for Active; 'I' for Inactive)
ROOT
ATOM      1  C   UNL d   1      -1.550  -2.584   1.432  0.00  0.00     0.020 A 
ATOM      2  C1  UNL d   1      -2.620  -2.384   0.561  0.00  0.00     0.020 A 
ATOM      3  C2  UNL d   1      -2.543  -1.396  -0.424  0.00  0.00     0.034 A 
ATOM      4  C3  UNL d   1      -1.394  -0.605  -0.539  0.00  0.00     0.017 A 
ATOM      5  C4  UNL d   1      -0.321  -0.807   0.336  0.00  0.00     0.017 A 
ATOM      6  C5  UNL d   1      -0.403  -1.798   1.320  0.00  0.00     0.034 A 
ATOM      7 Cl   UNL d   1       1.130   0.129   0.255  0.00  0.00    -0.070 Cl
ATOM      8 Cl1  UNL d   1      -1.368   0.597  -1.780  0.00  0.00    -0.070 Cl
ENDROOT
TORSDOF 0
ENDMDL
