MODEL 1
REMARK minimizedAffinity -3.59273362
REMARK minimizedRMSD -1
REMARK  0 active torsions:
REMARK  status: ('A' for Active; 'I' for Inactive)
ROOT
ATOM      1  C   UNL d   1      -2.243  -2.092   0.974  0.00  0.00     0.020 A 
ATOM      2  C1  UNL d   1      -3.010  -1.633  -0.096  0.00  0.00     0.020 A 
ATOM      3  C2  UNL d   1      -2.508  -0.641  -0.941  0.00  0.00     0.034 A 
ATOM      4  C3  UNL d   1      -1.234  -0.105  -0.717  0.00  0.00     0.017 A 
ATOM      5  C4  UNL d   1      -0.465  -0.566   0.357  0.00  0.00     0.017 A 
ATOM      6  C5  UNL d   1      -0.973  -1.559   1.200  0.00  0.00     0.034 A 
ATOM      7 Cl   UNL d   1       1.115   0.047   0.696  0.00  0.00    -0.070 Cl
ATOM      8 Cl1  UNL d   1      -0.676   1.118  -1.802  0.00  0.00    -0.070 Cl
ENDROOT
TORSDOF 0
ENDMDL
