MODEL 1
REMARK minimizedAffinity -5.79521894
REMARK minimizedRMSD -1
REMARK  0 active torsions:
REMARK  status: ('A' for Active; 'I' for Inactive)
ROOT
ATOM      1  C   UNL d   1      -2.242  -2.171   1.602  0.00  0.00     0.020 A 
ATOM      2  C1  UNL d   1      -3.193  -1.738   0.678  0.00  0.00     0.020 A 
ATOM      3  C2  UNL d   1      -2.840  -0.811  -0.304  0.00  0.00     0.034 A 
ATOM      4  C3  UNL d   1      -1.533  -0.313  -0.365  0.00  0.00     0.017 A 
ATOM      5  C4  UNL d   1      -0.580  -0.748   0.562  0.00  0.00     0.017 A 
ATOM      6  C5  UNL d   1      -0.939  -1.678   1.544  0.00  0.00     0.034 A 
ATOM      7 Cl   UNL d   1       1.052  -0.180   0.550  0.00  0.00    -0.070 Cl
ATOM      8 Cl1  UNL d   1      -1.167   0.831  -1.607  0.00  0.00    -0.070 Cl
ENDROOT
TORSDOF 0
ENDMDL
