MODEL 1
REMARK minimizedAffinity -5.35901976
REMARK minimizedRMSD -1
REMARK  0 active torsions:
REMARK  status: ('A' for Active; 'I' for Inactive)
ROOT
ATOM      1  C   UNL d   1      -2.909  -1.794   0.406  0.00  0.00     0.020 A 
ATOM      2  C1  UNL d   1      -2.983  -0.635  -0.366  0.00  0.00     0.020 A 
ATOM      3  C2  UNL d   1      -1.843   0.148  -0.560  0.00  0.00     0.034 A 
ATOM      4  C3  UNL d   1      -0.625  -0.227   0.018  0.00  0.00     0.017 A 
ATOM      5  C4  UNL d   1      -0.552  -1.390   0.793  0.00  0.00     0.017 A 
ATOM      6  C5  UNL d   1      -1.697  -2.170   0.984  0.00  0.00     0.034 A 
ATOM      7 Cl   UNL d   1       0.915  -1.916   1.540  0.00  0.00    -0.070 Cl
ATOM      8 Cl1  UNL d   1       0.745   0.788  -0.264  0.00  0.00    -0.070 Cl
ENDROOT
TORSDOF 0
ENDMDL
