MODEL 1
REMARK minimizedAffinity -5.53319263
REMARK minimizedRMSD -1
REMARK  0 active torsions:
REMARK  status: ('A' for Active; 'I' for Inactive)
ROOT
ATOM      1  C   UNL d   1      -2.124  -1.827   1.344  0.00  0.00     0.020 A 
ATOM      2  C1  UNL d   1      -3.015  -1.341   0.388  0.00  0.00     0.020 A 
ATOM      3  C2  UNL d   1      -2.583  -0.411  -0.560  0.00  0.00     0.034 A 
ATOM      4  C3  UNL d   1      -1.256   0.035  -0.555  0.00  0.00     0.017 A 
ATOM      5  C4  UNL d   1      -0.363  -0.454   0.405  0.00  0.00     0.017 A 
ATOM      6  C5  UNL d   1      -0.801  -1.385   1.352  0.00  0.00     0.034 A 
ATOM      7 Cl   UNL d   1       1.289   0.049   0.474  0.00  0.00    -0.070 Cl
ATOM      8 Cl1  UNL d   1      -0.791   1.185  -1.757  0.00  0.00    -0.070 Cl
ENDROOT
TORSDOF 0
ENDMDL
