MODEL 1
REMARK minimizedAffinity -4.63810158
REMARK minimizedRMSD -1
REMARK  0 active torsions:
REMARK  status: ('A' for Active; 'I' for Inactive)
ROOT
ATOM      1  C   UNL d   1      -2.263  -2.281   1.004  0.00  0.00     0.020 A 
ATOM      2  C1  UNL d   1      -3.037  -1.753  -0.028  0.00  0.00     0.020 A 
ATOM      3  C2  UNL d   1      -2.537  -0.713  -0.814  0.00  0.00     0.034 A 
ATOM      4  C3  UNL d   1      -1.259  -0.197  -0.568  0.00  0.00     0.017 A 
ATOM      5  C4  UNL d   1      -0.483  -0.727   0.469  0.00  0.00     0.017 A 
ATOM      6  C5  UNL d   1      -0.989  -1.769   1.252  0.00  0.00     0.034 A 
ATOM      7 Cl   UNL d   1       1.102  -0.143   0.833  0.00  0.00    -0.070 Cl
ATOM      8 Cl1  UNL d   1      -0.704   1.090  -1.578  0.00  0.00    -0.070 Cl
ENDROOT
TORSDOF 0
ENDMDL
