MODEL 1
REMARK minimizedAffinity -5.76078081
REMARK minimizedRMSD -1
REMARK  0 active torsions:
REMARK  status: ('A' for Active; 'I' for Inactive)
ROOT
ATOM      1  C   UNL d   1      -3.247  -1.388   0.023  0.00  0.00     0.020 A 
ATOM      2  C1  UNL d   1      -2.473  -1.992   1.013  0.00  0.00     0.020 A 
ATOM      3  C2  UNL d   1      -1.111  -1.703   1.108  0.00  0.00     0.034 A 
ATOM      4  C3  UNL d   1      -0.517  -0.807   0.211  0.00  0.00     0.017 A 
ATOM      5  C4  UNL d   1      -1.295  -0.201  -0.783  0.00  0.00     0.017 A 
ATOM      6  C5  UNL d   1      -2.659  -0.495  -0.873  0.00  0.00     0.034 A 
ATOM      7 Cl   UNL d   1      -0.634   0.915  -1.925  0.00  0.00    -0.070 Cl
ATOM      8 Cl1  UNL d   1       1.173  -0.495   0.387  0.00  0.00    -0.070 Cl
ENDROOT
TORSDOF 0
ENDMDL
