MODEL 1
REMARK minimizedAffinity -6.09605694
REMARK minimizedRMSD -1
REMARK  0 active torsions:
REMARK  status: ('A' for Active; 'I' for Inactive)
ROOT
ATOM      1  C   UNL d   1      -2.403  -2.131   1.019  0.00  0.00     0.020 A 
ATOM      2  C1  UNL d   1      -3.209  -1.594   0.017  0.00  0.00     0.020 A 
ATOM      3  C2  UNL d   1      -2.680  -0.666  -0.883  0.00  0.00     0.034 A 
ATOM      4  C3  UNL d   1      -1.340  -0.274  -0.783  0.00  0.00     0.017 A 
ATOM      5  C4  UNL d   1      -0.531  -0.815   0.223  0.00  0.00     0.017 A 
ATOM      6  C5  UNL d   1      -1.067  -1.743   1.122  0.00  0.00     0.034 A 
ATOM      7 Cl   UNL d   1       1.131  -0.380   0.410  0.00  0.00    -0.070 Cl
ATOM      8 Cl1  UNL d   1      -0.751   0.876  -1.930  0.00  0.00    -0.070 Cl
ENDROOT
TORSDOF 0
ENDMDL
