MODEL 1
REMARK minimizedAffinity -4.86317348
REMARK minimizedRMSD -1
REMARK  0 active torsions:
REMARK  status: ('A' for Active; 'I' for Inactive)
ROOT
ATOM      1  C   UNL d   1       0.215   0.254  -1.288  0.00  0.00     0.020 A 
ATOM      2  C1  UNL d   1       1.017  -0.243  -0.261  0.00  0.00     0.020 A 
ATOM      3  C2  UNL d   1       0.452  -1.023   0.750  0.00  0.00     0.034 A 
ATOM      4  C3  UNL d   1      -0.918  -1.310   0.736  0.00  0.00     0.017 A 
ATOM      5  C4  UNL d   1      -1.722  -0.811  -0.295  0.00  0.00     0.017 A 
ATOM      6  C5  UNL d   1      -1.151  -0.029  -1.305  0.00  0.00     0.034 A 
ATOM      7 Cl   UNL d   1      -3.420  -1.121  -0.380  0.00  0.00    -0.070 Cl
ATOM      8 Cl1  UNL d   1      -1.549  -2.282   2.018  0.00  0.00    -0.070 Cl
ENDROOT
TORSDOF 0
ENDMDL
