MODEL 1
REMARK minimizedAffinity -4.47214174
REMARK minimizedRMSD -1
REMARK  0 active torsions:
REMARK  status: ('A' for Active; 'I' for Inactive)
ROOT
ATOM      1  C   UNL d   1      -2.339  -1.764   0.996  0.00  0.00     0.020 A 
ATOM      2  C1  UNL d   1      -3.118  -1.279  -0.053  0.00  0.00     0.020 A 
ATOM      3  C2  UNL d   1      -2.554  -0.432  -1.009  0.00  0.00     0.034 A 
ATOM      4  C3  UNL d   1      -1.206  -0.066  -0.917  0.00  0.00     0.017 A 
ATOM      5  C4  UNL d   1      -0.424  -0.553   0.137  0.00  0.00     0.017 A 
ATOM      6  C5  UNL d   1      -0.995  -1.401   1.091  0.00  0.00     0.034 A 
ATOM      7 Cl   UNL d   1       1.246  -0.146   0.317  0.00  0.00    -0.070 Cl
ATOM      8 Cl1  UNL d   1      -0.574   0.985  -2.134  0.00  0.00    -0.070 Cl
ENDROOT
TORSDOF 0
ENDMDL
