MODEL 1
REMARK minimizedAffinity 4.05387783
REMARK minimizedRMSD -1
REMARK  0 active torsions:
REMARK  status: ('A' for Active; 'I' for Inactive)
ROOT
ATOM      1  C   UNL d   1       2.092  -1.270   0.014  0.00  0.00     0.124 A 
ATOM      2  C1  UNL d   1       0.913  -0.685  -0.428  0.00  0.00     0.062 A 
ATOM      3  C2  UNL d   1       0.561   0.591   0.002  0.00  0.00     0.162 A 
ATOM      4  C3  UNL d   1       1.389   1.293   0.877  0.00  0.00    -0.034 A 
ATOM      5  C4  UNL d   1       2.573   0.698   1.317  0.00  0.00     0.162 A 
ATOM      6  C5  UNL d   1       2.920  -0.578   0.886  0.00  0.00     0.062 A 
ATOM      7  F   UNL d   1       4.060  -1.141   1.313  0.00  0.00    -0.097 F 
ATOM      8  F1  UNL d   1       3.393   1.344   2.159  0.00  0.00    -0.096 F 
ATOM      9  I   UNL d   1       0.867   3.202   1.521  0.00  0.00    -0.060 I 
ATOM     10  F2  UNL d   1      -0.585   1.131  -0.441  0.00  0.00    -0.096 F 
ATOM     11  F3  UNL d   1       0.110  -1.352  -1.269  0.00  0.00    -0.097 F 
ATOM     12  F4  UNL d   1       2.427  -2.498  -0.400  0.00  0.00    -0.092 F 
ENDROOT
TORSDOF 0
ENDMDL
