MODEL 1
REMARK minimizedAffinity 1.08254588
REMARK minimizedRMSD -1
REMARK  0 active torsions:
REMARK  status: ('A' for Active; 'I' for Inactive)
ROOT
ATOM      1  C   UNL d   1       1.307  -1.884  -0.339  0.00  0.00     0.124 A 
ATOM      2  C1  UNL d   1       2.117  -1.168   0.532  0.00  0.00     0.062 A 
ATOM      3  C2  UNL d   1       1.809   0.151   0.849  0.00  0.00     0.162 A 
ATOM      4  C3  UNL d   1       0.685   0.764   0.296  0.00  0.00    -0.034 A 
ATOM      5  C4  UNL d   1      -0.124   0.038  -0.580  0.00  0.00     0.162 A 
ATOM      6  C5  UNL d   1       0.187  -1.281  -0.894  0.00  0.00     0.062 A 
ATOM      7  F   UNL d   1      -0.596  -1.970  -1.735  0.00  0.00    -0.097 F 
ATOM      8  F1  UNL d   1      -1.213   0.597  -1.130  0.00  0.00    -0.096 F 
ATOM      9  I   UNL d   1       0.221   2.738   0.767  0.00  0.00    -0.060 I 
ATOM     10  F2  UNL d   1       2.609   0.819   1.694  0.00  0.00    -0.096 F 
ATOM     11  F3  UNL d   1       3.199  -1.749   1.069  0.00  0.00    -0.097 F 
ATOM     12  F4  UNL d   1       1.606  -3.154  -0.643  0.00  0.00    -0.092 F 
ENDROOT
TORSDOF 0
ENDMDL
