MODEL 1
REMARK minimizedAffinity 12.3309441
REMARK minimizedRMSD -1
REMARK  0 active torsions:
REMARK  status: ('A' for Active; 'I' for Inactive)
ROOT
ATOM      1  C   UNL d   1      -0.519  -2.129  -1.477  0.00  0.00     0.124 A 
ATOM      2  C1  UNL d   1      -0.608  -0.744  -1.466  0.00  0.00     0.062 A 
ATOM      3  C2  UNL d   1      -0.170  -0.023  -0.359  0.00  0.00     0.162 A 
ATOM      4  C3  UNL d   1       0.362  -0.686   0.747  0.00  0.00    -0.034 A 
ATOM      5  C4  UNL d   1       0.448  -2.079   0.729  0.00  0.00     0.162 A 
ATOM      6  C5  UNL d   1       0.009  -2.795  -0.380  0.00  0.00     0.062 A 
ATOM      7  F   UNL d   1       0.096  -4.133  -0.389  0.00  0.00    -0.097 F 
ATOM      8  F1  UNL d   1       0.954  -2.748   1.775  0.00  0.00    -0.096 F 
ATOM      9  I   UNL d   1       1.018   0.389   2.405  0.00  0.00    -0.060 I 
ATOM     10  F2  UNL d   1      -0.269   1.315  -0.375  0.00  0.00    -0.096 F 
ATOM     11  F3  UNL d   1      -1.119  -0.098  -2.524  0.00  0.00    -0.097 F 
ATOM     12  F4  UNL d   1      -0.942  -2.820  -2.543  0.00  0.00    -0.092 F 
ENDROOT
TORSDOF 0
ENDMDL
