MODEL 1
REMARK minimizedAffinity 14.2098732
REMARK minimizedRMSD -1
REMARK  0 active torsions:
REMARK  status: ('A' for Active; 'I' for Inactive)
ROOT
ATOM      1  C   UNL d   1      -0.925  -1.697  -0.603  0.00  0.00     0.124 A 
ATOM      2  C1  UNL d   1      -0.118  -0.593  -0.836  0.00  0.00     0.062 A 
ATOM      3  C2  UNL d   1       0.503   0.058   0.226  0.00  0.00     0.162 A 
ATOM      4  C3  UNL d   1       0.319  -0.395   1.533  0.00  0.00    -0.034 A 
ATOM      5  C4  UNL d   1      -0.495  -1.507   1.759  0.00  0.00     0.162 A 
ATOM      6  C5  UNL d   1      -1.113  -2.153   0.694  0.00  0.00     0.062 A 
ATOM      7  F   UNL d   1      -1.892  -3.221   0.921  0.00  0.00    -0.097 F 
ATOM      8  F1  UNL d   1      -0.693  -1.969   3.003  0.00  0.00    -0.096 F 
ATOM      9  I   UNL d   1       1.244   0.574   3.125  0.00  0.00    -0.060 I 
ATOM     10  F2  UNL d   1       1.277   1.123  -0.028  0.00  0.00    -0.096 F 
ATOM     11  F3  UNL d   1       0.065  -0.150  -2.089  0.00  0.00    -0.097 F 
ATOM     12  F4  UNL d   1      -1.521  -2.321  -1.628  0.00  0.00    -0.092 F 
ENDROOT
TORSDOF 0
ENDMDL
