MODEL 1
REMARK minimizedAffinity 2.40279293
REMARK minimizedRMSD -1
REMARK  0 active torsions:
REMARK  status: ('A' for Active; 'I' for Inactive)
ROOT
ATOM      1  C   UNL d   1       3.589  -2.306  -1.684  0.00  0.00     0.124 A 
ATOM      2  C1  UNL d   1       2.566  -2.590  -0.790  0.00  0.00     0.062 A 
ATOM      3  C2  UNL d   1       2.082  -1.598   0.058  0.00  0.00     0.162 A 
ATOM      4  C3  UNL d   1       2.620  -0.312   0.016  0.00  0.00    -0.034 A 
ATOM      5  C4  UNL d   1       3.649  -0.034  -0.885  0.00  0.00     0.162 A 
ATOM      6  C5  UNL d   1       4.130  -1.029  -1.731  0.00  0.00     0.062 A 
ATOM      7  F   UNL d   1       5.118  -0.752  -2.594  0.00  0.00    -0.097 F 
ATOM      8  F1  UNL d   1       4.189   1.192  -0.952  0.00  0.00    -0.096 F 
ATOM      9  I   UNL d   1       1.899   1.174   1.282  0.00  0.00    -0.060 I 
ATOM     10  F2  UNL d   1       1.092  -1.901   0.911  0.00  0.00    -0.096 F 
ATOM     11  F3  UNL d   1       2.043  -3.824  -0.742  0.00  0.00    -0.097 F 
ATOM     12  F4  UNL d   1       4.054  -3.263  -2.498  0.00  0.00    -0.092 F 
ENDROOT
TORSDOF 0
ENDMDL
