MODEL 1
REMARK minimizedAffinity 11.6132565
REMARK minimizedRMSD -1
REMARK  0 active torsions:
REMARK  status: ('A' for Active; 'I' for Inactive)
ROOT
ATOM      1  C   UNL d   1       1.853  -1.276  -0.141  0.00  0.00     0.124 A 
ATOM      2  C1  UNL d   1       0.929  -2.208  -0.595  0.00  0.00     0.062 A 
ATOM      3  C2  UNL d   1      -0.375  -1.817  -0.883  0.00  0.00     0.162 A 
ATOM      4  C3  UNL d   1      -0.764  -0.488  -0.719  0.00  0.00    -0.034 A 
ATOM      5  C4  UNL d   1       0.170   0.444  -0.262  0.00  0.00     0.162 A 
ATOM      6  C5  UNL d   1       1.472   0.048   0.025  0.00  0.00     0.062 A 
ATOM      7  F   UNL d   1       2.363   0.950   0.463  0.00  0.00    -0.097 F 
ATOM      8  F1  UNL d   1      -0.171   1.730  -0.094  0.00  0.00    -0.096 F 
ATOM      9  I   UNL d   1      -2.714   0.100  -1.149  0.00  0.00    -0.060 I 
ATOM     10  F2  UNL d   1      -1.247  -2.739  -1.319  0.00  0.00    -0.096 F 
ATOM     11  F3  UNL d   1       1.294  -3.488  -0.755  0.00  0.00    -0.097 F 
ATOM     12  F4  UNL d   1       3.107  -1.655   0.136  0.00  0.00    -0.092 F 
ENDROOT
TORSDOF 0
ENDMDL
