MODEL 1
REMARK minimizedAffinity 8.05166626
REMARK minimizedRMSD -1
REMARK  0 active torsions:
REMARK  status: ('A' for Active; 'I' for Inactive)
ROOT
ATOM      1  C   UNL d   1      -1.911   1.659   2.227  0.00  0.00     0.124 A 
ATOM      2  C1  UNL d   1      -0.695   1.705   1.559  0.00  0.00     0.062 A 
ATOM      3  C2  UNL d   1      -0.647   1.526   0.179  0.00  0.00     0.162 A 
ATOM      4  C3  UNL d   1      -1.819   1.302  -0.542  0.00  0.00    -0.034 A 
ATOM      5  C4  UNL d   1      -3.038   1.256   0.136  0.00  0.00     0.162 A 
ATOM      6  C5  UNL d   1      -3.081   1.434   1.515  0.00  0.00     0.062 A 
ATOM      7  F   UNL d   1      -4.257   1.390   2.158  0.00  0.00    -0.097 F 
ATOM      8  F1  UNL d   1      -4.184   1.041  -0.527  0.00  0.00    -0.096 F 
ATOM      9  I   UNL d   1      -1.751   1.034  -2.605  0.00  0.00    -0.060 I 
ATOM     10  F2  UNL d   1       0.542   1.576  -0.440  0.00  0.00    -0.096 F 
ATOM     11  F3  UNL d   1       0.437   1.920   2.245  0.00  0.00    -0.097 F 
ATOM     12  F4  UNL d   1      -1.954   1.830   3.554  0.00  0.00    -0.092 F 
ENDROOT
TORSDOF 0
ENDMDL
