MODEL 1
REMARK minimizedAffinity 6.33622313
REMARK minimizedRMSD -1
REMARK  0 active torsions:
REMARK  status: ('A' for Active; 'I' for Inactive)
ROOT
ATOM      1  C   UNL d   1       3.547  -2.774  -2.424  0.00  0.00     0.124 A 
ATOM      2  C1  UNL d   1       2.451  -3.190  -3.167  0.00  0.00     0.062 A 
ATOM      3  C2  UNL d   1       1.160  -2.914  -2.726  0.00  0.00     0.162 A 
ATOM      4  C3  UNL d   1       0.958  -2.217  -1.534  0.00  0.00    -0.034 A 
ATOM      5  C4  UNL d   1       2.065  -1.803  -0.792  0.00  0.00     0.162 A 
ATOM      6  C5  UNL d   1       3.353  -2.082  -1.237  0.00  0.00     0.062 A 
ATOM      7  F   UNL d   1       4.411  -1.679  -0.517  0.00  0.00    -0.097 F 
ATOM      8  F1  UNL d   1       1.906  -1.131   0.358  0.00  0.00    -0.096 F 
ATOM      9  I   UNL d   1      -0.971  -1.803  -0.871  0.00  0.00    -0.060 I 
ATOM     10  F2  UNL d   1       0.120  -3.328  -3.464  0.00  0.00    -0.096 F 
ATOM     11  F3  UNL d   1       2.636  -3.860  -4.314  0.00  0.00    -0.097 F 
ATOM     12  F4  UNL d   1       4.788  -3.042  -2.850  0.00  0.00    -0.092 F 
ENDROOT
TORSDOF 0
ENDMDL
