MODEL 1
REMARK minimizedAffinity 6.53200579
REMARK minimizedRMSD -1
REMARK  0 active torsions:
REMARK  status: ('A' for Active; 'I' for Inactive)
ROOT
ATOM      1  C   UNL d   1       0.732  -2.117  -1.199  0.00  0.00     0.124 A 
ATOM      2  C1  UNL d   1       1.481  -1.520  -0.194  0.00  0.00     0.062 A 
ATOM      3  C2  UNL d   1       1.130  -0.262   0.287  0.00  0.00     0.162 A 
ATOM      4  C3  UNL d   1       0.024   0.408  -0.235  0.00  0.00    -0.034 A 
ATOM      5  C4  UNL d   1      -0.724  -0.198  -1.246  0.00  0.00     0.162 A 
ATOM      6  C5  UNL d   1      -0.370  -1.456  -1.723  0.00  0.00     0.062 A 
ATOM      7  F   UNL d   1      -1.095  -2.031  -2.694  0.00  0.00    -0.097 F 
ATOM      8  F1  UNL d   1      -1.794   0.418  -1.770  0.00  0.00    -0.096 F 
ATOM      9  I   UNL d   1      -0.504   2.289   0.482  0.00  0.00    -0.060 I 
ATOM     10  F2  UNL d   1       1.872   0.291   1.258  0.00  0.00    -0.096 F 
ATOM     11  F3  UNL d   1       2.546  -2.156   0.314  0.00  0.00    -0.097 F 
ATOM     12  F4  UNL d   1       1.072  -3.327  -1.661  0.00  0.00    -0.092 F 
ENDROOT
TORSDOF 0
ENDMDL
