MODEL 1
REMARK minimizedAffinity 1.2958231
REMARK minimizedRMSD -1
REMARK  0 active torsions:
REMARK  status: ('A' for Active; 'I' for Inactive)
ROOT
ATOM      1  C   UNL d   1       3.002  -1.570  -1.627  0.00  0.00     0.124 A 
ATOM      2  C1  UNL d   1       3.699  -0.503  -1.077  0.00  0.00     0.062 A 
ATOM      3  C2  UNL d   1       3.011   0.549  -0.479  0.00  0.00     0.162 A 
ATOM      4  C3  UNL d   1       1.617   0.539  -0.427  0.00  0.00    -0.034 A 
ATOM      5  C4  UNL d   1       0.923  -0.537  -0.983  0.00  0.00     0.162 A 
ATOM      6  C5  UNL d   1       1.615  -1.586  -1.579  0.00  0.00     0.062 A 
ATOM      7  F   UNL d   1       0.940  -2.616  -2.110  0.00  0.00    -0.097 F 
ATOM      8  F1  UNL d   1      -0.417  -0.579  -0.950  0.00  0.00    -0.096 F 
ATOM      9  I   UNL d   1       0.585   2.110   0.466  0.00  0.00    -0.060 I 
ATOM     10  F2  UNL d   1       3.710   1.567   0.044  0.00  0.00    -0.096 F 
ATOM     11  F3  UNL d   1       5.039  -0.484  -1.122  0.00  0.00    -0.097 F 
ATOM     12  F4  UNL d   1       3.667  -2.580  -2.202  0.00  0.00    -0.092 F 
ENDROOT
TORSDOF 0
ENDMDL
