MODEL 1
REMARK minimizedAffinity 6.56224585
REMARK minimizedRMSD -1
REMARK  0 active torsions:
REMARK  status: ('A' for Active; 'I' for Inactive)
ROOT
ATOM      1  C   UNL d   1      -0.918  -1.351  -2.143  0.00  0.00     0.023 A 
ATOM      2  C1  UNL d   1      -2.224  -1.809  -2.312  0.00  0.00     0.003 A 
ATOM      3  C2  UNL d   1      -3.302  -0.953  -2.075  0.00  0.00     0.048 A 
ATOM      4  C3  UNL d   1      -3.066   0.360  -1.670  0.00  0.00     0.023 A 
ATOM      5  C4  UNL d   1      -1.760   0.824  -1.501  0.00  0.00     0.048 A 
ATOM      6  C5  UNL d   1      -0.686  -0.036  -1.739  0.00  0.00     0.003 A 
ATOM      7  I   UNL d   1      -4.668   1.636  -1.317  0.00  0.00    -0.146 I 
ENDROOT
TORSDOF 0
ENDMDL
