MODEL 1
REMARK minimizedAffinity 10.6814241
REMARK minimizedRMSD -1
REMARK  0 active torsions:
REMARK  status: ('A' for Active; 'I' for Inactive)
ROOT
ATOM      1  C   UNL d   1      -0.647   3.882  -0.711  0.00  0.00     0.023 A 
ATOM      2  C1  UNL d   1      -0.211   4.433   0.494  0.00  0.00     0.003 A 
ATOM      3  C2  UNL d   1       0.035   3.606   1.592  0.00  0.00     0.048 A 
ATOM      4  C3  UNL d   1      -0.157   2.229   1.478  0.00  0.00     0.023 A 
ATOM      5  C4  UNL d   1      -0.593   1.674   0.274  0.00  0.00     0.048 A 
ATOM      6  C5  UNL d   1      -0.838   2.505  -0.821  0.00  0.00     0.003 A 
ATOM      7  I   UNL d   1       0.208   0.997   3.111  0.00  0.00    -0.146 I 
ENDROOT
TORSDOF 0
ENDMDL
