MODEL 1
REMARK minimizedAffinity 6.05992699
REMARK minimizedRMSD -1
REMARK  0 active torsions:
REMARK  status: ('A' for Active; 'I' for Inactive)
ROOT
ATOM      1  C   UNL d   1      -0.574   1.934   3.046  0.00  0.00     0.023 A 
ATOM      2  C1  UNL d   1      -1.784   2.288   2.448  0.00  0.00     0.003 A 
ATOM      3  C2  UNL d   1      -1.789   3.021   1.260  0.00  0.00     0.048 A 
ATOM      4  C3  UNL d   1      -0.581   3.396   0.674  0.00  0.00     0.023 A 
ATOM      5  C4  UNL d   1       0.632   3.044   1.268  0.00  0.00     0.048 A 
ATOM      6  C5  UNL d   1       0.632   2.311   2.456  0.00  0.00     0.003 A 
ATOM      7  I   UNL d   1      -0.586   4.488  -1.095  0.00  0.00    -0.146 I 
ENDROOT
TORSDOF 0
ENDMDL
