MODEL 1
REMARK minimizedAffinity 6.99679232
REMARK minimizedRMSD -1
REMARK  0 active torsions:
REMARK  status: ('A' for Active; 'I' for Inactive)
ROOT
ATOM      1  C   UNL d   1       1.278   2.689   3.826  0.00  0.00     0.023 A 
ATOM      2  C1  UNL d   1       2.081   3.569   3.099  0.00  0.00     0.003 A 
ATOM      3  C2  UNL d   1       1.616   4.111   1.899  0.00  0.00     0.048 A 
ATOM      4  C3  UNL d   1       0.347   3.769   1.432  0.00  0.00     0.023 A 
ATOM      5  C4  UNL d   1      -0.460   2.890   2.156  0.00  0.00     0.048 A 
ATOM      6  C5  UNL d   1       0.010   2.350   3.355  0.00  0.00     0.003 A 
ATOM      7  I   UNL d   1      -0.347   4.574  -0.354  0.00  0.00    -0.146 I 
ENDROOT
TORSDOF 0
ENDMDL
