MODEL 1
REMARK minimizedAffinity 6.65813303
REMARK minimizedRMSD -1
REMARK  0 active torsions:
REMARK  status: ('A' for Active; 'I' for Inactive)
ROOT
ATOM      1  C   UNL d   1      -1.833  -1.670  -1.655  0.00  0.00     0.023 A 
ATOM      2  C1  UNL d   1      -0.476  -1.348  -1.625  0.00  0.00     0.003 A 
ATOM      3  C2  UNL d   1      -0.070  -0.062  -1.262  0.00  0.00     0.048 A 
ATOM      4  C3  UNL d   1      -1.027   0.897  -0.929  0.00  0.00     0.023 A 
ATOM      5  C4  UNL d   1      -2.386   0.579  -0.957  0.00  0.00     0.048 A 
ATOM      6  C5  UNL d   1      -2.787  -0.708  -1.321  0.00  0.00     0.003 A 
ATOM      7  I   UNL d   1      -0.425   2.811  -0.388  0.00  0.00    -0.146 I 
ENDROOT
TORSDOF 0
ENDMDL
