MODEL 1
REMARK minimizedAffinity -2.70596194
REMARK minimizedRMSD -1
REMARK  0 active torsions:
REMARK  status: ('A' for Active; 'I' for Inactive)
ROOT
ATOM      1  C1  BNZ d   1       0.560  -0.253  -3.813  0.00  0.00     0.000 A 
ATOM      2  C2  BNZ d   1       0.106  -0.624  -2.575  0.00  0.00     0.000 A 
ATOM      3  C3  BNZ d   1       0.852  -0.385  -1.455  0.00  0.00     0.000 A 
ATOM      4  C4  BNZ d   1       2.067   0.187  -1.578  0.00  0.00     0.000 A 
ATOM      5  C5  BNZ d   1       2.543   0.558  -2.820  0.00  0.00     0.000 A 
ATOM      6  C6  BNZ d   1       1.772   0.352  -3.941  0.00  0.00     0.000 A 
ENDROOT
TORSDOF 0
ENDMDL
