MODEL 1
REMARK minimizedAffinity -4.27323723
REMARK minimizedRMSD -1
REMARK  0 active torsions:
REMARK  status: ('A' for Active; 'I' for Inactive)
ROOT
ATOM      1  C1  BNZ d   1       0.229   0.710   1.072  0.00  0.00     0.000 A 
ATOM      2  C2  BNZ d   1      -0.793   0.215   0.307  0.00  0.00     0.000 A 
ATOM      3  C3  BNZ d   1      -2.034   0.014   0.843  0.00  0.00     0.000 A 
ATOM      4  C4  BNZ d   1      -2.241   0.270   2.151  0.00  0.00     0.000 A 
ATOM      5  C5  BNZ d   1      -1.218   0.761   2.937  0.00  0.00     0.000 A 
ATOM      6  C6  BNZ d   1       0.020   0.999   2.385  0.00  0.00     0.000 A 
ENDROOT
TORSDOF 0
ENDMDL
