MODEL 1
REMARK minimizedAffinity -3.55465341
REMARK minimizedRMSD -1
REMARK  0 active torsions:
REMARK  status: ('A' for Active; 'I' for Inactive)
ROOT
ATOM      1  C1  BNZ d   1      -0.502  -0.190  -0.482  0.00  0.00     0.000 A 
ATOM      2  C2  BNZ d   1      -0.739   0.641   0.580  0.00  0.00     0.000 A 
ATOM      3  C3  BNZ d   1       0.206   0.824   1.550  0.00  0.00     0.000 A 
ATOM      4  C4  BNZ d   1       1.370   0.147   1.478  0.00  0.00     0.000 A 
ATOM      5  C5  BNZ d   1       1.620  -0.702   0.418  0.00  0.00     0.000 A 
ATOM      6  C6  BNZ d   1       0.682  -0.855  -0.576  0.00  0.00     0.000 A 
ENDROOT
TORSDOF 0
ENDMDL
