MODEL 1
REMARK minimizedAffinity -3.63364935
REMARK minimizedRMSD -1
REMARK  0 active torsions:
REMARK  status: ('A' for Active; 'I' for Inactive)
ROOT
ATOM      1  C1  BNZ d   1       0.003   1.947   2.466  0.00  0.00     0.000 A 
ATOM      2  C2  BNZ d   1      -1.038   1.389   3.159  0.00  0.00     0.000 A 
ATOM      3  C3  BNZ d   1      -1.804   0.404   2.601  0.00  0.00     0.000 A 
ATOM      4  C4  BNZ d   1      -1.553   0.007   1.336  0.00  0.00     0.000 A 
ATOM      5  C5  BNZ d   1      -0.513   0.566   0.621  0.00  0.00     0.000 A 
ATOM      6  C6  BNZ d   1       0.280   1.530   1.200  0.00  0.00     0.000 A 
ENDROOT
TORSDOF 0
ENDMDL
