MODEL 1
REMARK minimizedAffinity -3.89537406
REMARK minimizedRMSD -1
REMARK  0 active torsions:
REMARK  status: ('A' for Active; 'I' for Inactive)
ROOT
ATOM      1  C1  BNZ d   1      -0.769   0.892   2.293  0.00  0.00     0.000 A 
ATOM      2  C2  BNZ d   1       0.470   0.845   1.713  0.00  0.00     0.000 A 
ATOM      3  C3  BNZ d   1       0.618   0.465   0.408  0.00  0.00     0.000 A 
ATOM      4  C4  BNZ d   1      -0.467   0.095  -0.302  0.00  0.00     0.000 A 
ATOM      5  C5  BNZ d   1      -1.722   0.128   0.272  0.00  0.00     0.000 A 
ATOM      6  C6  BNZ d   1      -1.872   0.548   1.574  0.00  0.00     0.000 A 
ENDROOT
TORSDOF 0
ENDMDL
