MODEL 1
REMARK minimizedAffinity -4.45700026
REMARK minimizedRMSD -1
REMARK  0 active torsions:
REMARK  status: ('A' for Active; 'I' for Inactive)
ROOT
ATOM      1  C1  BNZ d   1      -1.786   0.401   2.522  0.00  0.00     0.000 A 
ATOM      2  C2  BNZ d   1      -1.402  -0.231   1.370  0.00  0.00     0.000 A 
ATOM      3  C3  BNZ d   1      -0.355   0.241   0.628  0.00  0.00     0.000 A 
ATOM      4  C4  BNZ d   1       0.280   1.366   1.018  0.00  0.00     0.000 A 
ATOM      5  C5  BNZ d   1      -0.102   2.020   2.172  0.00  0.00     0.000 A 
ATOM      6  C6  BNZ d   1      -1.131   1.520   2.937  0.00  0.00     0.000 A 
ENDROOT
TORSDOF 0
ENDMDL
