MODEL 1
REMARK minimizedAffinity 4.16885519
REMARK minimizedRMSD -1
REMARK  0 active torsions:
REMARK  status: ('A' for Active; 'I' for Inactive)
ROOT
ATOM      1  C1  BNZ d   1      -0.765  -2.671  -2.277  0.00  0.00     0.000 A 
ATOM      2  C2  BNZ d   1       0.343  -1.905  -2.033  0.00  0.00     0.000 A 
ATOM      3  C3  BNZ d   1       1.238  -2.258  -1.062  0.00  0.00     0.000 A 
ATOM      4  C4  BNZ d   1       1.003  -3.353  -0.310  0.00  0.00     0.000 A 
ATOM      5  C5  BNZ d   1      -0.116  -4.130  -0.538  0.00  0.00     0.000 A 
ATOM      6  C6  BNZ d   1      -0.993  -3.793  -1.543  0.00  0.00     0.000 A 
ENDROOT
TORSDOF 0
ENDMDL
