MODEL 1
REMARK minimizedAffinity 4.11169529
REMARK minimizedRMSD -1
REMARK  0 active torsions:
REMARK  status: ('A' for Active; 'I' for Inactive)
ROOT
ATOM      1  C1  BNZ d   1       2.050  -2.532  -0.206  0.00  0.00     0.000 A 
ATOM      2  C2  BNZ d   1       2.620  -1.451   0.413  0.00  0.00     0.000 A 
ATOM      3  C3  BNZ d   1       3.326  -0.526  -0.303  0.00  0.00     0.000 A 
ATOM      4  C4  BNZ d   1       3.496  -0.702  -1.629  0.00  0.00     0.000 A 
ATOM      5  C5  BNZ d   1       2.936  -1.791  -2.267  0.00  0.00     0.000 A 
ATOM      6  C6  BNZ d   1       2.192  -2.700  -1.549  0.00  0.00     0.000 A 
ENDROOT
TORSDOF 0
ENDMDL
