MODEL 1
REMARK minimizedAffinity 8.41831493
REMARK minimizedRMSD -1
REMARK  0 active torsions:
REMARK  status: ('A' for Active; 'I' for Inactive)
ROOT
ATOM      1  C1  BNZ d   1      -6.000   1.442  -2.620  0.00  0.00     0.000 A 
ATOM      2  C2  BNZ d   1      -6.000   0.696  -1.471  0.00  0.00     0.000 A 
ATOM      3  C3  BNZ d   1      -4.889  -0.003  -1.091  0.00  0.00     0.000 A 
ATOM      4  C4  BNZ d   1      -3.794   0.011  -1.879  0.00  0.00     0.000 A 
ATOM      5  C5  BNZ d   1      -3.782   0.751  -3.044  0.00  0.00     0.000 A 
ATOM      6  C6  BNZ d   1      -4.889   1.485  -3.404  0.00  0.00     0.000 A 
ENDROOT
TORSDOF 0
ENDMDL
