MODEL 1
REMARK minimizedAffinity 5.44088793
REMARK minimizedRMSD -1
REMARK  0 active torsions:
REMARK  status: ('A' for Active; 'I' for Inactive)
ROOT
ATOM      1  C1  BNZ d   1       3.485   0.993  -0.911  0.00  0.00     0.000 A 
ATOM      2  C2  BNZ d   1       4.351   2.030  -1.131  0.00  0.00     0.000 A 
ATOM      3  C3  BNZ d   1       5.615   2.009  -0.612  0.00  0.00     0.000 A 
ATOM      4  C4  BNZ d   1       5.998   0.971   0.159  0.00  0.00     0.000 A 
ATOM      5  C5  BNZ d   1       5.133  -0.079   0.398  0.00  0.00     0.000 A 
ATOM      6  C6  BNZ d   1       3.875  -0.072  -0.159  0.00  0.00     0.000 A 
ENDROOT
TORSDOF 0
ENDMDL
