MODEL 1
REMARK minimizedAffinity 2.48991251
REMARK minimizedRMSD -1
REMARK  0 active torsions:
REMARK  status: ('A' for Active; 'I' for Inactive)
ROOT
ATOM      1  C1  BNZ d   1       3.369   0.129  -0.889  0.00  0.00     0.000 A 
ATOM      2  C2  BNZ d   1       4.354   1.050  -1.129  0.00  0.00     0.000 A 
ATOM      3  C3  BNZ d   1       5.556   0.975  -0.482  0.00  0.00     0.000 A 
ATOM      4  C4  BNZ d   1       5.756   0.004   0.433  0.00  0.00     0.000 A 
ATOM      5  C5  BNZ d   1       4.770  -0.927   0.693  0.00  0.00     0.000 A 
ATOM      6  C6  BNZ d   1       3.576  -0.871   0.011  0.00  0.00     0.000 A 
ENDROOT
TORSDOF 0
ENDMDL
