MODEL 1
REMARK minimizedAffinity 3.67945266
REMARK minimizedRMSD -1
REMARK  0 active torsions:
REMARK  status: ('A' for Active; 'I' for Inactive)
ROOT
ATOM      1  C1  BNZ d   1       2.959   0.289  -0.858  0.00  0.00     0.000 A 
ATOM      2  C2  BNZ d   1       4.047   1.121  -0.856  0.00  0.00     0.000 A 
ATOM      3  C3  BNZ d   1       5.148   0.833  -0.099  0.00  0.00     0.000 A 
ATOM      4  C4  BNZ d   1       5.144  -0.265   0.684  0.00  0.00     0.000 A 
ATOM      5  C5  BNZ d   1       4.052  -1.109   0.701  0.00  0.00     0.000 A 
ATOM      6  C6  BNZ d   1       2.961  -0.836  -0.092  0.00  0.00     0.000 A 
ENDROOT
TORSDOF 0
ENDMDL
