MODEL 1
REMARK minimizedAffinity 1.28742158
REMARK minimizedRMSD -1
REMARK  0 active torsions:
REMARK  status: ('A' for Active; 'I' for Inactive)
ROOT
ATOM      1  C1  BNZ d   1       3.800  -0.646  -2.531  0.00  0.00     0.000 A 
ATOM      2  C2  BNZ d   1       4.844   0.230  -2.663  0.00  0.00     0.000 A 
ATOM      3  C3  BNZ d   1       5.174   1.084  -1.648  0.00  0.00     0.000 A 
ATOM      4  C4  BNZ d   1       4.436   1.088  -0.519  0.00  0.00     0.000 A 
ATOM      5  C5  BNZ d   1       3.375   0.217  -0.375  0.00  0.00     0.000 A 
ATOM      6  C6  BNZ d   1       3.070  -0.668  -1.383  0.00  0.00     0.000 A 
ENDROOT
TORSDOF 0
ENDMDL
