MODEL 1
REMARK minimizedAffinity -0.439046234
REMARK minimizedRMSD -1
REMARK  0 active torsions:
REMARK  status: ('A' for Active; 'I' for Inactive)
ROOT
ATOM      1  C1  BNZ d   1       4.252   0.490  -0.828  0.00  0.00     0.000 A 
ATOM      2  C2  BNZ d   1       3.478  -0.084   0.145  0.00  0.00     0.000 A 
ATOM      3  C3  BNZ d   1       2.846  -1.276  -0.075  0.00  0.00     0.000 A 
ATOM      4  C4  BNZ d   1       2.956  -1.871  -1.280  0.00  0.00     0.000 A 
ATOM      5  C5  BNZ d   1       3.725  -1.301  -2.275  0.00  0.00     0.000 A 
ATOM      6  C6  BNZ d   1       4.392  -0.121  -2.036  0.00  0.00     0.000 A 
ENDROOT
TORSDOF 0
ENDMDL
