MODEL 1
REMARK minimizedAffinity 3.65418911
REMARK minimizedRMSD -1
REMARK  0 active torsions:
REMARK  status: ('A' for Active; 'I' for Inactive)
ROOT
ATOM      1  C1  BNZ d   1       1.550  -0.257  -0.814  0.00  0.00     0.000 A 
ATOM      2  C2  BNZ d   1       2.485   0.742  -0.765  0.00  0.00     0.000 A 
ATOM      3  C3  BNZ d   1       3.818   0.460  -0.883  0.00  0.00     0.000 A 
ATOM      4  C4  BNZ d   1       4.215  -0.823  -1.008  0.00  0.00     0.000 A 
ATOM      5  C5  BNZ d   1       3.284  -1.842  -1.050  0.00  0.00     0.000 A 
ATOM      6  C6  BNZ d   1       1.942  -1.550  -0.970  0.00  0.00     0.000 A 
ENDROOT
TORSDOF 0
ENDMDL
