MODEL 1
REMARK minimizedAffinity 3.2621727
REMARK minimizedRMSD -1
REMARK  0 active torsions:
REMARK  status: ('A' for Active; 'I' for Inactive)
ROOT
ATOM      1  C1  BNZ d   1      -3.658   1.995  -3.014  0.00  0.00     0.000 A 
ATOM      2  C2  BNZ d   1      -3.674   3.304  -3.417  0.00  0.00     0.000 A 
ATOM      3  C3  BNZ d   1      -4.843   4.012  -3.448  0.00  0.00     0.000 A 
ATOM      4  C4  BNZ d   1      -5.998   3.401  -3.115  0.00  0.00     0.000 A 
ATOM      5  C5  BNZ d   1      -5.999   2.080  -2.714  0.00  0.00     0.000 A 
ATOM      6  C6  BNZ d   1      -4.816   1.381  -2.647  0.00  0.00     0.000 A 
ENDROOT
TORSDOF 0
ENDMDL
