MODEL 1
REMARK minimizedAffinity -2.53687549
REMARK minimizedRMSD -1
REMARK  0 active torsions:
REMARK  status: ('A' for Active; 'I' for Inactive)
ROOT
ATOM      1  N1  IND d   1      -0.352  -1.092  -0.701  0.00  0.00    -0.196 N 
ATOM      2  C2  IND d   1       0.736  -0.265  -0.682  0.00  0.00     0.054 A 
ATOM      3  C3  IND d   1       0.512   0.789   0.134  0.00  0.00    -0.031 A 
ATOM      4  C4  IND d   1      -1.530   1.306   1.615  0.00  0.00     0.051 A 
ATOM      5  C5  IND d   1      -2.789   0.861   1.907  0.00  0.00    -0.031 A 
ATOM      6  C6  IND d   1      -3.310  -0.281   1.335  0.00  0.00     0.015 A 
ATOM      7  C7  IND d   1      -2.583  -1.032   0.454  0.00  0.00    -0.016 A 
ATOM      8  C8  IND d   1      -1.307  -0.580   0.150  0.00  0.00    -0.047 A 
ATOM      9  C9  IND d   1      -0.789   0.602   0.695  0.00  0.00    -0.096 A 
ATOM     10  HN1 IND d   1      -0.428  -1.811  -1.166  0.00  0.00     0.298 HD
ENDROOT
TORSDOF 0
ENDMDL
