MODEL 1
REMARK minimizedAffinity -4.11469793
REMARK minimizedRMSD -1
REMARK  0 active torsions:
REMARK  status: ('A' for Active; 'I' for Inactive)
ROOT
ATOM      1  N1  IND d   1      -0.281  -0.903   0.193  0.00  0.00    -0.196 N 
ATOM      2  C2  IND d   1      -0.314   0.134   1.084  0.00  0.00     0.054 A 
ATOM      3  C3  IND d   1       0.417   1.173   0.623  0.00  0.00    -0.031 A 
ATOM      4  C4  IND d   1       1.670   1.429  -1.611  0.00  0.00     0.051 A 
ATOM      5  C5  IND d   1       2.019   0.735  -2.736  0.00  0.00    -0.031 A 
ATOM      6  C6  IND d   1       1.609  -0.565  -2.947  0.00  0.00     0.015 A 
ATOM      7  C7  IND d   1       0.821  -1.220  -2.043  0.00  0.00    -0.016 A 
ATOM      8  C8  IND d   1       0.471  -0.521  -0.896  0.00  0.00    -0.047 A 
ATOM      9  C9  IND d   1       0.919   0.784  -0.656  0.00  0.00    -0.096 A 
ATOM     10  HN1 IND d   1      -0.664  -1.666   0.297  0.00  0.00     0.298 HD
ENDROOT
TORSDOF 0
ENDMDL
