MODEL 1
REMARK minimizedAffinity -3.54151082
REMARK minimizedRMSD -1
REMARK  0 active torsions:
REMARK  status: ('A' for Active; 'I' for Inactive)
ROOT
ATOM      1  N1  IND d   1       1.239   0.829   1.305  0.00  0.00    -0.196 N 
ATOM      2  C2  IND d   1       0.348  -0.024   1.894  0.00  0.00     0.054 A 
ATOM      3  C3  IND d   1      -0.272  -0.776   0.957  0.00  0.00    -0.031 A 
ATOM      4  C4  IND d   1       0.093  -0.844  -1.590  0.00  0.00     0.051 A 
ATOM      5  C5  IND d   1       0.777  -0.223  -2.598  0.00  0.00    -0.031 A 
ATOM      6  C6  IND d   1       1.669   0.800  -2.350  0.00  0.00     0.015 A 
ATOM      7  C7  IND d   1       1.921   1.234  -1.079  0.00  0.00    -0.016 A 
ATOM      8  C8  IND d   1       1.224   0.610  -0.055  0.00  0.00    -0.047 A 
ATOM      9  C9  IND d   1       0.285  -0.400  -0.303  0.00  0.00    -0.096 A 
ATOM     10  HN1 IND d   1       1.727   1.406   1.715  0.00  0.00     0.298 HD
ENDROOT
TORSDOF 0
ENDMDL
