MODEL 1
REMARK minimizedAffinity -2.01990271
REMARK minimizedRMSD -1
REMARK  0 active torsions:
REMARK  status: ('A' for Active; 'I' for Inactive)
ROOT
ATOM      1  N1  IND d   1       0.394  -0.468   0.827  0.00  0.00    -0.196 N 
ATOM      2  C2  IND d   1       0.580   0.868   1.053  0.00  0.00     0.054 A 
ATOM      3  C3  IND d   1       1.335   1.410   0.072  0.00  0.00    -0.031 A 
ATOM      4  C4  IND d   1       2.288   0.314  -2.054  0.00  0.00     0.051 A 
ATOM      5  C5  IND d   1       2.413  -0.894  -2.679  0.00  0.00    -0.031 A 
ATOM      6  C6  IND d   1       1.858  -2.046  -2.159  0.00  0.00     0.015 A 
ATOM      7  C7  IND d   1       1.144  -2.028  -0.994  0.00  0.00    -0.016 A 
ATOM      8  C8  IND d   1       1.021  -0.804  -0.353  0.00  0.00    -0.047 A 
ATOM      9  C9  IND d   1       1.619   0.360  -0.854  0.00  0.00    -0.096 A 
ATOM     10  HN1 IND d   1      -0.041  -1.007   1.336  0.00  0.00     0.298 HD
ENDROOT
TORSDOF 0
ENDMDL
