MODEL 1
REMARK minimizedAffinity -3.9715662
REMARK minimizedRMSD -1
REMARK  0 active torsions:
REMARK  status: ('A' for Active; 'I' for Inactive)
ROOT
ATOM      1  N1  IND d   1       1.146   0.897   1.310  0.00  0.00    -0.196 N 
ATOM      2  C2  IND d   1      -0.018   0.287   1.684  0.00  0.00     0.054 A 
ATOM      3  C3  IND d   1      -0.468  -0.515   0.693  0.00  0.00    -0.031 A 
ATOM      4  C4  IND d   1       0.601  -1.056  -1.586  0.00  0.00     0.051 A 
ATOM      5  C5  IND d   1       1.650  -0.713  -2.392  0.00  0.00    -0.031 A 
ATOM      6  C6  IND d   1       2.605   0.201  -1.996  0.00  0.00     0.015 A 
ATOM      7  C7  IND d   1       2.553   0.800  -0.770  0.00  0.00    -0.016 A 
ATOM      8  C8  IND d   1       1.486   0.459   0.049  0.00  0.00    -0.047 A 
ATOM      9  C9  IND d   1       0.490  -0.436  -0.364  0.00  0.00    -0.096 A 
ATOM     10  HN1 IND d   1       1.592   1.460   1.784  0.00  0.00     0.298 HD
ENDROOT
TORSDOF 0
ENDMDL
