MODEL 1
REMARK minimizedAffinity -6.00152826
REMARK minimizedRMSD -1
REMARK  0 active torsions:
REMARK  status: ('A' for Active; 'I' for Inactive)
ROOT
ATOM      1  N1  IND d   1       0.581  -1.420   0.799  0.00  0.00    -0.196 N 
ATOM      2  C2  IND d   1      -0.063  -0.246   1.071  0.00  0.00     0.054 A 
ATOM      3  C3  IND d   1       0.035   0.600   0.021  0.00  0.00    -0.031 A 
ATOM      4  C4  IND d   1       1.119   0.225  -2.284  0.00  0.00     0.051 A 
ATOM      5  C5  IND d   1       1.863  -0.678  -2.990  0.00  0.00    -0.031 A 
ATOM      6  C6  IND d   1       2.224  -1.900  -2.460  0.00  0.00     0.015 A 
ATOM      7  C7  IND d   1       1.842  -2.271  -1.202  0.00  0.00    -0.016 A 
ATOM      8  C8  IND d   1       1.091  -1.354  -0.479  0.00  0.00    -0.047 A 
ATOM      9  C9  IND d   1       0.758  -0.095  -0.997  0.00  0.00    -0.096 A 
ATOM     10  HN1 IND d   1       0.656  -2.088   1.335  0.00  0.00     0.298 HD
ENDROOT
TORSDOF 0
ENDMDL
