MODEL 1
REMARK minimizedAffinity -3.28287029
REMARK minimizedRMSD -1
REMARK  0 active torsions:
REMARK  status: ('A' for Active; 'I' for Inactive)
ROOT
ATOM      1  N1  IND d   1      -0.815  -1.298  -0.055  0.00  0.00    -0.196 N 
ATOM      2  C2  IND d   1      -0.928  -0.669   1.154  0.00  0.00     0.054 A 
ATOM      3  C3  IND d   1      -0.056   0.361   1.231  0.00  0.00    -0.031 A 
ATOM      4  C4  IND d   1       1.576   1.259  -0.545  0.00  0.00     0.051 A 
ATOM      5  C5  IND d   1       2.063   0.992  -1.794  0.00  0.00    -0.031 A 
ATOM      6  C6  IND d   1       1.604  -0.072  -2.543  0.00  0.00     0.015 A 
ATOM      7  C7  IND d   1       0.629  -0.906  -2.074  0.00  0.00    -0.016 A 
ATOM      8  C8  IND d   1       0.137  -0.641  -0.803  0.00  0.00    -0.047 A 
ATOM      9  C9  IND d   1       0.629   0.412  -0.021  0.00  0.00    -0.096 A 
ATOM     10  HN1 IND d   1      -1.264  -1.987  -0.306  0.00  0.00     0.298 HD
ENDROOT
TORSDOF 0
ENDMDL
