MODEL 1
REMARK minimizedAffinity -4.53641319
REMARK minimizedRMSD -1
REMARK  0 active torsions:
REMARK  status: ('A' for Active; 'I' for Inactive)
ROOT
ATOM      1  N1  IND d   1      -0.532  -0.657   0.765  0.00  0.00    -0.196 N 
ATOM      2  C2  IND d   1      -0.405   0.622   1.229  0.00  0.00     0.054 A 
ATOM      3  C3  IND d   1       0.380   1.347   0.401  0.00  0.00    -0.031 A 
ATOM      4  C4  IND d   1       1.477   0.666  -1.826  0.00  0.00     0.051 A 
ATOM      5  C5  IND d   1       1.676  -0.411  -2.643  0.00  0.00    -0.031 A 
ATOM      6  C6  IND d   1       1.136  -1.650  -2.362  0.00  0.00     0.015 A 
ATOM      7  C7  IND d   1       0.364  -1.855  -1.254  0.00  0.00    -0.016 A 
ATOM      8  C8  IND d   1       0.166  -0.766  -0.418  0.00  0.00    -0.047 A 
ATOM      9  C9  IND d   1       0.746   0.483  -0.676  0.00  0.00    -0.096 A 
ATOM     10  HN1 IND d   1      -0.974  -1.289   1.147  0.00  0.00     0.298 HD
ENDROOT
TORSDOF 0
ENDMDL
