MODEL 1
REMARK minimizedAffinity -2.80908489
REMARK minimizedRMSD -1
REMARK  0 active torsions:
REMARK  status: ('A' for Active; 'I' for Inactive)
ROOT
ATOM      1  N1  IND d   1      -4.347   3.567   3.605  0.00  0.00    -0.196 N 
ATOM      2  C2  IND d   1      -3.357   3.990   4.447  0.00  0.00     0.054 A 
ATOM      3  C3  IND d   1      -2.318   3.125   4.424  0.00  0.00    -0.031 A 
ATOM      4  C4  IND d   1      -1.987   1.004   3.003  0.00  0.00     0.051 A 
ATOM      5  C5  IND d   1      -2.633   0.193   2.113  0.00  0.00    -0.031 A 
ATOM      6  C6  IND d   1      -3.907   0.471   1.663  0.00  0.00     0.015 A 
ATOM      7  C7  IND d   1      -4.582   1.583   2.081  0.00  0.00    -0.016 A 
ATOM      8  C8  IND d   1      -3.933   2.406   2.990  0.00  0.00    -0.047 A 
ATOM      9  C9  IND d   1      -2.656   2.106   3.482  0.00  0.00    -0.096 A 
ATOM     10  HN1 IND d   1      -5.102   3.960   3.481  0.00  0.00     0.298 HD
ENDROOT
TORSDOF 0
ENDMDL
