MODEL 1
REMARK minimizedAffinity -1.72539949
REMARK minimizedRMSD -1
REMARK  0 active torsions:
REMARK  status: ('A' for Active; 'I' for Inactive)
ROOT
ATOM      1  N1  IND d   1      -1.476  -1.020   0.753  0.00  0.00    -0.196 N 
ATOM      2  C2  IND d   1      -0.202  -0.525   0.745  0.00  0.00     0.054 A 
ATOM      3  C3  IND d   1      -0.197   0.767   1.143  0.00  0.00    -0.031 A 
ATOM      4  C4  IND d   1      -2.149   2.238   1.951  0.00  0.00     0.051 A 
ATOM      5  C5  IND d   1      -3.508   2.238   2.100  0.00  0.00    -0.031 A 
ATOM      6  C6  IND d   1      -4.274   1.129   1.803  0.00  0.00     0.015 A 
ATOM      7  C7  IND d   1      -3.706  -0.030   1.356  0.00  0.00    -0.016 A 
ATOM      8  C8  IND d   1      -2.327  -0.032   1.198  0.00  0.00    -0.047 A 
ATOM      9  C9  IND d   1      -1.549   1.104   1.457  0.00  0.00    -0.096 A 
ATOM     10  HN1 IND d   1      -1.707  -1.814   0.520  0.00  0.00     0.298 HD
ENDROOT
TORSDOF 0
ENDMDL
