MODEL 1
REMARK minimizedAffinity -4.61592293
REMARK minimizedRMSD -1
REMARK  0 active torsions:
REMARK  status: ('A' for Active; 'I' for Inactive)
ROOT
ATOM      1  N1  IND d   1      -3.724   3.839   3.190  0.00  0.00    -0.196 N 
ATOM      2  C2  IND d   1      -2.534   4.198   3.760  0.00  0.00     0.054 A 
ATOM      3  C3  IND d   1      -1.637   3.193   3.647  0.00  0.00    -0.031 A 
ATOM      4  C4  IND d   1      -1.873   0.913   2.475  0.00  0.00     0.051 A 
ATOM      5  C5  IND d   1      -2.785   0.117   1.841  0.00  0.00    -0.031 A 
ATOM      6  C6  IND d   1      -4.082   0.530   1.617  0.00  0.00     0.015 A 
ATOM      7  C7  IND d   1      -4.515   1.765   2.011  0.00  0.00    -0.016 A 
ATOM      8  C8  IND d   1      -3.593   2.573   2.661  0.00  0.00    -0.047 A 
ATOM      9  C9  IND d   1      -2.287   2.143   2.929  0.00  0.00    -0.096 A 
ATOM     10  HN1 IND d   1      -4.435   4.322   3.166  0.00  0.00     0.298 HD
ENDROOT
TORSDOF 0
ENDMDL
