MODEL 1
REMARK minimizedAffinity -2.45133948
REMARK minimizedRMSD -1
REMARK  0 active torsions:
REMARK  status: ('A' for Active; 'I' for Inactive)
ROOT
ATOM      1  N1  IND d   1      -3.726   3.501   2.494  0.00  0.00    -0.196 N 
ATOM      2  C2  IND d   1      -2.756   3.916   3.362  0.00  0.00     0.054 A 
ATOM      3  C3  IND d   1      -1.819   2.954   3.517  0.00  0.00    -0.031 A 
ATOM      4  C4  IND d   1      -1.626   0.660   2.364  0.00  0.00     0.051 A 
ATOM      5  C5  IND d   1      -2.294  -0.180   1.517  0.00  0.00    -0.031 A 
ATOM      6  C6  IND d   1      -3.496   0.173   0.939  0.00  0.00     0.015 A 
ATOM      7  C7  IND d   1      -4.072   1.388   1.178  0.00  0.00    -0.016 A 
ATOM      8  C8  IND d   1      -3.400   2.241   2.043  0.00  0.00    -0.047 A 
ATOM      9  C9  IND d   1      -2.201   1.872   2.666  0.00  0.00    -0.096 A 
ATOM     10  HN1 IND d   1      -4.423   3.951   2.267  0.00  0.00     0.298 HD
ENDROOT
TORSDOF 0
ENDMDL
