MODEL 1
REMARK minimizedAffinity -0.580938101
REMARK minimizedRMSD -1
REMARK  0 active torsions:
REMARK  status: ('A' for Active; 'I' for Inactive)
ROOT
ATOM      1  N1  IND d   1      -0.901  -0.905   0.794  0.00  0.00    -0.196 N 
ATOM      2  C2  IND d   1      -1.279   0.186   1.528  0.00  0.00     0.054 A 
ATOM      3  C3  IND d   1      -0.534   1.262   1.189  0.00  0.00    -0.031 A 
ATOM      4  C4  IND d   1       1.290   1.486  -0.614  0.00  0.00     0.051 A 
ATOM      5  C5  IND d   1       2.008   0.753  -1.517  0.00  0.00    -0.031 A 
ATOM      6  C6  IND d   1       1.787  -0.596  -1.701  0.00  0.00     0.015 A 
ATOM      7  C7  IND d   1       0.827  -1.264  -0.994  0.00  0.00    -0.016 A 
ATOM      8  C8  IND d   1       0.101  -0.525  -0.072  0.00  0.00    -0.047 A 
ATOM      9  C9  IND d   1       0.350   0.836   0.150  0.00  0.00    -0.096 A 
ATOM     10  HN1 IND d   1      -1.233  -1.695   0.862  0.00  0.00     0.298 HD
ENDROOT
TORSDOF 0
ENDMDL
