MODEL 1
REMARK minimizedAffinity -3.32138109
REMARK minimizedRMSD -1
REMARK  0 active torsions:
REMARK  status: ('A' for Active; 'I' for Inactive)
ROOT
ATOM      1  N1  IND d   1       0.004  -1.224   0.111  0.00  0.00    -0.196 N 
ATOM      2  C2  IND d   1      -0.391  -0.488   1.193  0.00  0.00     0.054 A 
ATOM      3  C3  IND d   1       0.061   0.782   1.089  0.00  0.00    -0.031 A 
ATOM      4  C4  IND d   1       1.382   1.897  -0.819  0.00  0.00     0.051 A 
ATOM      5  C5  IND d   1       2.004   1.619  -2.003  0.00  0.00    -0.031 A 
ATOM      6  C6  IND d   1       1.989   0.355  -2.557  0.00  0.00     0.015 A 
ATOM      7  C7  IND d   1       1.338  -0.681  -1.948  0.00  0.00    -0.016 A 
ATOM      8  C8  IND d   1       0.711  -0.404  -0.742  0.00  0.00    -0.047 A 
ATOM      9  C9  IND d   1       0.759   0.866  -0.154  0.00  0.00    -0.096 A 
ATOM     10  HN1 IND d   1      -0.162  -2.058  -0.016  0.00  0.00     0.298 HD
ENDROOT
TORSDOF 0
ENDMDL
