MODEL 1
REMARK minimizedAffinity -4.76712704
REMARK minimizedRMSD -1
REMARK  0 active torsions:
REMARK  status: ('A' for Active; 'I' for Inactive)
ROOT
ATOM      1  N1  IND d   1      -1.754  -0.180  -0.222  0.00  0.00    -0.196 N 
ATOM      2  C2  IND d   1      -1.635  -0.057   1.135  0.00  0.00     0.054 A 
ATOM      3  C3  IND d   1      -0.366   0.273   1.467  0.00  0.00    -0.031 A 
ATOM      4  C4  IND d   1       1.650   0.761  -0.058  0.00  0.00     0.051 A 
ATOM      5  C5  IND d   1       2.039   0.742  -1.368  0.00  0.00    -0.031 A 
ATOM      6  C6  IND d   1       1.165   0.410  -2.384  0.00  0.00     0.015 A 
ATOM      7  C7  IND d   1      -0.139   0.095  -2.127  0.00  0.00    -0.016 A 
ATOM      8  C8  IND d   1      -0.536   0.107  -0.797  0.00  0.00    -0.047 A 
ATOM      9  C9  IND d   1       0.357   0.401   0.241  0.00  0.00    -0.096 A 
ATOM     10  HN1 IND d   1      -2.470  -0.399  -0.644  0.00  0.00     0.298 HD
ENDROOT
TORSDOF 0
ENDMDL
