MODEL 1
REMARK minimizedAffinity -4.62587118
REMARK minimizedRMSD -1
REMARK  0 active torsions:
REMARK  status: ('A' for Active; 'I' for Inactive)
ROOT
ATOM      1  N1  IND d   1       2.365   0.960  -1.753  0.00  0.00    -0.196 N 
ATOM      2  C2  IND d   1       2.111   0.360  -2.955  0.00  0.00     0.054 A 
ATOM      3  C3  IND d   1       1.143  -0.574  -2.818  0.00  0.00    -0.031 A 
ATOM      4  C4  IND d   1      -0.232  -1.212  -0.737  0.00  0.00     0.051 A 
ATOM      5  C5  IND d   1      -0.336  -0.963   0.603  0.00  0.00    -0.031 A 
ATOM      6  C6  IND d   1       0.469  -0.041   1.238  0.00  0.00     0.015 A 
ATOM      7  C7  IND d   1       1.406   0.680   0.552  0.00  0.00    -0.016 A 
ATOM      8  C8  IND d   1       1.519   0.425  -0.808  0.00  0.00    -0.047 A 
ATOM      9  C9  IND d   1       0.733  -0.541  -1.450  0.00  0.00    -0.096 A 
ATOM     10  HN1 IND d   1       2.955   1.570  -1.612  0.00  0.00     0.298 HD
ENDROOT
TORSDOF 0
ENDMDL
