MODEL 1
REMARK minimizedAffinity 1.3268137
REMARK minimizedRMSD -1
REMARK  0 active torsions:
REMARK  status: ('A' for Active; 'I' for Inactive)
ROOT
ATOM      1  N1  IND d   1      -2.057  -0.123   1.036  0.00  0.00    -0.196 N 
ATOM      2  C2  IND d   1      -2.602   1.115   0.833  0.00  0.00     0.054 A 
ATOM      3  C3  IND d   1      -1.734   1.907   0.164  0.00  0.00    -0.031 A 
ATOM      4  C4  IND d   1       0.593   1.348  -0.785  0.00  0.00     0.051 A 
ATOM      5  C5  IND d   1       1.532   0.356  -0.820  0.00  0.00    -0.031 A 
ATOM      6  C6  IND d   1       1.318  -0.872  -0.229  0.00  0.00     0.015 A 
ATOM      7  C7  IND d   1       0.146  -1.159   0.413  0.00  0.00    -0.016 A 
ATOM      8  C8  IND d   1      -0.807  -0.151   0.457  0.00  0.00    -0.047 A 
ATOM      9  C9  IND d   1      -0.578   1.111  -0.105  0.00  0.00    -0.096 A 
ATOM     10  HN1 IND d   1      -2.431  -0.773   1.455  0.00  0.00     0.298 HD
ENDROOT
TORSDOF 0
ENDMDL
