MODEL 1
REMARK minimizedAffinity 0.703115463
REMARK minimizedRMSD -1
REMARK  1 active torsions:
REMARK  status: ('A' for Active; 'I' for Inactive)
REMARK    1  A    between atoms: C1_2  and  C2_3 
ROOT
ATOM      1  C2  UNL d   1       1.073   0.730  -0.141  0.00  0.00    -0.076 A 
ATOM      2  C3  UNL d   1       0.871  -0.626   0.169  0.00  0.00     0.004 A 
ATOM      3  C4  UNL d   1       0.787  -1.586  -0.838  0.00  0.00    -0.003 A 
ATOM      4  C5  UNL d   1       0.904  -1.206  -2.170  0.00  0.00     0.000 A 
ATOM      5  C6  UNL d   1       1.122   0.132  -2.494  0.00  0.00     0.000 A 
ATOM      6  C7  UNL d   1       1.226   1.111  -1.491  0.00  0.00    -0.073 A 
ATOM      7  C8  UNL d   1       1.456   2.541  -1.898  0.00  0.00     0.078 C 
ENDROOT
BRANCH   1   8
ATOM      8  C1  UNL d   1       1.129   1.731   0.992  0.00  0.00     0.053 C 
ATOM      9  C   UNL d   1       2.109   1.323   2.082  0.00  0.00     0.018 C 
ENDBRANCH   1   8
TORSDOF 1
ENDMDL
