MODEL 1
REMARK minimizedAffinity 10.0820122
REMARK minimizedRMSD -1
REMARK  1 active torsions:
REMARK  status: ('A' for Active; 'I' for Inactive)
REMARK    1  A    between atoms: C1_2  and  C2_3 
ROOT
ATOM      1  C2  UNL d   1       1.360   1.962  -0.900  0.00  0.00    -0.076 A 
ATOM      2  C3  UNL d   1       1.672   2.169   0.454  0.00  0.00     0.004 A 
ATOM      3  C4  UNL d   1       1.722   1.102   1.350  0.00  0.00    -0.003 A 
ATOM      4  C5  UNL d   1       1.460  -0.189   0.905  0.00  0.00     0.000 A 
ATOM      5  C6  UNL d   1       1.166  -0.415  -0.440  0.00  0.00     0.000 A 
ATOM      6  C7  UNL d   1       1.128   0.648  -1.359  0.00  0.00    -0.073 A 
ATOM      7  C8  UNL d   1       0.800   0.348  -2.796  0.00  0.00     0.078 C 
ENDROOT
BRANCH   1   8
ATOM      8  C1  UNL d   1       1.294   3.161  -1.819  0.00  0.00     0.053 C 
ATOM      9  C   UNL d   1       1.966   4.389  -1.224  0.00  0.00     0.018 C 
ENDBRANCH   1   8
TORSDOF 1
ENDMDL
