MODEL 1
REMARK minimizedAffinity 4.54523993
REMARK minimizedRMSD -1
REMARK  1 active torsions:
REMARK  status: ('A' for Active; 'I' for Inactive)
REMARK    1  A    between atoms: C1_2  and  C2_3 
ROOT
ATOM      1  C2  UNL d   1       1.352   0.681  -1.652  0.00  0.00    -0.076 A 
ATOM      2  C3  UNL d   1       0.919  -0.385  -0.844  0.00  0.00     0.004 A 
ATOM      3  C4  UNL d   1       0.805  -0.237   0.537  0.00  0.00    -0.003 A 
ATOM      4  C5  UNL d   1       1.120   0.979   1.133  0.00  0.00     0.000 A 
ATOM      5  C6  UNL d   1       1.534   2.053   0.344  0.00  0.00     0.000 A 
ATOM      6  C7  UNL d   1       1.639   1.925  -1.051  0.00  0.00    -0.073 A 
ATOM      7  C8  UNL d   1       2.096   3.114  -1.852  0.00  0.00     0.078 C 
ENDROOT
BRANCH   1   8
ATOM      8  C1  UNL d   1       1.483   0.454  -3.141  0.00  0.00     0.053 C 
ATOM      9  C   UNL d   1       1.641  -1.017  -3.495  0.00  0.00     0.018 C 
ENDBRANCH   1   8
TORSDOF 1
ENDMDL
