MODEL 1
REMARK minimizedAffinity 4.29081106
REMARK minimizedRMSD -1
REMARK  1 active torsions:
REMARK  status: ('A' for Active; 'I' for Inactive)
REMARK    1  A    between atoms: C1_2  and  C2_3 
ROOT
ATOM      1  C2  UNL d   1       0.863   0.897  -0.173  0.00  0.00    -0.076 A 
ATOM      2  C3  UNL d   1       0.372  -0.419  -0.213  0.00  0.00     0.004 A 
ATOM      3  C4  UNL d   1       0.380  -1.153  -1.398  0.00  0.00    -0.003 A 
ATOM      4  C5  UNL d   1       0.880  -0.582  -2.563  0.00  0.00     0.000 A 
ATOM      5  C6  UNL d   1       1.388   0.717  -2.538  0.00  0.00     0.000 A 
ATOM      6  C7  UNL d   1       1.402   1.464  -1.348  0.00  0.00    -0.073 A 
ATOM      7  C8  UNL d   1       1.955   2.862  -1.380  0.00  0.00     0.078 C 
ENDROOT
BRANCH   1   8
ATOM      8  C1  UNL d   1       0.804   1.654   1.135  0.00  0.00     0.053 C 
ATOM      9  C   UNL d   1       1.408   0.870   2.289  0.00  0.00     0.018 C 
ENDBRANCH   1   8
TORSDOF 1
ENDMDL
