MODEL 1
REMARK minimizedAffinity 2.47243118
REMARK minimizedRMSD -1
REMARK  1 active torsions:
REMARK  status: ('A' for Active; 'I' for Inactive)
REMARK    1  A    between atoms: C1_2  and  C2_3 
ROOT
ATOM      1  C2  UNL d   1       2.345   1.491   1.321  0.00  0.00    -0.076 A 
ATOM      2  C3  UNL d   1       0.942   1.539   1.245  0.00  0.00     0.004 A 
ATOM      3  C4  UNL d   1       0.259   0.911   0.205  0.00  0.00    -0.003 A 
ATOM      4  C5  UNL d   1       0.967   0.224  -0.775  0.00  0.00     0.000 A 
ATOM      5  C6  UNL d   1       2.357   0.151  -0.704  0.00  0.00     0.000 A 
ATOM      6  C7  UNL d   1       3.061   0.765   0.346  0.00  0.00    -0.073 A 
ATOM      7  C8  UNL d   1       4.561   0.659   0.369  0.00  0.00     0.078 C 
ENDROOT
BRANCH   1   8
ATOM      8  C1  UNL d   1       3.034   2.214   2.457  0.00  0.00     0.053 C 
ATOM      9  C   UNL d   1       2.772   3.712   2.438  0.00  0.00     0.018 C 
ENDBRANCH   1   8
TORSDOF 1
ENDMDL
