MODEL 1
REMARK minimizedAffinity 7.04412079
REMARK minimizedRMSD -1
REMARK  1 active torsions:
REMARK  status: ('A' for Active; 'I' for Inactive)
REMARK    1  A    between atoms: C1_2  and  C2_3 
ROOT
ATOM      1  C2  UNL d   1       1.414   1.077   0.198  0.00  0.00    -0.076 A 
ATOM      2  C3  UNL d   1       1.267  -0.310   0.372  0.00  0.00     0.004 A 
ATOM      3  C4  UNL d   1       0.851  -1.125  -0.679  0.00  0.00    -0.003 A 
ATOM      4  C5  UNL d   1       0.577  -0.566  -1.923  0.00  0.00     0.000 A 
ATOM      5  C6  UNL d   1       0.734   0.806  -2.118  0.00  0.00     0.000 A 
ATOM      6  C7  UNL d   1       1.168   1.639  -1.073  0.00  0.00    -0.073 A 
ATOM      7  C8  UNL d   1       1.315   3.112  -1.339  0.00  0.00     0.078 C 
ENDROOT
BRANCH   1   8
ATOM      8  C1  UNL d   1       1.842   1.915   1.382  0.00  0.00     0.053 C 
ATOM      9  C   UNL d   1       1.904   1.111   2.672  0.00  0.00     0.018 C 
ENDBRANCH   1   8
TORSDOF 1
ENDMDL
