MODEL 1
REMARK minimizedAffinity 8.86654568
REMARK minimizedRMSD -1
REMARK  1 active torsions:
REMARK  status: ('A' for Active; 'I' for Inactive)
REMARK    1  A    between atoms: C1_2  and  C2_3 
ROOT
ATOM      1  C2  UNL d   1      -3.037   2.164   3.143  0.00  0.00    -0.076 A 
ATOM      2  C3  UNL d   1      -2.284   3.278   2.733  0.00  0.00     0.004 A 
ATOM      3  C4  UNL d   1      -2.283   3.693   1.403  0.00  0.00    -0.003 A 
ATOM      4  C5  UNL d   1      -3.035   3.000   0.460  0.00  0.00     0.000 A 
ATOM      5  C6  UNL d   1      -3.802   1.904   0.852  0.00  0.00     0.000 A 
ATOM      6  C7  UNL d   1      -3.827   1.482   2.193  0.00  0.00    -0.073 A 
ATOM      7  C8  UNL d   1      -4.667   0.290   2.559  0.00  0.00     0.078 C 
ENDROOT
BRANCH   1   8
ATOM      8  C1  UNL d   1      -2.979   1.744   4.595  0.00  0.00     0.053 C 
ATOM      9  C   UNL d   1      -2.192   0.459   4.798  0.00  0.00     0.018 C 
ENDBRANCH   1   8
TORSDOF 1
ENDMDL
