MODEL 1
REMARK minimizedAffinity 7.14069033
REMARK minimizedRMSD -1
REMARK  1 active torsions:
REMARK  status: ('A' for Active; 'I' for Inactive)
REMARK    1  A    between atoms: C1_2  and  C2_3 
ROOT
ATOM      1  C2  UNL d   1       1.128   1.014   0.201  0.00  0.00    -0.076 A 
ATOM      2  C3  UNL d   1       1.175   2.151  -0.624  0.00  0.00     0.004 A 
ATOM      3  C4  UNL d   1       1.141   2.031  -2.012  0.00  0.00    -0.003 A 
ATOM      4  C5  UNL d   1       1.059   0.773  -2.598  0.00  0.00     0.000 A 
ATOM      5  C6  UNL d   1       0.994  -0.365  -1.794  0.00  0.00     0.000 A 
ATOM      6  C7  UNL d   1       1.011  -0.261  -0.392  0.00  0.00    -0.073 A 
ATOM      7  C8  UNL d   1       0.944  -1.521   0.426  0.00  0.00     0.078 C 
ENDROOT
BRANCH   1   8
ATOM      8  C1  UNL d   1       1.196   1.204   1.700  0.00  0.00     0.053 C 
ATOM      9  C   UNL d   1       2.207   2.265   2.108  0.00  0.00     0.018 C 
ENDBRANCH   1   8
TORSDOF 1
ENDMDL
