MODEL 1
REMARK minimizedAffinity 8.65387154
REMARK minimizedRMSD -1
REMARK  1 active torsions:
REMARK  status: ('A' for Active; 'I' for Inactive)
REMARK    1  A    between atoms: C1_2  and  C2_3 
ROOT
ATOM      1  C2  UNL d   1       0.767   1.516  -1.360  0.00  0.00    -0.076 A 
ATOM      2  C3  UNL d   1       0.685   2.070  -0.071  0.00  0.00     0.004 A 
ATOM      3  C4  UNL d   1       0.997   1.312   1.057  0.00  0.00    -0.003 A 
ATOM      4  C5  UNL d   1       1.396  -0.012   0.913  0.00  0.00     0.000 A 
ATOM      5  C6  UNL d   1       1.499  -0.572  -0.360  0.00  0.00     0.000 A 
ATOM      6  C7  UNL d   1       1.205   0.183  -1.508  0.00  0.00    -0.073 A 
ATOM      7  C8  UNL d   1       1.328  -0.474  -2.855  0.00  0.00     0.078 C 
ENDROOT
BRANCH   1   8
ATOM      8  C1  UNL d   1       0.390   2.379  -2.544  0.00  0.00     0.053 C 
ATOM      9  C   UNL d   1      -1.113   2.572  -2.669  0.00  0.00     0.018 C 
ENDBRANCH   1   8
TORSDOF 1
ENDMDL
