MODEL 1
REMARK minimizedAffinity -2.17081451
REMARK minimizedRMSD -1
REMARK  1 active torsions:
REMARK  status: ('A' for Active; 'I' for Inactive)
REMARK    1  A    between atoms: C1_2  and  C2_3 
ROOT
ATOM      1  C2  UNL d   1       2.830   0.355   0.151  0.00  0.00    -0.076 A 
ATOM      2  C3  UNL d   1       2.078  -0.056  -0.963  0.00  0.00     0.004 A 
ATOM      3  C4  UNL d   1       0.836   0.513  -1.239  0.00  0.00    -0.003 A 
ATOM      4  C5  UNL d   1       0.326   1.503  -0.406  0.00  0.00     0.000 A 
ATOM      5  C6  UNL d   1       1.067   1.935   0.694  0.00  0.00     0.000 A 
ATOM      6  C7  UNL d   1       2.328   1.383   0.977  0.00  0.00    -0.073 A 
ATOM      7  C8  UNL d   1       3.081   1.882   2.180  0.00  0.00     0.078 C 
ENDROOT
BRANCH   1   8
ATOM      8  C1  UNL d   1       4.158  -0.318   0.415  0.00  0.00     0.053 C 
ATOM      9  C   UNL d   1       4.054  -1.835   0.413  0.00  0.00     0.018 C 
ENDBRANCH   1   8
TORSDOF 1
ENDMDL
