MODEL 1
REMARK minimizedAffinity 3.75198102
REMARK minimizedRMSD -1
REMARK  1 active torsions:
REMARK  status: ('A' for Active; 'I' for Inactive)
REMARK    1  A    between atoms: C1_2  and  C2_3 
ROOT
ATOM      1  C2  UNL d   1       0.324  -1.135  -0.871  0.00  0.00    -0.076 A 
ATOM      2  C3  UNL d   1      -0.101   0.186  -1.098  0.00  0.00     0.004 A 
ATOM      3  C4  UNL d   1       0.301   1.223  -0.259  0.00  0.00    -0.003 A 
ATOM      4  C5  UNL d   1       1.136   0.957   0.821  0.00  0.00     0.000 A 
ATOM      5  C6  UNL d   1       1.581  -0.344   1.051  0.00  0.00     0.000 A 
ATOM      6  C7  UNL d   1       1.198  -1.399   0.205  0.00  0.00    -0.073 A 
ATOM      7  C8  UNL d   1       1.703  -2.784   0.504  0.00  0.00     0.078 C 
ENDROOT
BRANCH   1   8
ATOM      8  C1  UNL d   1      -0.167  -2.224  -1.798  0.00  0.00     0.053 C 
ATOM      9  C   UNL d   1      -0.876  -3.346  -1.056  0.00  0.00     0.018 C 
ENDBRANCH   1   8
TORSDOF 1
ENDMDL
