MODEL 1
REMARK minimizedAffinity -3.79815745
REMARK minimizedRMSD -1
REMARK  1 active torsions:
REMARK  status: ('A' for Active; 'I' for Inactive)
REMARK    1  A    between atoms: C1_2  and  C2_3 
ROOT
ATOM      1  C2  UNL d   1       1.997   0.146   1.057  0.00  0.00    -0.081 A 
ATOM      2  C3  UNL d   1       1.371   1.292   0.552  0.00  0.00     0.006 A 
ATOM      3  C4  UNL d   1       0.140   1.197  -0.102  0.00  0.00     0.002 A 
ATOM      4  C5  UNL d   1      -0.487  -0.044  -0.256  0.00  0.00    -0.080 A 
ATOM      5  C6  UNL d   1      -1.823  -0.156  -0.930  0.00  0.00     0.076 C 
ATOM      6  C7  UNL d   1       0.147  -1.191   0.232  0.00  0.00     0.002 A 
ATOM      7  C8  UNL d   1       1.377  -1.097   0.886  0.00  0.00     0.006 A 
ENDROOT
BRANCH   1   8
ATOM      8  C1  UNL d   1       3.293   0.253   1.819  0.00  0.00     0.054 C 
ATOM      9  C   UNL d   1       3.174   1.235   2.976  0.00  0.00     0.018 C 
ENDBRANCH   1   8
TORSDOF 1
ENDMDL
