MODEL 1
REMARK minimizedAffinity -5.06574202
REMARK minimizedRMSD -1
REMARK  1 active torsions:
REMARK  status: ('A' for Active; 'I' for Inactive)
REMARK    1  A    between atoms: C1_2  and  C2_3 
ROOT
ATOM      1  C2  UNL d   1       0.362  -0.094   0.628  0.00  0.00    -0.081 A 
ATOM      2  C3  UNL d   1       1.498   0.710   0.475  0.00  0.00     0.006 A 
ATOM      3  C4  UNL d   1       2.764   0.218   0.806  0.00  0.00     0.002 A 
ATOM      4  C5  UNL d   1       2.914  -1.087   1.287  0.00  0.00    -0.080 A 
ATOM      5  C6  UNL d   1       4.270  -1.637   1.617  0.00  0.00     0.076 C 
ATOM      6  C7  UNL d   1       1.777  -1.884   1.456  0.00  0.00     0.002 A 
ATOM      7  C8  UNL d   1       0.512  -1.393   1.126  0.00  0.00     0.006 A 
ENDROOT
BRANCH   1   8
ATOM      8  C1  UNL d   1      -0.996   0.411   0.212  0.00  0.00     0.054 C 
ATOM      9  C   UNL d   1      -1.374  -0.097  -1.172  0.00  0.00     0.018 C 
ENDBRANCH   1   8
TORSDOF 1
ENDMDL
