MODEL 1
REMARK minimizedAffinity 2.35610104
REMARK minimizedRMSD -1
REMARK  1 active torsions:
REMARK  status: ('A' for Active; 'I' for Inactive)
REMARK    1  A    between atoms: C1_2  and  C2_3 
ROOT
ATOM      1  C2  UNL d   1       0.999  -1.122   0.762  0.00  0.00    -0.081 A 
ATOM      2  C3  UNL d   1       2.084  -0.481   1.373  0.00  0.00     0.006 A 
ATOM      3  C4  UNL d   1       2.239   0.903   1.268  0.00  0.00     0.002 A 
ATOM      4  C5  UNL d   1       1.309   1.670   0.559  0.00  0.00    -0.080 A 
ATOM      5  C6  UNL d   1       1.447   3.161   0.464  0.00  0.00     0.076 C 
ATOM      6  C7  UNL d   1       0.234   1.028  -0.066  0.00  0.00     0.002 A 
ATOM      7  C8  UNL d   1       0.079  -0.356   0.038  0.00  0.00     0.006 A 
ENDROOT
BRANCH   1   8
ATOM      8  C1  UNL d   1       0.793  -2.606   0.928  0.00  0.00     0.054 C 
ATOM      9  C   UNL d   1      -0.595  -2.915   1.469  0.00  0.00     0.018 C 
ENDBRANCH   1   8
TORSDOF 1
ENDMDL
