MODEL 1
REMARK minimizedAffinity -4.81447411
REMARK minimizedRMSD -1
REMARK  1 active torsions:
REMARK  status: ('A' for Active; 'I' for Inactive)
REMARK    1  A    between atoms: C1_2  and  C2_3 
ROOT
ATOM      1  C2  UNL d   1      -0.707   0.512   0.102  0.00  0.00    -0.081 A 
ATOM      2  C3  UNL d   1       0.318   1.443  -0.105  0.00  0.00     0.006 A 
ATOM      3  C4  UNL d   1       1.642   1.119   0.203  0.00  0.00     0.002 A 
ATOM      4  C5  UNL d   1       1.963  -0.142   0.716  0.00  0.00    -0.080 A 
ATOM      5  C6  UNL d   1       3.383  -0.514   1.023  0.00  0.00     0.076 C 
ATOM      6  C7  UNL d   1       0.936  -1.066   0.938  0.00  0.00     0.002 A 
ATOM      7  C8  UNL d   1      -0.387  -0.743   0.631  0.00  0.00     0.006 A 
ENDROOT
BRANCH   1   8
ATOM      8  C1  UNL d   1      -2.126   0.835  -0.291  0.00  0.00     0.054 C 
ATOM      9  C   UNL d   1      -2.446   0.319  -1.686  0.00  0.00     0.018 C 
ENDBRANCH   1   8
TORSDOF 1
ENDMDL
