MODEL 1
REMARK minimizedAffinity -3.93125749
REMARK minimizedRMSD -1
REMARK  1 active torsions:
REMARK  status: ('A' for Active; 'I' for Inactive)
REMARK    1  A    between atoms: C1_2  and  C2_3 
ROOT
ATOM      1  C2  UNL d   1      -0.608   0.137  -0.223  0.00  0.00    -0.081 A 
ATOM      2  C3  UNL d   1       0.259   1.212   0.003  0.00  0.00     0.006 A 
ATOM      3  C4  UNL d   1       1.572   0.987   0.425  0.00  0.00     0.002 A 
ATOM      4  C5  UNL d   1       2.041  -0.317   0.619  0.00  0.00    -0.080 A 
ATOM      5  C6  UNL d   1       3.457  -0.574   1.042  0.00  0.00     0.076 C 
ATOM      6  C7  UNL d   1       1.169  -1.391   0.409  0.00  0.00     0.002 A 
ATOM      7  C8  UNL d   1      -0.144  -1.166  -0.012  0.00  0.00     0.006 A 
ENDROOT
BRANCH   1   8
ATOM      8  C1  UNL d   1      -2.004   0.374  -0.740  0.00  0.00     0.054 C 
ATOM      9  C   UNL d   1      -2.142  -0.074  -2.188  0.00  0.00     0.018 C 
ENDBRANCH   1   8
TORSDOF 1
ENDMDL
