MODEL 1
REMARK minimizedAffinity -1.68709648
REMARK minimizedRMSD -1
REMARK  1 active torsions:
REMARK  status: ('A' for Active; 'I' for Inactive)
REMARK    1  A    between atoms: C1_2  and  C2_3 
ROOT
ATOM      1  C2  UNL d   1      -0.809   0.816  -0.513  0.00  0.00    -0.081 A 
ATOM      2  C3  UNL d   1       0.191   1.794  -0.446  0.00  0.00     0.006 A 
ATOM      3  C4  UNL d   1       1.433   1.499   0.120  0.00  0.00     0.002 A 
ATOM      4  C5  UNL d   1       1.700   0.220   0.620  0.00  0.00    -0.080 A 
ATOM      5  C6  UNL d   1       3.040  -0.119   1.201  0.00  0.00     0.076 C 
ATOM      6  C7  UNL d   1       0.695  -0.753   0.569  0.00  0.00     0.002 A 
ATOM      7  C8  UNL d   1      -0.548  -0.458   0.004  0.00  0.00     0.006 A 
ENDROOT
BRANCH   1   8
ATOM      8  C1  UNL d   1      -2.128   1.113  -1.180  0.00  0.00     0.054 C 
ATOM      9  C   UNL d   1      -2.136   0.637  -2.626  0.00  0.00     0.018 C 
ENDBRANCH   1   8
TORSDOF 1
ENDMDL
