MODEL 1
REMARK minimizedAffinity -5.91177607
REMARK minimizedRMSD -1
REMARK  1 active torsions:
REMARK  status: ('A' for Active; 'I' for Inactive)
REMARK    1  A    between atoms: C1_2  and  C2_3 
ROOT
ATOM      1  C2  UNL d   1       1.460  -0.365  -0.508  0.00  0.00    -0.081 A 
ATOM      2  C3  UNL d   1       1.215  -0.006  -1.839  0.00  0.00     0.006 A 
ATOM      3  C4  UNL d   1      -0.091   0.207  -2.286  0.00  0.00     0.002 A 
ATOM      4  C5  UNL d   1      -1.173   0.073  -1.409  0.00  0.00    -0.080 A 
ATOM      5  C6  UNL d   1      -2.577   0.328  -1.868  0.00  0.00     0.076 C 
ATOM      6  C7  UNL d   1      -0.929  -0.303  -0.083  0.00  0.00     0.002 A 
ATOM      7  C8  UNL d   1       0.376  -0.517   0.364  0.00  0.00     0.006 A 
ENDROOT
BRANCH   1   8
ATOM      8  C1  UNL d   1       2.872  -0.532  -0.007  0.00  0.00     0.054 C 
ATOM      9  C   UNL d   1       2.985  -0.156   1.464  0.00  0.00     0.018 C 
ENDBRANCH   1   8
TORSDOF 1
ENDMDL
