MODEL 1
REMARK minimizedAffinity -1.54079092
REMARK minimizedRMSD -1
REMARK  1 active torsions:
REMARK  status: ('A' for Active; 'I' for Inactive)
REMARK    1  A    between atoms: C1_2  and  C2_3 
ROOT
ATOM      1  C2  UNL d   1       1.917  -0.116   0.657  0.00  0.00    -0.081 A 
ATOM      2  C3  UNL d   1       1.445   0.993  -0.055  0.00  0.00     0.006 A 
ATOM      3  C4  UNL d   1       0.249   0.917  -0.774  0.00  0.00     0.002 A 
ATOM      4  C5  UNL d   1      -0.497  -0.266  -0.786  0.00  0.00    -0.080 A 
ATOM      5  C6  UNL d   1      -1.797  -0.352  -1.528  0.00  0.00     0.076 C 
ATOM      6  C7  UNL d   1      -0.017  -1.380  -0.089  0.00  0.00     0.002 A 
ATOM      7  C8  UNL d   1       1.179  -1.304   0.629  0.00  0.00     0.006 A 
ENDROOT
BRANCH   1   8
ATOM      8  C1  UNL d   1       3.172  -0.017   1.485  0.00  0.00     0.054 C 
ATOM      9  C   UNL d   1       3.068   1.097   2.517  0.00  0.00     0.018 C 
ENDBRANCH   1   8
TORSDOF 1
ENDMDL
