MODEL 1
REMARK minimizedAffinity -3.55270481
REMARK minimizedRMSD -1
REMARK  0 active torsions:
REMARK  status: ('A' for Active; 'I' for Inactive)
ROOT
ATOM      1  C   UNL d   1       1.196   1.816  -0.160  0.00  0.00     0.023 A 
ATOM      2  C1  UNL d   1       2.275   1.015  -0.534  0.00  0.00     0.003 A 
ATOM      3  C2  UNL d   1       2.192  -0.374  -0.409  0.00  0.00     0.048 A 
ATOM      4  C3  UNL d   1       1.026  -0.954   0.089  0.00  0.00     0.023 A 
ATOM      5  C4  UNL d   1      -0.057  -0.157   0.464  0.00  0.00     0.048 A 
ATOM      6  C5  UNL d   1       0.032   1.231   0.338  0.00  0.00     0.003 A 
ATOM      7  I   UNL d   1       0.899  -3.021   0.275  0.00  0.00    -0.146 I 
ENDROOT
TORSDOF 0
ENDMDL
