MODEL 1
REMARK minimizedAffinity -4.23835516
REMARK minimizedRMSD -1
REMARK  0 active torsions:
REMARK  status: ('A' for Active; 'I' for Inactive)
ROOT
ATOM      1  C   UNL d   1       1.440  -1.750   0.711  0.00  0.00     0.023 A 
ATOM      2  C1  UNL d   1       1.379  -1.752  -0.683  0.00  0.00     0.003 A 
ATOM      3  C2  UNL d   1       0.596  -0.807  -1.350  0.00  0.00     0.048 A 
ATOM      4  C3  UNL d   1      -0.123   0.137  -0.617  0.00  0.00     0.023 A 
ATOM      5  C4  UNL d   1      -0.064   0.143   0.778  0.00  0.00     0.048 A 
ATOM      6  C5  UNL d   1       0.719  -0.804   1.440  0.00  0.00     0.003 A 
ATOM      7  I   UNL d   1      -1.288   1.544  -1.608  0.00  0.00    -0.146 I 
ENDROOT
TORSDOF 0
ENDMDL
