MODEL 1
REMARK minimizedAffinity -2.94051528
REMARK minimizedRMSD -1
REMARK  0 active torsions:
REMARK  status: ('A' for Active; 'I' for Inactive)
ROOT
ATOM      1  C   UNL d   1       1.599  -2.207   0.799  0.00  0.00     0.023 A 
ATOM      2  C1  UNL d   1       2.206  -1.313  -0.082  0.00  0.00     0.003 A 
ATOM      3  C2  UNL d   1       1.520  -0.171  -0.502  0.00  0.00     0.048 A 
ATOM      4  C3  UNL d   1       0.228   0.070  -0.036  0.00  0.00     0.023 A 
ATOM      5  C4  UNL d   1      -0.382  -0.821   0.847  0.00  0.00     0.048 A 
ATOM      6  C5  UNL d   1       0.306  -1.962   1.263  0.00  0.00     0.003 A 
ATOM      7  I   UNL d   1      -0.794   1.769  -0.660  0.00  0.00    -0.146 I 
ENDROOT
TORSDOF 0
ENDMDL
