MODEL 1
REMARK minimizedAffinity -1.17528868
REMARK minimizedRMSD -1
REMARK  0 active torsions:
REMARK  status: ('A' for Active; 'I' for Inactive)
ROOT
ATOM      1  C   UNL d   1      -1.123   1.386   0.450  0.00  0.00     0.023 A 
ATOM      2  C1  UNL d   1       0.083   1.316  -0.247  0.00  0.00     0.003 A 
ATOM      3  C2  UNL d   1       0.946   0.237  -0.047  0.00  0.00     0.048 A 
ATOM      4  C3  UNL d   1       0.596  -0.770   0.853  0.00  0.00     0.023 A 
ATOM      5  C4  UNL d   1      -0.610  -0.705   1.552  0.00  0.00     0.048 A 
ATOM      6  C5  UNL d   1      -1.469   0.377   1.349  0.00  0.00     0.003 A 
ATOM      7  I   UNL d   1       1.879  -2.377   1.153  0.00  0.00    -0.146 I 
ENDROOT
TORSDOF 0
ENDMDL
