MODEL 1
REMARK minimizedAffinity -3.00464892
REMARK minimizedRMSD -1
REMARK  0 active torsions:
REMARK  status: ('A' for Active; 'I' for Inactive)
ROOT
ATOM      1  C   UNL d   1       1.090  -0.537   0.502  0.00  0.00     0.023 A 
ATOM      2  C1  UNL d   1       1.325   0.687  -0.125  0.00  0.00     0.003 A 
ATOM      3  C2  UNL d   1       0.303   1.314  -0.840  0.00  0.00     0.048 A 
ATOM      4  C3  UNL d   1      -0.952   0.712  -0.924  0.00  0.00     0.023 A 
ATOM      5  C4  UNL d   1      -1.192  -0.513  -0.297  0.00  0.00     0.048 A 
ATOM      6  C5  UNL d   1      -0.166  -1.136   0.416  0.00  0.00     0.003 A 
ATOM      7  I   UNL d   1      -2.476   1.643  -1.988  0.00  0.00    -0.146 I 
ENDROOT
TORSDOF 0
ENDMDL
