MODEL 1
REMARK minimizedAffinity -4.68026876
REMARK minimizedRMSD -1
REMARK  0 active torsions:
REMARK  status: ('A' for Active; 'I' for Inactive)
ROOT
ATOM      1  C   UNL d   1       1.526  -2.179   0.414  0.00  0.00     0.023 A 
ATOM      2  C1  UNL d   1       2.139  -1.069  -0.168  0.00  0.00     0.003 A 
ATOM      3  C2  UNL d   1       1.362  -0.018  -0.658  0.00  0.00     0.048 A 
ATOM      4  C3  UNL d   1      -0.028  -0.082  -0.562  0.00  0.00     0.023 A 
ATOM      5  C4  UNL d   1      -0.646  -1.191   0.020  0.00  0.00     0.048 A 
ATOM      6  C5  UNL d   1       0.136  -2.240   0.508  0.00  0.00     0.003 A 
ATOM      7  I   UNL d   1      -1.187   1.481  -1.291  0.00  0.00    -0.146 I 
ENDROOT
TORSDOF 0
ENDMDL
