MODEL 1
REMARK minimizedAffinity -1.76886177
REMARK minimizedRMSD -1
REMARK  0 active torsions:
REMARK  status: ('A' for Active; 'I' for Inactive)
ROOT
ATOM      1  C   UNL d   1       1.872  -2.380   0.517  0.00  0.00     0.023 A 
ATOM      2  C1  UNL d   1       0.632  -2.591  -0.087  0.00  0.00     0.003 A 
ATOM      3  C2  UNL d   1      -0.116  -1.506  -0.546  0.00  0.00     0.048 A 
ATOM      4  C3  UNL d   1       0.381  -0.211  -0.398  0.00  0.00     0.023 A 
ATOM      5  C4  UNL d   1       1.621   0.005   0.205  0.00  0.00     0.048 A 
ATOM      6  C5  UNL d   1       2.365  -1.084   0.663  0.00  0.00     0.003 A 
ATOM      7  I   UNL d   1      -0.732   1.406  -1.081  0.00  0.00    -0.146 I 
ENDROOT
TORSDOF 0
ENDMDL
