MODEL 1
REMARK minimizedAffinity -1.87407684
REMARK minimizedRMSD -1
REMARK  0 active torsions:
REMARK  status: ('A' for Active; 'I' for Inactive)
ROOT
ATOM      1  C   UNL d   1      -1.223  -2.186   1.696  0.00  0.00     0.023 A 
ATOM      2  C1  UNL d   1      -1.468  -0.813   1.671  0.00  0.00     0.003 A 
ATOM      3  C2  UNL d   1      -0.557   0.050   1.060  0.00  0.00     0.048 A 
ATOM      4  C3  UNL d   1       0.598  -0.466   0.474  0.00  0.00     0.023 A 
ATOM      5  C4  UNL d   1       0.848  -1.840   0.495  0.00  0.00     0.048 A 
ATOM      6  C5  UNL d   1      -0.066  -2.699   1.108  0.00  0.00     0.003 A 
ATOM      7  I   UNL d   1       1.957   0.816  -0.437  0.00  0.00    -0.146 I 
ENDROOT
TORSDOF 0
ENDMDL
