MODEL 1
REMARK minimizedAffinity -3.95863819
REMARK minimizedRMSD -1
REMARK  0 active torsions:
REMARK  status: ('A' for Active; 'I' for Inactive)
ROOT
ATOM      1  C   UNL d   1      -0.144   1.432  -0.777  0.00  0.00     0.023 A 
ATOM      2  C1  UNL d   1      -0.966   0.599  -0.018  0.00  0.00     0.003 A 
ATOM      3  C2  UNL d   1      -0.470  -0.607   0.482  0.00  0.00     0.048 A 
ATOM      4  C3  UNL d   1       0.850  -0.974   0.219  0.00  0.00     0.023 A 
ATOM      5  C4  UNL d   1       1.676  -0.143  -0.540  0.00  0.00     0.048 A 
ATOM      6  C5  UNL d   1       1.176   1.061  -1.038  0.00  0.00     0.003 A 
ATOM      7  I   UNL d   1       1.590  -2.768   0.961  0.00  0.00    -0.146 I 
ENDROOT
TORSDOF 0
ENDMDL
