MODEL 1
REMARK minimizedAffinity -4.00761509
REMARK minimizedRMSD -1
REMARK  0 active torsions:
REMARK  status: ('A' for Active; 'I' for Inactive)
ROOT
ATOM      1  C   UNL d   1       1.817  -1.838   0.762  0.00  0.00     0.023 A 
ATOM      2  C1  UNL d   1       0.437  -2.026   0.826  0.00  0.00     0.003 A 
ATOM      3  C2  UNL d   1      -0.424  -1.092   0.244  0.00  0.00     0.048 A 
ATOM      4  C3  UNL d   1       0.103   0.026  -0.401  0.00  0.00     0.023 A 
ATOM      5  C4  UNL d   1       1.484   0.217  -0.469  0.00  0.00     0.048 A 
ATOM      6  C5  UNL d   1       2.340  -0.718   0.115  0.00  0.00     0.003 A 
ATOM      7  I   UNL d   1      -1.176   1.416  -1.268  0.00  0.00    -0.146 I 
ENDROOT
TORSDOF 0
ENDMDL
