MODEL 1
REMARK minimizedAffinity -3.71486306
REMARK minimizedRMSD -1
REMARK  0 active torsions:
REMARK  status: ('A' for Active; 'I' for Inactive)
ROOT
ATOM      1  C   UNL d   1       1.151  -2.662   1.292  0.00  0.00     0.023 A 
ATOM      2  C1  UNL d   1      -0.151  -2.271   1.604  0.00  0.00     0.003 A 
ATOM      3  C2  UNL d   1      -0.693  -1.120   1.028  0.00  0.00     0.048 A 
ATOM      4  C3  UNL d   1       0.074  -0.364   0.142  0.00  0.00     0.023 A 
ATOM      5  C4  UNL d   1       1.377  -0.752  -0.174  0.00  0.00     0.048 A 
ATOM      6  C5  UNL d   1       1.914  -1.903   0.405  0.00  0.00     0.003 A 
ATOM      7  I   UNL d   1      -0.730   1.350  -0.716  0.00  0.00    -0.146 I 
ENDROOT
TORSDOF 0
ENDMDL
