MODEL 1
REMARK minimizedAffinity -3.94819641
REMARK minimizedRMSD -1
REMARK  0 active torsions:
REMARK  status: ('A' for Active; 'I' for Inactive)
ROOT
ATOM      1  C   UNL d   1      -1.020   1.316   0.068  0.00  0.00     0.023 A 
ATOM      2  C1  UNL d   1      -1.545   0.290   0.853  0.00  0.00     0.003 A 
ATOM      3  C2  UNL d   1      -0.825  -0.894   1.031  0.00  0.00     0.048 A 
ATOM      4  C3  UNL d   1       0.419  -1.044   0.421  0.00  0.00     0.023 A 
ATOM      5  C4  UNL d   1       0.949  -0.019  -0.366  0.00  0.00     0.048 A 
ATOM      6  C5  UNL d   1       0.226   1.162  -0.541  0.00  0.00     0.003 A 
ATOM      7  I   UNL d   1       1.493  -2.804   0.683  0.00  0.00    -0.146 I 
ENDROOT
TORSDOF 0
ENDMDL
