MODEL 1
REMARK minimizedAffinity -3.42682958
REMARK minimizedRMSD -1
REMARK  0 active torsions:
REMARK  status: ('A' for Active; 'I' for Inactive)
ROOT
ATOM      1  C   UNL d   1       2.023  -1.321   0.933  0.00  0.00     0.023 A 
ATOM      2  C1  UNL d   1       2.300  -0.208   0.139  0.00  0.00     0.003 A 
ATOM      3  C2  UNL d   1       1.264   0.454  -0.523  0.00  0.00     0.048 A 
ATOM      4  C3  UNL d   1      -0.047  -0.002  -0.385  0.00  0.00     0.023 A 
ATOM      5  C4  UNL d   1      -0.329  -1.115   0.409  0.00  0.00     0.048 A 
ATOM      6  C5  UNL d   1       0.711  -1.774   1.068  0.00  0.00     0.003 A 
ATOM      7  I   UNL d   1      -1.591   0.982  -1.369  0.00  0.00    -0.146 I 
ENDROOT
TORSDOF 0
ENDMDL
