MODEL 1
REMARK minimizedAffinity 2.79762888
REMARK minimizedRMSD -1
REMARK  0 active torsions:
REMARK  status: ('A' for Active; 'I' for Inactive)
ROOT
ATOM      1  C   UNL d   1      -6.000  -1.028  -1.190  0.00  0.00     0.172 C 
ATOM      2  N   UNL d   1      -5.111  -0.992  -0.052  0.00  0.00    -0.070 N 
ATOM      3  C1  UNL d   1      -5.158  -0.080   0.968  0.00  0.00    -0.004 A 
ATOM      4  C2  UNL d   1      -4.147  -0.386   1.854  0.00  0.00    -0.047 A 
ATOM      5  C3  UNL d   1      -3.469  -1.520   1.347  0.00  0.00    -0.047 A 
ATOM      6  C4  UNL d   1      -4.087  -1.874   0.167  0.00  0.00    -0.004 A 
ENDROOT
TORSDOF 0
ENDMDL
