MODEL 1
REMARK minimizedAffinity 1.08501744
REMARK minimizedRMSD -1
REMARK  0 active torsions:
REMARK  status: ('A' for Active; 'I' for Inactive)
ROOT
ATOM      1  C   UNL d   1      -5.966  -1.563   0.022  0.00  0.00     0.172 C 
ATOM      2  N   UNL d   1      -4.830  -1.191   0.833  0.00  0.00    -0.070 N 
ATOM      3  C1  UNL d   1      -4.238   0.044   0.860  0.00  0.00    -0.004 A 
ATOM      4  C2  UNL d   1      -3.193  -0.009   1.757  0.00  0.00    -0.047 A 
ATOM      5  C3  UNL d   1      -3.154  -1.321   2.286  0.00  0.00    -0.047 A 
ATOM      6  C4  UNL d   1      -4.179  -2.032   1.696  0.00  0.00    -0.004 A 
ENDROOT
TORSDOF 0
ENDMDL
