MODEL 1
REMARK minimizedAffinity -0.0648129135
REMARK minimizedRMSD -1
REMARK  0 active torsions:
REMARK  status: ('A' for Active; 'I' for Inactive)
ROOT
ATOM      1  C   UNL d   1      -5.910  -1.529  -0.565  0.00  0.00     0.172 C 
ATOM      2  N   UNL d   1      -4.827  -1.289   0.359  0.00  0.00    -0.070 N 
ATOM      3  C1  UNL d   1      -3.896  -2.212   0.755  0.00  0.00    -0.004 A 
ATOM      4  C2  UNL d   1      -3.037  -1.593   1.638  0.00  0.00    -0.047 A 
ATOM      5  C3  UNL d   1      -3.468  -0.253   1.778  0.00  0.00    -0.047 A 
ATOM      6  C4  UNL d   1      -4.577  -0.091   0.976  0.00  0.00    -0.004 A 
ENDROOT
TORSDOF 0
ENDMDL
