MODEL 1
REMARK minimizedAffinity -0.279441863
REMARK minimizedRMSD -1
REMARK  0 active torsions:
REMARK  status: ('A' for Active; 'I' for Inactive)
ROOT
ATOM      1  C   UNL d   1      -4.953  -0.503  -0.441  0.00  0.00     0.172 C 
ATOM      2  N   UNL d   1      -3.804  -0.649   0.420  0.00  0.00    -0.070 N 
ATOM      3  C1  UNL d   1      -3.655  -0.079   1.656  0.00  0.00    -0.004 A 
ATOM      4  C2  UNL d   1      -2.426  -0.458   2.151  0.00  0.00    -0.047 A 
ATOM      5  C3  UNL d   1      -1.814  -1.283   1.178  0.00  0.00    -0.047 A 
ATOM      6  C4  UNL d   1      -2.689  -1.385   0.117  0.00  0.00    -0.004 A 
ENDROOT
TORSDOF 0
ENDMDL
