MODEL 1
REMARK minimizedAffinity 4.11687613
REMARK minimizedRMSD -1
REMARK  0 active torsions:
REMARK  status: ('A' for Active; 'I' for Inactive)
ROOT
ATOM      1  C   UNL d   1      -5.893  -1.111   0.062  0.00  0.00     0.172 C 
ATOM      2  N   UNL d   1      -4.754  -0.919   0.929  0.00  0.00    -0.070 N 
ATOM      3  C1  UNL d   1      -4.268  -1.836   1.823  0.00  0.00    -0.004 A 
ATOM      4  C2  UNL d   1      -3.179  -1.274   2.453  0.00  0.00    -0.047 A 
ATOM      5  C3  UNL d   1      -3.005   0.026   1.920  0.00  0.00    -0.047 A 
ATOM      6  C4  UNL d   1      -3.994   0.219   0.979  0.00  0.00    -0.004 A 
ENDROOT
TORSDOF 0
ENDMDL
