MODEL 1
REMARK minimizedAffinity 0.532930911
REMARK minimizedRMSD -1
REMARK  0 active torsions:
REMARK  status: ('A' for Active; 'I' for Inactive)
ROOT
ATOM      1  C   UNL d   1       1.344  -5.883   5.993  0.00  0.00     0.172 C 
ATOM      2  N   UNL d   1       0.240  -4.952   5.996  0.00  0.00    -0.070 N 
ATOM      3  C1  UNL d   1      -1.087  -5.288   5.997  0.00  0.00    -0.004 A 
ATOM      4  C2  UNL d   1      -1.818  -4.119   6.000  0.00  0.00    -0.047 A 
ATOM      5  C3  UNL d   1      -0.898  -3.044   5.999  0.00  0.00    -0.047 A 
ATOM      6  C4  UNL d   1       0.369  -3.588   5.996  0.00  0.00    -0.004 A 
ENDROOT
TORSDOF 0
ENDMDL
