MODEL 1
REMARK minimizedAffinity 1.45160842
REMARK minimizedRMSD -1
REMARK  0 active torsions:
REMARK  status: ('A' for Active; 'I' for Inactive)
ROOT
ATOM      1  C   UNL d   1       0.081   1.093   0.882  0.00  0.00     0.020 A 
ATOM      2  C1  UNL d   1       1.435   1.027   1.211  0.00  0.00     0.020 A 
ATOM      3  C2  UNL d   1       2.289   0.192   0.488  0.00  0.00     0.034 A 
ATOM      4  C3  UNL d   1       1.791  -0.579  -0.569  0.00  0.00     0.017 A 
ATOM      5  C4  UNL d   1       0.432  -0.512  -0.898  0.00  0.00     0.017 A 
ATOM      6  C5  UNL d   1      -0.418   0.325  -0.170  0.00  0.00     0.034 A 
ATOM      7 Cl   UNL d   1      -0.255  -1.434  -2.188  0.00  0.00    -0.070 Cl
ATOM      8 Cl1  UNL d   1       2.905  -1.589  -1.421  0.00  0.00    -0.070 Cl
ENDROOT
TORSDOF 0
ENDMDL
