MODEL 1
REMARK minimizedAffinity -2.36002541
REMARK minimizedRMSD -1
REMARK  0 active torsions:
REMARK  status: ('A' for Active; 'I' for Inactive)
ROOT
ATOM      1  C   UNL d   1      -0.774   0.835  -0.802  0.00  0.00     0.020 A 
ATOM      2  C1  UNL d   1      -0.571  -0.543  -0.862  0.00  0.00     0.020 A 
ATOM      3  C2  UNL d   1       0.570  -1.106  -0.286  0.00  0.00     0.034 A 
ATOM      4  C3  UNL d   1       1.512  -0.291   0.352  0.00  0.00     0.017 A 
ATOM      5  C4  UNL d   1       1.307   1.092   0.412  0.00  0.00     0.017 A 
ATOM      6  C5  UNL d   1       0.163   1.651  -0.166  0.00  0.00     0.034 A 
ATOM      7 Cl   UNL d   1       2.425   2.162   1.182  0.00  0.00    -0.070 Cl
ATOM      8 Cl1  UNL d   1       2.900  -1.055   1.042  0.00  0.00    -0.070 Cl
ENDROOT
TORSDOF 0
ENDMDL
