MODEL 1
REMARK minimizedAffinity 1.70175612
REMARK minimizedRMSD -1
REMARK  0 active torsions:
REMARK  status: ('A' for Active; 'I' for Inactive)
ROOT
ATOM      1  C   UNL d   1       2.199   0.190   0.883  0.00  0.00     0.020 A 
ATOM      2  C1  UNL d   1       2.652  -0.788  -0.002  0.00  0.00     0.020 A 
ATOM      3  C2  UNL d   1       1.743  -1.469  -0.814  0.00  0.00     0.034 A 
ATOM      4  C3  UNL d   1       0.376  -1.173  -0.743  0.00  0.00     0.017 A 
ATOM      5  C4  UNL d   1      -0.077  -0.191   0.145  0.00  0.00     0.017 A 
ATOM      6  C5  UNL d   1       0.838   0.488   0.956  0.00  0.00     0.034 A 
ATOM      7 Cl   UNL d   1      -1.747   0.230   0.289  0.00  0.00    -0.070 Cl
ATOM      8 Cl1  UNL d   1      -0.691  -2.054  -1.778  0.00  0.00    -0.070 Cl
ENDROOT
TORSDOF 0
ENDMDL
