MODEL 1
REMARK minimizedAffinity 3.92054796
REMARK minimizedRMSD -1
REMARK  0 active torsions:
REMARK  status: ('A' for Active; 'I' for Inactive)
ROOT
ATOM      1  C   UNL d   1       0.241   2.192  -0.318  0.00  0.00     0.020 A 
ATOM      2  C1  UNL d   1       1.596   2.193   0.010  0.00  0.00     0.020 A 
ATOM      3  C2  UNL d   1       2.353   1.030  -0.147  0.00  0.00     0.034 A 
ATOM      4  C3  UNL d   1       1.756  -0.139  -0.632  0.00  0.00     0.017 A 
ATOM      5  C4  UNL d   1       0.395  -0.139  -0.961  0.00  0.00     0.017 A 
ATOM      6  C5  UNL d   1      -0.358   1.028  -0.802  0.00  0.00     0.034 A 
ATOM      7 Cl   UNL d   1      -0.412  -1.543  -1.565  0.00  0.00    -0.070 Cl
ATOM      8 Cl1  UNL d   1       2.752  -1.541  -0.800  0.00  0.00    -0.070 Cl
ENDROOT
TORSDOF 0
ENDMDL
