MODEL 1
REMARK minimizedAffinity -2.5102036
REMARK minimizedRMSD -1
REMARK  0 active torsions:
REMARK  status: ('A' for Active; 'I' for Inactive)
ROOT
ATOM      1  C   UNL d   1      -5.104  -0.756  -0.750  0.00  0.00     0.020 A 
ATOM      2  C1  UNL d   1      -6.000  -0.207   0.167  0.00  0.00     0.020 A 
ATOM      3  C2  UNL d   1      -5.561   0.750   1.085  0.00  0.00     0.034 A 
ATOM      4  C3  UNL d   1      -4.223   1.161   1.087  0.00  0.00     0.017 A 
ATOM      5  C4  UNL d   1      -3.325   0.609   0.167  0.00  0.00     0.017 A 
ATOM      6  C5  UNL d   1      -3.770  -0.348  -0.750  0.00  0.00     0.034 A 
ATOM      7 Cl   UNL d   1      -1.659   1.067   0.109  0.00  0.00    -0.070 Cl
ATOM      8 Cl1  UNL d   1      -3.750   2.348   2.250  0.00  0.00    -0.070 Cl
ENDROOT
TORSDOF 0
ENDMDL
