MODEL 1
REMARK minimizedAffinity -3.20090127
REMARK minimizedRMSD -1
REMARK  0 active torsions:
REMARK  status: ('A' for Active; 'I' for Inactive)
ROOT
ATOM      1  C   UNL d   1      -0.318  -0.901  -1.323  0.00  0.00     0.020 A 
ATOM      2  C1  UNL d   1       0.310  -2.140  -1.204  0.00  0.00     0.020 A 
ATOM      3  C2  UNL d   1       1.446  -2.272  -0.401  0.00  0.00     0.034 A 
ATOM      4  C3  UNL d   1       1.956  -1.164   0.284  0.00  0.00     0.017 A 
ATOM      5  C4  UNL d   1       1.324   0.079   0.164  0.00  0.00     0.017 A 
ATOM      6  C5  UNL d   1       0.188   0.206  -0.641  0.00  0.00     0.034 A 
ATOM      7 Cl   UNL d   1       1.896   1.492   0.979  0.00  0.00    -0.070 Cl
ATOM      8 Cl1  UNL d   1       3.363  -1.400   1.259  0.00  0.00    -0.070 Cl
ENDROOT
TORSDOF 0
ENDMDL
