MODEL 1
REMARK minimizedAffinity -1.2349937
REMARK minimizedRMSD -1
REMARK  0 active torsions:
REMARK  status: ('A' for Active; 'I' for Inactive)
ROOT
ATOM      1  C   UNL d   1       2.365  -1.040   1.221  0.00  0.00     0.020 A 
ATOM      2  C1  UNL d   1       2.673  -1.791   0.088  0.00  0.00     0.020 A 
ATOM      3  C2  UNL d   1       1.736  -1.921  -0.940  0.00  0.00     0.034 A 
ATOM      4  C3  UNL d   1       0.487  -1.299  -0.836  0.00  0.00     0.017 A 
ATOM      5  C4  UNL d   1       0.179  -0.544   0.302  0.00  0.00     0.017 A 
ATOM      6  C5  UNL d   1       1.121  -0.418   1.328  0.00  0.00     0.034 A 
ATOM      7 Cl   UNL d   1      -1.341   0.253   0.501  0.00  0.00    -0.070 Cl
ATOM      8 Cl1  UNL d   1      -0.622  -1.501  -2.145  0.00  0.00    -0.070 Cl
ENDROOT
TORSDOF 0
ENDMDL
