MODEL 1
REMARK minimizedAffinity -1.91921377
REMARK minimizedRMSD -1
REMARK  0 active torsions:
REMARK  status: ('A' for Active; 'I' for Inactive)
ROOT
ATOM      1  C   UNL d   1       2.323  -0.083   1.442  0.00  0.00     0.020 A 
ATOM      2  C1  UNL d   1       1.632  -1.193   0.958  0.00  0.00     0.020 A 
ATOM      3  C2  UNL d   1       0.577  -1.022   0.060  0.00  0.00     0.034 A 
ATOM      4  C3  UNL d   1       0.209   0.262  -0.358  0.00  0.00     0.017 A 
ATOM      5  C4  UNL d   1       0.904   1.376   0.127  0.00  0.00     0.017 A 
ATOM      6  C5  UNL d   1       1.959   1.199   1.027  0.00  0.00     0.034 A 
ATOM      7 Cl   UNL d   1       0.509   2.992  -0.343  0.00  0.00    -0.070 Cl
ATOM      8 Cl1  UNL d   1      -1.105   0.399  -1.472  0.00  0.00    -0.070 Cl
ENDROOT
TORSDOF 0
ENDMDL
