MODEL 1
REMARK minimizedAffinity 4.12810373
REMARK minimizedRMSD -1
REMARK  0 active torsions:
REMARK  status: ('A' for Active; 'I' for Inactive)
ROOT
ATOM      1  C   UNL d   1       0.617   0.600   1.182  0.00  0.00     0.020 A 
ATOM      2  C1  UNL d   1       1.990   0.407   1.327  0.00  0.00     0.020 A 
ATOM      3  C2  UNL d   1       2.679  -0.411   0.429  0.00  0.00     0.034 A 
ATOM      4  C3  UNL d   1       1.994  -1.041  -0.617  0.00  0.00     0.017 A 
ATOM      5  C4  UNL d   1       0.616  -0.847  -0.761  0.00  0.00     0.017 A 
ATOM      6  C5  UNL d   1      -0.069  -0.026   0.141  0.00  0.00     0.034 A 
ATOM      7 Cl   UNL d   1      -0.297  -1.590  -2.027  0.00  0.00    -0.070 Cl
ATOM      8 Cl1  UNL d   1       2.909  -2.039  -1.690  0.00  0.00    -0.070 Cl
ENDROOT
TORSDOF 0
ENDMDL
