MODEL 1
REMARK minimizedAffinity -4.43372774
REMARK minimizedRMSD -1
REMARK  0 active torsions:
REMARK  status: ('A' for Active; 'I' for Inactive)
ROOT
ATOM      1  C   UNL d   1       1.235   2.358   1.521  0.00  0.00     0.023 A 
ATOM      2  C1  UNL d   1       1.813   1.949   0.319  0.00  0.00     0.003 A 
ATOM      3  C2  UNL d   1       1.232   0.917  -0.421  0.00  0.00     0.048 A 
ATOM      4  C3  UNL d   1       0.073   0.299   0.046  0.00  0.00     0.023 A 
ATOM      5  C4  UNL d   1      -0.509   0.705   1.248  0.00  0.00     0.048 A 
ATOM      6  C5  UNL d   1       0.076   1.737   1.985  0.00  0.00     0.003 A 
ATOM      7  I   UNL d   1      -0.793  -1.237  -1.054  0.00  0.00    -0.146 I 
ENDROOT
TORSDOF 0
ENDMDL
