MODEL 1
REMARK minimizedAffinity 1.33793902
REMARK minimizedRMSD -1
REMARK  0 active torsions:
REMARK  status: ('A' for Active; 'I' for Inactive)
ROOT
ATOM      1  C   UNL d   1      -5.996   5.877  -4.385  0.00  0.00     0.023 A 
ATOM      2  C1  UNL d   1      -5.106   5.726  -5.448  0.00  0.00     0.003 A 
ATOM      3  C2  UNL d   1      -3.732   5.659  -5.206  0.00  0.00     0.048 A 
ATOM      4  C3  UNL d   1      -3.256   5.741  -3.899  0.00  0.00     0.023 A 
ATOM      5  C4  UNL d   1      -4.143   5.891  -2.831  0.00  0.00     0.048 A 
ATOM      6  C5  UNL d   1      -5.515   5.959  -3.078  0.00  0.00     0.003 A 
ATOM      7  I   UNL d   1      -1.212   5.641  -3.536  0.00  0.00    -0.146 I 
ENDROOT
TORSDOF 0
ENDMDL
