MODEL 1
REMARK minimizedAffinity -2.61214352
REMARK minimizedRMSD -1
REMARK  0 active torsions:
REMARK  status: ('A' for Active; 'I' for Inactive)
ROOT
ATOM      1  C   UNL d   1      -0.445  -1.233  -0.167  0.00  0.00     0.023 A 
ATOM      2  C1  UNL d   1       0.733  -0.712  -0.703  0.00  0.00     0.003 A 
ATOM      3  C2  UNL d   1       1.302   0.440  -0.156  0.00  0.00     0.048 A 
ATOM      4  C3  UNL d   1       0.688   1.065   0.929  0.00  0.00     0.023 A 
ATOM      5  C4  UNL d   1      -0.490   0.547   1.470  0.00  0.00     0.048 A 
ATOM      6  C5  UNL d   1      -1.055  -0.604   0.918  0.00  0.00     0.003 A 
ATOM      7  I   UNL d   1       1.532   2.779   1.746  0.00  0.00    -0.146 I 
ENDROOT
TORSDOF 0
ENDMDL
