MODEL 1
REMARK minimizedAffinity -3.93412876
REMARK minimizedRMSD -1
REMARK  0 active torsions:
REMARK  status: ('A' for Active; 'I' for Inactive)
ROOT
ATOM      1  C   UNL d   1       2.804   2.223   0.124  0.00  0.00     0.023 A 
ATOM      2  C1  UNL d   1       1.477   2.332   0.539  0.00  0.00     0.003 A 
ATOM      3  C2  UNL d   1       0.583   1.285   0.305  0.00  0.00     0.048 A 
ATOM      4  C3  UNL d   1       1.023   0.132  -0.345  0.00  0.00     0.023 A 
ATOM      5  C4  UNL d   1       2.350   0.019  -0.762  0.00  0.00     0.048 A 
ATOM      6  C5  UNL d   1       3.240   1.069  -0.526  0.00  0.00     0.003 A 
ATOM      7  I   UNL d   1      -0.306  -1.427  -0.695  0.00  0.00    -0.146 I 
ENDROOT
TORSDOF 0
ENDMDL
