MODEL 1
REMARK minimizedAffinity -3.62285161
REMARK minimizedRMSD -1
REMARK  0 active torsions:
REMARK  status: ('A' for Active; 'I' for Inactive)
ROOT
ATOM      1  C   UNL d   1       2.986   2.478   1.311  0.00  0.00     0.023 A 
ATOM      2  C1  UNL d   1       3.061   1.894   0.046  0.00  0.00     0.003 A 
ATOM      3  C2  UNL d   1       2.112   0.946  -0.344  0.00  0.00     0.048 A 
ATOM      4  C3  UNL d   1       1.091   0.587   0.535  0.00  0.00     0.023 A 
ATOM      5  C4  UNL d   1       1.012   1.170   1.801  0.00  0.00     0.048 A 
ATOM      6  C5  UNL d   1       1.962   2.117   2.187  0.00  0.00     0.003 A 
ATOM      7  I   UNL d   1      -0.321  -0.823  -0.043  0.00  0.00    -0.146 I 
ENDROOT
TORSDOF 0
ENDMDL
