MODEL 1
REMARK minimizedAffinity -1.93789947
REMARK minimizedRMSD -1
REMARK  0 active torsions:
REMARK  status: ('A' for Active; 'I' for Inactive)
ROOT
ATOM      1  C   UNL d   1       0.081   2.209   1.403  0.00  0.00     0.023 A 
ATOM      2  C1  UNL d   1      -0.946   1.323   1.730  0.00  0.00     0.003 A 
ATOM      3  C2  UNL d   1      -1.163   0.186   0.949  0.00  0.00     0.048 A 
ATOM      4  C3  UNL d   1      -0.348  -0.060  -0.156  0.00  0.00     0.023 A 
ATOM      5  C4  UNL d   1       0.681   0.823  -0.485  0.00  0.00     0.048 A 
ATOM      6  C5  UNL d   1       0.894   1.959   0.297  0.00  0.00     0.003 A 
ATOM      7  I   UNL d   1      -0.669  -1.753  -1.319  0.00  0.00    -0.146 I 
ENDROOT
TORSDOF 0
ENDMDL
