MODEL 1
REMARK minimizedAffinity -0.675580382
REMARK minimizedRMSD -1
REMARK  0 active torsions:
REMARK  status: ('A' for Active; 'I' for Inactive)
ROOT
ATOM      1  C   UNL d   1      -1.465   0.368   1.566  0.00  0.00     0.023 A 
ATOM      2  C1  UNL d   1      -1.436  -0.714   0.687  0.00  0.00     0.003 A 
ATOM      3  C2  UNL d   1      -0.322  -0.923  -0.129  0.00  0.00     0.048 A 
ATOM      4  C3  UNL d   1       0.760  -0.046  -0.060  0.00  0.00     0.023 A 
ATOM      5  C4  UNL d   1       0.736   1.038   0.819  0.00  0.00     0.048 A 
ATOM      6  C5  UNL d   1      -0.380   1.243   1.632  0.00  0.00     0.003 A 
ATOM      7  I   UNL d   1       2.419  -0.355  -1.273  0.00  0.00    -0.146 I 
ENDROOT
TORSDOF 0
ENDMDL
