MODEL 1
REMARK minimizedAffinity -2.83787966
REMARK minimizedRMSD -1
REMARK  0 active torsions:
REMARK  status: ('A' for Active; 'I' for Inactive)
ROOT
ATOM      1  C   UNL d   1      -2.096  -0.459  -4.232  0.00  0.00     0.023 A 
ATOM      2  C1  UNL d   1      -2.250  -1.762  -4.705  0.00  0.00     0.003 A 
ATOM      3  C2  UNL d   1      -2.907  -2.716  -3.924  0.00  0.00     0.048 A 
ATOM      4  C3  UNL d   1      -3.407  -2.359  -2.672  0.00  0.00     0.023 A 
ATOM      5  C4  UNL d   1      -3.255  -1.056  -2.195  0.00  0.00     0.048 A 
ATOM      6  C5  UNL d   1      -2.597  -0.106  -2.979  0.00  0.00     0.003 A 
ATOM      7  I   UNL d   1      -4.385  -3.777  -1.509  0.00  0.00    -0.146 I 
ENDROOT
TORSDOF 0
ENDMDL
