MODEL 1
REMARK minimizedAffinity -4.59021044
REMARK minimizedRMSD -1
REMARK  0 active torsions:
REMARK  status: ('A' for Active; 'I' for Inactive)
ROOT
ATOM      1  C   UNL d   1       2.050   2.615   1.167  0.00  0.00     0.023 A 
ATOM      2  C1  UNL d   1       2.597   1.731   0.236  0.00  0.00     0.003 A 
ATOM      3  C2  UNL d   1       1.835   0.666  -0.248  0.00  0.00     0.048 A 
ATOM      4  C3  UNL d   1       0.527   0.490   0.201  0.00  0.00     0.023 A 
ATOM      5  C4  UNL d   1      -0.025   1.372   1.132  0.00  0.00     0.048 A 
ATOM      6  C5  UNL d   1       0.741   2.435   1.615  0.00  0.00     0.003 A 
ATOM      7  I   UNL d   1      -0.609  -1.094  -0.518  0.00  0.00    -0.146 I 
ENDROOT
TORSDOF 0
ENDMDL
