MODEL 1
REMARK minimizedAffinity -4.06975174
REMARK minimizedRMSD -1
REMARK  0 active torsions:
REMARK  status: ('A' for Active; 'I' for Inactive)
ROOT
ATOM      1  C   UNL d   1      -0.927  -1.080  -2.548  0.00  0.00     0.023 A 
ATOM      2  C1  UNL d   1      -2.042  -1.265  -3.366  0.00  0.00     0.003 A 
ATOM      3  C2  UNL d   1      -3.150  -1.968  -2.889  0.00  0.00     0.048 A 
ATOM      4  C3  UNL d   1      -3.138  -2.482  -1.592  0.00  0.00     0.023 A 
ATOM      5  C4  UNL d   1      -2.024  -2.299  -0.770  0.00  0.00     0.048 A 
ATOM      6  C5  UNL d   1      -0.918  -1.596  -1.252  0.00  0.00     0.003 A 
ATOM      7  I   UNL d   1      -4.786  -3.529  -0.880  0.00  0.00    -0.146 I 
ENDROOT
TORSDOF 0
ENDMDL
