MODEL 1
REMARK minimizedAffinity -2.18860674
REMARK minimizedRMSD -1
REMARK  0 active torsions:
REMARK  status: ('A' for Active; 'I' for Inactive)
ROOT
ATOM      1  C   UNL d   1       0.621   2.200   1.564  0.00  0.00     0.023 A 
ATOM      2  C1  UNL d   1      -0.519   1.480   1.923  0.00  0.00     0.003 A 
ATOM      3  C2  UNL d   1      -0.997   0.466   1.090  0.00  0.00     0.048 A 
ATOM      4  C3  UNL d   1      -0.330   0.176  -0.099  0.00  0.00     0.023 A 
ATOM      5  C4  UNL d   1       0.812   0.893  -0.462  0.00  0.00     0.048 A 
ATOM      6  C5  UNL d   1       1.286   1.906   0.373  0.00  0.00     0.003 A 
ATOM      7  I   UNL d   1      -1.039  -1.333  -1.340  0.00  0.00    -0.146 I 
ENDROOT
TORSDOF 0
ENDMDL
