MODEL 1
REMARK minimizedAffinity -3.86860251
REMARK minimizedRMSD -1
REMARK  0 active torsions:
REMARK  status: ('A' for Active; 'I' for Inactive)
ROOT
ATOM      1  C   UNL d   1       2.161   2.647   1.123  0.00  0.00     0.023 A 
ATOM      2  C1  UNL d   1       0.771   2.662   1.243  0.00  0.00     0.003 A 
ATOM      3  C2  UNL d   1       0.012   1.619   0.711  0.00  0.00     0.048 A 
ATOM      4  C3  UNL d   1       0.648   0.562   0.061  0.00  0.00     0.023 A 
ATOM      5  C4  UNL d   1       2.038   0.542  -0.061  0.00  0.00     0.048 A 
ATOM      6  C5  UNL d   1       2.794   1.588   0.472  0.00  0.00     0.003 A 
ATOM      7  I   UNL d   1      -0.481  -0.993  -0.732  0.00  0.00    -0.146 I 
ENDROOT
TORSDOF 0
ENDMDL
