MODEL 1
REMARK minimizedAffinity -3.35771346
REMARK minimizedRMSD -1
REMARK  0 active torsions:
REMARK  status: ('A' for Active; 'I' for Inactive)
ROOT
ATOM      1  C   UNL d   1      -0.239   0.545   1.399  0.00  0.00     0.023 A 
ATOM      2  C1  UNL d   1       0.483  -0.438   0.721  0.00  0.00     0.003 A 
ATOM      3  C2  UNL d   1      -0.094  -1.111  -0.358  0.00  0.00     0.048 A 
ATOM      4  C3  UNL d   1      -1.394  -0.796  -0.754  0.00  0.00     0.023 A 
ATOM      5  C4  UNL d   1      -2.120   0.187  -0.080  0.00  0.00     0.048 A 
ATOM      6  C5  UNL d   1      -1.539   0.857   0.999  0.00  0.00     0.003 A 
ATOM      7  I   UNL d   1      -2.255  -1.797  -2.359  0.00  0.00    -0.146 I 
ENDROOT
TORSDOF 0
ENDMDL
