MODEL 1
REMARK minimizedAffinity -1.43532574
REMARK minimizedRMSD -1
REMARK  0 active torsions:
REMARK  status: ('A' for Active; 'I' for Inactive)
ROOT
ATOM      1  C   UNL d   1      -1.177   0.573   1.008  0.00  0.00     0.023 A 
ATOM      2  C1  UNL d   1      -0.513   1.515   1.794  0.00  0.00     0.003 A 
ATOM      3  C2  UNL d   1       0.876   1.634   1.719  0.00  0.00     0.048 A 
ATOM      4  C3  UNL d   1       1.595   0.809   0.855  0.00  0.00     0.023 A 
ATOM      5  C4  UNL d   1       0.935  -0.134   0.065  0.00  0.00     0.048 A 
ATOM      6  C5  UNL d   1      -0.454  -0.250   0.144  0.00  0.00     0.003 A 
ATOM      7  I   UNL d   1       3.663   0.985   0.741  0.00  0.00    -0.146 I 
ENDROOT
TORSDOF 0
ENDMDL
