MODEL 1
REMARK minimizedAffinity -4.31582451
REMARK minimizedRMSD -1
REMARK  0 active torsions:
REMARK  status: ('A' for Active; 'I' for Inactive)
ROOT
ATOM      1  C   UNL d   1       1.591   1.256   1.512  0.00  0.00     0.023 A 
ATOM      2  C1  UNL d   1       2.153   0.485   0.494  0.00  0.00     0.003 A 
ATOM      3  C2  UNL d   1       1.333  -0.280  -0.338  0.00  0.00     0.048 A 
ATOM      4  C3  UNL d   1      -0.048  -0.269  -0.147  0.00  0.00     0.023 A 
ATOM      5  C4  UNL d   1      -0.615   0.501   0.870  0.00  0.00     0.048 A 
ATOM      6  C5  UNL d   1       0.209   1.263   1.700  0.00  0.00     0.003 A 
ATOM      7  I   UNL d   1      -1.270  -1.407  -1.384  0.00  0.00    -0.146 I 
ENDROOT
TORSDOF 0
ENDMDL
