MODEL 1
REMARK minimizedAffinity -4.4248538
REMARK minimizedRMSD -1
REMARK  0 active torsions:
REMARK  status: ('A' for Active; 'I' for Inactive)
ROOT
ATOM      1  C   UNL d   1       0.271  -1.029  -1.130  0.00  0.00     0.023 A 
ATOM      2  C1  UNL d   1      -0.520  -0.669  -0.039  0.00  0.00     0.003 A 
ATOM      3  C2  UNL d   1      -0.246   0.505   0.666  0.00  0.00     0.048 A 
ATOM      4  C3  UNL d   1       0.819   1.315   0.274  0.00  0.00     0.023 A 
ATOM      5  C4  UNL d   1       1.612   0.959  -0.818  0.00  0.00     0.048 A 
ATOM      6  C5  UNL d   1       1.336  -0.216  -1.519  0.00  0.00     0.003 A 
ATOM      7  I   UNL d   1       1.228   3.063   1.321  0.00  0.00    -0.146 I 
ENDROOT
TORSDOF 0
ENDMDL
