MODEL 1
REMARK minimizedAffinity -1.41573215
REMARK minimizedRMSD -1
REMARK  0 active torsions:
REMARK  status: ('A' for Active; 'I' for Inactive)
ROOT
ATOM      1  C   UNL d   1      -3.196  -5.170  -5.993  0.00  0.00     0.172 C 
ATOM      2  N   UNL d   1      -4.109  -4.051  -5.977  0.00  0.00    -0.070 N 
ATOM      3  C1  UNL d   1      -3.751  -2.730  -5.941  0.00  0.00    -0.004 A 
ATOM      4  C2  UNL d   1      -4.907  -1.979  -5.938  0.00  0.00    -0.047 A 
ATOM      5  C3  UNL d   1      -5.997  -2.881  -5.972  0.00  0.00    -0.047 A 
ATOM      6  C4  UNL d   1      -5.474  -4.157  -5.996  0.00  0.00    -0.004 A 
ENDROOT
TORSDOF 0
ENDMDL
