MODEL 1
REMARK minimizedAffinity -2.06908536
REMARK minimizedRMSD -1
REMARK  0 active torsions:
REMARK  status: ('A' for Active; 'I' for Inactive)
ROOT
ATOM      1  C   UNL d   1      -4.496   0.305  -5.823  0.00  0.00     0.172 C 
ATOM      2  N   UNL d   1      -3.856   1.597  -5.893  0.00  0.00    -0.070 N 
ATOM      3  C1  UNL d   1      -4.500   2.805  -5.936  0.00  0.00    -0.004 A 
ATOM      4  C2  UNL d   1      -3.540   3.793  -5.997  0.00  0.00    -0.047 A 
ATOM      5  C3  UNL d   1      -2.276   3.156  -5.993  0.00  0.00    -0.047 A 
ATOM      6  C4  UNL d   1      -2.502   1.797  -5.928  0.00  0.00    -0.004 A 
ENDROOT
TORSDOF 0
ENDMDL
