MODEL 1
REMARK minimizedAffinity 0.0152487392
REMARK minimizedRMSD -1
REMARK  0 active torsions:
REMARK  status: ('A' for Active; 'I' for Inactive)
ROOT
ATOM      1  C   UNL d   1      -5.488   3.514  -5.999  0.00  0.00     0.172 C 
ATOM      2  N   UNL d   1      -4.157   2.953  -5.989  0.00  0.00    -0.070 N 
ATOM      3  C1  UNL d   1      -3.853   1.618  -5.965  0.00  0.00    -0.004 A 
ATOM      4  C2  UNL d   1      -2.481   1.498  -5.963  0.00  0.00    -0.047 A 
ATOM      5  C3  UNL d   1      -1.940   2.806  -5.984  0.00  0.00    -0.047 A 
ATOM      6  C4  UNL d   1      -3.000   3.687  -6.000  0.00  0.00    -0.004 A 
ENDROOT
TORSDOF 0
ENDMDL
