MODEL 1
REMARK minimizedAffinity 2.48545504
REMARK minimizedRMSD -1
REMARK  0 active torsions:
REMARK  status: ('A' for Active; 'I' for Inactive)
ROOT
ATOM      1  C   UNL d   1      -4.591  -0.943  -5.980  0.00  0.00     0.172 C 
ATOM      2  N   UNL d   1      -3.718   0.203  -5.881  0.00  0.00    -0.070 N 
ATOM      3  C1  UNL d   1      -2.368   0.161  -5.655  0.00  0.00    -0.004 A 
ATOM      4  C2  UNL d   1      -1.904   1.459  -5.630  0.00  0.00    -0.047 A 
ATOM      5  C3  UNL d   1      -3.014   2.310  -5.847  0.00  0.00    -0.047 A 
ATOM      6  C4  UNL d   1      -4.124   1.506  -5.999  0.00  0.00    -0.004 A 
ENDROOT
TORSDOF 0
ENDMDL
