MODEL 1
REMARK minimizedAffinity 5.14397335
REMARK minimizedRMSD -1
REMARK  0 active torsions:
REMARK  status: ('A' for Active; 'I' for Inactive)
ROOT
ATOM      1  C   UNL d   1      -4.654  -1.195  -5.998  0.00  0.00     0.172 C 
ATOM      2  N   UNL d   1      -4.110   0.069  -5.562  0.00  0.00    -0.070 N 
ATOM      3  C1  UNL d   1      -4.510   1.304  -5.999  0.00  0.00    -0.004 A 
ATOM      4  C2  UNL d   1      -3.750   2.250  -5.345  0.00  0.00    -0.047 A 
ATOM      5  C3  UNL d   1      -2.863   1.560  -4.486  0.00  0.00    -0.047 A 
ATOM      6  C4  UNL d   1      -3.107   0.211  -4.640  0.00  0.00    -0.004 A 
ENDROOT
TORSDOF 0
ENDMDL
