MODEL 1
REMARK minimizedAffinity 1.16281474
REMARK minimizedRMSD -1
REMARK  0 active torsions:
REMARK  status: ('A' for Active; 'I' for Inactive)
ROOT
ATOM      1  C   UNL d   1      -4.120  -2.314  -5.989  0.00  0.00     0.172 C 
ATOM      2  N   UNL d   1      -4.161  -3.757  -5.991  0.00  0.00    -0.070 N 
ATOM      3  C1  UNL d   1      -5.295  -4.524  -5.984  0.00  0.00    -0.004 A 
ATOM      4  C2  UNL d   1      -4.911  -5.847  -5.990  0.00  0.00    -0.047 A 
ATOM      5  C3  UNL d   1      -3.496  -5.877  -5.999  0.00  0.00    -0.047 A 
ATOM      6  C4  UNL d   1      -3.058  -4.569  -6.000  0.00  0.00    -0.004 A 
ENDROOT
TORSDOF 0
ENDMDL
