MODEL 1
REMARK minimizedAffinity -2.31272054
REMARK minimizedRMSD -1
REMARK  0 active torsions:
REMARK  status: ('A' for Active; 'I' for Inactive)
ROOT
ATOM      1  C   UNL d   1      -4.640   5.912  -5.976  0.00  0.00     0.172 C 
ATOM      2  N   UNL d   1      -4.284   4.513  -5.984  0.00  0.00    -0.070 N 
ATOM      3  C1  UNL d   1      -3.009   4.014  -5.989  0.00  0.00    -0.004 A 
ATOM      4  C2  UNL d   1      -3.094   2.638  -5.996  0.00  0.00    -0.047 A 
ATOM      5  C3  UNL d   1      -4.468   2.299  -5.995  0.00  0.00    -0.047 A 
ATOM      6  C4  UNL d   1      -5.182   3.479  -5.988  0.00  0.00    -0.004 A 
ENDROOT
TORSDOF 0
ENDMDL
