MODEL 1
REMARK minimizedAffinity -1.97191298
REMARK minimizedRMSD -1
REMARK  0 active torsions:
REMARK  status: ('A' for Active; 'I' for Inactive)
ROOT
ATOM      1  C   UNL d   1      -2.583  -4.825  -6.000  0.00  0.00     0.172 C 
ATOM      2  N   UNL d   1      -3.816  -4.072  -5.998  0.00  0.00    -0.070 N 
ATOM      3  C1  UNL d   1      -3.917  -2.707  -5.993  0.00  0.00    -0.004 A 
ATOM      4  C2  UNL d   1      -5.257  -2.383  -5.993  0.00  0.00    -0.047 A 
ATOM      5  C3  UNL d   1      -5.986  -3.596  -5.997  0.00  0.00    -0.047 A 
ATOM      6  C4  UNL d   1      -5.069  -4.626  -6.000  0.00  0.00    -0.004 A 
ENDROOT
TORSDOF 0
ENDMDL
