MODEL 1
REMARK minimizedAffinity -2.45889091
REMARK minimizedRMSD -1
REMARK  0 active torsions:
REMARK  status: ('A' for Active; 'I' for Inactive)
ROOT
ATOM      1  C   UNL d   1      -4.510  -0.588  -5.999  0.00  0.00     0.172 C 
ATOM      2  N   UNL d   1      -4.083   0.775  -5.788  0.00  0.00    -0.070 N 
ATOM      3  C1  UNL d   1      -4.877   1.802  -5.350  0.00  0.00    -0.004 A 
ATOM      4  C2  UNL d   1      -4.098   2.936  -5.279  0.00  0.00    -0.047 A 
ATOM      5  C3  UNL d   1      -2.791   2.580  -5.688  0.00  0.00    -0.047 A 
ATOM      6  C4  UNL d   1      -2.810   1.236  -5.998  0.00  0.00    -0.004 A 
ENDROOT
TORSDOF 0
ENDMDL
