MODEL 1
REMARK minimizedAffinity -1.38574386
REMARK minimizedRMSD -1
REMARK  0 active torsions:
REMARK  status: ('A' for Active; 'I' for Inactive)
ROOT
ATOM      1  C   UNL d   1      -2.210   5.121  -6.000  0.00  0.00     0.172 C 
ATOM      2  N   UNL d   1      -2.877   3.840  -5.991  0.00  0.00    -0.070 N 
ATOM      3  C1  UNL d   1      -2.259   2.618  -5.974  0.00  0.00    -0.004 A 
ATOM      4  C2  UNL d   1      -3.239   1.650  -5.971  0.00  0.00    -0.047 A 
ATOM      5  C3  UNL d   1      -4.489   2.312  -5.987  0.00  0.00    -0.047 A 
ATOM      6  C4  UNL d   1      -4.236   3.667  -6.000  0.00  0.00    -0.004 A 
ENDROOT
TORSDOF 0
ENDMDL
