MODEL 1
REMARK minimizedAffinity -0.583103955
REMARK minimizedRMSD -1
REMARK  0 active torsions:
REMARK  status: ('A' for Active; 'I' for Inactive)
ROOT
ATOM      1  C   UNL d   1      -1.974   1.874  -5.977  0.00  0.00     0.172 C 
ATOM      2  N   UNL d   1      -3.381   2.199  -5.983  0.00  0.00    -0.070 N 
ATOM      3  C1  UNL d   1      -3.908   3.463  -5.973  0.00  0.00    -0.004 A 
ATOM      4  C2  UNL d   1      -5.281   3.348  -5.983  0.00  0.00    -0.047 A 
ATOM      5  C3  UNL d   1      -5.590   1.967  -5.999  0.00  0.00    -0.047 A 
ATOM      6  C4  UNL d   1      -4.395   1.279  -5.999  0.00  0.00    -0.004 A 
ENDROOT
TORSDOF 0
ENDMDL
