MODEL 1
REMARK minimizedAffinity -1.40488255
REMARK minimizedRMSD -1
REMARK  0 active torsions:
REMARK  status: ('A' for Active; 'I' for Inactive)
ROOT
ATOM      1  C   UNL d   1      -5.495   4.603  -5.993  0.00  0.00     0.172 C 
ATOM      2  N   UNL d   1      -4.704   3.395  -5.995  0.00  0.00    -0.070 N 
ATOM      3  C1  UNL d   1      -3.335   3.337  -5.995  0.00  0.00    -0.004 A 
ATOM      4  C2  UNL d   1      -2.969   2.008  -5.997  0.00  0.00    -0.047 A 
ATOM      5  C3  UNL d   1      -4.159   1.241  -6.000  0.00  0.00    -0.047 A 
ATOM      6  C4  UNL d   1      -5.217   2.125  -5.999  0.00  0.00    -0.004 A 
ENDROOT
TORSDOF 0
ENDMDL
