MODEL 1
REMARK minimizedAffinity -0.919742763
REMARK minimizedRMSD -1
REMARK  0 active torsions:
REMARK  status: ('A' for Active; 'I' for Inactive)
ROOT
ATOM      1  C   UNL d   1      -3.588   3.039  -5.993  0.00  0.00     0.172 C 
ATOM      2  N   UNL d   1      -3.494   1.598  -5.993  0.00  0.00    -0.070 N 
ATOM      3  C1  UNL d   1      -2.332   0.873  -5.994  0.00  0.00    -0.004 A 
ATOM      4  C2  UNL d   1      -2.668  -0.463  -5.993  0.00  0.00    -0.047 A 
ATOM      5  C3  UNL d   1      -4.081  -0.545  -5.993  0.00  0.00    -0.047 A 
ATOM      6  C4  UNL d   1      -4.567   0.746  -5.993  0.00  0.00    -0.004 A 
ENDROOT
TORSDOF 0
ENDMDL
