MODEL 1
REMARK minimizedAffinity -1.36564267
REMARK minimizedRMSD -1
REMARK  0 active torsions:
REMARK  status: ('A' for Active; 'I' for Inactive)
ROOT
ATOM      1  C   UNL d   1       1.383  -0.317   1.128  0.00  0.00     0.020 A 
ATOM      2  C1  UNL d   1       0.004  -0.286   0.929  0.00  0.00     0.020 A 
ATOM      3  C2  UNL d   1      -0.665  -1.429   0.486  0.00  0.00     0.034 A 
ATOM      4  C3  UNL d   1       0.047  -2.609   0.241  0.00  0.00     0.017 A 
ATOM      5  C4  UNL d   1       1.432  -2.640   0.441  0.00  0.00     0.017 A 
ATOM      6  C5  UNL d   1       2.096  -1.492   0.884  0.00  0.00     0.034 A 
ATOM      7 Cl   UNL d   1       2.377  -4.059   0.159  0.00  0.00    -0.070 Cl
ATOM      8 Cl1  UNL d   1      -0.844  -3.986  -0.304  0.00  0.00    -0.070 Cl
ENDROOT
TORSDOF 0
ENDMDL
