MODEL 1
REMARK minimizedAffinity -1.83856404
REMARK minimizedRMSD -1
REMARK  0 active torsions:
REMARK  status: ('A' for Active; 'I' for Inactive)
ROOT
ATOM      1  C   UNL d   1      -0.615  -1.148   1.181  0.00  0.00     0.020 A 
ATOM      2  C1  UNL d   1      -0.605  -2.540   1.109  0.00  0.00     0.020 A 
ATOM      3  C2  UNL d   1       0.508  -3.205   0.589  0.00  0.00     0.034 A 
ATOM      4  C3  UNL d   1       1.615  -2.477   0.137  0.00  0.00     0.017 A 
ATOM      5  C4  UNL d   1       1.604  -1.079   0.210  0.00  0.00     0.017 A 
ATOM      6  C5  UNL d   1       0.487  -0.419   0.732  0.00  0.00     0.034 A 
ATOM      7 Cl   UNL d   1       2.932  -0.113  -0.327  0.00  0.00    -0.070 Cl
ATOM      8 Cl1  UNL d   1       2.956  -3.364  -0.494  0.00  0.00    -0.070 Cl
ENDROOT
TORSDOF 0
ENDMDL
