MODEL 1
REMARK minimizedAffinity -4.73171568
REMARK minimizedRMSD -1
REMARK  0 active torsions:
REMARK  status: ('A' for Active; 'I' for Inactive)
ROOT
ATOM      1  C   UNL d   1      -0.449  -1.972   0.376  0.00  0.00     0.020 A 
ATOM      2  C1  UNL d   1       0.128  -0.727   0.622  0.00  0.00     0.020 A 
ATOM      3  C2  UNL d   1       1.517  -0.603   0.693  0.00  0.00     0.034 A 
ATOM      4  C3  UNL d   1       2.334  -1.726   0.518  0.00  0.00     0.017 A 
ATOM      5  C4  UNL d   1       1.754  -2.975   0.271  0.00  0.00     0.017 A 
ATOM      6  C5  UNL d   1       0.363  -3.094   0.201  0.00  0.00     0.034 A 
ATOM      7 Cl   UNL d   1       2.697  -4.406   0.045  0.00  0.00    -0.070 Cl
ATOM      8 Cl1  UNL d   1       4.044  -1.499   0.618  0.00  0.00    -0.070 Cl
ENDROOT
TORSDOF 0
ENDMDL
