MODEL 1
REMARK minimizedAffinity 9.09752655
REMARK minimizedRMSD -1
REMARK  0 active torsions:
REMARK  status: ('A' for Active; 'I' for Inactive)
ROOT
ATOM      1  C   UNL d   1      -0.620  -0.755   0.329  0.00  0.00     0.020 A 
ATOM      2  C1  UNL d   1       0.387  -0.783   1.293  0.00  0.00     0.020 A 
ATOM      3  C2  UNL d   1       1.209  -1.905   1.412  0.00  0.00     0.034 A 
ATOM      4  C3  UNL d   1       1.026  -3.005   0.565  0.00  0.00     0.017 A 
ATOM      5  C4  UNL d   1       0.015  -2.976  -0.402  0.00  0.00     0.017 A 
ATOM      6  C5  UNL d   1      -0.806  -1.849  -0.517  0.00  0.00     0.034 A 
ATOM      7 Cl   UNL d   1      -0.272  -4.294  -1.483  0.00  0.00    -0.070 Cl
ATOM      8 Cl1  UNL d   1       2.079  -4.359   0.768  0.00  0.00    -0.070 Cl
ENDROOT
TORSDOF 0
ENDMDL
