MODEL 1
REMARK minimizedAffinity -0.517592788
REMARK minimizedRMSD -1
REMARK  0 active torsions:
REMARK  status: ('A' for Active; 'I' for Inactive)
ROOT
ATOM      1  C   UNL d   1       2.620  -3.494   0.056  0.00  0.00     0.020 A 
ATOM      2  C1  UNL d   1       1.336  -4.022  -0.075  0.00  0.00     0.020 A 
ATOM      3  C2  UNL d   1       0.221  -3.203   0.116  0.00  0.00     0.034 A 
ATOM      4  C3  UNL d   1       0.388  -1.852   0.439  0.00  0.00     0.017 A 
ATOM      5  C4  UNL d   1       1.677  -1.323   0.571  0.00  0.00     0.017 A 
ATOM      6  C5  UNL d   1       2.790  -2.147   0.378  0.00  0.00     0.034 A 
ATOM      7 Cl   UNL d   1       1.962   0.335   0.968  0.00  0.00    -0.070 Cl
ATOM      8 Cl1  UNL d   1      -1.035  -0.897   0.661  0.00  0.00    -0.070 Cl
ENDROOT
TORSDOF 0
ENDMDL
