MODEL 1
REMARK minimizedAffinity 1.26843798
REMARK minimizedRMSD -1
REMARK  0 active torsions:
REMARK  status: ('A' for Active; 'I' for Inactive)
ROOT
ATOM      1  C   UNL d   1      -0.580  -0.784   1.212  0.00  0.00     0.020 A 
ATOM      2  C1  UNL d   1      -0.924  -2.132   1.300  0.00  0.00     0.020 A 
ATOM      3  C2  UNL d   1      -0.026  -3.111   0.870  0.00  0.00     0.034 A 
ATOM      4  C3  UNL d   1       1.220  -2.743   0.349  0.00  0.00     0.017 A 
ATOM      5  C4  UNL d   1       1.564  -1.389   0.260  0.00  0.00     0.017 A 
ATOM      6  C5  UNL d   1       0.661  -0.413   0.693  0.00  0.00     0.034 A 
ATOM      7 Cl   UNL d   1       3.082  -0.858  -0.372  0.00  0.00    -0.070 Cl
ATOM      8 Cl1  UNL d   1       2.281  -4.007  -0.164  0.00  0.00    -0.070 Cl
ENDROOT
TORSDOF 0
ENDMDL
