MODEL 1
REMARK minimizedAffinity 2.61986041
REMARK minimizedRMSD -1
REMARK  0 active torsions:
REMARK  status: ('A' for Active; 'I' for Inactive)
ROOT
ATOM      1  C   UNL d   1      -1.274   0.143   1.605  0.00  0.00     0.020 A 
ATOM      2  C1  UNL d   1      -1.834  -1.062   1.183  0.00  0.00     0.020 A 
ATOM      3  C2  UNL d   1      -1.006  -2.120   0.800  0.00  0.00     0.034 A 
ATOM      4  C3  UNL d   1       0.385  -1.975   0.838  0.00  0.00     0.017 A 
ATOM      5  C4  UNL d   1       0.946  -0.765   1.262  0.00  0.00     0.017 A 
ATOM      6  C5  UNL d   1       0.113   0.291   1.645  0.00  0.00     0.034 A 
ATOM      7 Cl   UNL d   1       2.654  -0.510   1.336  0.00  0.00    -0.070 Cl
ATOM      8 Cl1  UNL d   1       1.347  -3.324   0.350  0.00  0.00    -0.070 Cl
ENDROOT
TORSDOF 0
ENDMDL
