MODEL 1
REMARK minimizedAffinity -1.40247703
REMARK minimizedRMSD -1
REMARK  0 active torsions:
REMARK  status: ('A' for Active; 'I' for Inactive)
ROOT
ATOM      1  C   UNL d   1      -0.946  -1.640   1.122  0.00  0.00     0.020 A 
ATOM      2  C1  UNL d   1      -0.360  -0.376   1.176  0.00  0.00     0.020 A 
ATOM      3  C2  UNL d   1       0.971  -0.207   0.791  0.00  0.00     0.034 A 
ATOM      4  C3  UNL d   1       1.721  -1.303   0.349  0.00  0.00     0.017 A 
ATOM      5  C4  UNL d   1       1.132  -2.571   0.295  0.00  0.00     0.017 A 
ATOM      6  C5  UNL d   1      -0.202  -2.735   0.682  0.00  0.00     0.034 A 
ATOM      7 Cl   UNL d   1       1.993  -3.972  -0.239  0.00  0.00    -0.070 Cl
ATOM      8 Cl1  UNL d   1       3.362  -1.021  -0.112  0.00  0.00    -0.070 Cl
ENDROOT
TORSDOF 0
ENDMDL
