MODEL 1
REMARK minimizedAffinity -3.19659901
REMARK minimizedRMSD -1
REMARK  0 active torsions:
REMARK  status: ('A' for Active; 'I' for Inactive)
ROOT
ATOM      1  C   UNL d   1      -0.158  -0.440   1.296  0.00  0.00     0.020 A 
ATOM      2  C1  UNL d   1      -0.660  -1.739   1.214  0.00  0.00     0.020 A 
ATOM      3  C2  UNL d   1       0.111  -2.750   0.636  0.00  0.00     0.034 A 
ATOM      4  C3  UNL d   1       1.387  -2.464   0.138  0.00  0.00     0.017 A 
ATOM      5  C4  UNL d   1       1.890  -1.161   0.221  0.00  0.00     0.017 A 
ATOM      6  C5  UNL d   1       1.115  -0.152   0.801  0.00  0.00     0.034 A 
ATOM      7 Cl   UNL d   1       3.456  -0.732  -0.371  0.00  0.00    -0.070 Cl
ATOM      8 Cl1  UNL d   1       2.285  -3.764  -0.563  0.00  0.00    -0.070 Cl
ENDROOT
TORSDOF 0
ENDMDL
