MODEL 1
REMARK minimizedAffinity 2.36308718
REMARK minimizedRMSD -1
REMARK  0 active torsions:
REMARK  status: ('A' for Active; 'I' for Inactive)
ROOT
ATOM      1  C   UNL d   1      -1.008  -0.291   0.681  0.00  0.00     0.020 A 
ATOM      2  C1  UNL d   1      -1.444  -1.529   0.210  0.00  0.00     0.020 A 
ATOM      3  C2  UNL d   1      -0.557  -2.606   0.154  0.00  0.00     0.034 A 
ATOM      4  C3  UNL d   1       0.771  -2.448   0.569  0.00  0.00     0.017 A 
ATOM      5  C4  UNL d   1       1.207  -1.205   1.041  0.00  0.00     0.017 A 
ATOM      6  C5  UNL d   1       0.315  -0.129   1.095  0.00  0.00     0.034 A 
ATOM      7 Cl   UNL d   1       2.829  -0.932   1.571  0.00  0.00    -0.070 Cl
ATOM      8 Cl1  UNL d   1       1.812  -3.823   0.473  0.00  0.00    -0.070 Cl
ENDROOT
TORSDOF 0
ENDMDL
