MODEL 1
REMARK minimizedAffinity -2.97961378
REMARK minimizedRMSD -1
REMARK  0 active torsions:
REMARK  status: ('A' for Active; 'I' for Inactive)
ROOT
ATOM      1  C   UNL d   1       2.857  -3.218   0.060  0.00  0.00     0.020 A 
ATOM      2  C1  UNL d   1       1.549  -3.659  -0.140  0.00  0.00     0.020 A 
ATOM      3  C2  UNL d   1       0.475  -2.837   0.204  0.00  0.00     0.034 A 
ATOM      4  C3  UNL d   1       0.706  -1.569   0.752  0.00  0.00     0.017 A 
ATOM      5  C4  UNL d   1       2.018  -1.128   0.952  0.00  0.00     0.017 A 
ATOM      6  C5  UNL d   1       3.091  -1.955   0.605  0.00  0.00     0.034 A 
ATOM      7 Cl   UNL d   1       2.382   0.423   1.623  0.00  0.00    -0.070 Cl
ATOM      8 Cl1  UNL d   1      -0.671  -0.605   1.154  0.00  0.00    -0.070 Cl
ENDROOT
TORSDOF 0
ENDMDL
