MODEL 1
REMARK minimizedAffinity -0.84814167
REMARK minimizedRMSD -1
REMARK  0 active torsions:
REMARK  status: ('A' for Active; 'I' for Inactive)
ROOT
ATOM      1  C   UNL d   1       1.845  -3.458   0.005  0.00  0.00     0.020 A 
ATOM      2  C1  UNL d   1       0.464  -3.653  -0.011  0.00  0.00     0.020 A 
ATOM      3  C2  UNL d   1      -0.393  -2.602   0.323  0.00  0.00     0.034 A 
ATOM      4  C3  UNL d   1       0.129  -1.352   0.673  0.00  0.00     0.017 A 
ATOM      5  C4  UNL d   1       1.515  -1.157   0.689  0.00  0.00     0.017 A 
ATOM      6  C5  UNL d   1       2.369  -2.213   0.354  0.00  0.00     0.034 A 
ATOM      7 Cl   UNL d   1       2.234   0.357   1.111  0.00  0.00    -0.070 Cl
ATOM      8 Cl1  UNL d   1      -0.989  -0.097   1.074  0.00  0.00    -0.070 Cl
ENDROOT
TORSDOF 0
ENDMDL
