MODEL 1
REMARK minimizedAffinity -2.27185249
REMARK minimizedRMSD -1
REMARK  0 active torsions:
REMARK  status: ('A' for Active; 'I' for Inactive)
ROOT
ATOM      1  C   UNL d   1      -1.014  -0.438   1.105  0.00  0.00     0.020 A 
ATOM      2  C1  UNL d   1      -1.465  -1.728   0.830  0.00  0.00     0.020 A 
ATOM      3  C2  UNL d   1      -0.562  -2.712   0.423  0.00  0.00     0.034 A 
ATOM      4  C3  UNL d   1       0.798  -2.407   0.289  0.00  0.00     0.017 A 
ATOM      5  C4  UNL d   1       1.250  -1.112   0.565  0.00  0.00     0.017 A 
ATOM      6  C5  UNL d   1       0.341  -0.131   0.973  0.00  0.00     0.034 A 
ATOM      7 Cl   UNL d   1       2.912  -0.661   0.424  0.00  0.00    -0.070 Cl
ATOM      8 Cl1  UNL d   1       1.858  -3.673  -0.219  0.00  0.00    -0.070 Cl
ENDROOT
TORSDOF 0
ENDMDL
