MODEL 1
REMARK minimizedAffinity 10.3487186
REMARK minimizedRMSD -1
REMARK  0 active torsions:
REMARK  status: ('A' for Active; 'I' for Inactive)
ROOT
ATOM      1  C   UNL d   1      -4.770   2.591   5.452  0.00  0.00     0.020 A 
ATOM      2  C1  UNL d   1      -4.679   3.035   4.134  0.00  0.00     0.020 A 
ATOM      3  C2  UNL d   1      -3.563   2.705   3.362  0.00  0.00     0.034 A 
ATOM      4  C3  UNL d   1      -2.534   1.930   3.908  0.00  0.00     0.017 A 
ATOM      5  C4  UNL d   1      -2.626   1.485   5.231  0.00  0.00     0.017 A 
ATOM      6  C5  UNL d   1      -3.746   1.818   6.000  0.00  0.00     0.034 A 
ATOM      7 Cl   UNL d   1      -1.396   0.525   5.974  0.00  0.00    -0.070 Cl
ATOM      8 Cl1  UNL d   1      -1.183   1.560   2.895  0.00  0.00    -0.070 Cl
ENDROOT
TORSDOF 0
ENDMDL
