MODEL 1
REMARK minimizedAffinity -5.43240595
REMARK minimizedRMSD -1
REMARK  0 active torsions:
REMARK  status: ('A' for Active; 'I' for Inactive)
ROOT
ATOM      1  C   UNL d   1      -0.437  -1.775   0.474  0.00  0.00     0.020 A 
ATOM      2  C1  UNL d   1       0.233  -0.560   0.609  0.00  0.00     0.020 A 
ATOM      3  C2  UNL d   1       1.629  -0.533   0.650  0.00  0.00     0.034 A 
ATOM      4  C3  UNL d   1       2.359  -1.723   0.557  0.00  0.00     0.017 A 
ATOM      5  C4  UNL d   1       1.686  -2.943   0.422  0.00  0.00     0.017 A 
ATOM      6  C5  UNL d   1       0.288  -2.964   0.381  0.00  0.00     0.034 A 
ATOM      7 Cl   UNL d   1       2.518  -4.453   0.300  0.00  0.00    -0.070 Cl
ATOM      8 Cl1  UNL d   1       4.083  -1.616   0.615  0.00  0.00    -0.070 Cl
ENDROOT
TORSDOF 0
ENDMDL
