MODEL 1
REMARK minimizedAffinity 0.430434704
REMARK minimizedRMSD -1
REMARK  3 active torsions:
REMARK  status: ('A' for Active; 'I' for Inactive)
REMARK    1  A    between atoms: C3'_2  and  C2'_3 
REMARK    2  A    between atoms: C2'_3  and  C1'_4 
REMARK    3  A    between atoms: C1'_4  and  C1_5 
ROOT
ATOM      1  C1  N4B d   1       0.898  -1.400  -0.086  0.00  0.00    -0.075 A 
ATOM      2  C2  N4B d   1      -0.128  -1.461   0.883  0.00  0.00     0.002 A 
ATOM      3  C3  N4B d   1       0.168  -1.819   2.175  0.00  0.00     0.002 A 
ATOM      4  C4  N4B d   1       1.474  -2.137   2.517  0.00  0.00    -0.004 A 
ATOM      5  C5  N4B d   1       2.463  -2.051   1.582  0.00  0.00     0.002 A 
ATOM      6  C6  N4B d   1       2.181  -1.689   0.280  0.00  0.00     0.002 A 
ENDROOT
BRANCH   1   7
ATOM      7  C1' N4B d   1       0.610  -1.098  -1.531  0.00  0.00     0.057 C 
BRANCH   7   8
ATOM      8  C2' N4B d   1       1.747  -0.256  -2.103  0.00  0.00     0.009 C 
BRANCH   8   9
ATOM      9  C3' N4B d   1       1.386   1.218  -2.166  0.00  0.00     0.004 C 
ATOM     10  C4' N4B d   1       2.254   2.066  -1.285  0.00  0.00     0.003 C 
ENDBRANCH   8   9
ENDBRANCH   7   8
ENDBRANCH   1   7
TORSDOF 3
ENDMDL
