MODEL 1
REMARK minimizedAffinity 8.64803886
REMARK minimizedRMSD -1
REMARK  3 active torsions:
REMARK  status: ('A' for Active; 'I' for Inactive)
REMARK    1  A    between atoms: C3'_2  and  C2'_3 
REMARK    2  A    between atoms: C2'_3  and  C1'_4 
REMARK    3  A    between atoms: C1'_4  and  C1_5 
ROOT
ATOM      1  C1  N4B d   1      -0.366  -0.981   1.535  0.00  0.00    -0.075 A 
ATOM      2  C2  N4B d   1      -0.717  -0.186   2.649  0.00  0.00     0.002 A 
ATOM      3  C3  N4B d   1       0.238   0.162   3.572  0.00  0.00     0.002 A 
ATOM      4  C4  N4B d   1       1.540  -0.287   3.414  0.00  0.00    -0.004 A 
ATOM      5  C5  N4B d   1       1.877  -1.033   2.322  0.00  0.00     0.002 A 
ATOM      6  C6  N4B d   1       0.928  -1.387   1.384  0.00  0.00     0.002 A 
ENDROOT
BRANCH   1   7
ATOM      7  C1' N4B d   1      -1.394  -1.458   0.545  0.00  0.00     0.057 C 
BRANCH   7   8
ATOM      8  C2' N4B d   1      -1.079  -0.868  -0.826  0.00  0.00     0.009 C 
BRANCH   8   9
ATOM      9  C3' N4B d   1      -2.038  -1.367  -1.893  0.00  0.00     0.004 C 
ATOM     10  C4' N4B d   1      -2.742  -0.253  -2.609  0.00  0.00     0.003 C 
ENDBRANCH   8   9
ENDBRANCH   7   8
ENDBRANCH   1   7
TORSDOF 3
ENDMDL
