MODEL 1
REMARK minimizedAffinity 11.2945232
REMARK minimizedRMSD -1
REMARK  3 active torsions:
REMARK  status: ('A' for Active; 'I' for Inactive)
REMARK    1  A    between atoms: C3'_2  and  C2'_3 
REMARK    2  A    between atoms: C2'_3  and  C1'_4 
REMARK    3  A    between atoms: C1'_4  and  C1_5 
ROOT
ATOM      1  C1  N4B d   1      -0.927  -0.111   2.268  0.00  0.00    -0.075 A 
ATOM      2  C2  N4B d   1      -0.364  -0.377   1.001  0.00  0.00     0.002 A 
ATOM      3  C3  N4B d   1       0.724  -1.209   0.894  0.00  0.00     0.002 A 
ATOM      4  C4  N4B d   1       1.274  -1.769   2.037  0.00  0.00    -0.004 A 
ATOM      5  C5  N4B d   1       0.709  -1.527   3.255  0.00  0.00     0.002 A 
ATOM      6  C6  N4B d   1      -0.386  -0.696   3.377  0.00  0.00     0.002 A 
ENDROOT
BRANCH   1   7
ATOM      7  C1' N4B d   1      -2.062   0.860   2.445  0.00  0.00     0.057 C 
BRANCH   7   8
ATOM      8  C2' N4B d   1      -2.809   0.528   3.734  0.00  0.00     0.009 C 
BRANCH   8   9
ATOM      9  C3' N4B d   1      -3.937   1.508   4.005  0.00  0.00     0.004 C 
ATOM     10  C4' N4B d   1      -5.192   0.833   4.472  0.00  0.00     0.003 C 
ENDBRANCH   8   9
ENDBRANCH   7   8
ENDBRANCH   1   7
TORSDOF 3
ENDMDL
