MODEL 1
REMARK minimizedAffinity 1.03128827
REMARK minimizedRMSD -1
REMARK  0 active torsions:
REMARK  status: ('A' for Active; 'I' for Inactive)
ROOT
ATOM      1  C   UNL d   1      -0.642  -5.990  -5.735  0.00  0.00     0.077 C 
ATOM      2  C1  UNL d   1      -0.894  -5.999  -4.256  0.00  0.00    -0.074 A 
ATOM      3  C2  UNL d   1       0.168  -5.995  -3.347  0.00  0.00    -0.005 A 
ATOM      4  C3  UNL d   1      -0.081  -5.994  -1.974  0.00  0.00     0.006 A 
ATOM      5  C4  UNL d   1      -1.393  -5.996  -1.499  0.00  0.00    -0.005 A 
ATOM      6  C5  UNL d   1      -2.468  -5.999  -2.393  0.00  0.00    -0.074 A 
ATOM      7  C6  UNL d   1      -3.884  -5.991  -1.899  0.00  0.00     0.077 C 
ATOM      8  C7  UNL d   1      -2.209  -5.993  -3.771  0.00  0.00    -0.001 A 
ENDROOT
TORSDOF 0
ENDMDL
