MODEL 1
REMARK minimizedAffinity -1.19994521
REMARK minimizedRMSD -1
REMARK  0 active torsions:
REMARK  status: ('A' for Active; 'I' for Inactive)
ROOT
ATOM      1  C   UNL d   1      -3.640  -6.000  -3.641  0.00  0.00     0.077 C 
ATOM      2  C1  UNL d   1      -2.142  -5.991  -3.572  0.00  0.00    -0.074 A 
ATOM      3  C2  UNL d   1      -1.479  -5.998  -2.341  0.00  0.00    -0.005 A 
ATOM      4  C3  UNL d   1      -0.085  -6.000  -2.293  0.00  0.00     0.006 A 
ATOM      5  C4  UNL d   1       0.659  -5.994  -3.473  0.00  0.00    -0.005 A 
ATOM      6  C5  UNL d   1       0.013  -5.988  -4.714  0.00  0.00    -0.074 A 
ATOM      7  C6  UNL d   1       0.798  -5.992  -5.992  0.00  0.00     0.077 C 
ATOM      8  C7  UNL d   1      -1.388  -5.994  -4.754  0.00  0.00    -0.001 A 
ENDROOT
TORSDOF 0
ENDMDL
