MODEL 1
REMARK minimizedAffinity 0.998653054
REMARK minimizedRMSD -1
REMARK  0 active torsions:
REMARK  status: ('A' for Active; 'I' for Inactive)
ROOT
ATOM      1  C   UNL d   1      -2.897  -5.956  -2.319  0.00  0.00     0.077 C 
ATOM      2  C1  UNL d   1      -1.936  -5.973  -3.470  0.00  0.00    -0.074 A 
ATOM      3  C2  UNL d   1      -2.397  -5.966  -4.791  0.00  0.00    -0.005 A 
ATOM      4  C3  UNL d   1      -1.491  -5.973  -5.852  0.00  0.00     0.006 A 
ATOM      5  C4  UNL d   1      -0.118  -5.987  -5.604  0.00  0.00    -0.005 A 
ATOM      6  C5  UNL d   1       0.361  -5.993  -4.290  0.00  0.00    -0.074 A 
ATOM      7  C6  UNL d   1       1.834  -5.999  -4.005  0.00  0.00     0.077 C 
ATOM      8  C7  UNL d   1      -0.555  -5.979  -3.229  0.00  0.00    -0.001 A 
ENDROOT
TORSDOF 0
ENDMDL
