MODEL 1
REMARK minimizedAffinity 9.6394186
REMARK minimizedRMSD -1
REMARK  0 active torsions:
REMARK  status: ('A' for Active; 'I' for Inactive)
ROOT
ATOM      1  C   UNL d   1       3.737   0.434  -1.476  0.00  0.00     0.077 C 
ATOM      2  C1  UNL d   1       2.458   0.392  -0.694  0.00  0.00    -0.074 A 
ATOM      3  C2  UNL d   1       1.526   1.430  -0.784  0.00  0.00    -0.005 A 
ATOM      4  C3  UNL d   1       0.336   1.372  -0.058  0.00  0.00     0.006 A 
ATOM      5  C4  UNL d   1       0.067   0.277   0.764  0.00  0.00    -0.005 A 
ATOM      6  C5  UNL d   1       0.988  -0.771   0.867  0.00  0.00    -0.074 A 
ATOM      7  C6  UNL d   1       0.710  -1.959   1.738  0.00  0.00     0.077 C 
ATOM      8  C7  UNL d   1       2.177  -0.708   0.128  0.00  0.00    -0.001 A 
ENDROOT
TORSDOF 0
ENDMDL
