MODEL 1
REMARK minimizedAffinity 0.866659582
REMARK minimizedRMSD -1
REMARK  0 active torsions:
REMARK  status: ('A' for Active; 'I' for Inactive)
ROOT
ATOM      1  C   UNL d   1      -1.756  -5.997  -2.178  0.00  0.00     0.077 C 
ATOM      2  C1  UNL d   1      -3.096  -5.990  -1.504  0.00  0.00    -0.074 A 
ATOM      3  C2  UNL d   1      -4.277  -5.996  -2.253  0.00  0.00    -0.005 A 
ATOM      4  C3  UNL d   1      -5.516  -6.000  -1.612  0.00  0.00     0.006 A 
ATOM      5  C4  UNL d   1      -5.586  -5.997  -0.218  0.00  0.00    -0.005 A 
ATOM      6  C5  UNL d   1      -4.415  -5.992   0.547  0.00  0.00    -0.074 A 
ATOM      7  C6  UNL d   1      -4.473  -5.999   2.046  0.00  0.00     0.077 C 
ATOM      8  C7  UNL d   1      -3.174  -5.996  -0.104  0.00  0.00    -0.001 A 
ENDROOT
TORSDOF 0
ENDMDL
