MODEL 1
REMARK minimizedAffinity 5.5450449
REMARK minimizedRMSD -1
REMARK  0 active torsions:
REMARK  status: ('A' for Active; 'I' for Inactive)
ROOT
ATOM      1  C   UNL d   1       0.765  -3.524   1.080  0.00  0.00     0.077 C 
ATOM      2  C1  UNL d   1       1.112  -2.104   0.743  0.00  0.00    -0.074 A 
ATOM      3  C2  UNL d   1       0.123  -1.117   0.689  0.00  0.00    -0.005 A 
ATOM      4  C3  UNL d   1       0.462   0.201   0.383  0.00  0.00     0.006 A 
ATOM      5  C4  UNL d   1       1.790   0.544   0.128  0.00  0.00    -0.005 A 
ATOM      6  C5  UNL d   1       2.792  -0.430   0.178  0.00  0.00    -0.074 A 
ATOM      7  C6  UNL d   1       4.226  -0.076  -0.084  0.00  0.00     0.077 C 
ATOM      8  C7  UNL d   1       2.445  -1.751   0.493  0.00  0.00    -0.001 A 
ENDROOT
TORSDOF 0
ENDMDL
