MODEL 1
REMARK minimizedAffinity 0.409009635
REMARK minimizedRMSD -1
REMARK  0 active torsions:
REMARK  status: ('A' for Active; 'I' for Inactive)
ROOT
ATOM      1  C   UNL d   1      -2.007  -0.815   0.555  0.00  0.00     0.077 C 
ATOM      2  C1  UNL d   1      -0.527  -1.054   0.518  0.00  0.00    -0.074 A 
ATOM      3  C2  UNL d   1       0.010  -2.299   0.860  0.00  0.00    -0.005 A 
ATOM      4  C3  UNL d   1       1.388  -2.509   0.811  0.00  0.00     0.006 A 
ATOM      5  C4  UNL d   1       2.242  -1.477   0.421  0.00  0.00    -0.005 A 
ATOM      6  C5  UNL d   1       1.724  -0.225   0.075  0.00  0.00    -0.074 A 
ATOM      7  C6  UNL d   1       2.627   0.892  -0.357  0.00  0.00     0.077 C 
ATOM      8  C7  UNL d   1       0.337  -0.024   0.119  0.00  0.00    -0.001 A 
ENDROOT
TORSDOF 0
ENDMDL
