MODEL 1
REMARK minimizedAffinity 1.69244719
REMARK minimizedRMSD -1
REMARK  0 active torsions:
REMARK  status: ('A' for Active; 'I' for Inactive)
ROOT
ATOM      1  C   UNL d   1      -5.883  -5.951  -3.683  0.00  0.00     0.077 C 
ATOM      2  C1  UNL d   1      -4.841  -5.972  -2.604  0.00  0.00    -0.074 A 
ATOM      3  C2  UNL d   1      -3.479  -5.969  -2.920  0.00  0.00    -0.005 A 
ATOM      4  C3  UNL d   1      -2.522  -5.978  -1.905  0.00  0.00     0.006 A 
ATOM      5  C4  UNL d   1      -2.916  -5.991  -0.567  0.00  0.00    -0.005 A 
ATOM      6  C5  UNL d   1      -4.274  -5.994  -0.232  0.00  0.00    -0.074 A 
ATOM      7  C6  UNL d   1      -4.715  -5.998   1.201  0.00  0.00     0.077 C 
ATOM      8  C7  UNL d   1      -5.230  -5.977  -1.257  0.00  0.00    -0.001 A 
ENDROOT
TORSDOF 0
ENDMDL
