MODEL 1
REMARK minimizedAffinity 1.24663317
REMARK minimizedRMSD -1
REMARK  0 active torsions:
REMARK  status: ('A' for Active; 'I' for Inactive)
ROOT
ATOM      1  C   UNL d   1       1.885  -5.999  -2.948  0.00  0.00     0.077 C 
ATOM      2  C1  UNL d   1       0.660  -5.984  -3.814  0.00  0.00    -0.074 A 
ATOM      3  C2  UNL d   1       0.765  -5.974  -5.208  0.00  0.00    -0.005 A 
ATOM      4  C3  UNL d   1      -0.383  -5.969  -6.000  0.00  0.00     0.006 A 
ATOM      5  C4  UNL d   1      -1.646  -5.974  -5.406  0.00  0.00    -0.005 A 
ATOM      6  C5  UNL d   1      -1.770  -5.984  -4.013  0.00  0.00    -0.074 A 
ATOM      7  C6  UNL d   1      -3.120  -5.999  -3.359  0.00  0.00     0.077 C 
ATOM      8  C7  UNL d   1      -0.612  -5.996  -3.225  0.00  0.00    -0.001 A 
ENDROOT
TORSDOF 0
ENDMDL
