MODEL 1
REMARK minimizedAffinity -0.0629861653
REMARK minimizedRMSD -1
REMARK  0 active torsions:
REMARK  status: ('A' for Active; 'I' for Inactive)
ROOT
ATOM      1  C   UNL d   1       1.740   1.128   0.085  0.00  0.00     0.077 C 
ATOM      2  C1  UNL d   1       1.386  -0.267   0.507  0.00  0.00    -0.074 A 
ATOM      3  C2  UNL d   1       2.351  -1.121   1.049  0.00  0.00    -0.005 A 
ATOM      4  C3  UNL d   1       2.005  -2.413   1.446  0.00  0.00     0.006 A 
ATOM      5  C4  UNL d   1       0.691  -2.862   1.306  0.00  0.00    -0.005 A 
ATOM      6  C5  UNL d   1      -0.288  -2.022   0.767  0.00  0.00    -0.074 A 
ATOM      7  C6  UNL d   1      -1.707  -2.486   0.619  0.00  0.00     0.077 C 
ATOM      8  C7  UNL d   1       0.066  -0.723   0.377  0.00  0.00    -0.001 A 
ENDROOT
TORSDOF 0
ENDMDL
