MODEL 1
REMARK minimizedAffinity -0.51735127
REMARK minimizedRMSD -1
REMARK  0 active torsions:
REMARK  status: ('A' for Active; 'I' for Inactive)
ROOT
ATOM      1  C   UNL d   1       0.468   0.751  -0.032  0.00  0.00     0.077 C 
ATOM      2  C1  UNL d   1       0.386  -0.673   0.431  0.00  0.00    -0.074 A 
ATOM      3  C2  UNL d   1       1.299  -1.180   1.362  0.00  0.00    -0.005 A 
ATOM      4  C3  UNL d   1       1.205  -2.504   1.791  0.00  0.00     0.006 A 
ATOM      5  C4  UNL d   1       0.198  -3.333   1.294  0.00  0.00    -0.005 A 
ATOM      6  C5  UNL d   1      -0.724  -2.844   0.364  0.00  0.00    -0.074 A 
ATOM      7  C6  UNL d   1      -1.818  -3.718  -0.172  0.00  0.00     0.077 C 
ATOM      8  C7  UNL d   1      -0.627  -1.510  -0.057  0.00  0.00    -0.001 A 
ENDROOT
TORSDOF 0
ENDMDL
