MODEL 1
REMARK minimizedAffinity 0.687820435
REMARK minimizedRMSD -1
REMARK  0 active torsions:
REMARK  status: ('A' for Active; 'I' for Inactive)
ROOT
ATOM      1  C   UNL d   1      -2.129  -3.243   0.420  0.00  0.00     0.077 C 
ATOM      2  C1  UNL d   1      -0.846  -2.494   0.624  0.00  0.00    -0.074 A 
ATOM      3  C2  UNL d   1       0.359  -3.174   0.830  0.00  0.00    -0.005 A 
ATOM      4  C3  UNL d   1       1.546  -2.464   1.009  0.00  0.00     0.006 A 
ATOM      5  C4  UNL d   1       1.540  -1.068   0.985  0.00  0.00    -0.005 A 
ATOM      6  C5  UNL d   1       0.345  -0.371   0.779  0.00  0.00    -0.074 A 
ATOM      7  C6  UNL d   1       0.323   1.128   0.740  0.00  0.00     0.077 C 
ATOM      8  C7  UNL d   1      -0.842  -1.092   0.593  0.00  0.00    -0.001 A 
ENDROOT
TORSDOF 0
ENDMDL
