MODEL 1
REMARK minimizedAffinity 1.67412543
REMARK minimizedRMSD -1
REMARK  0 active torsions:
REMARK  status: ('A' for Active; 'I' for Inactive)
ROOT
ATOM      1  C   UNL d   1      -2.888  -5.983  -2.866  0.00  0.00     0.077 C 
ATOM      2  C1  UNL d   1      -1.696  -5.986  -3.776  0.00  0.00    -0.074 A 
ATOM      3  C2  UNL d   1      -1.852  -5.995  -5.166  0.00  0.00    -0.005 A 
ATOM      4  C3  UNL d   1      -0.734  -5.988  -6.000  0.00  0.00     0.006 A 
ATOM      5  C4  UNL d   1       0.550  -5.972  -5.453  0.00  0.00    -0.005 A 
ATOM      6  C5  UNL d   1       0.726  -5.961  -4.066  0.00  0.00    -0.074 A 
ATOM      7  C6  UNL d   1       2.099  -5.933  -3.462  0.00  0.00     0.077 C 
ATOM      8  C7  UNL d   1      -0.403  -5.961  -3.235  0.00  0.00    -0.001 A 
ENDROOT
TORSDOF 0
ENDMDL
