MODEL 1
REMARK minimizedAffinity 0.26926434
REMARK minimizedRMSD -1
REMARK  0 active torsions:
REMARK  status: ('A' for Active; 'I' for Inactive)
ROOT
ATOM      1  C   UNL d   1       1.494  -5.998  -2.233  0.00  0.00     0.077 C 
ATOM      2  C1  UNL d   1       0.415  -5.990  -3.275  0.00  0.00    -0.074 A 
ATOM      3  C2  UNL d   1       0.731  -5.994  -4.637  0.00  0.00    -0.005 A 
ATOM      4  C3  UNL d   1      -0.283  -5.996  -5.595  0.00  0.00     0.006 A 
ATOM      5  C4  UNL d   1      -1.622  -5.994  -5.200  0.00  0.00    -0.005 A 
ATOM      6  C5  UNL d   1      -1.957  -5.991  -3.842  0.00  0.00    -0.074 A 
ATOM      7  C6  UNL d   1      -3.391  -5.999  -3.401  0.00  0.00     0.077 C 
ATOM      8  C7  UNL d   1      -0.932  -5.996  -2.886  0.00  0.00    -0.001 A 
ENDROOT
TORSDOF 0
ENDMDL
