MODEL 1
REMARK minimizedAffinity 2.23110771
REMARK minimizedRMSD -1
REMARK  0 active torsions:
REMARK  status: ('A' for Active; 'I' for Inactive)
ROOT
ATOM      1  C   UNL d   1       1.301  -5.430  -1.654  0.00  0.00     0.077 C 
ATOM      2  C1  UNL d   1       1.329  -5.622  -3.141  0.00  0.00    -0.074 A 
ATOM      3  C2  UNL d   1       2.541  -5.762  -3.824  0.00  0.00    -0.005 A 
ATOM      4  C3  UNL d   1       2.552  -5.950  -5.206  0.00  0.00     0.006 A 
ATOM      5  C4  UNL d   1       1.352  -6.000  -5.918  0.00  0.00    -0.005 A 
ATOM      6  C5  UNL d   1       0.130  -5.862  -5.251  0.00  0.00    -0.074 A 
ATOM      7  C6  UNL d   1      -1.168  -5.923  -5.999  0.00  0.00     0.077 C 
ATOM      8  C7  UNL d   1       0.128  -5.681  -3.861  0.00  0.00    -0.001 A 
ENDROOT
TORSDOF 0
ENDMDL
