MODEL 1
REMARK minimizedAffinity 4.90133238
REMARK minimizedRMSD -1
REMARK  0 active torsions:
REMARK  status: ('A' for Active; 'I' for Inactive)
ROOT
ATOM      1  C   UNL d   1       0.215  -5.987  -6.000  0.00  0.00     0.077 C 
ATOM      2  C1  UNL d   1       0.014  -5.998  -4.514  0.00  0.00    -0.074 A 
ATOM      3  C2  UNL d   1       1.106  -5.999  -3.640  0.00  0.00    -0.005 A 
ATOM      4  C3  UNL d   1       0.902  -6.000  -2.260  0.00  0.00     0.006 A 
ATOM      5  C4  UNL d   1      -0.393  -6.000  -1.741  0.00  0.00    -0.005 A 
ATOM      6  C5  UNL d   1      -1.497  -5.998  -2.599  0.00  0.00    -0.074 A 
ATOM      7  C6  UNL d   1      -2.895  -5.989  -2.057  0.00  0.00     0.077 C 
ATOM      8  C7  UNL d   1      -1.285  -5.991  -3.984  0.00  0.00    -0.001 A 
ENDROOT
TORSDOF 0
ENDMDL
