MODEL 1
REMARK minimizedAffinity 10.8196678
REMARK minimizedRMSD -1
REMARK  1 active torsions:
REMARK  status: ('A' for Active; 'I' for Inactive)
REMARK    1  A    between atoms: C1_2  and  C2_3 
ROOT
ATOM      1  C2  UNL d   1      -3.228  -3.115  -5.725  0.00  0.00    -0.073 A 
ATOM      2  C3  UNL d   1      -4.458  -3.780  -5.781  0.00  0.00    -0.002 A 
ATOM      3  C4  UNL d   1      -4.532  -5.149  -5.524  0.00  0.00     0.004 A 
ATOM      4  C5  UNL d   1      -3.379  -5.866  -5.201  0.00  0.00    -0.004 A 
ATOM      5  C6  UNL d   1      -2.142  -5.217  -5.128  0.00  0.00    -0.075 A 
ATOM      6  C7  UNL d   1      -0.893  -5.973  -4.784  0.00  0.00     0.076 C 
ATOM      7  C8  UNL d   1      -2.077  -3.842  -5.391  0.00  0.00     0.001 A 
ENDROOT
BRANCH   1   8
ATOM      8  C1  UNL d   1      -3.145  -1.635  -5.996  0.00  0.00     0.053 C 
ATOM      9  C   UNL d   1      -1.744  -1.091  -5.768  0.00  0.00     0.018 C 
ENDBRANCH   1   8
TORSDOF 1
ENDMDL
