MODEL 1
REMARK minimizedAffinity 12.7257776
REMARK minimizedRMSD -1
REMARK  1 active torsions:
REMARK  status: ('A' for Active; 'I' for Inactive)
REMARK    1  A    between atoms: C1_2  and  C2_3 
ROOT
ATOM      1  C2  UNL d   1      -1.313  -5.475  -3.782  0.00  0.00    -0.073 A 
ATOM      2  C3  UNL d   1      -1.724  -4.494  -2.873  0.00  0.00    -0.002 A 
ATOM      3  C4  UNL d   1      -0.836  -4.006  -1.913  0.00  0.00     0.004 A 
ATOM      4  C5  UNL d   1       0.472  -4.488  -1.857  0.00  0.00    -0.004 A 
ATOM      5  C6  UNL d   1       0.905  -5.460  -2.765  0.00  0.00    -0.075 A 
ATOM      6  C7  UNL d   1       2.307  -5.991  -2.717  0.00  0.00     0.076 C 
ATOM      7  C8  UNL d   1       0.006  -5.947  -3.724  0.00  0.00     0.001 A 
ENDROOT
BRANCH   1   8
ATOM      8  C1  UNL d   1      -2.266  -6.000  -4.825  0.00  0.00     0.053 C 
ATOM      9  C   UNL d   1      -3.052  -4.883  -5.492  0.00  0.00     0.018 C 
ENDBRANCH   1   8
TORSDOF 1
ENDMDL
