MODEL 1
REMARK minimizedAffinity 7.1754818
REMARK minimizedRMSD -1
REMARK  1 active torsions:
REMARK  status: ('A' for Active; 'I' for Inactive)
REMARK    1  A    between atoms: C1_2  and  C2_3 
ROOT
ATOM      1  C2  UNL d   1      -1.688   2.107  -0.618  0.00  0.00    -0.073 A 
ATOM      2  C3  UNL d   1      -0.817   2.316  -1.693  0.00  0.00    -0.002 A 
ATOM      3  C4  UNL d   1      -0.573   1.294  -2.612  0.00  0.00     0.004 A 
ATOM      4  C5  UNL d   1      -1.201   0.057  -2.469  0.00  0.00    -0.004 A 
ATOM      5  C6  UNL d   1      -2.084  -0.168  -1.408  0.00  0.00    -0.075 A 
ATOM      6  C7  UNL d   1      -2.765  -1.493  -1.239  0.00  0.00     0.076 C 
ATOM      7  C8  UNL d   1      -2.321   0.862  -0.488  0.00  0.00     0.001 A 
ENDROOT
BRANCH   1   8
ATOM      8  C1  UNL d   1      -1.959   3.209   0.373  0.00  0.00     0.053 C 
ATOM      9  C   UNL d   1      -1.938   2.704   1.807  0.00  0.00     0.018 C 
ENDBRANCH   1   8
TORSDOF 1
ENDMDL
