MODEL 1
REMARK minimizedAffinity 12.7858286
REMARK minimizedRMSD -1
REMARK  1 active torsions:
REMARK  status: ('A' for Active; 'I' for Inactive)
REMARK    1  A    between atoms: C1_2  and  C2_3 
ROOT
ATOM      1  C2  UNL d   1      -1.082   1.833  -0.474  0.00  0.00    -0.073 A 
ATOM      2  C3  UNL d   1      -0.043   1.655  -1.394  0.00  0.00    -0.002 A 
ATOM      3  C4  UNL d   1      -0.186   0.760  -2.455  0.00  0.00     0.004 A 
ATOM      4  C5  UNL d   1      -1.371   0.040  -2.611  0.00  0.00    -0.004 A 
ATOM      5  C6  UNL d   1      -2.425   0.213  -1.708  0.00  0.00    -0.075 A 
ATOM      6  C7  UNL d   1      -3.705  -0.556  -1.861  0.00  0.00     0.076 C 
ATOM      7  C8  UNL d   1      -2.272   1.111  -0.644  0.00  0.00     0.001 A 
ENDROOT
BRANCH   1   8
ATOM      8  C1  UNL d   1      -0.934   2.802   0.670  0.00  0.00     0.053 C 
ATOM      9  C   UNL d   1      -2.225   2.955   1.459  0.00  0.00     0.018 C 
ENDBRANCH   1   8
TORSDOF 1
ENDMDL
