MODEL 1
REMARK minimizedAffinity 3.6836071
REMARK minimizedRMSD -1
REMARK  1 active torsions:
REMARK  status: ('A' for Active; 'I' for Inactive)
REMARK    1  A    between atoms: C1_2  and  C2_3 
ROOT
ATOM      1  C2  UNL d   1      -0.046   1.367   0.162  0.00  0.00    -0.073 A 
ATOM      2  C3  UNL d   1      -0.165   2.683   0.623  0.00  0.00    -0.002 A 
ATOM      3  C4  UNL d   1      -0.211   2.948   1.993  0.00  0.00     0.004 A 
ATOM      4  C5  UNL d   1      -0.132   1.903   2.913  0.00  0.00    -0.004 A 
ATOM      5  C6  UNL d   1      -0.001   0.582   2.471  0.00  0.00    -0.075 A 
ATOM      6  C7  UNL d   1       0.083  -0.553   3.448  0.00  0.00     0.076 C 
ATOM      7  C8  UNL d   1       0.042   0.324   1.095  0.00  0.00     0.001 A 
ENDROOT
BRANCH   1   8
ATOM      8  C1  UNL d   1       0.011   1.077  -1.316  0.00  0.00     0.053 C 
ATOM      9  C   UNL d   1      -0.846   2.041  -2.120  0.00  0.00     0.018 C 
ENDBRANCH   1   8
TORSDOF 1
ENDMDL
