MODEL 1
REMARK minimizedAffinity 7.29317379
REMARK minimizedRMSD -1
REMARK  1 active torsions:
REMARK  status: ('A' for Active; 'I' for Inactive)
REMARK    1  A    between atoms: C1_2  and  C2_3 
ROOT
ATOM      1  C2  UNL d   1      -0.763   1.176  -0.814  0.00  0.00    -0.073 A 
ATOM      2  C3  UNL d   1      -1.919   0.632  -0.244  0.00  0.00    -0.002 A 
ATOM      3  C4  UNL d   1      -2.730  -0.232  -0.981  0.00  0.00     0.004 A 
ATOM      4  C5  UNL d   1      -2.389  -0.567  -2.292  0.00  0.00    -0.004 A 
ATOM      5  C6  UNL d   1      -1.231  -0.043  -2.875  0.00  0.00    -0.075 A 
ATOM      6  C7  UNL d   1      -0.851  -0.391  -4.284  0.00  0.00     0.076 C 
ATOM      7  C8  UNL d   1      -0.424   0.827  -2.129  0.00  0.00     0.001 A 
ENDROOT
BRANCH   1   8
ATOM      8  C1  UNL d   1       0.118   2.105  -0.019  0.00  0.00     0.053 C 
ATOM      9  C   UNL d   1      -0.338   2.226   1.426  0.00  0.00     0.018 C 
ENDBRANCH   1   8
TORSDOF 1
ENDMDL
