MODEL 1
REMARK minimizedAffinity -1.4818058
REMARK minimizedRMSD -1
REMARK  1 active torsions:
REMARK  status: ('A' for Active; 'I' for Inactive)
REMARK    1  A    between atoms: C1_2  and  C2_3 
ROOT
ATOM      1  C2  UNL d   1       0.222   0.430   2.242  0.00  0.00    -0.073 A 
ATOM      2  C3  UNL d   1      -0.597   1.403   2.826  0.00  0.00    -0.002 A 
ATOM      3  C4  UNL d   1      -1.139   2.427   2.049  0.00  0.00     0.004 A 
ATOM      4  C5  UNL d   1      -0.873   2.486   0.681  0.00  0.00    -0.004 A 
ATOM      5  C6  UNL d   1      -0.066   1.517   0.076  0.00  0.00    -0.075 A 
ATOM      6  C7  UNL d   1       0.232   1.567  -1.393  0.00  0.00     0.076 C 
ATOM      7  C8  UNL d   1       0.477   0.492   0.864  0.00  0.00     0.001 A 
ENDROOT
BRANCH   1   8
ATOM      8  C1  UNL d   1       0.804  -0.682   3.076  0.00  0.00     0.053 C 
ATOM      9  C   UNL d   1       0.064  -0.854   4.393  0.00  0.00     0.018 C 
ENDBRANCH   1   8
TORSDOF 1
ENDMDL
