MODEL 1
REMARK minimizedAffinity 12.4023848
REMARK minimizedRMSD -1
REMARK  0 active torsions:
REMARK  status: ('A' for Active; 'I' for Inactive)
ROOT
ATOM      1  C4' PXY d   1       2.460   5.312  -0.006  0.00  0.00     0.077 C 
ATOM      2  C1' PXY d   1       4.880   1.860   3.948  0.00  0.00     0.077 C 
ATOM      3  C1  PXY d   1       4.248   2.756   2.902  0.00  0.00    -0.082 A 
ATOM      4  C2  PXY d   1       4.191   4.062   3.108  0.00  0.00     0.003 A 
ATOM      5  C3  PXY d   1       3.594   4.883   2.186  0.00  0.00     0.003 A 
ATOM      6  C4  PXY d   1       3.097   4.369   1.018  0.00  0.00    -0.082 A 
ATOM      7  C5  PXY d   1       3.162   3.039   0.796  0.00  0.00     0.003 A 
ATOM      8  C6  PXY d   1       3.735   2.218   1.763  0.00  0.00     0.003 A 
ENDROOT
TORSDOF 0
ENDMDL
