MODEL 1
REMARK minimizedAffinity 5.90256214
REMARK minimizedRMSD -1
REMARK  0 active torsions:
REMARK  status: ('A' for Active; 'I' for Inactive)
ROOT
ATOM      1  C4' PXY d   1      -2.623   0.755  -0.843  0.00  0.00     0.077 C 
ATOM      2  C1' PXY d   1      -1.055  -0.798   4.500  0.00  0.00     0.077 C 
ATOM      3  C1  PXY d   1      -1.455  -0.384   3.098  0.00  0.00    -0.082 A 
ATOM      4  C2  PXY d   1      -2.737  -0.294   2.782  0.00  0.00     0.003 A 
ATOM      5  C3  PXY d   1      -3.116   0.047   1.510  0.00  0.00     0.003 A 
ATOM      6  C4  PXY d   1      -2.173   0.350   0.564  0.00  0.00    -0.082 A 
ATOM      7  C5  PXY d   1      -0.864   0.271   0.881  0.00  0.00     0.003 A 
ATOM      8  C6  PXY d   1      -0.499  -0.117   2.167  0.00  0.00     0.003 A 
ENDROOT
TORSDOF 0
ENDMDL
