MODEL 1
REMARK minimizedAffinity 3.29236841
REMARK minimizedRMSD -1
REMARK  0 active torsions:
REMARK  status: ('A' for Active; 'I' for Inactive)
ROOT
ATOM      1  C4' PXY d   1      -1.310   0.344  -0.953  0.00  0.00     0.077 C 
ATOM      2  C1' PXY d   1      -0.642  -0.745   4.684  0.00  0.00     0.077 C 
ATOM      3  C1  PXY d   1      -0.804  -0.456   3.205  0.00  0.00    -0.082 A 
ATOM      4  C2  PXY d   1      -1.999  -0.151   2.726  0.00  0.00     0.003 A 
ATOM      5  C3  PXY d   1      -2.170   0.081   1.385  0.00  0.00     0.003 A 
ATOM      6  C4  PXY d   1      -1.097   0.054   0.535  0.00  0.00    -0.082 A 
ATOM      7  C5  PXY d   1       0.127  -0.246   1.018  0.00  0.00     0.003 A 
ATOM      8  C6  PXY d   1       0.272  -0.519   2.375  0.00  0.00     0.003 A 
ENDROOT
TORSDOF 0
ENDMDL
