MODEL 1
REMARK minimizedAffinity 10.5042391
REMARK minimizedRMSD -1
REMARK  0 active torsions:
REMARK  status: ('A' for Active; 'I' for Inactive)
ROOT
ATOM      1  C4' PXY d   1       0.549   0.136   0.732  0.00  0.00     0.077 C 
ATOM      2  C1' PXY d   1      -4.102  -1.141   3.919  0.00  0.00     0.077 C 
ATOM      3  C1  PXY d   1      -2.890  -0.805   3.073  0.00  0.00    -0.082 A 
ATOM      4  C2  PXY d   1      -1.694  -1.234   3.443  0.00  0.00     0.003 A 
ATOM      5  C3  PXY d   1      -0.583  -0.912   2.707  0.00  0.00     0.003 A 
ATOM      6  C4  PXY d   1      -0.704  -0.188   1.551  0.00  0.00    -0.082 A 
ATOM      7  C5  PXY d   1      -1.922   0.245   1.161  0.00  0.00     0.003 A 
ATOM      8  C6  PXY d   1      -3.032  -0.058   1.944  0.00  0.00     0.003 A 
ENDROOT
TORSDOF 0
ENDMDL
