MODEL 1
REMARK minimizedAffinity 2.41350007
REMARK minimizedRMSD -1
REMARK  0 active torsions:
REMARK  status: ('A' for Active; 'I' for Inactive)
ROOT
ATOM      1  C4' PXY d   1      -1.390  -0.800  -0.407  0.00  0.00     0.077 C 
ATOM      2  C1' PXY d   1       3.625   2.073  -0.305  0.00  0.00     0.077 C 
ATOM      3  C1  PXY d   1       2.307   1.326  -0.343  0.00  0.00    -0.082 A 
ATOM      4  C2  PXY d   1       1.766   0.894   0.785  0.00  0.00     0.003 A 
ATOM      5  C3  PXY d   1       0.591   0.189   0.766  0.00  0.00     0.003 A 
ATOM      6  C4  PXY d   1      -0.065  -0.032  -0.415  0.00  0.00    -0.082 A 
ATOM      7  C5  PXY d   1       0.474   0.414  -1.569  0.00  0.00     0.003 A 
ATOM      8  C6  PXY d   1       1.689   1.092  -1.533  0.00  0.00     0.003 A 
ENDROOT
TORSDOF 0
ENDMDL
