MODEL 1
REMARK minimizedAffinity 10.8026705
REMARK minimizedRMSD -1
REMARK  0 active torsions:
REMARK  status: ('A' for Active; 'I' for Inactive)
ROOT
ATOM      1  C4' PXY d   1      -1.809   2.350   0.775  0.00  0.00     0.077 C 
ATOM      2  C1' PXY d   1      -2.394  -2.452   3.939  0.00  0.00     0.077 C 
ATOM      3  C1  PXY d   1      -2.249  -1.197   3.101  0.00  0.00    -0.082 A 
ATOM      4  C2  PXY d   1      -1.125  -0.502   3.154  0.00  0.00     0.003 A 
ATOM      5  C3  PXY d   1      -0.990   0.653   2.427  0.00  0.00     0.003 A 
ATOM      6  C4  PXY d   1      -1.995   1.071   1.597  0.00  0.00    -0.082 A 
ATOM      7  C5  PXY d   1      -3.141   0.361   1.530  0.00  0.00     0.003 A 
ATOM      8  C6  PXY d   1      -3.275  -0.786   2.307  0.00  0.00     0.003 A 
ENDROOT
TORSDOF 0
ENDMDL
