MODEL 1
REMARK minimizedAffinity 9.5040369
REMARK minimizedRMSD -1
REMARK  0 active torsions:
REMARK  status: ('A' for Active; 'I' for Inactive)
ROOT
ATOM      1  C4' PXY d   1       1.243  -0.571   3.443  0.00  0.00     0.077 C 
ATOM      2  C1' PXY d   1      -4.492  -1.279   3.289  0.00  0.00     0.077 C 
ATOM      3  C1  PXY d   1      -2.989  -1.089   3.317  0.00  0.00    -0.082 A 
ATOM      4  C2  PXY d   1      -2.251  -1.825   4.132  0.00  0.00     0.003 A 
ATOM      5  C3  PXY d   1      -0.893  -1.644   4.193  0.00  0.00     0.003 A 
ATOM      6  C4  PXY d   1      -0.278  -0.736   3.374  0.00  0.00    -0.082 A 
ATOM      7  C5  PXY d   1      -1.022   0.012   2.532  0.00  0.00     0.003 A 
ATOM      8  C6  PXY d   1      -2.404  -0.159   2.514  0.00  0.00     0.003 A 
ENDROOT
TORSDOF 0
ENDMDL
