MODEL 1
REMARK minimizedAffinity -0.72733146
REMARK minimizedRMSD -1
REMARK  0 active torsions:
REMARK  status: ('A' for Active; 'I' for Inactive)
ROOT
ATOM      1  C4' PXY d   1      -1.911  -0.636   2.977  0.00  0.00     0.077 C 
ATOM      2  C1' PXY d   1       3.134  -2.466   5.124  0.00  0.00     0.077 C 
ATOM      3  C1  PXY d   1       1.818  -1.978   4.553  0.00  0.00    -0.082 A 
ATOM      4  C2  PXY d   1       0.717  -2.060   5.283  0.00  0.00     0.003 A 
ATOM      5  C3  PXY d   1      -0.487  -1.653   4.770  0.00  0.00     0.003 A 
ATOM      6  C4  PXY d   1      -0.558  -1.107   3.517  0.00  0.00    -0.082 A 
ATOM      7  C5  PXY d   1       0.562  -1.010   2.769  0.00  0.00     0.003 A 
ATOM      8  C6  PXY d   1       1.768  -1.467   3.293  0.00  0.00     0.003 A 
ENDROOT
TORSDOF 0
ENDMDL
