MODEL 1
REMARK minimizedAffinity -0.355052978
REMARK minimizedRMSD -1
REMARK  0 active torsions:
REMARK  status: ('A' for Active; 'I' for Inactive)
ROOT
ATOM      1  C4' PXY d   1      -2.727   1.116  -0.064  0.00  0.00     0.077 C 
ATOM      2  C1' PXY d   1       0.582  -1.077   4.137  0.00  0.00     0.077 C 
ATOM      3  C1  PXY d   1      -0.296  -0.505   3.043  0.00  0.00    -0.082 A 
ATOM      4  C2  PXY d   1       0.147  -0.475   1.796  0.00  0.00     0.003 A 
ATOM      5  C3  PXY d   1      -0.622   0.068   0.799  0.00  0.00     0.003 A 
ATOM      6  C4  PXY d   1      -1.878   0.539   1.072  0.00  0.00    -0.082 A 
ATOM      7  C5  PXY d   1      -2.342   0.502   2.339  0.00  0.00     0.003 A 
ATOM      8  C6  PXY d   1      -1.530  -0.016   3.344  0.00  0.00     0.003 A 
ENDROOT
TORSDOF 0
ENDMDL
