MODEL 1
REMARK minimizedAffinity -4.76241684
REMARK minimizedRMSD -1
REMARK  0 active torsions:
REMARK  status: ('A' for Active; 'I' for Inactive)
ROOT
ATOM      1  C   UNL d   1      -1.903   1.873  -3.642  0.00  0.00     0.124 A 
ATOM      2  C1  UNL d   1      -1.970   1.266  -2.395  0.00  0.00     0.062 A 
ATOM      3  C2  UNL d   1      -1.133   1.688  -1.365  0.00  0.00     0.162 A 
ATOM      4  C3  UNL d   1      -0.222   2.722  -1.578  0.00  0.00    -0.034 A 
ATOM      5  C4  UNL d   1      -0.160   3.327  -2.835  0.00  0.00     0.162 A 
ATOM      6  C5  UNL d   1      -0.998   2.902  -3.860  0.00  0.00     0.062 A 
ATOM      7  F   UNL d   1      -0.931   3.489  -5.064  0.00  0.00    -0.097 F 
ATOM      8  F1  UNL d   1       0.705   4.324  -3.074  0.00  0.00    -0.096 F 
ATOM      9  I   UNL d   1       1.031   3.355  -0.041  0.00  0.00    -0.060 I 
ATOM     10  F2  UNL d   1      -1.220   1.084  -0.171  0.00  0.00    -0.096 F 
ATOM     11  F3  UNL d   1      -2.843   0.271  -2.181  0.00  0.00    -0.097 F 
ATOM     12  F4  UNL d   1      -2.708   1.464  -4.631  0.00  0.00    -0.092 F 
ENDROOT
TORSDOF 0
ENDMDL
