MODEL 1
REMARK minimizedAffinity -0.14486672
REMARK minimizedRMSD -1
REMARK  0 active torsions:
REMARK  status: ('A' for Active; 'I' for Inactive)
ROOT
ATOM      1  C   UNL d   1      -2.118   1.064  -2.792  0.00  0.00     0.124 A 
ATOM      2  C1  UNL d   1      -1.331   1.689  -1.836  0.00  0.00     0.062 A 
ATOM      3  C2  UNL d   1      -0.811   0.960  -0.771  0.00  0.00     0.162 A 
ATOM      4  C3  UNL d   1      -1.076  -0.405  -0.657  0.00  0.00    -0.034 A 
ATOM      5  C4  UNL d   1      -1.869  -1.027  -1.622  0.00  0.00     0.162 A 
ATOM      6  C5  UNL d   1      -2.387  -0.294  -2.685  0.00  0.00     0.062 A 
ATOM      7  F   UNL d   1      -3.147  -0.900  -3.608  0.00  0.00    -0.097 F 
ATOM      8  F1  UNL d   1      -2.144  -2.338  -1.543  0.00  0.00    -0.096 F 
ATOM      9  I   UNL d   1      -0.300  -1.500   0.934  0.00  0.00    -0.060 I 
ATOM     10  F2  UNL d   1      -0.053   1.590   0.139  0.00  0.00    -0.096 F 
ATOM     11  F3  UNL d   1      -1.071   3.001  -1.937  0.00  0.00    -0.097 F 
ATOM     12  F4  UNL d   1      -2.618   1.768  -3.816  0.00  0.00    -0.092 F 
ENDROOT
TORSDOF 0
ENDMDL
