MODEL 1
REMARK minimizedAffinity -0.738333285
REMARK minimizedRMSD -1
REMARK  0 active torsions:
REMARK  status: ('A' for Active; 'I' for Inactive)
ROOT
ATOM      1  C   UNL d   1      -2.737   1.486  -2.379  0.00  0.00     0.124 A 
ATOM      2  C1  UNL d   1      -1.812   0.654  -2.995  0.00  0.00     0.062 A 
ATOM      3  C2  UNL d   1      -0.807   0.050  -2.246  0.00  0.00     0.162 A 
ATOM      4  C3  UNL d   1      -0.722   0.273  -0.872  0.00  0.00    -0.034 A 
ATOM      5  C4  UNL d   1      -1.655   1.111  -0.260  0.00  0.00     0.162 A 
ATOM      6  C5  UNL d   1      -2.658   1.713  -1.013  0.00  0.00     0.062 A 
ATOM      7  F   UNL d   1      -3.551   2.516  -0.416  0.00  0.00    -0.097 F 
ATOM      8  F1  UNL d   1      -1.602   1.348   1.059  0.00  0.00    -0.096 F 
ATOM      9  I   UNL d   1       0.780  -0.629   0.251  0.00  0.00    -0.060 I 
ATOM     10  F2  UNL d   1       0.073  -0.749  -2.868  0.00  0.00    -0.096 F 
ATOM     11  F3  UNL d   1      -1.886   0.434  -4.316  0.00  0.00    -0.097 F 
ATOM     12  F4  UNL d   1      -3.703   2.067  -3.102  0.00  0.00    -0.092 F 
ENDROOT
TORSDOF 0
ENDMDL
