MODEL 1
REMARK minimizedAffinity -2.18363094
REMARK minimizedRMSD -1
REMARK  0 active torsions:
REMARK  status: ('A' for Active; 'I' for Inactive)
ROOT
ATOM      1  C   UNL d   1       0.011   2.751  -0.874  0.00  0.00     0.124 A 
ATOM      2  C1  UNL d   1       1.271   2.779  -0.292  0.00  0.00     0.062 A 
ATOM      3  C2  UNL d   1       1.851   1.605   0.179  0.00  0.00     0.162 A 
ATOM      4  C3  UNL d   1       1.173   0.392   0.069  0.00  0.00    -0.034 A 
ATOM      5  C4  UNL d   1      -0.094   0.371  -0.517  0.00  0.00     0.162 A 
ATOM      6  C5  UNL d   1      -0.670   1.547  -0.986  0.00  0.00     0.062 A 
ATOM      7  F   UNL d   1      -1.887   1.517  -1.548  0.00  0.00    -0.097 F 
ATOM      8  F1  UNL d   1      -0.774  -0.779  -0.639  0.00  0.00    -0.096 F 
ATOM      9  I   UNL d   1       2.038  -1.366   0.771  0.00  0.00    -0.060 I 
ATOM     10  F2  UNL d   1       3.070   1.663   0.736  0.00  0.00    -0.096 F 
ATOM     11  F3  UNL d   1       1.930   3.942  -0.182  0.00  0.00    -0.097 F 
ATOM     12  F4  UNL d   1      -0.546   3.882  -1.325  0.00  0.00    -0.092 F 
ENDROOT
TORSDOF 0
ENDMDL
