MODEL 1
REMARK minimizedAffinity 3.94561958
REMARK minimizedRMSD -1
REMARK  0 active torsions:
REMARK  status: ('A' for Active; 'I' for Inactive)
ROOT
ATOM      1  C   UNL d   1       1.523  -2.355   1.619  0.00  0.00     0.124 A 
ATOM      2  C1  UNL d   1       0.151  -2.492   1.464  0.00  0.00     0.062 A 
ATOM      3  C2  UNL d   1      -0.570  -1.547   0.740  0.00  0.00     0.162 A 
ATOM      4  C3  UNL d   1       0.081  -0.457   0.163  0.00  0.00    -0.034 A 
ATOM      5  C4  UNL d   1       1.462  -0.325   0.324  0.00  0.00     0.162 A 
ATOM      6  C5  UNL d   1       2.177  -1.272   1.049  0.00  0.00     0.062 A 
ATOM      7  F   UNL d   1       3.503  -1.138   1.198  0.00  0.00    -0.097 F 
ATOM      8  F1  UNL d   1       2.119   0.711  -0.218  0.00  0.00    -0.096 F 
ATOM      9  I   UNL d   1      -0.992   0.959  -0.922  0.00  0.00    -0.060 I 
ATOM     10  F2  UNL d   1      -1.895  -1.705   0.606  0.00  0.00    -0.096 F 
ATOM     11  F3  UNL d   1      -0.484  -3.537   2.015  0.00  0.00    -0.097 F 
ATOM     12  F4  UNL d   1       2.214  -3.265   2.318  0.00  0.00    -0.092 F 
ENDROOT
TORSDOF 0
ENDMDL
