MODEL 1
REMARK minimizedAffinity -1.88944554
REMARK minimizedRMSD -1
REMARK  0 active torsions:
REMARK  status: ('A' for Active; 'I' for Inactive)
ROOT
ATOM      1  C   UNL d   1      -1.601   0.963  -1.522  0.00  0.00     0.124 A 
ATOM      2  C1  UNL d   1      -0.604   0.338  -0.787  0.00  0.00     0.062 A 
ATOM      3  C2  UNL d   1       0.437   1.084  -0.242  0.00  0.00     0.162 A 
ATOM      4  C3  UNL d   1       0.486   2.466  -0.430  0.00  0.00    -0.034 A 
ATOM      5  C4  UNL d   1      -0.521   3.088  -1.171  0.00  0.00     0.162 A 
ATOM      6  C5  UNL d   1      -1.559   2.337  -1.713  0.00  0.00     0.062 A 
ATOM      7  F   UNL d   1      -2.522   2.943  -2.423  0.00  0.00    -0.097 F 
ATOM      8  F1  UNL d   1      -0.505   4.414  -1.370  0.00  0.00    -0.096 F 
ATOM      9  I   UNL d   1       2.040   3.585   0.383  0.00  0.00    -0.060 I 
ATOM     10  F2  UNL d   1       1.388   0.453   0.463  0.00  0.00    -0.096 F 
ATOM     11  F3  UNL d   1      -0.642  -0.990  -0.602  0.00  0.00    -0.097 F 
ATOM     12  F4  UNL d   1      -2.601   0.242  -2.046  0.00  0.00    -0.092 F 
ENDROOT
TORSDOF 0
ENDMDL
