MODEL 1
REMARK minimizedAffinity -2.59685636
REMARK minimizedRMSD -1
REMARK  0 active torsions:
REMARK  status: ('A' for Active; 'I' for Inactive)
ROOT
ATOM      1  C   UNL d   1       1.715   3.964   0.549  0.00  0.00     0.124 A 
ATOM      2  C1  UNL d   1       2.533   2.875   0.282  0.00  0.00     0.062 A 
ATOM      3  C2  UNL d   1       1.974   1.628   0.017  0.00  0.00     0.162 A 
ATOM      4  C3  UNL d   1       0.589   1.463   0.017  0.00  0.00    -0.034 A 
ATOM      5  C4  UNL d   1      -0.227   2.563   0.287  0.00  0.00     0.162 A 
ATOM      6  C5  UNL d   1       0.336   3.807   0.551  0.00  0.00     0.062 A 
ATOM      7  F   UNL d   1      -0.456   4.858   0.808  0.00  0.00    -0.097 F 
ATOM      8  F1  UNL d   1      -1.563   2.440   0.294  0.00  0.00    -0.096 F 
ATOM      9  I   UNL d   1      -0.250  -0.400  -0.379  0.00  0.00    -0.060 I 
ATOM     10  F2  UNL d   1       2.789   0.594  -0.237  0.00  0.00    -0.096 F 
ATOM     11  F3  UNL d   1       3.866   3.024   0.280  0.00  0.00    -0.097 F 
ATOM     12  F4  UNL d   1       2.255   5.163   0.804  0.00  0.00    -0.092 F 
ENDROOT
TORSDOF 0
ENDMDL
