MODEL 1
REMARK minimizedAffinity -4.08883381
REMARK minimizedRMSD -1
REMARK  0 active torsions:
REMARK  status: ('A' for Active; 'I' for Inactive)
ROOT
ATOM      1  C   UNL d   1       2.232   3.358   0.320  0.00  0.00     0.124 A 
ATOM      2  C1  UNL d   1       2.910   2.208  -0.058  0.00  0.00     0.062 A 
ATOM      3  C2  UNL d   1       2.206   1.042  -0.343  0.00  0.00     0.162 A 
ATOM      4  C3  UNL d   1       0.815   1.020  -0.254  0.00  0.00    -0.034 A 
ATOM      5  C4  UNL d   1       0.139   2.181   0.128  0.00  0.00     0.162 A 
ATOM      6  C5  UNL d   1       0.847   3.344   0.412  0.00  0.00     0.062 A 
ATOM      7  F   UNL d   1       0.190   4.454   0.777  0.00  0.00    -0.097 F 
ATOM      8  F1  UNL d   1      -1.199   2.195   0.224  0.00  0.00    -0.096 F 
ATOM      9  I   UNL d   1      -0.242  -0.722  -0.680  0.00  0.00    -0.060 I 
ATOM     10  F2  UNL d   1       2.888  -0.055  -0.706  0.00  0.00    -0.096 F 
ATOM     11  F3  UNL d   1       4.248   2.219  -0.147  0.00  0.00    -0.097 F 
ATOM     12  F4  UNL d   1       2.912   4.479   0.595  0.00  0.00    -0.092 F 
ENDROOT
TORSDOF 0
ENDMDL
