MODEL 1
REMARK minimizedAffinity 2.58560252
REMARK minimizedRMSD -1
REMARK  0 active torsions:
REMARK  status: ('A' for Active; 'I' for Inactive)
ROOT
ATOM      1  C   UNL d   1      -1.308  -1.425   1.774  0.00  0.00     0.124 A 
ATOM      2  C1  UNL d   1      -0.267  -2.317   1.556  0.00  0.00     0.062 A 
ATOM      3  C2  UNL d   1       0.842  -1.930   0.810  0.00  0.00     0.162 A 
ATOM      4  C3  UNL d   1       0.918  -0.643   0.277  0.00  0.00    -0.034 A 
ATOM      5  C4  UNL d   1      -0.133   0.248   0.500  0.00  0.00     0.162 A 
ATOM      6  C5  UNL d   1      -1.240  -0.143   1.246  0.00  0.00     0.062 A 
ATOM      7  F   UNL d   1      -2.244   0.720   1.455  0.00  0.00    -0.097 F 
ATOM      8  F1  UNL d   1      -0.092   1.493   0.002  0.00  0.00    -0.096 F 
ATOM      9  I   UNL d   1       2.576  -0.061  -0.839  0.00  0.00    -0.060 I 
ATOM     10  F2  UNL d   1       1.833  -2.813   0.616  0.00  0.00    -0.096 F 
ATOM     11  F3  UNL d   1      -0.331  -3.556   2.064  0.00  0.00    -0.097 F 
ATOM     12  F4  UNL d   1      -2.375  -1.800   2.491  0.00  0.00    -0.092 F 
ENDROOT
TORSDOF 0
ENDMDL
