MODEL 1
REMARK minimizedAffinity -0.367766738
REMARK minimizedRMSD -1
REMARK  0 active torsions:
REMARK  status: ('A' for Active; 'I' for Inactive)
ROOT
ATOM      1  C   UNL d   1       3.206   3.110  -0.388  0.00  0.00     0.124 A 
ATOM      2  C1  UNL d   1       3.127   1.888  -1.041  0.00  0.00     0.062 A 
ATOM      3  C2  UNL d   1       1.975   1.113  -0.937  0.00  0.00     0.162 A 
ATOM      4  C3  UNL d   1       0.893   1.558  -0.178  0.00  0.00    -0.034 A 
ATOM      5  C4  UNL d   1       0.981   2.788   0.476  0.00  0.00     0.162 A 
ATOM      6  C5  UNL d   1       2.134   3.559   0.369  0.00  0.00     0.062 A 
ATOM      7  F   UNL d   1       2.209   4.740   1.000  0.00  0.00    -0.097 F 
ATOM      8  F1  UNL d   1      -0.041   3.247   1.214  0.00  0.00    -0.096 F 
ATOM      9  I   UNL d   1      -0.830   0.402  -0.019  0.00  0.00    -0.060 I 
ATOM     10  F2  UNL d   1       1.926  -0.065  -1.578  0.00  0.00    -0.096 F 
ATOM     11  F3  UNL d   1       4.162   1.451  -1.773  0.00  0.00    -0.097 F 
ATOM     12  F4  UNL d   1       4.316   3.853  -0.489  0.00  0.00    -0.092 F 
ENDROOT
TORSDOF 0
ENDMDL
