MODEL 1
REMARK minimizedAffinity -2.65069699
REMARK minimizedRMSD -1
REMARK  0 active torsions:
REMARK  status: ('A' for Active; 'I' for Inactive)
ROOT
ATOM      1  C   UNL d   1       2.981   3.961  -0.049  0.00  0.00     0.124 A 
ATOM      2  C1  UNL d   1       3.476   2.805  -0.636  0.00  0.00     0.062 A 
ATOM      3  C2  UNL d   1       2.716   1.639  -0.636  0.00  0.00     0.162 A 
ATOM      4  C3  UNL d   1       1.452   1.623  -0.046  0.00  0.00    -0.034 A 
ATOM      5  C4  UNL d   1       0.961   2.789   0.543  0.00  0.00     0.162 A 
ATOM      6  C5  UNL d   1       1.724   3.952   0.540  0.00  0.00     0.062 A 
ATOM      7  F   UNL d   1       1.244   5.068   1.108  0.00  0.00    -0.097 F 
ATOM      8  F1  UNL d   1      -0.251   2.809   1.119  0.00  0.00    -0.096 F 
ATOM      9  I   UNL d   1       0.312  -0.119  -0.044  0.00  0.00    -0.060 I 
ATOM     10  F2  UNL d   1       3.219   0.537  -1.211  0.00  0.00    -0.096 F 
ATOM     11  F3  UNL d   1       4.690   2.811  -1.205  0.00  0.00    -0.097 F 
ATOM     12  F4  UNL d   1       3.714   5.082  -0.050  0.00  0.00    -0.092 F 
ENDROOT
TORSDOF 0
ENDMDL
