MODEL 1
REMARK minimizedAffinity -1.86544693
REMARK minimizedRMSD -1
REMARK  0 active torsions:
REMARK  status: ('A' for Active; 'I' for Inactive)
ROOT
ATOM      1  C   UNL d   1       1.797  -0.907   0.407  0.00  0.00     0.124 A 
ATOM      2  C1  UNL d   1       0.664  -1.628   0.055  0.00  0.00     0.062 A 
ATOM      3  C2  UNL d   1      -0.470  -0.967  -0.408  0.00  0.00     0.162 A 
ATOM      4  C3  UNL d   1      -0.477   0.423  -0.522  0.00  0.00    -0.034 A 
ATOM      5  C4  UNL d   1       0.666   1.141  -0.165  0.00  0.00     0.162 A 
ATOM      6  C5  UNL d   1       1.797   0.476   0.297  0.00  0.00     0.062 A 
ATOM      7  F   UNL d   1       2.890   1.174   0.637  0.00  0.00    -0.097 F 
ATOM      8  F1  UNL d   1       0.693   2.479  -0.263  0.00  0.00    -0.096 F 
ATOM      9  I   UNL d   1      -2.171   1.415  -1.214  0.00  0.00    -0.060 I 
ATOM     10  F2  UNL d   1      -1.550  -1.689  -0.741  0.00  0.00    -0.096 F 
ATOM     11  F3  UNL d   1       0.662  -2.965   0.162  0.00  0.00    -0.097 F 
ATOM     12  F4  UNL d   1       2.887  -1.546   0.853  0.00  0.00    -0.092 F 
ENDROOT
TORSDOF 0
ENDMDL
