MODEL 1
REMARK minimizedAffinity 9.56009388
REMARK minimizedRMSD -1
REMARK  1 active torsions:
REMARK  status: ('A' for Active; 'I' for Inactive)
REMARK    1  A    between atoms: C1_2  and  C2_3 
ROOT
ATOM      1  C2  UNL d   1       1.776  -2.617   1.595  0.00  0.00    -0.081 A 
ATOM      2  C3  UNL d   1       1.129  -3.548   0.773  0.00  0.00     0.006 A 
ATOM      3  C4  UNL d   1       1.850  -4.585   0.175  0.00  0.00     0.002 A 
ATOM      4  C5  UNL d   1       3.226  -4.712   0.395  0.00  0.00    -0.080 A 
ATOM      5  C6  UNL d   1       4.005  -5.838  -0.217  0.00  0.00     0.076 C 
ATOM      6  C7  UNL d   1       3.874  -3.771   1.202  0.00  0.00     0.002 A 
ATOM      7  C8  UNL d   1       3.155  -2.734   1.799  0.00  0.00     0.006 A 
ENDROOT
BRANCH   1   8
ATOM      8  C1  UNL d   1       0.991  -1.536   2.293  0.00  0.00     0.054 C 
ATOM      9  C   UNL d   1      -0.508  -1.776   2.174  0.00  0.00     0.018 C 
ENDBRANCH   1   8
TORSDOF 1
ENDMDL
