MODEL 1
REMARK minimizedAffinity 9.98178768
REMARK minimizedRMSD -1
REMARK  1 active torsions:
REMARK  status: ('A' for Active; 'I' for Inactive)
REMARK    1  A    between atoms: C1_2  and  C2_3 
ROOT
ATOM      1  C2  UNL d   1       4.119   4.637   5.057  0.00  0.00    -0.081 A 
ATOM      2  C3  UNL d   1       4.870   4.216   3.953  0.00  0.00     0.006 A 
ATOM      3  C4  UNL d   1       4.489   3.085   3.227  0.00  0.00     0.002 A 
ATOM      4  C5  UNL d   1       3.347   2.362   3.588  0.00  0.00    -0.080 A 
ATOM      5  C6  UNL d   1       2.910   1.164   2.798  0.00  0.00     0.076 C 
ATOM      6  C7  UNL d   1       2.606   2.772   4.701  0.00  0.00     0.002 A 
ATOM      7  C8  UNL d   1       2.988   3.902   5.428  0.00  0.00     0.006 A 
ENDROOT
BRANCH   1   8
ATOM      8  C1  UNL d   1       4.491   5.893   5.803  0.00  0.00     0.054 C 
ATOM      9  C   UNL d   1       5.997   5.997   5.995  0.00  0.00     0.018 C 
ENDBRANCH   1   8
TORSDOF 1
ENDMDL
