MODEL 1
REMARK minimizedAffinity 2.23633718
REMARK minimizedRMSD -1
REMARK  1 active torsions:
REMARK  status: ('A' for Active; 'I' for Inactive)
REMARK    1  A    between atoms: C1_2  and  C2_3 
ROOT
ATOM      1  C2  UNL d   1       1.157  -1.828   1.276  0.00  0.00    -0.081 A 
ATOM      2  C3  UNL d   1      -0.079  -1.527   0.692  0.00  0.00     0.006 A 
ATOM      3  C4  UNL d   1      -1.035  -0.791   1.397  0.00  0.00     0.002 A 
ATOM      4  C5  UNL d   1      -0.768  -0.338   2.693  0.00  0.00    -0.080 A 
ATOM      5  C6  UNL d   1      -1.773   0.478   3.450  0.00  0.00     0.076 C 
ATOM      6  C7  UNL d   1       0.461  -0.654   3.284  0.00  0.00     0.002 A 
ATOM      7  C8  UNL d   1       1.417  -1.390   2.580  0.00  0.00     0.006 A 
ENDROOT
BRANCH   1   8
ATOM      8  C1  UNL d   1       2.215  -2.565   0.495  0.00  0.00     0.054 C 
ATOM      9  C   UNL d   1       2.317  -4.018   0.937  0.00  0.00     0.018 C 
ENDBRANCH   1   8
TORSDOF 1
ENDMDL
