MODEL 1
REMARK minimizedAffinity 4.64563894
REMARK minimizedRMSD -1
REMARK  1 active torsions:
REMARK  status: ('A' for Active; 'I' for Inactive)
REMARK    1  A    between atoms: C1_2  and  C2_3 
ROOT
ATOM      1  C2  UNL d   1      -3.824   0.732  -2.683  0.00  0.00    -0.081 A 
ATOM      2  C3  UNL d   1      -3.228  -0.461  -2.258  0.00  0.00     0.006 A 
ATOM      3  C4  UNL d   1      -3.607  -1.682  -2.821  0.00  0.00     0.002 A 
ATOM      4  C5  UNL d   1      -4.583  -1.729  -3.823  0.00  0.00    -0.080 A 
ATOM      5  C6  UNL d   1      -4.977  -3.030  -4.457  0.00  0.00     0.076 C 
ATOM      6  C7  UNL d   1      -5.191  -0.539  -4.236  0.00  0.00     0.002 A 
ATOM      7  C8  UNL d   1      -4.813   0.682  -3.673  0.00  0.00     0.006 A 
ENDROOT
BRANCH   1   8
ATOM      8  C1  UNL d   1      -3.371   2.057  -2.124  0.00  0.00     0.054 C 
ATOM      9  C   UNL d   1      -2.698   2.907  -3.192  0.00  0.00     0.018 C 
ENDBRANCH   1   8
TORSDOF 1
ENDMDL
