MODEL 1
REMARK minimizedAffinity 4.88643122
REMARK minimizedRMSD -1
REMARK  1 active torsions:
REMARK  status: ('A' for Active; 'I' for Inactive)
REMARK    1  A    between atoms: C1_2  and  C2_3 
ROOT
ATOM      1  C2  UNL d   1       2.140   4.836   3.940  0.00  0.00    -0.081 A 
ATOM      2  C3  UNL d   1       3.314   4.451   3.281  0.00  0.00     0.006 A 
ATOM      3  C4  UNL d   1       4.562   4.833   3.778  0.00  0.00     0.002 A 
ATOM      4  C5  UNL d   1       4.658   5.598   4.946  0.00  0.00    -0.080 A 
ATOM      5  C6  UNL d   1       5.993   5.988   5.507  0.00  0.00     0.076 C 
ATOM      6  C7  UNL d   1       3.484   5.997   5.594  0.00  0.00     0.002 A 
ATOM      7  C8  UNL d   1       2.236   5.616   5.097  0.00  0.00     0.006 A 
ENDROOT
BRANCH   1   8
ATOM      8  C1  UNL d   1       0.795   4.372   3.442  0.00  0.00     0.054 C 
ATOM      9  C   UNL d   1       0.803   2.882   3.131  0.00  0.00     0.018 C 
ENDBRANCH   1   8
TORSDOF 1
ENDMDL
