MODEL 1
REMARK minimizedAffinity -0.192848548
REMARK minimizedRMSD -1
REMARK  0 active torsions:
REMARK  status: ('A' for Active; 'I' for Inactive)
ROOT
ATOM      1  C2' OXE d   1      -2.887   3.700   3.494  0.00  0.00     0.078 C 
ATOM      2  C1' OXE d   1      -0.508   2.234   3.758  0.00  0.00     0.078 C 
ATOM      3  C1  OXE d   1      -0.755   2.945   2.451  0.00  0.00    -0.078 A 
ATOM      4  C2  OXE d   1      -1.943   3.621   2.314  0.00  0.00    -0.078 A 
ATOM      5  C3  OXE d   1      -2.198   4.340   1.149  0.00  0.00     0.003 A 
ATOM      6  C4  OXE d   1      -1.324   4.254   0.058  0.00  0.00    -0.002 A 
ATOM      7  C5  OXE d   1      -0.127   3.538   0.162  0.00  0.00    -0.002 A 
ATOM      8  C6  OXE d   1       0.192   2.914   1.364  0.00  0.00     0.003 A 
ENDROOT
TORSDOF 0
ENDMDL
