MODEL 1
REMARK minimizedAffinity 2.42940497
REMARK minimizedRMSD -1
REMARK  0 active torsions:
REMARK  status: ('A' for Active; 'I' for Inactive)
ROOT
ATOM      1  C2' OXE d   1      -1.371   2.676   2.376  0.00  0.00     0.078 C 
ATOM      2  C1' OXE d   1       1.412   2.782   2.024  0.00  0.00     0.078 C 
ATOM      3  C1  OXE d   1       0.542   3.359   0.935  0.00  0.00    -0.078 A 
ATOM      4  C2  OXE d   1      -0.819   3.261   1.094  0.00  0.00    -0.078 A 
ATOM      5  C3  OXE d   1      -1.666   3.826   0.146  0.00  0.00     0.003 A 
ATOM      6  C4  OXE d   1      -1.148   4.357  -1.042  0.00  0.00    -0.002 A 
ATOM      7  C5  OXE d   1       0.235   4.430  -1.242  0.00  0.00    -0.002 A 
ATOM      8  C6  OXE d   1       1.093   3.976  -0.247  0.00  0.00     0.003 A 
ENDROOT
TORSDOF 0
ENDMDL
