MODEL 1
REMARK minimizedAffinity -1.70452988
REMARK minimizedRMSD -1
REMARK  0 active torsions:
REMARK  status: ('A' for Active; 'I' for Inactive)
ROOT
ATOM      1  C2' OXE d   1      -3.751   4.114  -6.000  0.00  0.00     0.078 C 
ATOM      2  C1' OXE d   1      -6.000   5.504  -5.057  0.00  0.00     0.078 C 
ATOM      3  C1  OXE d   1      -5.439   4.404  -4.191  0.00  0.00    -0.078 A 
ATOM      4  C2  OXE d   1      -4.367   3.698  -4.681  0.00  0.00    -0.078 A 
ATOM      5  C3  OXE d   1      -3.776   2.709  -3.899  0.00  0.00     0.003 A 
ATOM      6  C4  OXE d   1      -4.358   2.324  -2.685  0.00  0.00    -0.002 A 
ATOM      7  C5  OXE d   1      -5.474   3.004  -2.186  0.00  0.00    -0.002 A 
ATOM      8  C6  OXE d   1      -6.000   4.072  -2.905  0.00  0.00     0.003 A 
ENDROOT
TORSDOF 0
ENDMDL
