MODEL 1
REMARK minimizedAffinity -1.76412094
REMARK minimizedRMSD -1
REMARK  0 active torsions:
REMARK  status: ('A' for Active; 'I' for Inactive)
ROOT
ATOM      1  C2' OXE d   1      -5.252   3.389  -5.947  0.00  0.00     0.078 C 
ATOM      2  C1' OXE d   1      -5.993   5.741  -4.605  0.00  0.00     0.078 C 
ATOM      3  C1  OXE d   1      -5.482   4.589  -3.776  0.00  0.00    -0.078 A 
ATOM      4  C2  OXE d   1      -5.166   3.426  -4.436  0.00  0.00    -0.078 A 
ATOM      5  C3  OXE d   1      -4.639   2.352  -3.725  0.00  0.00     0.003 A 
ATOM      6  C4  OXE d   1      -4.572   2.391  -2.327  0.00  0.00    -0.002 A 
ATOM      7  C5  OXE d   1      -4.927   3.552  -1.632  0.00  0.00    -0.002 A 
ATOM      8  C6  OXE d   1      -5.342   4.672  -2.343  0.00  0.00     0.003 A 
ENDROOT
TORSDOF 0
ENDMDL
