MODEL 1
REMARK minimizedAffinity -1.12450707
REMARK minimizedRMSD -1
REMARK  0 active torsions:
REMARK  status: ('A' for Active; 'I' for Inactive)
ROOT
ATOM      1  C2' OXE d   1      -5.999   4.090  -5.999  0.00  0.00     0.078 C 
ATOM      2  C1' OXE d   1      -5.439   5.949  -3.971  0.00  0.00     0.078 C 
ATOM      3  C1  OXE d   1      -5.586   4.500  -3.577  0.00  0.00    -0.078 A 
ATOM      4  C2  OXE d   1      -5.906   3.605  -4.569  0.00  0.00    -0.078 A 
ATOM      5  C3  OXE d   1      -6.000   2.249  -4.269  0.00  0.00     0.003 A 
ATOM      6  C4  OXE d   1      -5.923   1.809  -2.942  0.00  0.00    -0.002 A 
ATOM      7  C5  OXE d   1      -5.637   2.710  -1.911  0.00  0.00    -0.002 A 
ATOM      8  C6  OXE d   1      -5.424   4.050  -2.217  0.00  0.00     0.003 A 
ENDROOT
TORSDOF 0
ENDMDL
