MODEL 1
REMARK minimizedAffinity -4.19880104
REMARK minimizedRMSD -1
REMARK  0 active torsions:
REMARK  status: ('A' for Active; 'I' for Inactive)
ROOT
ATOM      1  C2' OXE d   1      -4.127   2.500  -1.873  0.00  0.00     0.078 C 
ATOM      2  C1' OXE d   1      -6.000   4.556  -1.497  0.00  0.00     0.078 C 
ATOM      3  C1  OXE d   1      -5.516   4.294  -2.901  0.00  0.00    -0.078 A 
ATOM      4  C2  OXE d   1      -4.564   3.317  -3.070  0.00  0.00    -0.078 A 
ATOM      5  C3  OXE d   1      -4.124   2.997  -4.351  0.00  0.00     0.003 A 
ATOM      6  C4  OXE d   1      -4.526   3.765  -5.451  0.00  0.00    -0.002 A 
ATOM      7  C5  OXE d   1      -5.464   4.790  -5.296  0.00  0.00    -0.002 A 
ATOM      8  C6  OXE d   1      -6.000   5.039  -4.037  0.00  0.00     0.003 A 
ENDROOT
TORSDOF 0
ENDMDL
