MODEL 1
REMARK minimizedAffinity 10.4487724
REMARK minimizedRMSD -1
REMARK  0 active torsions:
REMARK  status: ('A' for Active; 'I' for Inactive)
ROOT
ATOM      1  C2' OXE d   1      -1.386   2.112   2.496  0.00  0.00     0.078 C 
ATOM      2  C1' OXE d   1       0.234   2.321   0.214  0.00  0.00     0.078 C 
ATOM      3  C1  OXE d   1      -0.698   3.466   0.522  0.00  0.00    -0.078 A 
ATOM      4  C2  OXE d   1      -1.521   3.335   1.614  0.00  0.00    -0.078 A 
ATOM      5  C3  OXE d   1      -2.360   4.385   1.974  0.00  0.00     0.003 A 
ATOM      6  C4  OXE d   1      -2.486   5.508   1.148  0.00  0.00    -0.002 A 
ATOM      7  C5  OXE d   1      -1.686   5.644   0.008  0.00  0.00    -0.002 A 
ATOM      8  C6  OXE d   1      -0.758   4.653  -0.295  0.00  0.00     0.003 A 
ENDROOT
TORSDOF 0
ENDMDL
