MODEL 1
REMARK minimizedAffinity -0.891502202
REMARK minimizedRMSD -1
REMARK  0 active torsions:
REMARK  status: ('A' for Active; 'I' for Inactive)
ROOT
ATOM      1  C2' OXE d   1       0.237  -4.293  -1.337  0.00  0.00     0.078 C 
ATOM      2  C1' OXE d   1      -0.799  -3.320  -3.758  0.00  0.00     0.078 C 
ATOM      3  C1  OXE d   1      -0.195  -2.324  -2.801  0.00  0.00    -0.078 A 
ATOM      4  C2  OXE d   1       0.267  -2.802  -1.598  0.00  0.00    -0.078 A 
ATOM      5  C3  OXE d   1       0.884  -1.934  -0.702  0.00  0.00     0.003 A 
ATOM      6  C4  OXE d   1       0.899  -0.555  -0.947  0.00  0.00    -0.002 A 
ATOM      7  C5  OXE d   1       0.398  -0.042  -2.148  0.00  0.00    -0.002 A 
ATOM      8  C6  OXE d   1      -0.113  -0.916  -3.102  0.00  0.00     0.003 A 
ENDROOT
TORSDOF 0
ENDMDL
