MODEL 1
REMARK minimizedAffinity -2.00104928
REMARK minimizedRMSD -1
REMARK  0 active torsions:
REMARK  status: ('A' for Active; 'I' for Inactive)
ROOT
ATOM      1  C2' OXE d   1      -3.377   4.468  -4.232  0.00  0.00     0.078 C 
ATOM      2  C1' OXE d   1      -2.271   2.588  -5.999  0.00  0.00     0.078 C 
ATOM      3  C1  OXE d   1      -3.590   2.252  -5.350  0.00  0.00    -0.078 A 
ATOM      4  C2  OXE d   1      -4.101   3.157  -4.451  0.00  0.00    -0.078 A 
ATOM      5  C3  OXE d   1      -5.342   2.921  -3.866  0.00  0.00     0.003 A 
ATOM      6  C4  OXE d   1      -6.000   1.702  -4.066  0.00  0.00    -0.002 A 
ATOM      7  C5  OXE d   1      -5.477   0.749  -4.947  0.00  0.00    -0.002 A 
ATOM      8  C6  OXE d   1      -4.297   1.026  -5.629  0.00  0.00     0.003 A 
ENDROOT
TORSDOF 0
ENDMDL
