MODEL 1
REMARK minimizedAffinity -3.87983012
REMARK minimizedRMSD -1
REMARK  0 active torsions:
REMARK  status: ('A' for Active; 'I' for Inactive)
ROOT
ATOM      1  C2' OXE d   1      -5.957   1.498  -2.953  0.00  0.00     0.078 C 
ATOM      2  C1' OXE d   1      -3.929   1.052  -4.843  0.00  0.00     0.078 C 
ATOM      3  C1  OXE d   1      -4.468   2.454  -4.707  0.00  0.00    -0.078 A 
ATOM      4  C2  OXE d   1      -5.492   2.654  -3.813  0.00  0.00    -0.078 A 
ATOM      5  C3  OXE d   1      -5.988   3.938  -3.609  0.00  0.00     0.003 A 
ATOM      6  C4  OXE d   1      -5.560   5.000  -4.416  0.00  0.00    -0.002 A 
ATOM      7  C5  OXE d   1      -4.546   4.810  -5.360  0.00  0.00    -0.002 A 
ATOM      8  C6  OXE d   1      -3.961   3.555  -5.488  0.00  0.00     0.003 A 
ENDROOT
TORSDOF 0
ENDMDL
