MODEL 1
REMARK minimizedAffinity -4.10046673
REMARK minimizedRMSD -1
REMARK  0 active torsions:
REMARK  status: ('A' for Active; 'I' for Inactive)
ROOT
ATOM      1  C2' OXE d   1      -5.934   0.715  -5.203  0.00  0.00     0.078 C 
ATOM      2  C1' OXE d   1      -4.652   3.083  -5.997  0.00  0.00     0.078 C 
ATOM      3  C1  OXE d   1      -5.018   2.935  -4.541  0.00  0.00    -0.078 A 
ATOM      4  C2  OXE d   1      -5.687   1.793  -4.170  0.00  0.00    -0.078 A 
ATOM      5  C3  OXE d   1      -6.000   1.582  -2.830  0.00  0.00     0.003 A 
ATOM      6  C4  OXE d   1      -5.776   2.588  -1.883  0.00  0.00    -0.002 A 
ATOM      7  C5  OXE d   1      -5.132   3.775  -2.247  0.00  0.00    -0.002 A 
ATOM      8  C6  OXE d   1      -4.709   3.946  -3.561  0.00  0.00     0.003 A 
ENDROOT
TORSDOF 0
ENDMDL
