MODEL 1
REMARK minimizedAffinity -3.51437569
REMARK minimizedRMSD -1
REMARK  0 active torsions:
REMARK  status: ('A' for Active; 'I' for Inactive)
ROOT
ATOM      1  C   UNL d   1       0.248   0.175   0.063  0.00  0.00     0.172 C 
ATOM      2  N   UNL d   1       0.070  -1.258   0.086  0.00  0.00    -0.070 N 
ATOM      3  C1  UNL d   1       0.095  -2.084  -1.006  0.00  0.00    -0.004 A 
ATOM      4  C2  UNL d   1      -0.112  -3.373  -0.566  0.00  0.00    -0.047 A 
ATOM      5  C3  UNL d   1      -0.268  -3.321   0.840  0.00  0.00    -0.047 A 
ATOM      6  C4  UNL d   1      -0.151  -2.000   1.217  0.00  0.00    -0.004 A 
ENDROOT
TORSDOF 0
ENDMDL
