MODEL 1
REMARK minimizedAffinity -3.34470963
REMARK minimizedRMSD -1
REMARK  0 active torsions:
REMARK  status: ('A' for Active; 'I' for Inactive)
ROOT
ATOM      1  C   UNL d   1       0.313   1.274  -0.113  0.00  0.00     0.172 C 
ATOM      2  N   UNL d   1       0.093  -0.127   0.160  0.00  0.00    -0.070 N 
ATOM      3  C1  UNL d   1       0.684  -1.171  -0.499  0.00  0.00    -0.004 A 
ATOM      4  C2  UNL d   1       0.214  -2.341   0.056  0.00  0.00    -0.047 A 
ATOM      5  C3  UNL d   1      -0.693  -1.988   1.084  0.00  0.00    -0.047 A 
ATOM      6  C4  UNL d   1      -0.749  -0.611   1.126  0.00  0.00    -0.004 A 
ENDROOT
TORSDOF 0
ENDMDL
