MODEL 1
REMARK minimizedAffinity -2.93294334
REMARK minimizedRMSD -1
REMARK  0 active torsions:
REMARK  status: ('A' for Active; 'I' for Inactive)
ROOT
ATOM      1  C   UNL d   1       0.544  -3.132   0.357  0.00  0.00     0.172 C 
ATOM      2  N   UNL d   1       0.364  -1.726   0.082  0.00  0.00    -0.070 N 
ATOM      3  C1  UNL d   1      -0.372  -0.852   0.837  0.00  0.00    -0.004 A 
ATOM      4  C2  UNL d   1      -0.294   0.389   0.243  0.00  0.00    -0.047 A 
ATOM      5  C3  UNL d   1       0.518   0.257  -0.908  0.00  0.00    -0.047 A 
ATOM      6  C4  UNL d   1       0.912  -1.063  -0.984  0.00  0.00    -0.004 A 
ENDROOT
TORSDOF 0
ENDMDL
