MODEL 1
REMARK minimizedAffinity -2.91307211
REMARK minimizedRMSD -1
REMARK  0 active torsions:
REMARK  status: ('A' for Active; 'I' for Inactive)
ROOT
ATOM      1  C   UNL d   1       0.117  -0.906  -1.793  0.00  0.00     0.172 C 
ATOM      2  N   UNL d   1      -0.375  -1.294  -0.492  0.00  0.00    -0.070 N 
ATOM      3  C1  UNL d   1      -0.549  -2.579  -0.054  0.00  0.00    -0.004 A 
ATOM      4  C2  UNL d   1      -1.033  -2.525   1.235  0.00  0.00    -0.047 A 
ATOM      5  C3  UNL d   1      -1.155  -1.159   1.584  0.00  0.00    -0.047 A 
ATOM      6  C4  UNL d   1      -0.741  -0.418   0.497  0.00  0.00    -0.004 A 
ENDROOT
TORSDOF 0
ENDMDL
