MODEL 1
REMARK minimizedAffinity -3.06642199
REMARK minimizedRMSD -1
REMARK  0 active torsions:
REMARK  status: ('A' for Active; 'I' for Inactive)
ROOT
ATOM      1  C   UNL d   1       0.172   1.395  -0.458  0.00  0.00     0.172 C 
ATOM      2  N   UNL d   1       0.102  -0.001  -0.092  0.00  0.00    -0.070 N 
ATOM      3  C1  UNL d   1       0.927  -0.990  -0.555  0.00  0.00    -0.004 A 
ATOM      4  C2  UNL d   1       0.536  -2.175   0.030  0.00  0.00    -0.047 A 
ATOM      5  C3  UNL d   1      -0.563  -1.888   0.874  0.00  0.00    -0.047 A 
ATOM      6  C4  UNL d   1      -0.811  -0.534   0.779  0.00  0.00    -0.004 A 
ENDROOT
TORSDOF 0
ENDMDL
