MODEL 1
REMARK minimizedAffinity -3.88268042
REMARK minimizedRMSD -1
REMARK  0 active torsions:
REMARK  status: ('A' for Active; 'I' for Inactive)
ROOT
ATOM      1  C   UNL d   1       0.004  -2.886   0.767  0.00  0.00     0.172 C 
ATOM      2  N   UNL d   1      -0.031  -1.492   0.393  0.00  0.00    -0.070 N 
ATOM      3  C1  UNL d   1       0.595  -0.940  -0.692  0.00  0.00    -0.004 A 
ATOM      4  C2  UNL d   1       0.317   0.410  -0.699  0.00  0.00    -0.047 A 
ATOM      5  C3  UNL d   1      -0.503   0.678   0.422  0.00  0.00    -0.047 A 
ATOM      6  C4  UNL d   1      -0.703  -0.516   1.081  0.00  0.00    -0.004 A 
ENDROOT
TORSDOF 0
ENDMDL
