MODEL 1
REMARK minimizedAffinity -0.376019299
REMARK minimizedRMSD -1
REMARK  0 active torsions:
REMARK  status: ('A' for Active; 'I' for Inactive)
ROOT
ATOM      1  C   UNL d   1      -0.738  -2.463   0.777  0.00  0.00     0.172 C 
ATOM      2  N   UNL d   1      -0.606  -1.087   0.358  0.00  0.00    -0.070 N 
ATOM      3  C1  UNL d   1      -1.163  -0.004   0.984  0.00  0.00    -0.004 A 
ATOM      4  C2  UNL d   1      -0.803   1.123   0.278  0.00  0.00    -0.047 A 
ATOM      5  C3  UNL d   1      -0.003   0.703  -0.811  0.00  0.00    -0.047 A 
ATOM      6  C4  UNL d   1       0.103  -0.669  -0.737  0.00  0.00    -0.004 A 
ENDROOT
TORSDOF 0
ENDMDL
