MODEL 1
REMARK minimizedAffinity -2.89887428
REMARK minimizedRMSD -1
REMARK  0 active torsions:
REMARK  status: ('A' for Active; 'I' for Inactive)
ROOT
ATOM      1  C   UNL d   1      -0.084   0.866  -0.210  0.00  0.00     0.172 C 
ATOM      2  N   UNL d   1      -0.193  -0.495   0.261  0.00  0.00    -0.070 N 
ATOM      3  C1  UNL d   1      -0.997  -0.924   1.283  0.00  0.00    -0.004 A 
ATOM      4  C2  UNL d   1      -0.815  -2.283   1.421  0.00  0.00    -0.047 A 
ATOM      5  C3  UNL d   1       0.132  -2.684   0.449  0.00  0.00    -0.047 A 
ATOM      6  C4  UNL d   1       0.500  -1.557  -0.255  0.00  0.00    -0.004 A 
ENDROOT
TORSDOF 0
ENDMDL
