MODEL 1
REMARK minimizedAffinity -3.68996739
REMARK minimizedRMSD -1
REMARK  0 active torsions:
REMARK  status: ('A' for Active; 'I' for Inactive)
ROOT
ATOM      1  C   UNL d   1      -0.235   0.307   0.316  0.00  0.00     0.172 C 
ATOM      2  N   UNL d   1       0.002  -1.105   0.132  0.00  0.00    -0.070 N 
ATOM      3  C1  UNL d   1       0.191  -2.020   1.133  0.00  0.00    -0.004 A 
ATOM      4  C2  UNL d   1       0.384  -3.253   0.547  0.00  0.00    -0.047 A 
ATOM      5  C3  UNL d   1       0.309  -3.072  -0.855  0.00  0.00    -0.047 A 
ATOM      6  C4  UNL d   1       0.073  -1.733  -1.084  0.00  0.00    -0.004 A 
ENDROOT
TORSDOF 0
ENDMDL
