MODEL 1
REMARK minimizedAffinity -3.94480777
REMARK minimizedRMSD -1
REMARK  0 active torsions:
REMARK  status: ('A' for Active; 'I' for Inactive)
ROOT
ATOM      1  C   UNL d   1       0.082   0.638   0.002  0.00  0.00     0.172 C 
ATOM      2  N   UNL d   1       0.058  -0.799  -0.135  0.00  0.00    -0.070 N 
ATOM      3  C1  UNL d   1      -0.258  -1.690   0.856  0.00  0.00    -0.004 A 
ATOM      4  C2  UNL d   1      -0.165  -2.960   0.327  0.00  0.00    -0.047 A 
ATOM      5  C3  UNL d   1       0.222  -2.827  -1.028  0.00  0.00    -0.047 A 
ATOM      6  C4  UNL d   1       0.353  -1.479  -1.287  0.00  0.00    -0.004 A 
ENDROOT
TORSDOF 0
ENDMDL
