MODEL 1
REMARK minimizedAffinity -2.60615945
REMARK minimizedRMSD -1
REMARK  0 active torsions:
REMARK  status: ('A' for Active; 'I' for Inactive)
ROOT
ATOM      1  C   UNL d   1      -0.684  -3.302  -1.025  0.00  0.00     0.172 C 
ATOM      2  N   UNL d   1      -0.560  -2.116  -0.211  0.00  0.00    -0.070 N 
ATOM      3  C1  UNL d   1      -0.970  -1.995   1.090  0.00  0.00    -0.004 A 
ATOM      4  C2  UNL d   1      -0.676  -0.715   1.507  0.00  0.00    -0.047 A 
ATOM      5  C3  UNL d   1      -0.069  -0.043   0.419  0.00  0.00    -0.047 A 
ATOM      6  C4  UNL d   1      -0.010  -0.934  -0.632  0.00  0.00    -0.004 A 
ENDROOT
TORSDOF 0
ENDMDL
