MODEL 1
REMARK minimizedAffinity -2.46657729
REMARK minimizedRMSD -1
REMARK  0 active torsions:
REMARK  status: ('A' for Active; 'I' for Inactive)
ROOT
ATOM      1  C   UNL d   1       0.739   2.113   0.062  0.00  0.00     0.172 C 
ATOM      2  N   UNL d   1       0.024   0.872   0.250  0.00  0.00    -0.070 N 
ATOM      3  C1  UNL d   1      -0.399   0.035  -0.748  0.00  0.00    -0.004 A 
ATOM      4  C2  UNL d   1      -1.037  -1.035  -0.159  0.00  0.00    -0.047 A 
ATOM      5  C3  UNL d   1      -0.997  -0.834   1.241  0.00  0.00    -0.047 A 
ATOM      6  C4  UNL d   1      -0.334   0.354   1.466  0.00  0.00    -0.004 A 
ENDROOT
TORSDOF 0
ENDMDL
