MODEL 1
REMARK minimizedAffinity -3.91915321
REMARK minimizedRMSD -1
REMARK  0 active torsions:
REMARK  status: ('A' for Active; 'I' for Inactive)
ROOT
ATOM      1  C   UNL d   1       0.362  -2.089  -2.346  0.00  0.00     0.172 C 
ATOM      2  N   UNL d   1      -0.081  -1.937  -0.981  0.00  0.00    -0.070 N 
ATOM      3  C1  UNL d   1      -0.300  -0.747  -0.340  0.00  0.00    -0.004 A 
ATOM      4  C2  UNL d   1      -0.713  -1.029   0.944  0.00  0.00    -0.047 A 
ATOM      5  C3  UNL d   1      -0.742  -2.437   1.081  0.00  0.00    -0.047 A 
ATOM      6  C4  UNL d   1      -0.346  -2.975  -0.126  0.00  0.00    -0.004 A 
ENDROOT
TORSDOF 0
ENDMDL
