MODEL 1
REMARK minimizedAffinity -2.51030636
REMARK minimizedRMSD -1
REMARK  0 active torsions:
REMARK  status: ('A' for Active; 'I' for Inactive)
ROOT
ATOM      1  C   UNL d   1       0.464  -1.488  -2.523  0.00  0.00     0.172 C 
ATOM      2  N   UNL d   1       0.190  -0.664  -1.369  0.00  0.00    -0.070 N 
ATOM      3  C1  UNL d   1      -0.416  -1.083  -0.214  0.00  0.00    -0.004 A 
ATOM      4  C2  UNL d   1      -0.492  -0.003   0.638  0.00  0.00    -0.047 A 
ATOM      5  C3  UNL d   1       0.087   1.104  -0.027  0.00  0.00    -0.047 A 
ATOM      6  C4  UNL d   1       0.500   0.667  -1.268  0.00  0.00    -0.004 A 
ENDROOT
TORSDOF 0
ENDMDL
