MODEL 1
REMARK minimizedAffinity -3.51894999
REMARK minimizedRMSD -1
REMARK  0 active torsions:
REMARK  status: ('A' for Active; 'I' for Inactive)
ROOT
ATOM      1  C   UNL d   1      -1.374  -0.302   0.835  0.00  0.00     0.172 C 
ATOM      2  N   UNL d   1      -0.716  -1.440   0.237  0.00  0.00    -0.070 N 
ATOM      3  C1  UNL d   1       0.444  -1.400  -0.490  0.00  0.00    -0.004 A 
ATOM      4  C2  UNL d   1       0.741  -2.688  -0.882  0.00  0.00    -0.047 A 
ATOM      5  C3  UNL d   1      -0.276  -3.530  -0.373  0.00  0.00    -0.047 A 
ATOM      6  C4  UNL d   1      -1.164  -2.732   0.316  0.00  0.00    -0.004 A 
ENDROOT
TORSDOF 0
ENDMDL
