MODEL 1
REMARK minimizedAffinity -0.335894018
REMARK minimizedRMSD -1
REMARK  0 active torsions:
REMARK  status: ('A' for Active; 'I' for Inactive)
ROOT
ATOM      1  C   UNL d   1       1.030   2.250   0.253  0.00  0.00     0.172 C 
ATOM      2  N   UNL d   1       0.344   0.980   0.234  0.00  0.00    -0.070 N 
ATOM      3  C1  UNL d   1      -0.445   0.514  -0.784  0.00  0.00    -0.004 A 
ATOM      4  C2  UNL d   1      -0.913  -0.730  -0.419  0.00  0.00    -0.047 A 
ATOM      5  C3  UNL d   1      -0.387  -1.022   0.862  0.00  0.00    -0.047 A 
ATOM      6  C4  UNL d   1       0.387   0.054   1.242  0.00  0.00    -0.004 A 
ENDROOT
TORSDOF 0
ENDMDL
