MODEL 1
REMARK minimizedAffinity -4.25805473
REMARK minimizedRMSD -1
REMARK  0 active torsions:
REMARK  status: ('A' for Active; 'I' for Inactive)
ROOT
ATOM      1  C   UNL d   1       0.408  -0.062  -2.253  0.00  0.00     0.172 C 
ATOM      2  N   UNL d   1       0.237  -1.402  -1.742  0.00  0.00    -0.070 N 
ATOM      3  C1  UNL d   1       0.236  -2.548  -2.491  0.00  0.00    -0.004 A 
ATOM      4  C2  UNL d   1       0.045  -3.611  -1.635  0.00  0.00    -0.047 A 
ATOM      5  C3  UNL d   1      -0.073  -3.086  -0.327  0.00  0.00    -0.047 A 
ATOM      6  C4  UNL d   1       0.050  -1.716  -0.422  0.00  0.00    -0.004 A 
ENDROOT
TORSDOF 0
ENDMDL
