MODEL 1
REMARK minimizedAffinity 2.59507346
REMARK minimizedRMSD -1
REMARK  3 active torsions:
REMARK  status: ('A' for Active; 'I' for Inactive)
REMARK    1  A    between atoms: C3'_2  and  C2'_3 
REMARK    2  A    between atoms: C2'_3  and  C1'_4 
REMARK    3  A    between atoms: C1'_4  and  C1_5 
ROOT
ATOM      1  C1  N4B d   1       5.056   1.420  -1.940  0.00  0.00    -0.075 A 
ATOM      2  C2  N4B d   1       4.170   0.418  -2.392  0.00  0.00     0.002 A 
ATOM      3  C3  N4B d   1       3.524  -0.386  -1.485  0.00  0.00     0.002 A 
ATOM      4  C4  N4B d   1       3.761  -0.220  -0.129  0.00  0.00    -0.004 A 
ATOM      5  C5  N4B d   1       4.599   0.767   0.300  0.00  0.00     0.002 A 
ATOM      6  C6  N4B d   1       5.252   1.586  -0.599  0.00  0.00     0.002 A 
ENDROOT
BRANCH   1   7
ATOM      7  C1' N4B d   1       5.851   2.267  -2.896  0.00  0.00     0.057 C 
BRANCH   7   8
ATOM      8  C2' N4B d   1       6.000   3.671  -2.316  0.00  0.00     0.009 C 
BRANCH   8   9
ATOM      9  C3' N4B d   1       5.202   4.698  -3.103  0.00  0.00     0.004 C 
ATOM     10  C4' N4B d   1       5.929   6.000  -3.262  0.00  0.00     0.003 C 
ENDBRANCH   8   9
ENDBRANCH   7   8
ENDBRANCH   1   7
TORSDOF 3
ENDMDL
