MODEL 1
REMARK minimizedAffinity 1.9072938
REMARK minimizedRMSD -1
REMARK  3 active torsions:
REMARK  status: ('A' for Active; 'I' for Inactive)
REMARK    1  A    between atoms: C3'_2  and  C2'_3 
REMARK    2  A    between atoms: C2'_3  and  C1'_4 
REMARK    3  A    between atoms: C1'_4  and  C1_5 
ROOT
ATOM      1  C1  N4B d   1      -2.489   2.891   0.793  0.00  0.00    -0.075 A 
ATOM      2  C2  N4B d   1      -2.825   1.813  -0.055  0.00  0.00     0.002 A 
ATOM      3  C3  N4B d   1      -3.994   1.120   0.146  0.00  0.00     0.002 A 
ATOM      4  C4  N4B d   1      -4.829   1.473   1.196  0.00  0.00    -0.004 A 
ATOM      5  C5  N4B d   1      -4.509   2.531   1.995  0.00  0.00     0.002 A 
ATOM      6  C6  N4B d   1      -3.340   3.239   1.802  0.00  0.00     0.002 A 
ENDROOT
BRANCH   1   7
ATOM      7  C1' N4B d   1      -1.182   3.623   0.666  0.00  0.00     0.057 C 
BRANCH   7   8
ATOM      8  C2' N4B d   1      -0.127   2.917   1.513  0.00  0.00     0.009 C 
BRANCH   8   9
ATOM      9  C3' N4B d   1      -0.562   2.778   2.962  0.00  0.00     0.004 C 
ATOM     10  C4' N4B d   1       0.550   2.328   3.862  0.00  0.00     0.003 C 
ENDBRANCH   8   9
ENDBRANCH   7   8
ENDBRANCH   1   7
TORSDOF 3
ENDMDL
