MODEL 1
REMARK minimizedAffinity 5.20418596
REMARK minimizedRMSD -1
REMARK  0 active torsions:
REMARK  status: ('A' for Active; 'I' for Inactive)
ROOT
ATOM      1  C   UNL d   1      -1.832  -2.189  -2.131  0.00  0.00     0.078 C 
ATOM      2  C1  UNL d   1      -2.350  -2.583  -3.482  0.00  0.00    -0.077 A 
ATOM      3  C2  UNL d   1      -1.725  -2.137  -4.652  0.00  0.00    -0.001 A 
ATOM      4  C3  UNL d   1      -2.224  -2.503  -5.903  0.00  0.00     0.003 A 
ATOM      5  C4  UNL d   1      -3.352  -3.316  -5.995  0.00  0.00    -0.005 A 
ATOM      6  C5  UNL d   1      -3.983  -3.763  -4.836  0.00  0.00     0.003 A 
ATOM      7  C6  UNL d   1      -3.485  -3.397  -3.584  0.00  0.00    -0.001 A 
ENDROOT
TORSDOF 0
ENDMDL
