MODEL 1
REMARK minimizedAffinity 8.09204292
REMARK minimizedRMSD -1
REMARK  0 active torsions:
REMARK  status: ('A' for Active; 'I' for Inactive)
ROOT
ATOM      1  C   UNL d   1       2.243   1.619  -2.380  0.00  0.00     0.078 C 
ATOM      2  C1  UNL d   1       1.842   1.676  -0.936  0.00  0.00    -0.077 A 
ATOM      3  C2  UNL d   1       1.623   2.902  -0.296  0.00  0.00    -0.001 A 
ATOM      4  C3  UNL d   1       1.259   2.940   1.051  0.00  0.00     0.003 A 
ATOM      5  C4  UNL d   1       1.112   1.755   1.770  0.00  0.00    -0.005 A 
ATOM      6  C5  UNL d   1       1.329   0.530   1.142  0.00  0.00     0.003 A 
ATOM      7  C6  UNL d   1       1.693   0.490  -0.205  0.00  0.00    -0.001 A 
ENDROOT
TORSDOF 0
ENDMDL
