MODEL 1
REMARK minimizedAffinity 4.93326712
REMARK minimizedRMSD -1
REMARK  0 active torsions:
REMARK  status: ('A' for Active; 'I' for Inactive)
ROOT
ATOM      1  C   UNL d   1      -1.129  -3.266  -5.972  0.00  0.00     0.078 C 
ATOM      2  C1  UNL d   1      -2.529  -2.728  -5.989  0.00  0.00    -0.077 A 
ATOM      3  C2  UNL d   1      -2.772  -1.349  -5.990  0.00  0.00    -0.001 A 
ATOM      4  C3  UNL d   1      -4.081  -0.863  -5.996  0.00  0.00     0.003 A 
ATOM      5  C4  UNL d   1      -5.156  -1.749  -6.000  0.00  0.00    -0.005 A 
ATOM      6  C5  UNL d   1      -4.924  -3.123  -5.996  0.00  0.00     0.003 A 
ATOM      7  C6  UNL d   1      -3.617  -3.611  -5.991  0.00  0.00    -0.001 A 
ENDROOT
TORSDOF 0
ENDMDL
