MODEL 1
REMARK minimizedAffinity 14.2620535
REMARK minimizedRMSD -1
REMARK  0 active torsions:
REMARK  status: ('A' for Active; 'I' for Inactive)
ROOT
ATOM      1  C   UNL d   1      -1.388  -1.712   3.159  0.00  0.00     0.078 C 
ATOM      2  C1  UNL d   1      -1.755  -3.040   3.751  0.00  0.00    -0.077 A 
ATOM      3  C2  UNL d   1      -2.994  -3.234   4.374  0.00  0.00    -0.001 A 
ATOM      4  C3  UNL d   1      -3.319  -4.473   4.929  0.00  0.00     0.003 A 
ATOM      5  C4  UNL d   1      -2.409  -5.527   4.869  0.00  0.00    -0.005 A 
ATOM      6  C5  UNL d   1      -1.173  -5.342   4.253  0.00  0.00     0.003 A 
ATOM      7  C6  UNL d   1      -0.847  -4.104   3.697  0.00  0.00    -0.001 A 
ENDROOT
TORSDOF 0
ENDMDL
