MODEL 1
REMARK minimizedAffinity 16.3074417
REMARK minimizedRMSD -1
REMARK  0 active torsions:
REMARK  status: ('A' for Active; 'I' for Inactive)
ROOT
ATOM      1  C   UNL d   1       0.733  -0.046   2.846  0.00  0.00     0.078 C 
ATOM      2  C1  UNL d   1       1.746   0.286   1.791  0.00  0.00    -0.077 A 
ATOM      3  C2  UNL d   1       2.942  -0.436   1.687  0.00  0.00    -0.001 A 
ATOM      4  C3  UNL d   1       3.880  -0.109   0.707  0.00  0.00     0.003 A 
ATOM      5  C4  UNL d   1       3.634   0.941  -0.176  0.00  0.00    -0.005 A 
ATOM      6  C5  UNL d   1       2.448   1.666  -0.078  0.00  0.00     0.003 A 
ATOM      7  C6  UNL d   1       1.509   1.341   0.901  0.00  0.00    -0.001 A 
ENDROOT
TORSDOF 0
ENDMDL
