MODEL 1
REMARK minimizedAffinity 18.2672253
REMARK minimizedRMSD -1
REMARK  0 active torsions:
REMARK  status: ('A' for Active; 'I' for Inactive)
ROOT
ATOM      1  C   UNL d   1       5.999   4.903  -5.996  0.00  0.00     0.078 C 
ATOM      2  C1  UNL d   1       5.730   3.923  -4.893  0.00  0.00    -0.077 A 
ATOM      3  C2  UNL d   1       5.224   4.348  -3.659  0.00  0.00    -0.001 A 
ATOM      4  C3  UNL d   1       4.988   3.427  -2.638  0.00  0.00     0.003 A 
ATOM      5  C4  UNL d   1       5.256   2.074  -2.840  0.00  0.00    -0.005 A 
ATOM      6  C5  UNL d   1       5.762   1.642  -4.064  0.00  0.00     0.003 A 
ATOM      7  C6  UNL d   1       5.999   2.562  -5.086  0.00  0.00    -0.001 A 
ENDROOT
TORSDOF 0
ENDMDL
