MODEL 1
REMARK minimizedAffinity 0.870172381
REMARK minimizedRMSD -1
REMARK  0 active torsions:
REMARK  status: ('A' for Active; 'I' for Inactive)
ROOT
ATOM      1  C   UNL d   1       1.645   2.138   0.797  0.00  0.00     0.078 C 
ATOM      2  C1  UNL d   1       2.504   1.562  -0.288  0.00  0.00    -0.077 A 
ATOM      3  C2  UNL d   1       2.573   2.164  -1.550  0.00  0.00    -0.001 A 
ATOM      4  C3  UNL d   1       3.370   1.611  -2.554  0.00  0.00     0.003 A 
ATOM      5  C4  UNL d   1       4.104   0.453  -2.306  0.00  0.00    -0.005 A 
ATOM      6  C5  UNL d   1       4.040  -0.154  -1.053  0.00  0.00     0.003 A 
ATOM      7  C6  UNL d   1       3.244   0.397  -0.049  0.00  0.00    -0.001 A 
ENDROOT
TORSDOF 0
ENDMDL
