MODEL 1
REMARK minimizedAffinity 10.8290529
REMARK minimizedRMSD -1
REMARK  0 active torsions:
REMARK  status: ('A' for Active; 'I' for Inactive)
ROOT
ATOM      1  C   UNL d   1      -1.441  -2.356   3.366  0.00  0.00     0.078 C 
ATOM      2  C1  UNL d   1      -0.787  -1.071   3.777  0.00  0.00    -0.077 A 
ATOM      3  C2  UNL d   1       0.406  -0.645   3.180  0.00  0.00    -0.001 A 
ATOM      4  C3  UNL d   1       1.008   0.549   3.579  0.00  0.00     0.003 A 
ATOM      5  C4  UNL d   1       0.426   1.327   4.578  0.00  0.00    -0.005 A 
ATOM      6  C5  UNL d   1      -0.760   0.911   5.179  0.00  0.00     0.003 A 
ATOM      7  C6  UNL d   1      -1.364  -0.283   4.781  0.00  0.00    -0.001 A 
ENDROOT
TORSDOF 0
ENDMDL
