MODEL 1
REMARK minimizedAffinity 8.81408119
REMARK minimizedRMSD -1
REMARK  0 active torsions:
REMARK  status: ('A' for Active; 'I' for Inactive)
ROOT
ATOM      1  C   UNL d   1      -0.203   3.013   1.954  0.00  0.00     0.078 C 
ATOM      2  C1  UNL d   1       0.852   2.045   2.399  0.00  0.00    -0.077 A 
ATOM      3  C2  UNL d   1       0.972   1.677   3.745  0.00  0.00    -0.001 A 
ATOM      4  C3  UNL d   1       1.965   0.782   4.146  0.00  0.00     0.003 A 
ATOM      5  C4  UNL d   1       2.846   0.248   3.207  0.00  0.00    -0.005 A 
ATOM      6  C5  UNL d   1       2.735   0.610   1.866  0.00  0.00     0.003 A 
ATOM      7  C6  UNL d   1       1.743   1.504   1.463  0.00  0.00    -0.001 A 
ENDROOT
TORSDOF 0
ENDMDL
