MODEL 1
REMARK minimizedAffinity 8.76139164
REMARK minimizedRMSD -1
REMARK  0 active torsions:
REMARK  status: ('A' for Active; 'I' for Inactive)
ROOT
ATOM      1  C   UNL d   1      -1.120  -3.777  -5.995  0.00  0.00     0.078 C 
ATOM      2  C1  UNL d   1      -2.461  -3.106  -6.000  0.00  0.00    -0.077 A 
ATOM      3  C2  UNL d   1      -2.568  -1.710  -5.998  0.00  0.00    -0.001 A 
ATOM      4  C3  UNL d   1      -3.822  -1.098  -5.992  0.00  0.00     0.003 A 
ATOM      5  C4  UNL d   1      -4.979  -1.875  -5.988  0.00  0.00    -0.005 A 
ATOM      6  C5  UNL d   1      -4.883  -3.265  -5.988  0.00  0.00     0.003 A 
ATOM      7  C6  UNL d   1      -3.629  -3.878  -5.993  0.00  0.00    -0.001 A 
ENDROOT
TORSDOF 0
ENDMDL
