MODEL 1
REMARK minimizedAffinity 8.73279381
REMARK minimizedRMSD -1
REMARK  0 active torsions:
REMARK  status: ('A' for Active; 'I' for Inactive)
ROOT
ATOM      1  C   UNL d   1       4.176  -0.565   0.411  0.00  0.00     0.078 C 
ATOM      2  C1  UNL d   1       3.339   0.010   1.515  0.00  0.00    -0.077 A 
ATOM      3  C2  UNL d   1       2.332   0.944   1.244  0.00  0.00    -0.001 A 
ATOM      4  C3  UNL d   1       1.567   1.478   2.283  0.00  0.00     0.003 A 
ATOM      5  C4  UNL d   1       1.803   1.086   3.599  0.00  0.00    -0.005 A 
ATOM      6  C5  UNL d   1       2.805   0.159   3.878  0.00  0.00     0.003 A 
ATOM      7  C6  UNL d   1       3.570  -0.377   2.841  0.00  0.00    -0.001 A 
ENDROOT
TORSDOF 0
ENDMDL
