MODEL 1
REMARK minimizedAffinity 7.93569088
REMARK minimizedRMSD -1
REMARK  0 active torsions:
REMARK  status: ('A' for Active; 'I' for Inactive)
ROOT
ATOM      1  C   UNL d   1       0.310   3.042   1.505  0.00  0.00     0.078 C 
ATOM      2  C1  UNL d   1       1.172   2.141   2.337  0.00  0.00    -0.077 A 
ATOM      3  C2  UNL d   1       1.312   2.348   3.715  0.00  0.00    -0.001 A 
ATOM      4  C3  UNL d   1       2.126   1.507   4.476  0.00  0.00     0.003 A 
ATOM      5  C4  UNL d   1       2.805   0.453   3.868  0.00  0.00    -0.005 A 
ATOM      6  C5  UNL d   1       2.673   0.240   2.498  0.00  0.00     0.003 A 
ATOM      7  C6  UNL d   1       1.861   1.080   1.735  0.00  0.00    -0.001 A 
ENDROOT
TORSDOF 0
ENDMDL
