MODEL 1
REMARK minimizedAffinity 0.833082855
REMARK minimizedRMSD -1
REMARK  0 active torsions:
REMARK  status: ('A' for Active; 'I' for Inactive)
ROOT
ATOM      1  C   UNL d   1      -2.635  -5.455   4.911  0.00  0.00     0.078 C 
ATOM      2  C1  UNL d   1      -2.085  -4.235   4.234  0.00  0.00    -0.077 A 
ATOM      3  C2  UNL d   1      -2.706  -2.989   4.377  0.00  0.00    -0.001 A 
ATOM      4  C3  UNL d   1      -2.188  -1.864   3.734  0.00  0.00     0.003 A 
ATOM      5  C4  UNL d   1      -1.047  -1.974   2.941  0.00  0.00    -0.005 A 
ATOM      6  C5  UNL d   1      -0.423  -3.211   2.791  0.00  0.00     0.003 A 
ATOM      7  C6  UNL d   1      -0.940  -4.337   3.434  0.00  0.00    -0.001 A 
ENDROOT
TORSDOF 0
ENDMDL
