MODEL 1
REMARK minimizedAffinity 8.03825092
REMARK minimizedRMSD -1
REMARK  0 active torsions:
REMARK  status: ('A' for Active; 'I' for Inactive)
ROOT
ATOM      1  C   UNL d   1      -5.621  -5.260   5.713  0.00  0.00     0.078 C 
ATOM      2  C1  UNL d   1      -4.183  -5.267   5.289  0.00  0.00    -0.077 A 
ATOM      3  C2  UNL d   1      -3.225  -6.000   6.000  0.00  0.00    -0.001 A 
ATOM      4  C3  UNL d   1      -1.888  -5.989   5.599  0.00  0.00     0.003 A 
ATOM      5  C4  UNL d   1      -1.497  -5.247   4.486  0.00  0.00    -0.005 A 
ATOM      6  C5  UNL d   1      -2.443  -4.513   3.774  0.00  0.00     0.003 A 
ATOM      7  C6  UNL d   1      -3.780  -4.522   4.173  0.00  0.00    -0.001 A 
ENDROOT
TORSDOF 0
ENDMDL
