MODEL 1
REMARK minimizedAffinity 7.07951212
REMARK minimizedRMSD -1
REMARK  0 active torsions:
REMARK  status: ('A' for Active; 'I' for Inactive)
ROOT
ATOM      1  C   UNL d   1       2.567   1.756  -2.761  0.00  0.00     0.078 C 
ATOM      2  C1  UNL d   1       3.588   1.031  -3.586  0.00  0.00    -0.077 A 
ATOM      3  C2  UNL d   1       3.199   0.161  -4.612  0.00  0.00    -0.001 A 
ATOM      4  C3  UNL d   1       4.160  -0.514  -5.366  0.00  0.00     0.003 A 
ATOM      5  C4  UNL d   1       5.516  -0.328  -5.101  0.00  0.00    -0.005 A 
ATOM      6  C5  UNL d   1       5.911   0.534  -4.080  0.00  0.00     0.003 A 
ATOM      7  C6  UNL d   1       4.952   1.211  -3.325  0.00  0.00    -0.001 A 
ENDROOT
TORSDOF 0
ENDMDL
