MODEL 1
REMARK minimizedAffinity 7.82483435
REMARK minimizedRMSD -1
REMARK  0 active torsions:
REMARK  status: ('A' for Active; 'I' for Inactive)
ROOT
ATOM      1  C   UNL d   1      -1.869   3.401   2.162  0.00  0.00     0.078 C 
ATOM      2  C1  UNL d   1      -0.470   2.881   2.015  0.00  0.00    -0.077 A 
ATOM      3  C2  UNL d   1       0.404   3.423   1.065  0.00  0.00    -0.001 A 
ATOM      4  C3  UNL d   1       1.701   2.923   0.933  0.00  0.00     0.003 A 
ATOM      5  C4  UNL d   1       2.134   1.878   1.747  0.00  0.00    -0.005 A 
ATOM      6  C5  UNL d   1       1.271   1.331   2.694  0.00  0.00     0.003 A 
ATOM      7  C6  UNL d   1      -0.026   1.830   2.827  0.00  0.00    -0.001 A 
ENDROOT
TORSDOF 0
ENDMDL
