MODEL 1
REMARK minimizedAffinity 13.7404022
REMARK minimizedRMSD -1
REMARK  1 active torsions:
REMARK  status: ('A' for Active; 'I' for Inactive)
REMARK    1  A    between atoms: C1_2  and  C2_3 
ROOT
ATOM      1  C2  UNL d   1       0.349   1.812   0.119  0.00  0.00    -0.073 A 
ATOM      2  C3  UNL d   1       1.583   1.187   0.338  0.00  0.00    -0.002 A 
ATOM      3  C4  UNL d   1       1.941   0.057  -0.398  0.00  0.00     0.004 A 
ATOM      4  C5  UNL d   1       1.075  -0.455  -1.364  0.00  0.00    -0.004 A 
ATOM      5  C6  UNL d   1      -0.157   0.161  -1.605  0.00  0.00    -0.075 A 
ATOM      6  C7  UNL d   1      -1.102  -0.379  -2.638  0.00  0.00     0.076 C 
ATOM      7  C8  UNL d   1      -0.511   1.294  -0.860  0.00  0.00     0.001 A 
ENDROOT
BRANCH   1   8
ATOM      8  C1  UNL d   1      -0.039   3.036   0.907  0.00  0.00     0.053 C 
ATOM      9  C   UNL d   1       0.654   4.288   0.394  0.00  0.00     0.018 C 
ENDBRANCH   1   8
TORSDOF 1
ENDMDL
