MODEL 1
REMARK minimizedAffinity 8.75070477
REMARK minimizedRMSD -1
REMARK  1 active torsions:
REMARK  status: ('A' for Active; 'I' for Inactive)
REMARK    1  A    between atoms: C1_2  and  C2_3 
ROOT
ATOM      1  C2  UNL d   1      -0.324   5.067  -1.191  0.00  0.00    -0.073 A 
ATOM      2  C3  UNL d   1      -1.173   5.999  -0.583  0.00  0.00    -0.002 A 
ATOM      3  C4  UNL d   1      -1.428   5.933   0.787  0.00  0.00     0.004 A 
ATOM      4  C5  UNL d   1      -0.833   4.939   1.564  0.00  0.00    -0.004 A 
ATOM      5  C6  UNL d   1       0.028   4.005   0.978  0.00  0.00    -0.075 A 
ATOM      6  C7  UNL d   1       0.674   2.929   1.800  0.00  0.00     0.076 C 
ATOM      7  C8  UNL d   1       0.277   4.077  -0.399  0.00  0.00     0.001 A 
ENDROOT
BRANCH   1   8
ATOM      8  C1  UNL d   1      -0.040   5.139  -2.669  0.00  0.00     0.053 C 
ATOM      9  C   UNL d   1      -1.056   6.000  -3.403  0.00  0.00     0.018 C 
ENDBRANCH   1   8
TORSDOF 1
ENDMDL
