MODEL 1
REMARK minimizedAffinity -4.16116858
REMARK minimizedRMSD -1
REMARK  1 active torsions:
REMARK  status: ('A' for Active; 'I' for Inactive)
REMARK    1  A    between atoms: C1_2  and  C2_3 
ROOT
ATOM      1  C2  UNL d   1       0.136   0.527  -0.350  0.00  0.00    -0.081 A 
ATOM      2  C3  UNL d   1      -0.419   0.362  -1.625  0.00  0.00     0.006 A 
ATOM      3  C4  UNL d   1      -0.491   1.440  -2.511  0.00  0.00     0.002 A 
ATOM      4  C5  UNL d   1      -0.003   2.697  -2.140  0.00  0.00    -0.080 A 
ATOM      5  C6  UNL d   1      -0.047   3.855  -3.093  0.00  0.00     0.076 C 
ATOM      6  C7  UNL d   1       0.535   2.867  -0.860  0.00  0.00     0.002 A 
ATOM      7  C8  UNL d   1       0.607   1.790   0.026  0.00  0.00     0.006 A 
ENDROOT
BRANCH   1   8
ATOM      8  C1  UNL d   1       0.274  -0.648   0.584  0.00  0.00     0.054 C 
ATOM      9  C   UNL d   1       1.645  -1.296   0.459  0.00  0.00     0.018 C 
ENDBRANCH   1   8
TORSDOF 1
ENDMDL
