MODEL 1
REMARK minimizedAffinity -4.14111328
REMARK minimizedRMSD -1
REMARK  1 active torsions:
REMARK  status: ('A' for Active; 'I' for Inactive)
REMARK    1  A    between atoms: C1_2  and  C2_3 
ROOT
ATOM      1  C2  UNL d   1      -0.586   0.168  -0.035  0.00  0.00    -0.081 A 
ATOM      2  C3  UNL d   1       0.649  -0.166  -0.603  0.00  0.00     0.006 A 
ATOM      3  C4  UNL d   1       1.293  -1.354  -0.248  0.00  0.00     0.002 A 
ATOM      4  C5  UNL d   1       0.710  -2.229   0.674  0.00  0.00    -0.080 A 
ATOM      5  C6  UNL d   1       1.377  -3.522   1.041  0.00  0.00     0.076 C 
ATOM      6  C7  UNL d   1      -0.516  -1.887   1.255  0.00  0.00     0.002 A 
ATOM      7  C8  UNL d   1      -1.160  -0.699   0.901  0.00  0.00     0.006 A 
ENDROOT
BRANCH   1   8
ATOM      8  C1  UNL d   1      -1.314   1.417  -0.464  0.00  0.00     0.054 C 
ATOM      9  C   UNL d   1      -0.512   2.199  -1.494  0.00  0.00     0.018 C 
ENDBRANCH   1   8
TORSDOF 1
ENDMDL
