MODEL 1
REMARK minimizedAffinity -4.83567238
REMARK minimizedRMSD -1
REMARK  1 active torsions:
REMARK  status: ('A' for Active; 'I' for Inactive)
REMARK    1  A    between atoms: C1_2  and  C2_3 
ROOT
ATOM      1  C2  UNL d   1      -0.257   0.600  -0.379  0.00  0.00    -0.081 A 
ATOM      2  C3  UNL d   1       1.102   0.343  -0.595  0.00  0.00     0.006 A 
ATOM      3  C4  UNL d   1       1.707  -0.785  -0.036  0.00  0.00     0.002 A 
ATOM      4  C5  UNL d   1       0.962  -1.678   0.742  0.00  0.00    -0.080 A 
ATOM      5  C6  UNL d   1       1.592  -2.909   1.323  0.00  0.00     0.076 C 
ATOM      6  C7  UNL d   1      -0.392  -1.412   0.973  0.00  0.00     0.002 A 
ATOM      7  C8  UNL d   1      -0.997  -0.284   0.414  0.00  0.00     0.006 A 
ENDROOT
BRANCH   1   8
ATOM      8  C1  UNL d   1      -0.927   1.781  -1.034  0.00  0.00     0.054 C 
ATOM      9  C   UNL d   1      -1.891   1.335  -2.124  0.00  0.00     0.018 C 
ENDBRANCH   1   8
TORSDOF 1
ENDMDL
