MODEL 1
REMARK minimizedAffinity -3.18865609
REMARK minimizedRMSD -1
REMARK  1 active torsions:
REMARK  status: ('A' for Active; 'I' for Inactive)
REMARK    1  A    between atoms: C1_2  and  C2_3 
ROOT
ATOM      1  C2  UNL d   1      -0.639   0.715  -1.160  0.00  0.00    -0.081 A 
ATOM      2  C3  UNL d   1      -1.014   0.024  -0.001  0.00  0.00     0.006 A 
ATOM      3  C4  UNL d   1      -0.055  -0.637   0.770  0.00  0.00     0.002 A 
ATOM      4  C5  UNL d   1       1.294  -0.612   0.401  0.00  0.00    -0.080 A 
ATOM      5  C6  UNL d   1       2.337  -1.293   1.236  0.00  0.00     0.076 C 
ATOM      6  C7  UNL d   1       1.666   0.063  -0.767  0.00  0.00     0.002 A 
ATOM      7  C8  UNL d   1       0.708   0.723  -1.539  0.00  0.00     0.006 A 
ENDROOT
BRANCH   1   8
ATOM      8  C1  UNL d   1      -1.661   1.483  -1.959  0.00  0.00     0.054 C 
ATOM      9  C   UNL d   1      -2.746   0.563  -2.500  0.00  0.00     0.018 C 
ENDBRANCH   1   8
TORSDOF 1
ENDMDL
