MODEL 1
REMARK minimizedAffinity -4.08873844
REMARK minimizedRMSD -1
REMARK  1 active torsions:
REMARK  status: ('A' for Active; 'I' for Inactive)
REMARK    1  A    between atoms: C1_2  and  C2_3 
ROOT
ATOM      1  C2  UNL d   1      -0.939   0.211  -1.371  0.00  0.00    -0.081 A 
ATOM      2  C3  UNL d   1      -0.807  -1.175  -1.221  0.00  0.00     0.006 A 
ATOM      3  C4  UNL d   1       0.167  -1.705  -0.371  0.00  0.00     0.002 A 
ATOM      4  C5  UNL d   1       1.019  -0.860   0.347  0.00  0.00    -0.080 A 
ATOM      5  C6  UNL d   1       2.048  -1.415   1.286  0.00  0.00     0.076 C 
ATOM      6  C7  UNL d   1       0.899   0.525   0.184  0.00  0.00     0.002 A 
ATOM      7  C8  UNL d   1      -0.074   1.055  -0.666  0.00  0.00     0.006 A 
ENDROOT
BRANCH   1   8
ATOM      8  C1  UNL d   1      -2.030   0.787  -2.237  0.00  0.00     0.054 C 
ATOM      9  C   UNL d   1      -1.552   0.990  -3.668  0.00  0.00     0.018 C 
ENDBRANCH   1   8
TORSDOF 1
ENDMDL
