MODEL 1
REMARK minimizedAffinity -3.19147944
REMARK minimizedRMSD -1
REMARK  1 active torsions:
REMARK  status: ('A' for Active; 'I' for Inactive)
REMARK    1  A    between atoms: C1_2  and  C2_3 
ROOT
ATOM      1  C2  UNL d   1       1.871  -0.709   1.121  0.00  0.00    -0.081 A 
ATOM      2  C3  UNL d   1       1.941   0.561   0.534  0.00  0.00     0.006 A 
ATOM      3  C4  UNL d   1       0.828   1.106  -0.112  0.00  0.00     0.002 A 
ATOM      4  C5  UNL d   1      -0.374   0.394  -0.175  0.00  0.00    -0.080 A 
ATOM      5  C6  UNL d   1      -1.585   0.980  -0.838  0.00  0.00     0.076 C 
ATOM      6  C7  UNL d   1      -0.440  -0.882   0.396  0.00  0.00     0.002 A 
ATOM      7  C8  UNL d   1       0.673  -1.427   1.041  0.00  0.00     0.006 A 
ENDROOT
BRANCH   1   8
ATOM      8  C1  UNL d   1       3.049  -1.271   1.874  0.00  0.00     0.054 C 
ATOM      9  C   UNL d   1       4.124  -0.216   2.088  0.00  0.00     0.018 C 
ENDBRANCH   1   8
TORSDOF 1
ENDMDL
