MODEL 1
REMARK minimizedAffinity -4.57577467
REMARK minimizedRMSD -1
REMARK  1 active torsions:
REMARK  status: ('A' for Active; 'I' for Inactive)
REMARK    1  A    between atoms: C1_2  and  C2_3 
ROOT
ATOM      1  C2  UNL d   1      -0.370   0.784  -0.613  0.00  0.00    -0.081 A 
ATOM      2  C3  UNL d   1       0.924   0.412  -0.997  0.00  0.00     0.006 A 
ATOM      3  C4  UNL d   1       1.563  -0.666  -0.380  0.00  0.00     0.002 A 
ATOM      4  C5  UNL d   1       0.917  -1.394   0.624  0.00  0.00    -0.080 A 
ATOM      5  C6  UNL d   1       1.580  -2.572   1.273  0.00  0.00     0.076 C 
ATOM      6  C7  UNL d   1      -0.369  -1.011   1.020  0.00  0.00     0.002 A 
ATOM      7  C8  UNL d   1      -1.009   0.067   0.404  0.00  0.00     0.006 A 
ENDROOT
BRANCH   1   8
ATOM      8  C1  UNL d   1      -1.087   1.906  -1.321  0.00  0.00     0.054 C 
ATOM      9  C   UNL d   1      -1.862   1.393  -2.526  0.00  0.00     0.018 C 
ENDBRANCH   1   8
TORSDOF 1
ENDMDL
