MODEL 1
REMARK minimizedAffinity -1.69677126
REMARK minimizedRMSD -1
REMARK  1 active torsions:
REMARK  status: ('A' for Active; 'I' for Inactive)
REMARK    1  A    between atoms: C1_2  and  C2_3 
ROOT
ATOM      1  C2  UNL d   1      -0.427   0.536  -0.115  0.00  0.00    -0.081 A 
ATOM      2  C3  UNL d   1       0.883   0.220  -0.494  0.00  0.00     0.006 A 
ATOM      3  C4  UNL d   1       1.522  -0.904   0.036  0.00  0.00     0.002 A 
ATOM      4  C5  UNL d   1       0.859  -1.734   0.946  0.00  0.00    -0.080 A 
ATOM      5  C6  UNL d   1       1.522  -2.960   1.499  0.00  0.00     0.076 C 
ATOM      6  C7  UNL d   1      -0.444  -1.408   1.338  0.00  0.00     0.002 A 
ATOM      7  C8  UNL d   1      -1.083  -0.284   0.809  0.00  0.00     0.006 A 
ENDROOT
BRANCH   1   8
ATOM      8  C1  UNL d   1      -1.142   1.711  -0.734  0.00  0.00     0.054 C 
ATOM      9  C   UNL d   1      -1.797   1.328  -2.053  0.00  0.00     0.018 C 
ENDBRANCH   1   8
TORSDOF 1
ENDMDL
