MODEL 1
REMARK minimizedAffinity -4.20873833
REMARK minimizedRMSD -1
REMARK  1 active torsions:
REMARK  status: ('A' for Active; 'I' for Inactive)
REMARK    1  A    between atoms: C1_2  and  C2_3 
ROOT
ATOM      1  C2  UNL d   1       0.240  -1.470   1.017  0.00  0.00    -0.081 A 
ATOM      2  C3  UNL d   1       1.132  -2.533   0.828  0.00  0.00     0.006 A 
ATOM      3  C4  UNL d   1       2.324  -2.341   0.127  0.00  0.00     0.002 A 
ATOM      4  C5  UNL d   1       2.649  -1.082  -0.391  0.00  0.00    -0.080 A 
ATOM      5  C6  UNL d   1       3.940  -0.855  -1.120  0.00  0.00     0.076 C 
ATOM      6  C7  UNL d   1       1.750  -0.025  -0.218  0.00  0.00     0.002 A 
ATOM      7  C8  UNL d   1       0.557  -0.216   0.483  0.00  0.00     0.006 A 
ENDROOT
BRANCH   1   8
ATOM      8  C1  UNL d   1      -1.016  -1.659   1.829  0.00  0.00     0.054 C 
ATOM      9  C   UNL d   1      -1.527  -0.332   2.373  0.00  0.00     0.018 C 
ENDBRANCH   1   8
TORSDOF 1
ENDMDL
