MODEL 1
REMARK minimizedAffinity -3.60804486
REMARK minimizedRMSD -1
REMARK  1 active torsions:
REMARK  status: ('A' for Active; 'I' for Inactive)
REMARK    1  A    between atoms: C1_2  and  C2_3 
ROOT
ATOM      1  C2  UNL d   1      -0.384   0.082   0.019  0.00  0.00    -0.081 A 
ATOM      2  C3  UNL d   1      -1.073  -0.354   1.158  0.00  0.00     0.006 A 
ATOM      3  C4  UNL d   1      -0.569  -1.401   1.933  0.00  0.00     0.002 A 
ATOM      4  C5  UNL d   1       0.635  -2.024   1.588  0.00  0.00    -0.080 A 
ATOM      5  C6  UNL d   1       1.202  -3.129   2.429  0.00  0.00     0.076 C 
ATOM      6  C7  UNL d   1       1.315  -1.600   0.441  0.00  0.00     0.002 A 
ATOM      7  C8  UNL d   1       0.811  -0.554  -0.335  0.00  0.00     0.006 A 
ENDROOT
BRANCH   1   8
ATOM      8  C1  UNL d   1      -0.891   1.253  -0.782  0.00  0.00     0.054 C 
ATOM      9  C   UNL d   1      -1.732   0.792  -1.965  0.00  0.00     0.018 C 
ENDBRANCH   1   8
TORSDOF 1
ENDMDL
