MODEL 1
REMARK minimizedAffinity -5.12164545
REMARK minimizedRMSD -1
REMARK  1 active torsions:
REMARK  status: ('A' for Active; 'I' for Inactive)
REMARK    1  A    between atoms: C1_2  and  C2_3 
ROOT
ATOM      1  C2  UNL d   1      -0.397   1.083  -0.936  0.00  0.00    -0.081 A 
ATOM      2  C3  UNL d   1       0.940   1.493  -0.872  0.00  0.00     0.006 A 
ATOM      3  C4  UNL d   1       1.919   0.638  -0.358  0.00  0.00     0.002 A 
ATOM      4  C5  UNL d   1       1.578  -0.642   0.091  0.00  0.00    -0.080 A 
ATOM      5  C6  UNL d   1       2.623  -1.581   0.616  0.00  0.00     0.076 C 
ATOM      6  C7  UNL d   1       0.239  -1.045   0.043  0.00  0.00     0.002 A 
ATOM      7  C8  UNL d   1      -0.740  -0.191  -0.469  0.00  0.00     0.006 A 
ENDROOT
BRANCH   1   8
ATOM      8  C1  UNL d   1      -1.444   1.978  -1.549  0.00  0.00     0.054 C 
ATOM      9  C   UNL d   1      -2.337   1.207  -2.510  0.00  0.00     0.018 C 
ENDBRANCH   1   8
TORSDOF 1
ENDMDL
