MODEL 1
REMARK minimizedAffinity -4.64543343
REMARK minimizedRMSD -1
REMARK  1 active torsions:
REMARK  status: ('A' for Active; 'I' for Inactive)
REMARK    1  A    between atoms: C1_2  and  C2_3 
ROOT
ATOM      1  C2  UNL d   1      -0.439   0.720  -0.728  0.00  0.00    -0.081 A 
ATOM      2  C3  UNL d   1       0.782   0.288  -1.259  0.00  0.00     0.006 A 
ATOM      3  C4  UNL d   1       1.523  -0.705  -0.613  0.00  0.00     0.002 A 
ATOM      4  C5  UNL d   1       1.052  -1.287   0.569  0.00  0.00    -0.080 A 
ATOM      5  C6  UNL d   1       1.823  -2.374   1.256  0.00  0.00     0.076 C 
ATOM      6  C7  UNL d   1      -0.160  -0.843   1.108  0.00  0.00     0.002 A 
ATOM      7  C8  UNL d   1      -0.901   0.150   0.464  0.00  0.00     0.006 A 
ENDROOT
BRANCH   1   8
ATOM      8  C1  UNL d   1      -1.272   1.744  -1.456  0.00  0.00     0.054 C 
ATOM      9  C   UNL d   1      -1.044   1.674  -2.960  0.00  0.00     0.018 C 
ENDBRANCH   1   8
TORSDOF 1
ENDMDL
