MODEL 1
REMARK minimizedAffinity -1.05813658
REMARK minimizedRMSD -1
REMARK  0 active torsions:
REMARK  status: ('A' for Active; 'I' for Inactive)
ROOT
ATOM      1  C1  BNZ d   1       2.826  -2.122   2.144  0.00  0.00     0.000 A 
ATOM      2  C2  BNZ d   1       1.925  -1.229   2.659  0.00  0.00     0.000 A 
ATOM      3  C3  BNZ d   1       0.974  -1.631   3.555  0.00  0.00     0.000 A 
ATOM      4  C4  BNZ d   1       0.900  -2.932   3.904  0.00  0.00     0.000 A 
ATOM      5  C5  BNZ d   1       1.796  -3.847   3.386  0.00  0.00     0.000 A 
ATOM      6  C6  BNZ d   1       2.776  -3.431   2.515  0.00  0.00     0.000 A 
ENDROOT
TORSDOF 0
ENDMDL
