MODEL 1
REMARK minimizedAffinity -0.326566786
REMARK minimizedRMSD -1
REMARK  0 active torsions:
REMARK  status: ('A' for Active; 'I' for Inactive)
ROOT
ATOM      1  C1  BNZ d   1       3.137  -2.469   2.731  0.00  0.00     0.000 A 
ATOM      2  C2  BNZ d   1       2.253  -1.446   2.952  0.00  0.00     0.000 A 
ATOM      3  C3  BNZ d   1       1.120  -1.647   3.689  0.00  0.00     0.000 A 
ATOM      4  C4  BNZ d   1       0.852  -2.879   4.171  0.00  0.00     0.000 A 
ATOM      5  C5  BNZ d   1       1.728  -3.922   3.949  0.00  0.00     0.000 A 
ATOM      6  C6  BNZ d   1       2.887  -3.706   3.239  0.00  0.00     0.000 A 
ENDROOT
TORSDOF 0
ENDMDL
