MODEL 1
REMARK minimizedAffinity 4.20698357
REMARK minimizedRMSD -1
REMARK  0 active torsions:
REMARK  status: ('A' for Active; 'I' for Inactive)
ROOT
ATOM      1  C1  BNZ d   1       3.318  -5.999  -3.507  0.00  0.00     0.000 A 
ATOM      2  C2  BNZ d   1       4.238  -5.997  -4.521  0.00  0.00     0.000 A 
ATOM      3  C3  BNZ d   1       5.578  -6.000  -4.250  0.00  0.00     0.000 A 
ATOM      4  C4  BNZ d   1       5.996  -5.964  -2.968  0.00  0.00     0.000 A 
ATOM      5  C5  BNZ d   1       5.080  -5.957  -1.935  0.00  0.00     0.000 A 
ATOM      6  C6  BNZ d   1       3.732  -5.993  -2.211  0.00  0.00     0.000 A 
ENDROOT
TORSDOF 0
ENDMDL
