MODEL 1
REMARK minimizedAffinity 2.8602767
REMARK minimizedRMSD -1
REMARK  0 active torsions:
REMARK  status: ('A' for Active; 'I' for Inactive)
ROOT
ATOM      1  C1  BNZ d   1       1.528  -3.809   4.250  0.00  0.00     0.000 A 
ATOM      2  C2  BNZ d   1       2.735  -4.431   4.078  0.00  0.00     0.000 A 
ATOM      3  C3  BNZ d   1       3.733  -3.836   3.358  0.00  0.00     0.000 A 
ATOM      4  C4  BNZ d   1       3.509  -2.640   2.777  0.00  0.00     0.000 A 
ATOM      5  C5  BNZ d   1       2.294  -2.004   2.933  0.00  0.00     0.000 A 
ATOM      6  C6  BNZ d   1       1.305  -2.588   3.691  0.00  0.00     0.000 A 
ENDROOT
TORSDOF 0
ENDMDL
