MODEL 1
REMARK minimizedAffinity 1.96366525
REMARK minimizedRMSD -1
REMARK  0 active torsions:
REMARK  status: ('A' for Active; 'I' for Inactive)
ROOT
ATOM      1  C1  BNZ d   1       2.796  -5.988  -2.832  0.00  0.00     0.000 A 
ATOM      2  C2  BNZ d   1       4.018  -5.997  -2.214  0.00  0.00     0.000 A 
ATOM      3  C3  BNZ d   1       5.172  -5.983  -2.945  0.00  0.00     0.000 A 
ATOM      4  C4  BNZ d   1       5.104  -6.000  -4.292  0.00  0.00     0.000 A 
ATOM      5  C5  BNZ d   1       3.879  -6.000  -4.930  0.00  0.00     0.000 A 
ATOM      6  C6  BNZ d   1       2.719  -5.975  -4.190  0.00  0.00     0.000 A 
ENDROOT
TORSDOF 0
ENDMDL
