MODEL 1
REMARK minimizedAffinity -1.52466774
REMARK minimizedRMSD -1
REMARK  0 active torsions:
REMARK  status: ('A' for Active; 'I' for Inactive)
ROOT
ATOM      1  C1  BNZ d   1       2.098  -1.249   2.712  0.00  0.00     0.000 A 
ATOM      2  C2  BNZ d   1       2.255  -2.493   2.161  0.00  0.00     0.000 A 
ATOM      3  C3  BNZ d   1       2.261  -3.611   2.947  0.00  0.00     0.000 A 
ATOM      4  C4  BNZ d   1       2.150  -3.482   4.285  0.00  0.00     0.000 A 
ATOM      5  C5  BNZ d   1       2.001  -2.234   4.857  0.00  0.00     0.000 A 
ATOM      6  C6  BNZ d   1       1.957  -1.114   4.059  0.00  0.00     0.000 A 
ENDROOT
TORSDOF 0
ENDMDL
