MODEL 1
REMARK minimizedAffinity 6.83913565
REMARK minimizedRMSD -1
REMARK  0 active torsions:
REMARK  status: ('A' for Active; 'I' for Inactive)
ROOT
ATOM      1  C1  BNZ d   1      -2.924  -0.765  -1.996  0.00  0.00     0.000 A 
ATOM      2  C2  BNZ d   1      -2.869   0.603  -2.043  0.00  0.00     0.000 A 
ATOM      3  C3  BNZ d   1      -3.475   1.294  -3.055  0.00  0.00     0.000 A 
ATOM      4  C4  BNZ d   1      -4.099   0.616  -4.040  0.00  0.00     0.000 A 
ATOM      5  C5  BNZ d   1      -4.154  -0.763  -4.012  0.00  0.00     0.000 A 
ATOM      6  C6  BNZ d   1      -3.577  -1.454  -2.971  0.00  0.00     0.000 A 
ENDROOT
TORSDOF 0
ENDMDL
