MODEL 1
REMARK minimizedAffinity 0.314221501
REMARK minimizedRMSD -1
REMARK  0 active torsions:
REMARK  status: ('A' for Active; 'I' for Inactive)
ROOT
ATOM      1  C1  BNZ d   1       2.952  -3.124   5.012  0.00  0.00     0.000 A 
ATOM      2  C2  BNZ d   1       2.524  -1.956   4.439  0.00  0.00     0.000 A 
ATOM      3  C3  BNZ d   1       1.884  -1.962   3.231  0.00  0.00     0.000 A 
ATOM      4  C4  BNZ d   1       1.710  -3.130   2.580  0.00  0.00     0.000 A 
ATOM      5  C5  BNZ d   1       2.144  -4.315   3.140  0.00  0.00     0.000 A 
ATOM      6  C6  BNZ d   1       2.753  -4.309   4.374  0.00  0.00     0.000 A 
ENDROOT
TORSDOF 0
ENDMDL
