MODEL 1
REMARK minimizedAffinity -3.02803588
REMARK minimizedRMSD -1
REMARK  0 active torsions:
REMARK  status: ('A' for Active; 'I' for Inactive)
ROOT
ATOM      1  C1  BNZ d   1       1.862  -3.497   4.487  0.00  0.00     0.000 A 
ATOM      2  C2  BNZ d   1       1.394  -2.234   4.237  0.00  0.00     0.000 A 
ATOM      3  C3  BNZ d   1       1.687  -1.599   3.063  0.00  0.00     0.000 A 
ATOM      4  C4  BNZ d   1       2.480  -2.210   2.159  0.00  0.00     0.000 A 
ATOM      5  C5  BNZ d   1       2.967  -3.479   2.400  0.00  0.00     0.000 A 
ATOM      6  C6  BNZ d   1       2.638  -4.131   3.567  0.00  0.00     0.000 A 
ENDROOT
TORSDOF 0
ENDMDL
