MODEL 1
REMARK minimizedAffinity 1.36312461
REMARK minimizedRMSD -1
REMARK  0 active torsions:
REMARK  status: ('A' for Active; 'I' for Inactive)
ROOT
ATOM      1  C1  BNZ d   1       1.926  -0.785   2.169  0.00  0.00     0.000 A 
ATOM      2  C2  BNZ d   1       2.799  -1.741   1.723  0.00  0.00     0.000 A 
ATOM      3  C3  BNZ d   1       2.729  -3.025   2.187  0.00  0.00     0.000 A 
ATOM      4  C4  BNZ d   1       1.814  -3.341   3.126  0.00  0.00     0.000 A 
ATOM      5  C5  BNZ d   1       0.933  -2.386   3.593  0.00  0.00     0.000 A 
ATOM      6  C6  BNZ d   1       0.981  -1.105   3.094  0.00  0.00     0.000 A 
ENDROOT
TORSDOF 0
ENDMDL
