MODEL 1
REMARK minimizedAffinity -2.62324953
REMARK minimizedRMSD -1
REMARK  0 active torsions:
REMARK  status: ('A' for Active; 'I' for Inactive)
ROOT
ATOM      1  C   UNL d   1       1.228  -1.750  -3.301  0.00  0.00     0.023 A 
ATOM      2  C1  UNL d   1       1.173  -0.363  -3.157  0.00  0.00     0.003 A 
ATOM      3  C2  UNL d   1       0.948   0.201  -1.900  0.00  0.00     0.048 A 
ATOM      4  C3  UNL d   1       0.780  -0.627  -0.790  0.00  0.00     0.023 A 
ATOM      5  C4  UNL d   1       0.835  -2.015  -0.929  0.00  0.00     0.048 A 
ATOM      6  C5  UNL d   1       1.059  -2.574  -2.188  0.00  0.00     0.003 A 
ATOM      7  I   UNL d   1       0.446   0.211   1.082  0.00  0.00    -0.146 I 
ENDROOT
TORSDOF 0
ENDMDL
