MODEL 1
REMARK minimizedAffinity -2.06460738
REMARK minimizedRMSD -1
REMARK  0 active torsions:
REMARK  status: ('A' for Active; 'I' for Inactive)
ROOT
ATOM      1  C   UNL d   1      -0.647   0.809   2.025  0.00  0.00     0.023 A 
ATOM      2  C1  UNL d   1      -1.486   0.880   0.913  0.00  0.00     0.003 A 
ATOM      3  C2  UNL d   1      -1.009   0.516  -0.348  0.00  0.00     0.048 A 
ATOM      4  C3  UNL d   1       0.308   0.082  -0.490  0.00  0.00     0.023 A 
ATOM      5  C4  UNL d   1       1.151   0.008   0.620  0.00  0.00     0.048 A 
ATOM      6  C5  UNL d   1       0.670   0.374   1.879  0.00  0.00     0.003 A 
ATOM      7  I   UNL d   1       1.020  -0.461  -2.366  0.00  0.00    -0.146 I 
ENDROOT
TORSDOF 0
ENDMDL
