MODEL 1
REMARK minimizedAffinity -2.16997433
REMARK minimizedRMSD -1
REMARK  0 active torsions:
REMARK  status: ('A' for Active; 'I' for Inactive)
ROOT
ATOM      1  C   UNL d   1       1.639  -1.582  -3.744  0.00  0.00     0.023 A 
ATOM      2  C1  UNL d   1       2.027  -0.402  -3.111  0.00  0.00     0.003 A 
ATOM      3  C2  UNL d   1       1.210   0.167  -2.131  0.00  0.00     0.048 A 
ATOM      4  C3  UNL d   1       0.008  -0.450  -1.789  0.00  0.00     0.023 A 
ATOM      5  C4  UNL d   1      -0.384  -1.632  -2.420  0.00  0.00     0.048 A 
ATOM      6  C5  UNL d   1       0.435  -2.197  -3.399  0.00  0.00     0.003 A 
ATOM      7  I   UNL d   1      -1.209   0.394  -0.331  0.00  0.00    -0.146 I 
ENDROOT
TORSDOF 0
ENDMDL
