MODEL 1
REMARK minimizedAffinity 0.764155269
REMARK minimizedRMSD -1
REMARK  0 active torsions:
REMARK  status: ('A' for Active; 'I' for Inactive)
ROOT
ATOM      1  C   UNL d   1      -0.633   0.627   1.176  0.00  0.00     0.023 A 
ATOM      2  C1  UNL d   1      -1.361   0.502  -0.007  0.00  0.00     0.003 A 
ATOM      3  C2  UNL d   1      -0.711   0.170  -1.198  0.00  0.00     0.048 A 
ATOM      4  C3  UNL d   1       0.668  -0.036  -1.198  0.00  0.00     0.023 A 
ATOM      5  C4  UNL d   1       1.401   0.088  -0.017  0.00  0.00     0.048 A 
ATOM      6  C5  UNL d   1       0.747   0.421   1.171  0.00  0.00     0.003 A 
ATOM      7  I   UNL d   1       1.638  -0.530  -2.968  0.00  0.00    -0.146 I 
ENDROOT
TORSDOF 0
ENDMDL
