MODEL 1
REMARK minimizedAffinity -0.0525570512
REMARK minimizedRMSD -1
REMARK  0 active torsions:
REMARK  status: ('A' for Active; 'I' for Inactive)
ROOT
ATOM      1  C   UNL d   1      -0.222   0.569   1.800  0.00  0.00     0.023 A 
ATOM      2  C1  UNL d   1      -1.246   0.576   0.852  0.00  0.00     0.003 A 
ATOM      3  C2  UNL d   1      -0.948   0.393  -0.500  0.00  0.00     0.048 A 
ATOM      4  C3  UNL d   1       0.375   0.202  -0.897  0.00  0.00     0.023 A 
ATOM      5  C4  UNL d   1       1.402   0.194   0.048  0.00  0.00     0.048 A 
ATOM      6  C5  UNL d   1       1.100   0.379   1.398  0.00  0.00     0.003 A 
ATOM      7  I   UNL d   1       0.821  -0.071  -2.909  0.00  0.00    -0.146 I 
ENDROOT
TORSDOF 0
ENDMDL
