MODEL 1
REMARK minimizedAffinity -2.78069639
REMARK minimizedRMSD -1
REMARK  0 active torsions:
REMARK  status: ('A' for Active; 'I' for Inactive)
ROOT
ATOM      1  C   UNL d   1      -0.179   0.361   1.739  0.00  0.00     0.023 A 
ATOM      2  C1  UNL d   1       1.058   0.611   1.145  0.00  0.00     0.003 A 
ATOM      3  C2  UNL d   1       1.305   0.190  -0.163  0.00  0.00     0.048 A 
ATOM      4  C3  UNL d   1       0.309  -0.480  -0.873  0.00  0.00     0.023 A 
ATOM      5  C4  UNL d   1      -0.931  -0.732  -0.283  0.00  0.00     0.048 A 
ATOM      6  C5  UNL d   1      -1.173  -0.310   1.025  0.00  0.00     0.003 A 
ATOM      7  I   UNL d   1       0.673  -1.108  -2.820  0.00  0.00    -0.146 I 
ENDROOT
TORSDOF 0
ENDMDL
