MODEL 1
REMARK minimizedAffinity -3.27461553
REMARK minimizedRMSD -1
REMARK  0 active torsions:
REMARK  status: ('A' for Active; 'I' for Inactive)
ROOT
ATOM      1  C   UNL d   1       0.483   0.266   1.877  0.00  0.00     0.023 A 
ATOM      2  C1  UNL d   1      -0.526   0.514   0.946  0.00  0.00     0.003 A 
ATOM      3  C2  UNL d   1      -0.287   0.311  -0.415  0.00  0.00     0.048 A 
ATOM      4  C3  UNL d   1       0.962  -0.142  -0.838  0.00  0.00     0.023 A 
ATOM      5  C4  UNL d   1       1.974  -0.392   0.091  0.00  0.00     0.048 A 
ATOM      6  C5  UNL d   1       1.731  -0.187   1.450  0.00  0.00     0.003 A 
ATOM      7  I   UNL d   1       1.320  -0.445  -2.862  0.00  0.00    -0.146 I 
ENDROOT
TORSDOF 0
ENDMDL
