MODEL 1
REMARK minimizedAffinity -1.46515965
REMARK minimizedRMSD -1
REMARK  0 active torsions:
REMARK  status: ('A' for Active; 'I' for Inactive)
ROOT
ATOM      1  C   UNL d   1      -0.945   0.221   2.483  0.00  0.00     0.023 A 
ATOM      2  C1  UNL d   1       0.426   0.217   2.224  0.00  0.00     0.003 A 
ATOM      3  C2  UNL d   1       0.889   0.168   0.908  0.00  0.00     0.048 A 
ATOM      4  C3  UNL d   1      -0.024   0.124  -0.145  0.00  0.00     0.023 A 
ATOM      5  C4  UNL d   1      -1.397   0.129   0.109  0.00  0.00     0.048 A 
ATOM      6  C5  UNL d   1      -1.855   0.177   1.427  0.00  0.00     0.003 A 
ATOM      7  I   UNL d   1       0.663   0.050  -2.106  0.00  0.00    -0.146 I 
ENDROOT
TORSDOF 0
ENDMDL
