MODEL 1
REMARK minimizedAffinity -2.10976028
REMARK minimizedRMSD -1
REMARK  0 active torsions:
REMARK  status: ('A' for Active; 'I' for Inactive)
ROOT
ATOM      1  C   UNL d   1       1.990  -6.000   3.144  0.00  0.00     0.023 A 
ATOM      2  C1  UNL d   1       1.727  -5.592   4.451  0.00  0.00     0.003 A 
ATOM      3  C2  UNL d   1       2.771  -5.160   5.273  0.00  0.00     0.048 A 
ATOM      4  C3  UNL d   1       4.075  -5.137   4.779  0.00  0.00     0.023 A 
ATOM      5  C4  UNL d   1       4.343  -5.544   3.471  0.00  0.00     0.048 A 
ATOM      6  C5  UNL d   1       3.296  -5.976   2.654  0.00  0.00     0.003 A 
ATOM      7  I   UNL d   1       5.630  -4.494   5.999  0.00  0.00    -0.146 I 
ENDROOT
TORSDOF 0
ENDMDL
