MODEL 1
REMARK minimizedAffinity 0.677529037
REMARK minimizedRMSD -1
REMARK  0 active torsions:
REMARK  status: ('A' for Active; 'I' for Inactive)
ROOT
ATOM      1  C   UNL d   1      -0.532   0.565   1.693  0.00  0.00     0.023 A 
ATOM      2  C1  UNL d   1      -1.220   0.403   0.491  0.00  0.00     0.003 A 
ATOM      3  C2  UNL d   1      -0.515   0.271  -0.707  0.00  0.00     0.048 A 
ATOM      4  C3  UNL d   1       0.879   0.299  -0.695  0.00  0.00     0.023 A 
ATOM      5  C4  UNL d   1       1.572   0.460   0.505  0.00  0.00     0.048 A 
ATOM      6  C5  UNL d   1       0.863   0.593   1.700  0.00  0.00     0.003 A 
ATOM      7  I   UNL d   1       1.931   0.101  -2.477  0.00  0.00    -0.146 I 
ENDROOT
TORSDOF 0
ENDMDL
