MODEL 1
REMARK minimizedAffinity -2.97689152
REMARK minimizedRMSD -1
REMARK  0 active torsions:
REMARK  status: ('A' for Active; 'I' for Inactive)
ROOT
ATOM      1  C   UNL d   1      -0.955   0.202   2.754  0.00  0.00     0.023 A 
ATOM      2  C1  UNL d   1       0.346  -0.192   2.438  0.00  0.00     0.003 A 
ATOM      3  C2  UNL d   1       0.729  -0.333   1.103  0.00  0.00     0.048 A 
ATOM      4  C3  UNL d   1      -0.192  -0.078   0.088  0.00  0.00     0.023 A 
ATOM      5  C4  UNL d   1      -1.494   0.318   0.399  0.00  0.00     0.048 A 
ATOM      6  C5  UNL d   1      -1.873   0.457   1.735  0.00  0.00     0.003 A 
ATOM      7  I   UNL d   1       0.377  -0.287  -1.900  0.00  0.00    -0.146 I 
ENDROOT
TORSDOF 0
ENDMDL
