MODEL 1
REMARK minimizedAffinity -5.32027531
REMARK minimizedRMSD -1
REMARK  0 active torsions:
REMARK  status: ('A' for Active; 'I' for Inactive)
ROOT
ATOM      1  C   UNL d   1      -0.363  -0.409   2.915  0.00  0.00     0.023 A 
ATOM      2  C1  UNL d   1      -1.454  -0.505   2.051  0.00  0.00     0.003 A 
ATOM      3  C2  UNL d   1      -1.285  -0.280   0.683  0.00  0.00     0.048 A 
ATOM      4  C3  UNL d   1      -0.023   0.041   0.186  0.00  0.00     0.023 A 
ATOM      5  C4  UNL d   1       1.072   0.137   1.046  0.00  0.00     0.048 A 
ATOM      6  C5  UNL d   1       0.899  -0.088   2.413  0.00  0.00     0.003 A 
ATOM      7  I   UNL d   1       0.231   0.376  -1.850  0.00  0.00    -0.146 I 
ENDROOT
TORSDOF 0
ENDMDL
