MODEL 1
REMARK minimizedAffinity -0.716265559
REMARK minimizedRMSD -1
REMARK  0 active torsions:
REMARK  status: ('A' for Active; 'I' for Inactive)
ROOT
ATOM      1  C   UNL d   1      -0.484   0.493   0.821  0.00  0.00     0.023 A 
ATOM      2  C1  UNL d   1      -1.293   0.219  -0.282  0.00  0.00     0.003 A 
ATOM      3  C2  UNL d   1      -0.738  -0.345  -1.433  0.00  0.00     0.048 A 
ATOM      4  C3  UNL d   1       0.626  -0.633  -1.474  0.00  0.00     0.023 A 
ATOM      5  C4  UNL d   1       1.438  -0.361  -0.372  0.00  0.00     0.048 A 
ATOM      6  C5  UNL d   1       0.879   0.204   0.776  0.00  0.00     0.003 A 
ATOM      7  I   UNL d   1       1.454  -1.473  -3.185  0.00  0.00    -0.146 I 
ENDROOT
TORSDOF 0
ENDMDL
