MODEL 1
REMARK minimizedAffinity -0.72508347
REMARK minimizedRMSD -1
REMARK  0 active torsions:
REMARK  status: ('A' for Active; 'I' for Inactive)
ROOT
ATOM      1  C   UNL d   1       1.285  -1.217  -3.803  0.00  0.00     0.023 A 
ATOM      2  C1  UNL d   1       0.366  -1.937  -3.040  0.00  0.00     0.003 A 
ATOM      3  C2  UNL d   1       0.084  -1.544  -1.730  0.00  0.00     0.048 A 
ATOM      4  C3  UNL d   1       0.723  -0.428  -1.190  0.00  0.00     0.023 A 
ATOM      5  C4  UNL d   1       1.642   0.296  -1.951  0.00  0.00     0.048 A 
ATOM      6  C5  UNL d   1       1.922  -0.102  -3.259  0.00  0.00     0.003 A 
ATOM      7  I   UNL d   1       0.304   0.160   0.759  0.00  0.00    -0.146 I 
ENDROOT
TORSDOF 0
ENDMDL
