MODEL 1
REMARK minimizedAffinity -1.15465236
REMARK minimizedRMSD -1
REMARK  0 active torsions:
REMARK  status: ('A' for Active; 'I' for Inactive)
ROOT
ATOM      1  C   UNL d   1      -0.547   0.503   3.017  0.00  0.00     0.023 A 
ATOM      2  C1  UNL d   1      -1.647   0.354   2.172  0.00  0.00     0.003 A 
ATOM      3  C2  UNL d   1      -1.463   0.279   0.790  0.00  0.00     0.048 A 
ATOM      4  C3  UNL d   1      -0.175   0.352   0.260  0.00  0.00     0.023 A 
ATOM      5  C4  UNL d   1       0.929   0.499   1.101  0.00  0.00     0.048 A 
ATOM      6  C5  UNL d   1       0.739   0.575   2.482  0.00  0.00     0.003 A 
ATOM      7  I   UNL d   1       0.102   0.240  -1.797  0.00  0.00    -0.146 I 
ENDROOT
TORSDOF 0
ENDMDL
