MODEL 1
REMARK minimizedAffinity -3.88572383
REMARK minimizedRMSD -1
REMARK  0 active torsions:
REMARK  status: ('A' for Active; 'I' for Inactive)
ROOT
ATOM      1  C   UNL d   1      -0.665   0.112   2.910  0.00  0.00     0.023 A 
ATOM      2  C1  UNL d   1      -1.704   0.105   1.980  0.00  0.00     0.003 A 
ATOM      3  C2  UNL d   1      -1.422   0.006   0.616  0.00  0.00     0.048 A 
ATOM      4  C3  UNL d   1      -0.097  -0.087   0.189  0.00  0.00     0.023 A 
ATOM      5  C4  UNL d   1       0.946  -0.081   1.117  0.00  0.00     0.048 A 
ATOM      6  C5  UNL d   1       0.658   0.019   2.479  0.00  0.00     0.003 A 
ATOM      7  I   UNL d   1       0.326  -0.235  -1.840  0.00  0.00    -0.146 I 
ENDROOT
TORSDOF 0
ENDMDL
