MODEL 1
REMARK minimizedAffinity -2.89711618
REMARK minimizedRMSD -1
REMARK  1 active torsions:
REMARK  status: ('A' for Active; 'I' for Inactive)
REMARK    1  A    between atoms: C3_4  and  O_7 
ROOT
ATOM      1  C   UNL d   1      -4.897   3.503  -3.370  0.00  0.00    -0.033 A 
ATOM      2  C1  UNL d   1      -3.797   3.919  -2.618  0.00  0.00     0.039 A 
ATOM      3  C2  UNL d   1      -3.798   3.759  -1.230  0.00  0.00    -0.080 A 
ATOM      4  C3  UNL d   1      -4.902   3.182  -0.609  0.00  0.00     0.150 A 
ATOM      5  C4  UNL d   1      -6.000   2.763  -1.353  0.00  0.00    -0.007 A 
ATOM      6  C5  UNL d   1      -5.998   2.924  -2.738  0.00  0.00     0.039 A 
ENDROOT
BRANCH   4   7
ATOM      7  O   UNL d   1      -4.950   3.010   0.742  0.00  0.00    -0.526 OA
ATOM      8  H5  UNL d   1      -4.135   3.373   1.128  0.00  0.00     0.418 HD
ENDBRANCH   4   7
TORSDOF 1
ENDMDL
