MODEL 1
REMARK minimizedAffinity -2.17726827
REMARK minimizedRMSD -1
REMARK  1 active torsions:
REMARK  status: ('A' for Active; 'I' for Inactive)
REMARK    1  A    between atoms: C3_4  and  O_7 
ROOT
ATOM      1  C   UNL d   1      -5.990   3.011  -4.608  0.00  0.00    -0.033 A 
ATOM      2  C1  UNL d   1      -5.994   1.678  -4.190  0.00  0.00     0.039 A 
ATOM      3  C2  UNL d   1      -5.999   1.372  -2.828  0.00  0.00    -0.080 A 
ATOM      4  C3  UNL d   1      -6.000   2.405  -1.895  0.00  0.00     0.150 A 
ATOM      5  C4  UNL d   1      -5.999   3.735  -2.305  0.00  0.00    -0.007 A 
ATOM      6  C5  UNL d   1      -5.994   4.039  -3.665  0.00  0.00     0.039 A 
ENDROOT
BRANCH   4   7
ATOM      7  O   UNL d   1      -5.999   2.156  -0.555  0.00  0.00    -0.526 OA
ATOM      8  H5  UNL d   1      -5.971   1.194  -0.421  0.00  0.00     0.418 HD
ENDBRANCH   4   7
TORSDOF 1
ENDMDL
