MODEL 1
REMARK minimizedAffinity -0.953236401
REMARK minimizedRMSD -1
REMARK  1 active torsions:
REMARK  status: ('A' for Active; 'I' for Inactive)
REMARK    1  A    between atoms: C3_4  and  O_7 
ROOT
ATOM      1  C   UNL d   1      -5.995   2.494  -1.511  0.00  0.00    -0.033 A 
ATOM      2  C1  UNL d   1      -6.000   1.379  -2.351  0.00  0.00     0.039 A 
ATOM      3  C2  UNL d   1      -5.999   1.548  -3.737  0.00  0.00    -0.080 A 
ATOM      4  C3  UNL d   1      -5.992   2.835  -4.269  0.00  0.00     0.150 A 
ATOM      5  C4  UNL d   1      -5.983   3.950  -3.437  0.00  0.00    -0.007 A 
ATOM      6  C5  UNL d   1      -5.985   3.779  -2.054  0.00  0.00     0.039 A 
ENDROOT
BRANCH   4   7
ATOM      7  O   UNL d   1      -5.996   3.049  -5.615  0.00  0.00    -0.526 OA
ATOM      8  H5  UNL d   1      -6.032   2.188  -6.064  0.00  0.00     0.418 HD
ENDBRANCH   4   7
TORSDOF 1
ENDMDL
