MODEL 1
REMARK minimizedAffinity -0.899539292
REMARK minimizedRMSD -1
REMARK  1 active torsions:
REMARK  status: ('A' for Active; 'I' for Inactive)
REMARK    1  A    between atoms: C3_4  and  O_7 
ROOT
ATOM      1  C   UNL d   1      -5.601   2.445  -4.077  0.00  0.00    -0.033 A 
ATOM      2  C1  UNL d   1      -5.999   1.213  -3.554  0.00  0.00     0.039 A 
ATOM      3  C2  UNL d   1      -5.999   1.007  -2.173  0.00  0.00    -0.080 A 
ATOM      4  C3  UNL d   1      -5.603   2.040  -1.328  0.00  0.00     0.150 A 
ATOM      5  C4  UNL d   1      -5.210   3.271  -1.842  0.00  0.00    -0.007 A 
ATOM      6  C5  UNL d   1      -5.208   3.474  -3.222  0.00  0.00     0.039 A 
ENDROOT
BRANCH   4   7
ATOM      7  O   UNL d   1      -5.582   1.885   0.027  0.00  0.00    -0.526 OA
ATOM      8  H5  UNL d   1      -5.851   0.974   0.236  0.00  0.00     0.418 HD
ENDBRANCH   4   7
TORSDOF 1
ENDMDL
