MODEL 1
REMARK minimizedAffinity 7.26377344
REMARK minimizedRMSD -1
REMARK  1 active torsions:
REMARK  status: ('A' for Active; 'I' for Inactive)
REMARK    1  A    between atoms: C3_4  and  O_7 
ROOT
ATOM      1  C   UNL d   1      -1.613   5.993  -1.100  0.00  0.00    -0.033 A 
ATOM      2  C1  UNL d   1      -0.751   5.999  -0.002  0.00  0.00     0.039 A 
ATOM      3  C2  UNL d   1      -0.058   4.840   0.350  0.00  0.00    -0.080 A 
ATOM      4  C3  UNL d   1      -0.234   3.683  -0.403  0.00  0.00     0.150 A 
ATOM      5  C4  UNL d   1      -1.088   3.670  -1.501  0.00  0.00    -0.007 A 
ATOM      6  C5  UNL d   1      -1.781   4.828  -1.851  0.00  0.00     0.039 A 
ENDROOT
BRANCH   4   7
ATOM      7  O   UNL d   1       0.418   2.526  -0.095  0.00  0.00    -0.526 OA
ATOM      8  H5  UNL d   1       0.951   2.676   0.704  0.00  0.00     0.418 HD
ENDBRANCH   4   7
TORSDOF 1
ENDMDL
