MODEL 1
REMARK minimizedAffinity -0.152171448
REMARK minimizedRMSD -1
REMARK  0 active torsions:
REMARK  status: ('A' for Active; 'I' for Inactive)
ROOT
ATOM      1  C   UNL d   1       0.118  -0.372   2.115  0.00  0.00     0.020 A 
ATOM      2  C1  UNL d   1       0.240   0.930   1.631  0.00  0.00     0.020 A 
ATOM      3  C2  UNL d   1       0.517   1.149   0.280  0.00  0.00     0.034 A 
ATOM      4  C3  UNL d   1       0.672   0.065  -0.592  0.00  0.00     0.017 A 
ATOM      5  C4  UNL d   1       0.549  -1.241  -0.105  0.00  0.00     0.017 A 
ATOM      6  C5  UNL d   1       0.272  -1.455   1.248  0.00  0.00     0.034 A 
ATOM      7 Cl   UNL d   1       0.728  -2.629  -1.120  0.00  0.00    -0.070 Cl
ATOM      8 Cl1  UNL d   1       1.013   0.411  -2.251  0.00  0.00    -0.070 Cl
ENDROOT
TORSDOF 0
ENDMDL
