MODEL 1
REMARK minimizedAffinity 0.0333586
REMARK minimizedRMSD -1
REMARK  0 active torsions:
REMARK  status: ('A' for Active; 'I' for Inactive)
ROOT
ATOM      1  C   UNL d   1      -0.014   1.788   2.099  0.00  0.00     0.020 A 
ATOM      2  C1  UNL d   1       0.324   0.438   2.017  0.00  0.00     0.020 A 
ATOM      3  C2  UNL d   1       0.501  -0.163   0.769  0.00  0.00     0.034 A 
ATOM      4  C3  UNL d   1       0.340   0.587  -0.402  0.00  0.00     0.017 A 
ATOM      5  C4  UNL d   1       0.001   1.942  -0.318  0.00  0.00     0.017 A 
ATOM      6  C5  UNL d   1      -0.174   2.539   0.934  0.00  0.00     0.034 A 
ATOM      7 Cl   UNL d   1      -0.214   2.932  -1.719  0.00  0.00    -0.070 Cl
ATOM      8 Cl1  UNL d   1       0.574  -0.221  -1.911  0.00  0.00    -0.070 Cl
ENDROOT
TORSDOF 0
ENDMDL
