MODEL 1
REMARK minimizedAffinity -3.39686179
REMARK minimizedRMSD -1
REMARK  0 active torsions:
REMARK  status: ('A' for Active; 'I' for Inactive)
ROOT
ATOM      1  C   UNL d   1       0.660   0.100   1.964  0.00  0.00     0.020 A 
ATOM      2  C1  UNL d   1       0.121   1.366   2.187  0.00  0.00     0.020 A 
ATOM      3  C2  UNL d   1      -0.120   2.222   1.110  0.00  0.00     0.034 A 
ATOM      4  C3  UNL d   1       0.178   1.813  -0.195  0.00  0.00     0.017 A 
ATOM      5  C4  UNL d   1       0.718   0.541  -0.418  0.00  0.00     0.017 A 
ATOM      6  C5  UNL d   1       0.957  -0.312   0.664  0.00  0.00     0.034 A 
ATOM      7 Cl   UNL d   1       1.111  -0.035  -1.999  0.00  0.00    -0.070 Cl
ATOM      8 Cl1  UNL d   1      -0.146   2.922  -1.479  0.00  0.00    -0.070 Cl
ENDROOT
TORSDOF 0
ENDMDL
