MODEL 1
REMARK minimizedAffinity -4.25867367
REMARK minimizedRMSD -1
REMARK  0 active torsions:
REMARK  status: ('A' for Active; 'I' for Inactive)
ROOT
ATOM      1  C   UNL d   1      -0.709   0.406   2.580  0.00  0.00     0.020 A 
ATOM      2  C1  UNL d   1      -0.595   1.766   2.294  0.00  0.00     0.020 A 
ATOM      3  C2  UNL d   1      -0.558   2.200   0.967  0.00  0.00     0.034 A 
ATOM      4  C3  UNL d   1      -0.634   1.273  -0.079  0.00  0.00     0.017 A 
ATOM      5  C4  UNL d   1      -0.748  -0.092   0.209  0.00  0.00     0.017 A 
ATOM      6  C5  UNL d   1      -0.786  -0.520   1.539  0.00  0.00     0.034 A 
ATOM      7 Cl   UNL d   1      -0.847  -1.295  -1.028  0.00  0.00    -0.070 Cl
ATOM      8 Cl1  UNL d   1      -0.582   1.880  -1.696  0.00  0.00    -0.070 Cl
ENDROOT
TORSDOF 0
ENDMDL
