MODEL 1
REMARK minimizedAffinity -4.68467331
REMARK minimizedRMSD -1
REMARK  0 active torsions:
REMARK  status: ('A' for Active; 'I' for Inactive)
ROOT
ATOM      1  C   UNL d   1      -0.177   0.766   2.132  0.00  0.00     0.020 A 
ATOM      2  C1  UNL d   1       0.263   1.924   1.492  0.00  0.00     0.020 A 
ATOM      3  C2  UNL d   1       0.622   1.882   0.143  0.00  0.00     0.034 A 
ATOM      4  C3  UNL d   1       0.541   0.680  -0.570  0.00  0.00     0.017 A 
ATOM      5  C4  UNL d   1       0.099  -0.481   0.074  0.00  0.00     0.017 A 
ATOM      6  C5  UNL d   1      -0.258  -0.434   1.425  0.00  0.00     0.034 A 
ATOM      7 Cl   UNL d   1      -0.027  -2.001  -0.740  0.00  0.00    -0.070 Cl
ATOM      8 Cl1  UNL d   1       1.000   0.702  -2.236  0.00  0.00    -0.070 Cl
ENDROOT
TORSDOF 0
ENDMDL
