MODEL 1
REMARK minimizedAffinity -0.76689899
REMARK minimizedRMSD -1
REMARK  0 active torsions:
REMARK  status: ('A' for Active; 'I' for Inactive)
ROOT
ATOM      1  C   UNL d   1       0.546  -0.714   0.319  0.00  0.00     0.020 A 
ATOM      2  C1  UNL d   1       0.364  -0.355   1.654  0.00  0.00     0.020 A 
ATOM      3  C2  UNL d   1      -0.121   0.915   1.976  0.00  0.00     0.034 A 
ATOM      4  C3  UNL d   1      -0.426   1.830   0.962  0.00  0.00     0.017 A 
ATOM      5  C4  UNL d   1      -0.243   1.468  -0.378  0.00  0.00     0.017 A 
ATOM      6  C5  UNL d   1       0.242   0.196  -0.695  0.00  0.00     0.034 A 
ATOM      7 Cl   UNL d   1      -0.598   2.543  -1.684  0.00  0.00    -0.070 Cl
ATOM      8 Cl1  UNL d   1      -1.022   3.382   1.432  0.00  0.00    -0.070 Cl
ENDROOT
TORSDOF 0
ENDMDL
