MODEL 1
REMARK minimizedAffinity 9.01937199
REMARK minimizedRMSD -1
REMARK  0 active torsions:
REMARK  status: ('A' for Active; 'I' for Inactive)
ROOT
ATOM      1  C   UNL d   1       0.445  -0.008   2.622  0.00  0.00     0.020 A 
ATOM      2  C1  UNL d   1       0.725   1.191   3.276  0.00  0.00     0.020 A 
ATOM      3  C2  UNL d   1       0.734   2.391   2.561  0.00  0.00     0.034 A 
ATOM      4  C3  UNL d   1       0.462   2.393   1.188  0.00  0.00     0.017 A 
ATOM      5  C4  UNL d   1       0.181   1.189   0.533  0.00  0.00     0.017 A 
ATOM      6  C5  UNL d   1       0.174  -0.009   1.253  0.00  0.00     0.034 A 
ATOM      7 Cl   UNL d   1      -0.163   1.113  -1.159  0.00  0.00    -0.070 Cl
ATOM      8 Cl1  UNL d   1       0.490   3.913   0.367  0.00  0.00    -0.070 Cl
ENDROOT
TORSDOF 0
ENDMDL
