MODEL 1
REMARK minimizedAffinity -3.71772885
REMARK minimizedRMSD -1
REMARK  1 active torsions:
REMARK  status: ('A' for Active; 'I' for Inactive)
REMARK    1  A    between atoms: C3_4  and  O_7 
ROOT
ATOM      1  C   UNL d   1       2.028  -2.041  -0.665  0.00  0.00    -0.033 A 
ATOM      2  C1  UNL d   1       3.242  -1.542  -1.143  0.00  0.00     0.039 A 
ATOM      3  C2  UNL d   1       3.611  -0.223  -0.873  0.00  0.00    -0.080 A 
ATOM      4  C3  UNL d   1       2.760   0.586  -0.125  0.00  0.00     0.150 A 
ATOM      5  C4  UNL d   1       1.551   0.094   0.357  0.00  0.00    -0.007 A 
ATOM      6  C5  UNL d   1       1.184  -1.223   0.086  0.00  0.00     0.039 A 
ENDROOT
BRANCH   4   7
ATOM      7  O   UNL d   1       3.076   1.881   0.160  0.00  0.00    -0.526 OA
ATOM      8  H5  UNL d   1       3.925   2.091  -0.262  0.00  0.00     0.418 HD
ENDBRANCH   4   7
TORSDOF 1
ENDMDL
