MODEL 1
REMARK minimizedAffinity 3.14715099
REMARK minimizedRMSD -1
REMARK  1 active torsions:
REMARK  status: ('A' for Active; 'I' for Inactive)
REMARK    1  A    between atoms: C3_4  and  O_7 
ROOT
ATOM      1  C   UNL d   1      -1.000  -0.007  -0.647  0.00  0.00    -0.033 A 
ATOM      2  C1  UNL d   1      -1.058  -1.327  -1.100  0.00  0.00     0.039 A 
ATOM      3  C2  UNL d   1       0.034  -2.177  -0.921  0.00  0.00    -0.080 A 
ATOM      4  C3  UNL d   1       1.178  -1.697  -0.288  0.00  0.00     0.150 A 
ATOM      5  C4  UNL d   1       1.241  -0.385   0.169  0.00  0.00    -0.007 A 
ATOM      6  C5  UNL d   1       0.150   0.463  -0.012  0.00  0.00     0.039 A 
ENDROOT
BRANCH   4   7
ATOM      7  O   UNL d   1       2.271  -2.488  -0.095  0.00  0.00    -0.526 OA
ATOM      8  H5  UNL d   1       2.093  -3.360  -0.487  0.00  0.00     0.418 HD
ENDBRANCH   4   7
TORSDOF 1
ENDMDL
