MODEL 1
REMARK minimizedAffinity -3.06938767
REMARK minimizedRMSD -1
REMARK  1 active torsions:
REMARK  status: ('A' for Active; 'I' for Inactive)
REMARK    1  A    between atoms: C3_4  and  O_7 
ROOT
ATOM      1  C   UNL d   1       3.584  -2.356  -1.527  0.00  0.00    -0.033 A 
ATOM      2  C1  UNL d   1       2.560  -2.493  -0.588  0.00  0.00     0.039 A 
ATOM      3  C2  UNL d   1       2.080  -1.373   0.093  0.00  0.00    -0.080 A 
ATOM      4  C3  UNL d   1       2.631  -0.123  -0.175  0.00  0.00     0.150 A 
ATOM      5  C4  UNL d   1       3.648   0.022  -1.112  0.00  0.00    -0.007 A 
ATOM      6  C5  UNL d   1       4.127  -1.098  -1.791  0.00  0.00     0.039 A 
ENDROOT
BRANCH   4   7
ATOM      7  O   UNL d   1       2.199   0.999   0.468  0.00  0.00    -0.526 OA
ATOM      8  H5  UNL d   1       1.514   0.743   1.108  0.00  0.00     0.418 HD
ENDBRANCH   4   7
TORSDOF 1
ENDMDL
