MODEL 1
REMARK minimizedAffinity 3.97024465
REMARK minimizedRMSD -1
REMARK  1 active torsions:
REMARK  status: ('A' for Active; 'I' for Inactive)
REMARK    1  A    between atoms: C3_4  and  O_7 
ROOT
ATOM      1  C   UNL d   1       4.728   5.874   5.912  0.00  0.00    -0.033 A 
ATOM      2  C1  UNL d   1       3.938   4.726   5.997  0.00  0.00     0.039 A 
ATOM      3  C2  UNL d   1       4.176   3.648   5.142  0.00  0.00    -0.080 A 
ATOM      4  C3  UNL d   1       5.206   3.730   4.209  0.00  0.00     0.150 A 
ATOM      5  C4  UNL d   1       5.999   4.869   4.122  0.00  0.00    -0.007 A 
ATOM      6  C5  UNL d   1       5.760   5.945   4.975  0.00  0.00     0.039 A 
ENDROOT
BRANCH   4   7
ATOM      7  O   UNL d   1       5.473   2.705   3.350  0.00  0.00    -0.526 OA
ATOM      8  H5  UNL d   1       4.827   1.997   3.507  0.00  0.00     0.418 HD
ENDBRANCH   4   7
TORSDOF 1
ENDMDL
