MODEL 1
REMARK minimizedAffinity 1.68956304
REMARK minimizedRMSD -1
REMARK  1 active torsions:
REMARK  status: ('A' for Active; 'I' for Inactive)
REMARK    1  A    between atoms: C3_4  and  O_7 
ROOT
ATOM      1  C   UNL d   1      -0.084  -2.587  -1.194  0.00  0.00    -0.033 A 
ATOM      2  C1  UNL d   1      -0.948  -1.540  -1.519  0.00  0.00     0.039 A 
ATOM      3  C2  UNL d   1      -0.575  -0.219  -1.261  0.00  0.00    -0.080 A 
ATOM      4  C3  UNL d   1       0.663   0.040  -0.679  0.00  0.00     0.150 A 
ATOM      5  C4  UNL d   1       1.530  -0.999  -0.356  0.00  0.00    -0.007 A 
ATOM      6  C5  UNL d   1       1.156  -2.317  -0.614  0.00  0.00     0.039 A 
ENDROOT
BRANCH   4   7
ATOM      7  O   UNL d   1       1.069   1.312  -0.404  0.00  0.00    -0.526 OA
ATOM      8  H5  UNL d   1       0.356   1.923  -0.654  0.00  0.00     0.418 HD
ENDBRANCH   4   7
TORSDOF 1
ENDMDL
