MODEL 1
REMARK minimizedAffinity -2.36579108
REMARK minimizedRMSD -1
REMARK  1 active torsions:
REMARK  status: ('A' for Active; 'I' for Inactive)
REMARK    1  A    between atoms: C3_4  and  O_7 
ROOT
ATOM      1  C   UNL d   1       0.176  -1.150  -0.852  0.00  0.00    -0.033 A 
ATOM      2  C1  UNL d   1       0.270  -1.149   0.541  0.00  0.00     0.039 A 
ATOM      3  C2  UNL d   1       1.486  -1.438   1.162  0.00  0.00    -0.080 A 
ATOM      4  C3  UNL d   1       2.601  -1.726   0.379  0.00  0.00     0.150 A 
ATOM      5  C4  UNL d   1       2.516  -1.726  -1.009  0.00  0.00    -0.007 A 
ATOM      6  C5  UNL d   1       1.300  -1.438  -1.627  0.00  0.00     0.039 A 
ENDROOT
BRANCH   4   7
ATOM      7  O   UNL d   1       3.809  -2.020   0.939  0.00  0.00    -0.526 OA
ATOM      8  H5  UNL d   1       3.710  -2.011   1.906  0.00  0.00     0.418 HD
ENDBRANCH   4   7
TORSDOF 1
ENDMDL
