MODEL 1
REMARK minimizedAffinity 0.182530254
REMARK minimizedRMSD -1
REMARK  1 active torsions:
REMARK  status: ('A' for Active; 'I' for Inactive)
REMARK    1  A    between atoms: C3_4  and  O_7 
ROOT
ATOM      1  C   UNL d   1      -0.101  -1.714  -0.819  0.00  0.00    -0.033 A 
ATOM      2  C1  UNL d   1       0.857  -1.106  -0.005  0.00  0.00     0.039 A 
ATOM      3  C2  UNL d   1       0.924   0.286   0.076  0.00  0.00    -0.080 A 
ATOM      4  C3  UNL d   1       0.029   1.058  -0.659  0.00  0.00     0.150 A 
ATOM      5  C4  UNL d   1      -0.931   0.459  -1.469  0.00  0.00    -0.007 A 
ATOM      6  C5  UNL d   1      -0.996  -0.931  -1.550  0.00  0.00     0.039 A 
ENDROOT
BRANCH   4   7
ATOM      7  O   UNL d   1       0.059   2.420  -0.615  0.00  0.00    -0.526 OA
ATOM      8  H5  UNL d   1       0.791   2.693  -0.037  0.00  0.00     0.418 HD
ENDBRANCH   4   7
TORSDOF 1
ENDMDL
