MODEL 1
REMARK minimizedAffinity -1.81628323
REMARK minimizedRMSD -1
REMARK  1 active torsions:
REMARK  status: ('A' for Active; 'I' for Inactive)
REMARK    1  A    between atoms: C3_4  and  O_7 
ROOT
ATOM      1  C   UNL d   1       2.319   0.633  -0.338  0.00  0.00    -0.033 A 
ATOM      2  C1  UNL d   1       1.299  -0.217  -0.772  0.00  0.00     0.039 A 
ATOM      3  C2  UNL d   1       1.613  -1.396  -1.453  0.00  0.00    -0.080 A 
ATOM      4  C3  UNL d   1       2.947  -1.712  -1.692  0.00  0.00     0.150 A 
ATOM      5  C4  UNL d   1       3.968  -0.872  -1.259  0.00  0.00    -0.007 A 
ATOM      6  C5  UNL d   1       3.653   0.304  -0.580  0.00  0.00     0.039 A 
ENDROOT
BRANCH   4   7
ATOM      7  O   UNL d   1       3.302  -2.849  -2.356  0.00  0.00    -0.526 OA
ATOM      8  H5  UNL d   1       2.492  -3.317  -2.620  0.00  0.00     0.418 HD
ENDBRANCH   4   7
TORSDOF 1
ENDMDL
