MODEL 1
REMARK minimizedAffinity -1.94939482
REMARK minimizedRMSD -1
REMARK  0 active torsions:
REMARK  status: ('A' for Active; 'I' for Inactive)
ROOT
ATOM      1  C2' OXE d   1       0.156  -0.931   0.421  0.00  0.00     0.078 C 
ATOM      2  C1' OXE d   1       0.642   1.152   2.239  0.00  0.00     0.078 C 
ATOM      3  C1  OXE d   1       0.149   1.521   0.862  0.00  0.00    -0.078 A 
ATOM      4  C2  OXE d   1      -0.041   0.498  -0.036  0.00  0.00    -0.078 A 
ATOM      5  C3  OXE d   1      -0.547   0.778  -1.303  0.00  0.00     0.003 A 
ATOM      6  C4  OXE d   1      -0.717   2.104  -1.721  0.00  0.00    -0.002 A 
ATOM      7  C5  OXE d   1      -0.491   3.162  -0.835  0.00  0.00    -0.002 A 
ATOM      8  C6  OXE d   1      -0.099   2.886   0.471  0.00  0.00     0.003 A 
ENDROOT
TORSDOF 0
ENDMDL
