MODEL 1
REMARK minimizedAffinity 7.00440168
REMARK minimizedRMSD -1
REMARK  0 active torsions:
REMARK  status: ('A' for Active; 'I' for Inactive)
ROOT
ATOM      1  C2' OXE d   1      -0.010  -0.073  -2.037  0.00  0.00     0.078 C 
ATOM      2  C1' OXE d   1      -1.255   1.182   0.144  0.00  0.00     0.078 C 
ATOM      3  C1  OXE d   1      -0.063   0.302   0.425  0.00  0.00    -0.078 A 
ATOM      4  C2  OXE d   1       0.511  -0.346  -0.643  0.00  0.00    -0.078 A 
ATOM      5  C3  OXE d   1       1.647  -1.126  -0.446  0.00  0.00     0.003 A 
ATOM      6  C4  OXE d   1       2.117  -1.381   0.848  0.00  0.00    -0.002 A 
ATOM      7  C5  OXE d   1       1.523  -0.763   1.953  0.00  0.00    -0.002 A 
ATOM      8  C6  OXE d   1       0.461   0.113   1.755  0.00  0.00     0.003 A 
ENDROOT
TORSDOF 0
ENDMDL
