MODEL 1
REMARK minimizedAffinity 4.22090387
REMARK minimizedRMSD -1
REMARK  0 active torsions:
REMARK  status: ('A' for Active; 'I' for Inactive)
ROOT
ATOM      1  C2' OXE d   1      -5.903   4.894  -3.011  0.00  0.00     0.078 C 
ATOM      2  C1' OXE d   1      -3.218   5.112  -2.222  0.00  0.00     0.078 C 
ATOM      3  C1  OXE d   1      -3.958   3.850  -1.857  0.00  0.00    -0.078 A 
ATOM      4  C2  OXE d   1      -5.285   3.771  -2.206  0.00  0.00    -0.078 A 
ATOM      5  C3  OXE d   1      -6.000   2.606  -1.941  0.00  0.00     0.003 A 
ATOM      6  C4  OXE d   1      -5.423   1.577  -1.188  0.00  0.00    -0.002 A 
ATOM      7  C5  OXE d   1      -4.085   1.654  -0.787  0.00  0.00    -0.002 A 
ATOM      8  C6  OXE d   1      -3.328   2.762  -1.150  0.00  0.00     0.003 A 
ENDROOT
TORSDOF 0
ENDMDL
