MODEL 1
REMARK minimizedAffinity 5.14439344
REMARK minimizedRMSD -1
REMARK  0 active torsions:
REMARK  status: ('A' for Active; 'I' for Inactive)
ROOT
ATOM      1  C2' OXE d   1      -5.992  -2.661   1.120  0.00  0.00     0.078 C 
ATOM      2  C1' OXE d   1      -5.794   0.037   1.870  0.00  0.00     0.078 C 
ATOM      3  C1  OXE d   1      -5.847  -0.996   2.967  0.00  0.00    -0.078 A 
ATOM      4  C2  OXE d   1      -5.992  -2.310   2.592  0.00  0.00    -0.078 A 
ATOM      5  C3  OXE d   1      -5.991  -3.308   3.563  0.00  0.00     0.003 A 
ATOM      6  C4  OXE d   1      -6.000  -2.975   4.922  0.00  0.00    -0.002 A 
ATOM      7  C5  OXE d   1      -5.894  -1.640   5.327  0.00  0.00    -0.002 A 
ATOM      8  C6  OXE d   1      -5.774  -0.644   4.364  0.00  0.00     0.003 A 
ENDROOT
TORSDOF 0
ENDMDL
