MODEL 1
REMARK minimizedAffinity 7.77097416
REMARK minimizedRMSD -1
REMARK  0 active torsions:
REMARK  status: ('A' for Active; 'I' for Inactive)
ROOT
ATOM      1  C2' OXE d   1       1.207   2.715   3.419  0.00  0.00     0.078 C 
ATOM      2  C1' OXE d   1       0.197   0.323   2.355  0.00  0.00     0.078 C 
ATOM      3  C1  OXE d   1       0.156   1.553   1.483  0.00  0.00    -0.078 A 
ATOM      4  C2  OXE d   1       0.610   2.730   2.029  0.00  0.00    -0.078 A 
ATOM      5  C3  OXE d   1       0.645   3.882   1.249  0.00  0.00     0.003 A 
ATOM      6  C4  OXE d   1       0.081   3.889  -0.032  0.00  0.00    -0.002 A 
ATOM      7  C5  OXE d   1      -0.422   2.710  -0.593  0.00  0.00    -0.002 A 
ATOM      8  C6  OXE d   1      -0.354   1.527   0.134  0.00  0.00     0.003 A 
ENDROOT
TORSDOF 0
ENDMDL
