MODEL 1
REMARK minimizedAffinity 16.2912521
REMARK minimizedRMSD -1
REMARK  0 active torsions:
REMARK  status: ('A' for Active; 'I' for Inactive)
ROOT
ATOM      1  C2' OXE d   1       2.063   3.502   3.724  0.00  0.00     0.078 C 
ATOM      2  C1' OXE d   1       1.307   4.219   1.117  0.00  0.00     0.078 C 
ATOM      3  C1  OXE d   1       0.917   2.848   1.611  0.00  0.00    -0.078 A 
ATOM      4  C2  OXE d   1       1.332   2.488   2.871  0.00  0.00    -0.078 A 
ATOM      5  C3  OXE d   1       0.953   1.256   3.395  0.00  0.00     0.003 A 
ATOM      6  C4  OXE d   1       0.286   0.320   2.596  0.00  0.00    -0.002 A 
ATOM      7  C5  OXE d   1      -0.112   0.651   1.296  0.00  0.00    -0.002 A 
ATOM      8  C6  OXE d   1       0.159   1.924   0.805  0.00  0.00     0.003 A 
ENDROOT
TORSDOF 0
ENDMDL
