MODEL 1
REMARK minimizedAffinity 7.10841274
REMARK minimizedRMSD -1
REMARK  0 active torsions:
REMARK  status: ('A' for Active; 'I' for Inactive)
ROOT
ATOM      1  C2' OXE d   1      -5.968  -4.275   3.074  0.00  0.00     0.078 C 
ATOM      2  C1' OXE d   1      -5.954  -4.174   5.879  0.00  0.00     0.078 C 
ATOM      3  C1  OXE d   1      -5.967  -2.866   5.128  0.00  0.00    -0.078 A 
ATOM      4  C2  OXE d   1      -5.927  -2.924   3.756  0.00  0.00    -0.078 A 
ATOM      5  C3  OXE d   1      -5.992  -1.748   3.014  0.00  0.00     0.003 A 
ATOM      6  C4  OXE d   1      -5.944  -0.503   3.653  0.00  0.00    -0.002 A 
ATOM      7  C5  OXE d   1      -5.945  -0.421   5.049  0.00  0.00    -0.002 A 
ATOM      8  C6  OXE d   1      -5.999  -1.590   5.800  0.00  0.00     0.003 A 
ENDROOT
TORSDOF 0
ENDMDL
