MODEL 1
REMARK minimizedAffinity 7.67262316
REMARK minimizedRMSD -1
REMARK  0 active torsions:
REMARK  status: ('A' for Active; 'I' for Inactive)
ROOT
ATOM      1  C2' OXE d   1       1.756  -4.280   0.078  0.00  0.00     0.078 C 
ATOM      2  C1' OXE d   1       0.941  -1.622   0.465  0.00  0.00     0.078 C 
ATOM      3  C1  OXE d   1       0.042  -2.522  -0.345  0.00  0.00    -0.078 A 
ATOM      4  C2  OXE d   1       0.472  -3.808  -0.569  0.00  0.00    -0.078 A 
ATOM      5  C3  OXE d   1      -0.344  -4.697  -1.263  0.00  0.00     0.003 A 
ATOM      6  C4  OXE d   1      -1.526  -4.251  -1.866  0.00  0.00    -0.002 A 
ATOM      7  C5  OXE d   1      -1.962  -2.934  -1.685  0.00  0.00    -0.002 A 
ATOM      8  C6  OXE d   1      -1.213  -2.071  -0.893  0.00  0.00     0.003 A 
ENDROOT
TORSDOF 0
ENDMDL
