MODEL 1
REMARK minimizedAffinity -2.35555315
REMARK minimizedRMSD -1
REMARK  0 active torsions:
REMARK  status: ('A' for Active; 'I' for Inactive)
ROOT
ATOM      1  C2' OXE d   1      -3.697  -1.235  -2.060  0.00  0.00     0.078 C 
ATOM      2  C1' OXE d   1      -1.456  -2.418  -0.853  0.00  0.00     0.078 C 
ATOM      3  C1  OXE d   1      -1.455  -0.919  -1.021  0.00  0.00    -0.078 A 
ATOM      4  C2  OXE d   1      -2.535  -0.354  -1.656  0.00  0.00    -0.078 A 
ATOM      5  C3  OXE d   1      -2.610   1.030  -1.788  0.00  0.00     0.003 A 
ATOM      6  C4  OXE d   1      -1.526   1.837  -1.420  0.00  0.00    -0.002 A 
ATOM      7  C5  OXE d   1      -0.400   1.277  -0.808  0.00  0.00    -0.002 A 
ATOM      8  C6  OXE d   1      -0.366  -0.091  -0.564  0.00  0.00     0.003 A 
ENDROOT
TORSDOF 0
ENDMDL
