MODEL 1
REMARK minimizedAffinity -1.17874908
REMARK minimizedRMSD -1
REMARK  0 active torsions:
REMARK  status: ('A' for Active; 'I' for Inactive)
ROOT
ATOM      1  C2' OXE d   1       0.091   2.582   2.532  0.00  0.00     0.078 C 
ATOM      2  C1' OXE d   1       0.173   3.086  -0.228  0.00  0.00     0.078 C 
ATOM      3  C1  OXE d   1       0.420   1.673   0.237  0.00  0.00    -0.078 A 
ATOM      4  C2  OXE d   1       0.424   1.445   1.592  0.00  0.00    -0.078 A 
ATOM      5  C3  OXE d   1       0.592   0.149   2.072  0.00  0.00     0.003 A 
ATOM      6  C4  OXE d   1       0.910  -0.896   1.196  0.00  0.00    -0.002 A 
ATOM      7  C5  OXE d   1       0.951  -0.677  -0.185  0.00  0.00    -0.002 A 
ATOM      8  C6  OXE d   1       0.667   0.590  -0.683  0.00  0.00     0.003 A 
ENDROOT
TORSDOF 0
ENDMDL
