MODEL 1
REMARK minimizedAffinity -1.73440647
REMARK minimizedRMSD -1
REMARK  1 active torsions:
REMARK  status: ('A' for Active; 'I' for Inactive)
REMARK    1  A    between atoms: C1_2  and  C2_3 
ROOT
ATOM      1  C2  UNL d   1       0.411   0.112  -0.351  0.00  0.00    -0.081 A 
ATOM      2  C3  UNL d   1      -0.105  -0.747  -1.329  0.00  0.00     0.006 A 
ATOM      3  C4  UNL d   1       0.621  -1.014  -2.492  0.00  0.00     0.002 A 
ATOM      4  C5  UNL d   1       1.879  -0.434  -2.692  0.00  0.00    -0.080 A 
ATOM      5  C6  UNL d   1       2.682  -0.737  -3.922  0.00  0.00     0.076 C 
ATOM      6  C7  UNL d   1       2.387   0.437  -1.723  0.00  0.00     0.002 A 
ATOM      7  C8  UNL d   1       1.661   0.705  -0.561  0.00  0.00     0.006 A 
ENDROOT
BRANCH   1   8
ATOM      8  C1  UNL d   1      -0.341   0.351   0.933  0.00  0.00     0.054 C 
ATOM      9  C   UNL d   1      -1.754  -0.210   0.859  0.00  0.00     0.018 C 
ENDBRANCH   1   8
TORSDOF 1
ENDMDL
