MODEL 1
REMARK minimizedAffinity -2.08272552
REMARK minimizedRMSD -1
REMARK  1 active torsions:
REMARK  status: ('A' for Active; 'I' for Inactive)
REMARK    1  A    between atoms: C1_2  and  C2_3 
ROOT
ATOM      1  C2  UNL d   1      -1.196   0.099   0.902  0.00  0.00    -0.081 A 
ATOM      2  C3  UNL d   1      -0.058  -0.696   1.086  0.00  0.00     0.006 A 
ATOM      3  C4  UNL d   1       1.057  -0.540   0.258  0.00  0.00     0.002 A 
ATOM      4  C5  UNL d   1       1.055   0.418  -0.762  0.00  0.00    -0.080 A 
ATOM      5  C6  UNL d   1       2.256   0.616  -1.638  0.00  0.00     0.076 C 
ATOM      6  C7  UNL d   1      -0.089   1.200  -0.957  0.00  0.00     0.002 A 
ATOM      7  C8  UNL d   1      -1.203   1.044  -0.130  0.00  0.00     0.006 A 
ENDROOT
BRANCH   1   8
ATOM      8  C1  UNL d   1      -2.374  -0.022   1.834  0.00  0.00     0.054 C 
ATOM      9  C   UNL d   1      -2.912   1.347   2.226  0.00  0.00     0.018 C 
ENDBRANCH   1   8
TORSDOF 1
ENDMDL
