MODEL 1
REMARK minimizedAffinity -3.70790291
REMARK minimizedRMSD -1
REMARK  1 active torsions:
REMARK  status: ('A' for Active; 'I' for Inactive)
REMARK    1  A    between atoms: C1_2  and  C2_3 
ROOT
ATOM      1  C2  UNL d   1      -1.513   0.459   1.535  0.00  0.00    -0.081 A 
ATOM      2  C3  UNL d   1      -2.910   0.535   1.472  0.00  0.00     0.006 A 
ATOM      3  C4  UNL d   1      -3.588   1.606   2.061  0.00  0.00     0.002 A 
ATOM      4  C5  UNL d   1      -2.881   2.620   2.714  0.00  0.00    -0.080 A 
ATOM      5  C6  UNL d   1      -3.594   3.790   3.324  0.00  0.00     0.076 C 
ATOM      6  C7  UNL d   1      -1.486   2.535   2.792  0.00  0.00     0.002 A 
ATOM      7  C8  UNL d   1      -0.808   1.465   2.204  0.00  0.00     0.006 A 
ENDROOT
BRANCH   1   8
ATOM      8  C1  UNL d   1      -0.775  -0.660   0.845  0.00  0.00     0.054 C 
ATOM      9  C   UNL d   1       0.442  -0.140   0.094  0.00  0.00     0.018 C 
ENDBRANCH   1   8
TORSDOF 1
ENDMDL
