MODEL 1
REMARK minimizedAffinity -3.7633276
REMARK minimizedRMSD -1
REMARK  1 active torsions:
REMARK  status: ('A' for Active; 'I' for Inactive)
REMARK    1  A    between atoms: C1_2  and  C2_3 
ROOT
ATOM      1  C2  UNL d   1       0.203  -0.499   0.490  0.00  0.00    -0.081 A 
ATOM      2  C3  UNL d   1       0.760   0.688   0.000  0.00  0.00     0.006 A 
ATOM      3  C4  UNL d   1       1.431   0.702  -1.225  0.00  0.00     0.002 A 
ATOM      4  C5  UNL d   1       1.548  -0.467  -1.984  0.00  0.00    -0.080 A 
ATOM      5  C6  UNL d   1       2.240  -0.459  -3.315  0.00  0.00     0.076 C 
ATOM      6  C7  UNL d   1       1.007  -1.657  -1.486  0.00  0.00     0.002 A 
ATOM      7  C8  UNL d   1       0.337  -1.672  -0.261  0.00  0.00     0.006 A 
ENDROOT
BRANCH   1   8
ATOM      8  C1  UNL d   1      -0.577  -0.505   1.780  0.00  0.00     0.054 C 
ATOM      9  C   UNL d   1      -1.773   0.434   1.708  0.00  0.00     0.018 C 
ENDBRANCH   1   8
TORSDOF 1
ENDMDL
