MODEL 1
REMARK minimizedAffinity -3.46742511
REMARK minimizedRMSD -1
REMARK  1 active torsions:
REMARK  status: ('A' for Active; 'I' for Inactive)
REMARK    1  A    between atoms: C1_2  and  C2_3 
ROOT
ATOM      1  C2  UNL d   1       0.123  -0.190   0.509  0.00  0.00    -0.081 A 
ATOM      2  C3  UNL d   1       0.893   0.899   0.082  0.00  0.00     0.006 A 
ATOM      3  C4  UNL d   1       1.602   0.836  -1.120  0.00  0.00     0.002 A 
ATOM      4  C5  UNL d   1       1.547  -0.312  -1.918  0.00  0.00    -0.080 A 
ATOM      5  C6  UNL d   1       2.278  -0.380  -3.226  0.00  0.00     0.076 C 
ATOM      6  C7  UNL d   1       0.791  -1.406  -1.483  0.00  0.00     0.002 A 
ATOM      7  C8  UNL d   1       0.083  -1.344  -0.280  0.00  0.00     0.006 A 
ENDROOT
BRANCH   1   8
ATOM      8  C1  UNL d   1      -0.694  -0.101   1.773  0.00  0.00     0.054 C 
ATOM      9  C   UNL d   1      -2.138   0.274   1.473  0.00  0.00     0.018 C 
ENDBRANCH   1   8
TORSDOF 1
ENDMDL
