MODEL 1
REMARK minimizedAffinity -2.25056815
REMARK minimizedRMSD -1
REMARK  1 active torsions:
REMARK  status: ('A' for Active; 'I' for Inactive)
REMARK    1  A    between atoms: C1_2  and  C2_3 
ROOT
ATOM      1  C2  UNL d   1      -0.021   0.034   0.648  0.00  0.00    -0.081 A 
ATOM      2  C3  UNL d   1      -0.777  -0.406  -0.445  0.00  0.00     0.006 A 
ATOM      3  C4  UNL d   1      -0.220  -0.434  -1.726  0.00  0.00     0.002 A 
ATOM      4  C5  UNL d   1       1.103  -0.030  -1.934  0.00  0.00    -0.080 A 
ATOM      5  C6  UNL d   1       1.722  -0.083  -3.299  0.00  0.00     0.076 C 
ATOM      6  C7  UNL d   1       1.853   0.426  -0.845  0.00  0.00     0.002 A 
ATOM      7  C8  UNL d   1       1.297   0.455   0.436  0.00  0.00     0.006 A 
ENDROOT
BRANCH   1   8
ATOM      8  C1  UNL d   1      -0.597   0.004   2.040  0.00  0.00     0.054 C 
ATOM      9  C   UNL d   1      -1.863   0.843   2.134  0.00  0.00     0.018 C 
ENDBRANCH   1   8
TORSDOF 1
ENDMDL
