MODEL 1
REMARK minimizedAffinity -4.33108282
REMARK minimizedRMSD -1
REMARK  1 active torsions:
REMARK  status: ('A' for Active; 'I' for Inactive)
REMARK    1  A    between atoms: C1_2  and  C2_3 
ROOT
ATOM      1  C2  UNL d   1       0.824   0.143  -0.727  0.00  0.00    -0.081 A 
ATOM      2  C3  UNL d   1      -0.360   0.787  -1.107  0.00  0.00     0.006 A 
ATOM      3  C4  UNL d   1      -1.476   0.771  -0.268  0.00  0.00     0.002 A 
ATOM      4  C5  UNL d   1      -1.425   0.117   0.968  0.00  0.00    -0.080 A 
ATOM      5  C6  UNL d   1      -2.607   0.118   1.892  0.00  0.00     0.076 C 
ATOM      6  C7  UNL d   1      -0.249  -0.542   1.340  0.00  0.00     0.002 A 
ATOM      7  C8  UNL d   1       0.868  -0.526   0.501  0.00  0.00     0.006 A 
ENDROOT
BRANCH   1   8
ATOM      8  C1  UNL d   1       2.050   0.213  -1.601  0.00  0.00     0.054 C 
ATOM      9  C   UNL d   1       1.800  -0.430  -2.958  0.00  0.00     0.018 C 
ENDBRANCH   1   8
TORSDOF 1
ENDMDL
