MODEL 1
REMARK minimizedAffinity -3.62395144
REMARK minimizedRMSD -1
REMARK  1 active torsions:
REMARK  status: ('A' for Active; 'I' for Inactive)
REMARK    1  A    between atoms: C1_2  and  C2_3 
ROOT
ATOM      1  C2  UNL d   1       0.005  -0.019   0.665  0.00  0.00    -0.081 A 
ATOM      2  C3  UNL d   1       0.990   0.916   0.324  0.00  0.00     0.006 A 
ATOM      3  C4  UNL d   1       1.521   0.947  -0.967  0.00  0.00     0.002 A 
ATOM      4  C5  UNL d   1       1.073   0.048  -1.941  0.00  0.00    -0.080 A 
ATOM      5  C6  UNL d   1       1.614   0.089  -3.339  0.00  0.00     0.076 C 
ATOM      6  C7  UNL d   1       0.102  -0.899  -1.596  0.00  0.00     0.002 A 
ATOM      7  C8  UNL d   1      -0.430  -0.930  -0.305  0.00  0.00     0.006 A 
ENDROOT
BRANCH   1   8
ATOM      8  C1  UNL d   1      -0.617  -0.012   2.038  0.00  0.00     0.054 C 
ATOM      9  C   UNL d   1      -1.995   0.633   2.018  0.00  0.00     0.018 C 
ENDBRANCH   1   8
TORSDOF 1
ENDMDL
