MODEL 1
REMARK minimizedAffinity -3.10825872
REMARK minimizedRMSD -1
REMARK  1 active torsions:
REMARK  status: ('A' for Active; 'I' for Inactive)
REMARK    1  A    between atoms: C1_2  and  C2_3 
ROOT
ATOM      1  C2  UNL d   1       0.010  -0.333   0.675  0.00  0.00    -0.081 A 
ATOM      2  C3  UNL d   1       0.701   0.699   0.028  0.00  0.00     0.006 A 
ATOM      3  C4  UNL d   1       1.679   0.407  -0.926  0.00  0.00     0.002 A 
ATOM      4  C5  UNL d   1       1.976  -0.920  -1.255  0.00  0.00    -0.080 A 
ATOM      5  C6  UNL d   1       3.002  -1.246  -2.299  0.00  0.00     0.076 C 
ATOM      6  C7  UNL d   1       1.298  -1.951  -0.596  0.00  0.00     0.002 A 
ATOM      7  C8  UNL d   1       0.321  -1.660   0.358  0.00  0.00     0.006 A 
ENDROOT
BRANCH   1   8
ATOM      8  C1  UNL d   1      -1.090  -0.021   1.656  0.00  0.00     0.054 C 
ATOM      9  C   UNL d   1      -2.433   0.126   0.955  0.00  0.00     0.018 C 
ENDBRANCH   1   8
TORSDOF 1
ENDMDL
