MODEL 1
REMARK minimizedAffinity -0.868885398
REMARK minimizedRMSD -1
REMARK  1 active torsions:
REMARK  status: ('A' for Active; 'I' for Inactive)
REMARK    1  A    between atoms: C1_2  and  C2_3 
ROOT
ATOM      1  C2  UNL d   1       2.153   0.496  -1.287  0.00  0.00    -0.081 A 
ATOM      2  C3  UNL d   1       0.828   0.294  -0.880  0.00  0.00     0.006 A 
ATOM      3  C4  UNL d   1       0.171  -0.903  -1.174  0.00  0.00     0.002 A 
ATOM      4  C5  UNL d   1       0.829  -1.921  -1.873  0.00  0.00    -0.080 A 
ATOM      5  C6  UNL d   1       0.146  -3.222  -2.169  0.00  0.00     0.076 C 
ATOM      6  C7  UNL d   1       2.147  -1.712  -2.295  0.00  0.00     0.002 A 
ATOM      7  C8  UNL d   1       2.804  -0.515  -2.002  0.00  0.00     0.006 A 
ENDROOT
BRANCH   1   8
ATOM      8  C1  UNL d   1       2.885   1.760  -0.915  0.00  0.00     0.054 C 
ATOM      9  C   UNL d   1       4.323   1.468  -0.512  0.00  0.00     0.018 C 
ENDBRANCH   1   8
TORSDOF 1
ENDMDL
