MODEL 1
REMARK minimizedAffinity -4.33168888
REMARK minimizedRMSD -1
REMARK  1 active torsions:
REMARK  status: ('A' for Active; 'I' for Inactive)
REMARK    1  A    between atoms: C1_2  and  C2_3 
ROOT
ATOM      1  C2  UNL d   1      -0.392  -0.720   0.904  0.00  0.00    -0.081 A 
ATOM      2  C3  UNL d   1       0.031  -1.813   0.137  0.00  0.00     0.006 A 
ATOM      3  C4  UNL d   1       0.625  -1.614  -1.111  0.00  0.00     0.002 A 
ATOM      4  C5  UNL d   1       0.814  -0.320  -1.609  0.00  0.00    -0.080 A 
ATOM      5  C6  UNL d   1       1.479  -0.091  -2.934  0.00  0.00     0.076 C 
ATOM      6  C7  UNL d   1       0.376   0.771  -0.850  0.00  0.00     0.002 A 
ATOM      7  C8  UNL d   1      -0.219   0.572   0.397  0.00  0.00     0.006 A 
ENDROOT
BRANCH   1   8
ATOM      8  C1  UNL d   1      -0.974  -0.929   2.279  0.00  0.00     0.054 C 
ATOM      9  C   UNL d   1      -2.183  -0.033   2.509  0.00  0.00     0.018 C 
ENDBRANCH   1   8
TORSDOF 1
ENDMDL
