MODEL 1
REMARK minimizedAffinity -2.76647329
REMARK minimizedRMSD -1
REMARK  1 active torsions:
REMARK  status: ('A' for Active; 'I' for Inactive)
REMARK    1  A    between atoms: C1_2  and  C2_3 
ROOT
ATOM      1  C2  UNL d   1       2.456  -0.338  -1.883  0.00  0.00    -0.081 A 
ATOM      2  C3  UNL d   1       1.060  -0.371  -1.981  0.00  0.00     0.006 A 
ATOM      3  C4  UNL d   1       0.375  -1.587  -1.931  0.00  0.00     0.002 A 
ATOM      4  C5  UNL d   1       1.073  -2.789  -1.773  0.00  0.00    -0.080 A 
ATOM      5  C6  UNL d   1       0.347  -4.099  -1.687  0.00  0.00     0.076 C 
ATOM      6  C7  UNL d   1       2.469  -2.758  -1.692  0.00  0.00     0.002 A 
ATOM      7  C8  UNL d   1       3.155  -1.543  -1.743  0.00  0.00     0.006 A 
ENDROOT
BRANCH   1   8
ATOM      8  C1  UNL d   1       3.193   0.976  -1.872  0.00  0.00     0.054 C 
ATOM      9  C   UNL d   1       4.521   0.861  -1.136  0.00  0.00     0.018 C 
ENDBRANCH   1   8
TORSDOF 1
ENDMDL
