MODEL 1
REMARK minimizedAffinity -5.27863932
REMARK minimizedRMSD -1
REMARK  0 active torsions:
REMARK  status: ('A' for Active; 'I' for Inactive)
ROOT
ATOM      1  C4' PXY d   1      -3.432  -0.110   1.976  0.00  0.00     0.077 C 
ATOM      2  C1' PXY d   1       2.181   0.336   0.667  0.00  0.00     0.077 C 
ATOM      3  C1  PXY d   1       0.712   0.213   1.021  0.00  0.00    -0.082 A 
ATOM      4  C2  PXY d   1      -0.195   0.199   0.058  0.00  0.00     0.003 A 
ATOM      5  C3  PXY d   1      -1.530   0.121   0.362  0.00  0.00     0.003 A 
ATOM      6  C4  PXY d   1      -1.937   0.003   1.664  0.00  0.00    -0.082 A 
ATOM      7  C5  PXY d   1      -1.018   0.006   2.652  0.00  0.00     0.003 A 
ATOM      8  C6  PXY d   1       0.329   0.127   2.324  0.00  0.00     0.003 A 
ENDROOT
TORSDOF 0
ENDMDL
