MODEL 1
REMARK minimizedAffinity -3.63829708
REMARK minimizedRMSD -1
REMARK  0 active torsions:
REMARK  status: ('A' for Active; 'I' for Inactive)
ROOT
ATOM      1  C4' PXY d   1       0.381  -1.127  -2.630  0.00  0.00     0.077 C 
ATOM      2  C1' PXY d   1       0.437   0.593   2.888  0.00  0.00     0.077 C 
ATOM      3  C1  PXY d   1       0.422   0.155   1.437  0.00  0.00    -0.082 A 
ATOM      4  C2  PXY d   1       0.025  -1.069   1.128  0.00  0.00     0.003 A 
ATOM      5  C3  PXY d   1       0.035  -1.493  -0.176  0.00  0.00     0.003 A 
ATOM      6  C4  PXY d   1       0.404  -0.638  -1.180  0.00  0.00    -0.082 A 
ATOM      7  C5  PXY d   1       0.799   0.616  -0.874  0.00  0.00     0.003 A 
ATOM      8  C6  PXY d   1       0.822   1.013   0.460  0.00  0.00     0.003 A 
ENDROOT
TORSDOF 0
ENDMDL
