MODEL 1
REMARK minimizedAffinity -5.01130676
REMARK minimizedRMSD -1
REMARK  0 active torsions:
REMARK  status: ('A' for Active; 'I' for Inactive)
ROOT
ATOM      1  C4' PXY d   1       0.123   0.272   2.289  0.00  0.00     0.077 C 
ATOM      2  C1' PXY d   1       0.676  -0.833  -3.358  0.00  0.00     0.077 C 
ATOM      3  C1  PXY d   1       0.529  -0.530  -1.880  0.00  0.00    -0.082 A 
ATOM      4  C2  PXY d   1       1.148  -1.291  -0.991  0.00  0.00     0.003 A 
ATOM      5  C3  PXY d   1       0.999  -1.051   0.350  0.00  0.00     0.003 A 
ATOM      6  C4  PXY d   1       0.252   0.010   0.786  0.00  0.00    -0.082 A 
ATOM      7  C5  PXY d   1      -0.375   0.797  -0.114  0.00  0.00     0.003 A 
ATOM      8  C6  PXY d   1      -0.245   0.512  -1.471  0.00  0.00     0.003 A 
ENDROOT
TORSDOF 0
ENDMDL
