MODEL 1
REMARK minimizedAffinity -5.50904989
REMARK minimizedRMSD -1
REMARK  0 active torsions:
REMARK  status: ('A' for Active; 'I' for Inactive)
ROOT
ATOM      1  C4' PXY d   1       1.162   0.156  -1.922  0.00  0.00     0.077 C 
ATOM      2  C1' PXY d   1      -1.335  -0.281   3.273  0.00  0.00     0.077 C 
ATOM      3  C1  PXY d   1      -0.669  -0.162   1.916  0.00  0.00    -0.082 A 
ATOM      4  C2  PXY d   1      -1.413   0.005   0.834  0.00  0.00     0.003 A 
ATOM      5  C3  PXY d   1      -0.829   0.082  -0.404  0.00  0.00     0.003 A 
ATOM      6  C4  PXY d   1       0.534   0.041  -0.531  0.00  0.00    -0.082 A 
ATOM      7  C5  PXY d   1       1.300  -0.118   0.569  0.00  0.00     0.003 A 
ATOM      8  C6  PXY d   1       0.686  -0.236   1.812  0.00  0.00     0.003 A 
ENDROOT
TORSDOF 0
ENDMDL
