MODEL 1
REMARK minimizedAffinity -4.19163084
REMARK minimizedRMSD -1
REMARK  0 active torsions:
REMARK  status: ('A' for Active; 'I' for Inactive)
ROOT
ATOM      1  C4' PXY d   1      -0.124  -0.092   2.794  0.00  0.00     0.077 C 
ATOM      2  C1' PXY d   1       1.146  -0.050  -2.846  0.00  0.00     0.077 C 
ATOM      3  C1  PXY d   1       0.826  -0.064  -1.364  0.00  0.00    -0.082 A 
ATOM      4  C2  PXY d   1      -0.406  -0.336  -0.964  0.00  0.00     0.003 A 
ATOM      5  C3  PXY d   1      -0.720  -0.321   0.371  0.00  0.00     0.003 A 
ATOM      6  C4  PXY d   1       0.248  -0.077   1.308  0.00  0.00    -0.082 A 
ATOM      7  C5  PXY d   1       1.509   0.192   0.908  0.00  0.00     0.003 A 
ATOM      8  C6  PXY d   1       1.798   0.212  -0.453  0.00  0.00     0.003 A 
ENDROOT
TORSDOF 0
ENDMDL
