MODEL 1
REMARK minimizedAffinity -3.77305603
REMARK minimizedRMSD -1
REMARK  0 active torsions:
REMARK  status: ('A' for Active; 'I' for Inactive)
ROOT
ATOM      1  C4' PXY d   1       1.370  -0.007  -2.748  0.00  0.00     0.077 C 
ATOM      2  C1' PXY d   1      -0.265   0.081   2.796  0.00  0.00     0.077 C 
ATOM      3  C1  PXY d   1       0.151   0.060   1.338  0.00  0.00    -0.082 A 
ATOM      4  C2  PXY d   1       1.250  -0.585   0.981  0.00  0.00     0.003 A 
ATOM      5  C3  PXY d   1       1.658  -0.588  -0.328  0.00  0.00     0.003 A 
ATOM      6  C4  PXY d   1       0.906   0.033  -1.289  0.00  0.00    -0.082 A 
ATOM      7  C5  PXY d   1      -0.222   0.684  -0.934  0.00  0.00     0.003 A 
ATOM      8  C6  PXY d   1      -0.597   0.710   0.406  0.00  0.00     0.003 A 
ENDROOT
TORSDOF 0
ENDMDL
