MODEL 1
REMARK minimizedAffinity -6.28209019
REMARK minimizedRMSD -1
REMARK  0 active torsions:
REMARK  status: ('A' for Active; 'I' for Inactive)
ROOT
ATOM      1  C4' PXY d   1       2.006   0.444   1.840  0.00  0.00     0.077 C 
ATOM      2  C1' PXY d   1      -3.637  -0.723   1.379  0.00  0.00     0.077 C 
ATOM      3  C1  PXY d   1      -2.157  -0.421   1.512  0.00  0.00    -0.082 A 
ATOM      4  C2  PXY d   1      -1.607   0.508   0.747  0.00  0.00     0.003 A 
ATOM      5  C3  PXY d   1      -0.264   0.771   0.832  0.00  0.00     0.003 A 
ATOM      6  C4  PXY d   1       0.514   0.113   1.746  0.00  0.00    -0.082 A 
ATOM      7  C5  PXY d   1      -0.041  -0.828   2.538  0.00  0.00     0.003 A 
ATOM      8  C6  PXY d   1      -1.398  -1.110   2.408  0.00  0.00     0.003 A 
ENDROOT
TORSDOF 0
ENDMDL
