MODEL 1
REMARK minimizedAffinity -4.48895693
REMARK minimizedRMSD -1
REMARK  0 active torsions:
REMARK  status: ('A' for Active; 'I' for Inactive)
ROOT
ATOM      1  C4' PXY d   1       0.771  -0.001  -0.687  0.00  0.00     0.077 C 
ATOM      2  C1' PXY d   1      -1.765  -1.290   4.345  0.00  0.00     0.077 C 
ATOM      3  C1  PXY d   1      -1.090  -0.947   3.032  0.00  0.00    -0.082 A 
ATOM      4  C2  PXY d   1      -1.814  -0.858   1.928  0.00  0.00     0.003 A 
ATOM      5  C3  PXY d   1      -1.215  -0.580   0.726  0.00  0.00     0.003 A 
ATOM      6  C4  PXY d   1       0.131  -0.337   0.663  0.00  0.00    -0.082 A 
ATOM      7  C5  PXY d   1       0.874  -0.414   1.787  0.00  0.00     0.003 A 
ATOM      8  C6  PXY d   1       0.254  -0.739   2.989  0.00  0.00     0.003 A 
ENDROOT
TORSDOF 0
ENDMDL
