MODEL 1
REMARK minimizedAffinity 1.29585218
REMARK minimizedRMSD -1
REMARK  0 active torsions:
REMARK  status: ('A' for Active; 'I' for Inactive)
ROOT
ATOM      1  C4' PXY d   1       1.031  -0.695  -0.805  0.00  0.00     0.077 C 
ATOM      2  C1' PXY d   1      -3.283   1.234   2.525  0.00  0.00     0.077 C 
ATOM      3  C1  PXY d   1      -2.143   0.734   1.659  0.00  0.00    -0.082 A 
ATOM      4  C2  PXY d   1      -2.378   0.389   0.404  0.00  0.00     0.003 A 
ATOM      5  C3  PXY d   1      -1.365  -0.095  -0.384  0.00  0.00     0.003 A 
ATOM      6  C4  PXY d   1      -0.088  -0.176   0.103  0.00  0.00    -0.082 A 
ATOM      7  C5  PXY d   1       0.162   0.185   1.379  0.00  0.00     0.003 A 
ATOM      8  C6  PXY d   1      -0.888   0.634   2.175  0.00  0.00     0.003 A 
ENDROOT
TORSDOF 0
ENDMDL
