MODEL 1
REMARK minimizedAffinity -2.18130136
REMARK minimizedRMSD -1
REMARK  0 active torsions:
REMARK  status: ('A' for Active; 'I' for Inactive)
ROOT
ATOM      1  C4' PXY d   1       0.231   0.162   2.490  0.00  0.00     0.077 C 
ATOM      2  C1' PXY d   1       0.685   0.632  -3.253  0.00  0.00     0.077 C 
ATOM      3  C1  PXY d   1       0.577   0.516  -1.745  0.00  0.00    -0.082 A 
ATOM      4  C2  PXY d   1      -0.070  -0.509  -1.213  0.00  0.00     0.003 A 
ATOM      5  C3  PXY d   1      -0.205  -0.612   0.148  0.00  0.00     0.003 A 
ATOM      6  C4  PXY d   1       0.374   0.315   0.974  0.00  0.00    -0.082 A 
ATOM      7  C5  PXY d   1       1.044   1.357   0.438  0.00  0.00     0.003 A 
ATOM      8  C6  PXY d   1       1.134   1.466  -0.946  0.00  0.00     0.003 A 
ENDROOT
TORSDOF 0
ENDMDL
