MODEL 1
REMARK minimizedAffinity -4.74271154
REMARK minimizedRMSD -1
REMARK  0 active torsions:
REMARK  status: ('A' for Active; 'I' for Inactive)
ROOT
ATOM      1  C4' PXY d   1       0.403   0.265  -1.275  0.00  0.00     0.077 C 
ATOM      2  C1' PXY d   1      -2.054  -0.571   3.890  0.00  0.00     0.077 C 
ATOM      3  C1  PXY d   1      -1.399  -0.346   2.542  0.00  0.00    -0.082 A 
ATOM      4  C2  PXY d   1      -2.148  -0.288   1.452  0.00  0.00     0.003 A 
ATOM      5  C3  PXY d   1      -1.570  -0.118   0.221  0.00  0.00     0.003 A 
ATOM      6  C4  PXY d   1      -0.215   0.049   0.109  0.00  0.00    -0.082 A 
ATOM      7  C5  PXY d   1       0.555   0.003   1.217  0.00  0.00     0.003 A 
ATOM      8  C6  PXY d   1      -0.048  -0.213   2.453  0.00  0.00     0.003 A 
ENDROOT
TORSDOF 0
ENDMDL
