MODEL 1
REMARK minimizedAffinity -3.79741859
REMARK minimizedRMSD -1
REMARK  0 active torsions:
REMARK  status: ('A' for Active; 'I' for Inactive)
ROOT
ATOM      1  C4' PXY d   1       0.489   0.582  -1.400  0.00  0.00     0.077 C 
ATOM      2  C1' PXY d   1      -2.319   0.364   3.648  0.00  0.00     0.077 C 
ATOM      3  C1  PXY d   1      -1.572   0.423   2.330  0.00  0.00    -0.082 A 
ATOM      4  C2  PXY d   1      -2.229   0.708   1.218  0.00  0.00     0.003 A 
ATOM      5  C3  PXY d   1      -1.574   0.735   0.013  0.00  0.00     0.003 A 
ATOM      6  C4  PXY d   1      -0.223   0.520  -0.046  0.00  0.00    -0.082 A 
ATOM      7  C5  PXY d   1       0.456   0.240   1.086  0.00  0.00     0.003 A 
ATOM      8  C6  PXY d   1      -0.234   0.177   2.293  0.00  0.00     0.003 A 
ENDROOT
TORSDOF 0
ENDMDL
