MODEL 1
REMARK minimizedAffinity -2.50974202
REMARK minimizedRMSD -1
REMARK  0 active torsions:
REMARK  status: ('A' for Active; 'I' for Inactive)
ROOT
ATOM      1  C4' PXY d   1      -0.284   0.721   1.732  0.00  0.00     0.077 C 
ATOM      2  C1' PXY d   1       0.710  -1.386  -3.558  0.00  0.00     0.077 C 
ATOM      3  C1  PXY d   1       0.454  -0.822  -2.175  0.00  0.00    -0.082 A 
ATOM      4  C2  PXY d   1       0.413  -1.637  -1.133  0.00  0.00     0.003 A 
ATOM      5  C3  PXY d   1       0.151  -1.148   0.121  0.00  0.00     0.003 A 
ATOM      6  C4  PXY d   1      -0.019   0.197   0.318  0.00  0.00    -0.082 A 
ATOM      7  C5  PXY d   1       0.032   1.036  -0.738  0.00  0.00     0.003 A 
ATOM      8  C6  PXY d   1       0.258   0.514  -2.008  0.00  0.00     0.003 A 
ENDROOT
TORSDOF 0
ENDMDL
