MODEL 1
REMARK minimizedAffinity -3.01751208
REMARK minimizedRMSD -1
REMARK  0 active torsions:
REMARK  status: ('A' for Active; 'I' for Inactive)
ROOT
ATOM      1  C4' PXY d   1       1.041  -0.382  -3.101  0.00  0.00     0.077 C 
ATOM      2  C1' PXY d   1      -0.027   0.761   2.464  0.00  0.00     0.077 C 
ATOM      3  C1  PXY d   1       0.244   0.452   1.005  0.00  0.00    -0.082 A 
ATOM      4  C2  PXY d   1       1.439   0.701   0.495  0.00  0.00     0.003 A 
ATOM      5  C3  PXY d   1       1.691   0.458  -0.831  0.00  0.00     0.003 A 
ATOM      6  C4  PXY d   1       0.726  -0.095  -1.630  0.00  0.00    -0.082 A 
ATOM      7  C5  PXY d   1      -0.493  -0.361  -1.114  0.00  0.00     0.003 A 
ATOM      8  C6  PXY d   1      -0.741  -0.069   0.224  0.00  0.00     0.003 A 
ENDROOT
TORSDOF 0
ENDMDL
