MODEL 1
REMARK minimizedAffinity -3.89889836
REMARK minimizedRMSD -1
REMARK  0 active torsions:
REMARK  status: ('A' for Active; 'I' for Inactive)
ROOT
ATOM      1  C4' PXY d   1       0.673   0.243  -0.849  0.00  0.00     0.077 C 
ATOM      2  C1' PXY d   1      -2.652   0.224   3.879  0.00  0.00     0.077 C 
ATOM      3  C1  PXY d   1      -1.770   0.233   2.646  0.00  0.00    -0.082 A 
ATOM      4  C2  PXY d   1      -2.322   0.329   1.447  0.00  0.00     0.003 A 
ATOM      5  C3  PXY d   1      -1.541   0.307   0.320  0.00  0.00     0.003 A 
ATOM      6  C4  PXY d   1      -0.178   0.239   0.424  0.00  0.00    -0.082 A 
ATOM      7  C5  PXY d   1       0.394   0.152   1.643  0.00  0.00     0.003 A 
ATOM      8  C6  PXY d   1      -0.419   0.134   2.773  0.00  0.00     0.003 A 
ENDROOT
TORSDOF 0
ENDMDL
