MODEL 1
REMARK minimizedAffinity -5.91846132
REMARK minimizedRMSD -1
REMARK  0 active torsions:
REMARK  status: ('A' for Active; 'I' for Inactive)
ROOT
ATOM      1  C4' PXY d   1      -1.666  -0.464   3.918  0.00  0.00     0.077 C 
ATOM      2  C1' PXY d   1       0.804   0.267  -1.257  0.00  0.00     0.077 C 
ATOM      3  C1  PXY d   1       0.167   0.072   0.105  0.00  0.00    -0.082 A 
ATOM      4  C2  PXY d   1      -1.132  -0.164   0.193  0.00  0.00     0.003 A 
ATOM      5  C3  PXY d   1      -1.729  -0.311   1.418  0.00  0.00     0.003 A 
ATOM      6  C4  PXY d   1      -0.979  -0.270   2.564  0.00  0.00    -0.082 A 
ATOM      7  C5  PXY d   1       0.348  -0.041   2.482  0.00  0.00     0.003 A 
ATOM      8  C6  PXY d   1       0.928   0.147   1.231  0.00  0.00     0.003 A 
ENDROOT
TORSDOF 0
ENDMDL
