MODEL 1
REMARK minimizedAffinity -6.18845272
REMARK minimizedRMSD -1
REMARK  0 active torsions:
REMARK  status: ('A' for Active; 'I' for Inactive)
ROOT
ATOM      1  C4' PXY d   1      -2.873  -0.691   4.242  0.00  0.00     0.077 C 
ATOM      2  C1' PXY d   1      -0.206   0.741  -0.682  0.00  0.00     0.077 C 
ATOM      3  C1  PXY d   1      -0.915   0.373   0.606  0.00  0.00    -0.082 A 
ATOM      4  C2  PXY d   1      -0.210  -0.037   1.647  0.00  0.00     0.003 A 
ATOM      5  C3  PXY d   1      -0.838  -0.405   2.809  0.00  0.00     0.003 A 
ATOM      6  C4  PXY d   1      -2.198  -0.300   2.924  0.00  0.00    -0.082 A 
ATOM      7  C5  PXY d   1      -2.924   0.128   1.870  0.00  0.00     0.003 A 
ATOM      8  C6  PXY d   1      -2.271   0.457   0.685  0.00  0.00     0.003 A 
ENDROOT
TORSDOF 0
ENDMDL
