MODEL 1
REMARK minimizedAffinity -6.64497089
REMARK minimizedRMSD -1
REMARK  0 active torsions:
REMARK  status: ('A' for Active; 'I' for Inactive)
ROOT
ATOM      1  C4' PXY d   1      -2.814  -0.872   5.031  0.00  0.00     0.077 C 
ATOM      2  C1' PXY d   1      -0.801   0.208  -0.280  0.00  0.00     0.077 C 
ATOM      3  C1  PXY d   1      -1.337  -0.065   1.112  0.00  0.00    -0.082 A 
ATOM      4  C2  PXY d   1      -0.585  -0.711   1.988  0.00  0.00     0.003 A 
ATOM      5  C3  PXY d   1      -1.066  -0.994   3.240  0.00  0.00     0.003 A 
ATOM      6  C4  PXY d   1      -2.310  -0.566   3.617  0.00  0.00    -0.082 A 
ATOM      7  C5  PXY d   1      -3.080   0.103   2.733  0.00  0.00     0.003 A 
ATOM      8  C6  PXY d   1      -2.589   0.345   1.453  0.00  0.00     0.003 A 
ENDROOT
TORSDOF 0
ENDMDL
