MODEL 1
REMARK minimizedAffinity -5.38564014
REMARK minimizedRMSD -1
REMARK  0 active torsions:
REMARK  status: ('A' for Active; 'I' for Inactive)
ROOT
ATOM      1  C4' PXY d   1      -2.708  -0.689   4.389  0.00  0.00     0.077 C 
ATOM      2  C1' PXY d   1       0.134   0.429  -0.519  0.00  0.00     0.077 C 
ATOM      3  C1  PXY d   1      -0.620   0.144   0.765  0.00  0.00    -0.082 A 
ATOM      4  C2  PXY d   1       0.028  -0.344   1.810  0.00  0.00     0.003 A 
ATOM      5  C3  PXY d   1      -0.645  -0.637   2.968  0.00  0.00     0.003 A 
ATOM      6  C4  PXY d   1      -1.985  -0.378   3.076  0.00  0.00    -0.082 A 
ATOM      7  C5  PXY d   1      -2.651   0.130   2.017  0.00  0.00     0.003 A 
ATOM      8  C6  PXY d   1      -1.958   0.382   0.837  0.00  0.00     0.003 A 
ENDROOT
TORSDOF 0
ENDMDL
