MODEL 1
REMARK minimizedAffinity 2.17171311
REMARK minimizedRMSD -1
REMARK  1 active torsions:
REMARK  status: ('A' for Active; 'I' for Inactive)
REMARK    1  A    between atoms: C3_4  and  O_7 
ROOT
ATOM      1  C   UNL d   1       0.905  -1.394   2.034  0.00  0.00    -0.033 A 
ATOM      2  C1  UNL d   1      -0.408  -1.633   1.624  0.00  0.00     0.039 A 
ATOM      3  C2  UNL d   1      -1.451  -0.851   2.125  0.00  0.00    -0.080 A 
ATOM      4  C3  UNL d   1      -1.168   0.166   3.032  0.00  0.00     0.150 A 
ATOM      5  C4  UNL d   1       0.139   0.413   3.441  0.00  0.00    -0.007 A 
ATOM      6  C5  UNL d   1       1.178  -0.370   2.942  0.00  0.00     0.039 A 
ENDROOT
BRANCH   4   7
ATOM      7  O   UNL d   1      -2.153   0.953   3.551  0.00  0.00    -0.526 OA
ATOM      8  H5  UNL d   1      -3.006   0.649   3.200  0.00  0.00     0.418 HD
ENDBRANCH   4   7
TORSDOF 1
ENDMDL
