MODEL 1
REMARK minimizedAffinity 0.460413575
REMARK minimizedRMSD -1
REMARK  1 active torsions:
REMARK  status: ('A' for Active; 'I' for Inactive)
REMARK    1  A    between atoms: C3_4  and  O_7 
ROOT
ATOM      1  C   UNL d   1      -0.278  -1.848   3.029  0.00  0.00    -0.033 A 
ATOM      2  C1  UNL d   1       0.384  -3.058   2.808  0.00  0.00     0.039 A 
ATOM      3  C2  UNL d   1       1.521  -3.095   1.999  0.00  0.00    -0.080 A 
ATOM      4  C3  UNL d   1       1.986  -1.918   1.419  0.00  0.00     0.150 A 
ATOM      5  C4  UNL d   1       1.334  -0.709   1.638  0.00  0.00    -0.007 A 
ATOM      6  C5  UNL d   1       0.198  -0.674   2.445  0.00  0.00     0.039 A 
ENDROOT
BRANCH   4   7
ATOM      7  O   UNL d   1       3.090  -1.906   0.618  0.00  0.00    -0.526 OA
ATOM      8  H5  UNL d   1       3.419  -2.816   0.533  0.00  0.00     0.418 HD
ENDBRANCH   4   7
TORSDOF 1
ENDMDL
