MODEL 1
REMARK minimizedAffinity 5.14047003
REMARK minimizedRMSD -1
REMARK  1 active torsions:
REMARK  status: ('A' for Active; 'I' for Inactive)
REMARK    1  A    between atoms: C3_4  and  O_7 
ROOT
ATOM      1  C   UNL d   1      -0.211  -1.022   1.115  0.00  0.00    -0.033 A 
ATOM      2  C1  UNL d   1      -0.619  -0.453   2.323  0.00  0.00     0.039 A 
ATOM      3  C2  UNL d   1       0.285  -0.331   3.379  0.00  0.00    -0.080 A 
ATOM      4  C3  UNL d   1       1.593  -0.779   3.215  0.00  0.00     0.150 A 
ATOM      5  C4  UNL d   1       2.007  -1.344   2.013  0.00  0.00    -0.007 A 
ATOM      6  C5  UNL d   1       1.102  -1.466   0.959  0.00  0.00     0.039 A 
ENDROOT
BRANCH   4   7
ATOM      7  O   UNL d   1       2.510  -0.685   4.219  0.00  0.00    -0.526 OA
ATOM      8  H5  UNL d   1       2.074  -0.301   4.999  0.00  0.00     0.418 HD
ENDBRANCH   4   7
TORSDOF 1
ENDMDL
