MODEL 1
REMARK minimizedAffinity 2.19383955
REMARK minimizedRMSD -1
REMARK  1 active torsions:
REMARK  status: ('A' for Active; 'I' for Inactive)
REMARK    1  A    between atoms: C3_4  and  O_7 
ROOT
ATOM      1  C   UNL d   1       1.489  -1.702   2.513  0.00  0.00    -0.033 A 
ATOM      2  C1  UNL d   1       1.482  -1.027   3.735  0.00  0.00     0.039 A 
ATOM      3  C2  UNL d   1       0.440  -0.150   4.044  0.00  0.00    -0.080 A 
ATOM      4  C3  UNL d   1      -0.587   0.041   3.124  0.00  0.00     0.150 A 
ATOM      5  C4  UNL d   1      -0.588  -0.631   1.906  0.00  0.00    -0.007 A 
ATOM      6  C5  UNL d   1       0.454  -1.505   1.599  0.00  0.00     0.039 A 
ENDROOT
BRANCH   4   7
ATOM      7  O   UNL d   1      -1.623   0.891   3.378  0.00  0.00    -0.526 OA
ATOM      8  H5  UNL d   1      -1.474   1.306   4.244  0.00  0.00     0.418 HD
ENDBRANCH   4   7
TORSDOF 1
ENDMDL
