MODEL 1
REMARK minimizedAffinity 7.15554333
REMARK minimizedRMSD -1
REMARK  1 active torsions:
REMARK  status: ('A' for Active; 'I' for Inactive)
REMARK    1  A    between atoms: C3_4  and  O_7 
ROOT
ATOM      1  C   UNL d   1      -2.941   2.405   4.021  0.00  0.00    -0.033 A 
ATOM      2  C1  UNL d   1      -1.656   2.588   3.507  0.00  0.00     0.039 A 
ATOM      3  C2  UNL d   1      -0.775   1.509   3.424  0.00  0.00    -0.080 A 
ATOM      4  C3  UNL d   1      -1.190   0.253   3.858  0.00  0.00     0.150 A 
ATOM      5  C4  UNL d   1      -2.471   0.062   4.367  0.00  0.00    -0.007 A 
ATOM      6  C5  UNL d   1      -3.349   1.142   4.450  0.00  0.00     0.039 A 
ENDROOT
BRANCH   4   7
ATOM      7  O   UNL d   1      -0.364  -0.830   3.801  0.00  0.00    -0.526 OA
ATOM      8  H5  UNL d   1       0.497  -0.543   3.454  0.00  0.00     0.418 HD
ENDBRANCH   4   7
TORSDOF 1
ENDMDL
