MODEL 1
REMARK minimizedAffinity 0.151275516
REMARK minimizedRMSD -1
REMARK  1 active torsions:
REMARK  status: ('A' for Active; 'I' for Inactive)
REMARK    1  A    between atoms: C3_4  and  O_7 
ROOT
ATOM      1  C   UNL d   1       0.694  -1.239   2.965  0.00  0.00    -0.033 A 
ATOM      2  C1  UNL d   1       0.386  -0.741   1.698  0.00  0.00     0.039 A 
ATOM      3  C2  UNL d   1       1.198  -1.054   0.606  0.00  0.00    -0.080 A 
ATOM      4  C3  UNL d   1       2.313  -1.867   0.795  0.00  0.00     0.150 A 
ATOM      5  C4  UNL d   1       2.623  -2.370   2.054  0.00  0.00    -0.007 A 
ATOM      6  C5  UNL d   1       1.811  -2.055   3.143  0.00  0.00     0.039 A 
ENDROOT
BRANCH   4   7
ATOM      7  O   UNL d   1       3.138  -2.196  -0.239  0.00  0.00    -0.526 OA
ATOM      8  H5  UNL d   1       2.816  -1.754  -1.043  0.00  0.00     0.418 HD
ENDBRANCH   4   7
TORSDOF 1
ENDMDL
