MODEL 1
REMARK minimizedAffinity -2.94712234
REMARK minimizedRMSD -1
REMARK  1 active torsions:
REMARK  status: ('A' for Active; 'I' for Inactive)
REMARK    1  A    between atoms: C1_2  and  C2_3 
ROOT
ATOM      1  C2  UNL d   1       1.211  -3.421   0.046  0.00  0.00    -0.076 A 
ATOM      2  C3  UNL d   1       2.042  -2.310  -0.179  0.00  0.00     0.004 A 
ATOM      3  C4  UNL d   1       1.502  -1.044  -0.403  0.00  0.00    -0.003 A 
ATOM      4  C5  UNL d   1       0.123  -0.869  -0.404  0.00  0.00     0.000 A 
ATOM      5  C6  UNL d   1      -0.716  -1.957  -0.165  0.00  0.00     0.000 A 
ATOM      6  C7  UNL d   1      -0.188  -3.237   0.079  0.00  0.00    -0.073 A 
ATOM      7  C8  UNL d   1      -1.139  -4.376   0.325  0.00  0.00     0.078 C 
ENDROOT
BRANCH   1   8
ATOM      8  C1  UNL d   1       1.853  -4.774   0.256  0.00  0.00     0.053 C 
ATOM      9  C   UNL d   1       1.004  -5.694   1.119  0.00  0.00     0.018 C 
ENDBRANCH   1   8
TORSDOF 1
ENDMDL
