MODEL 1
REMARK minimizedAffinity -1.11489248
REMARK minimizedRMSD -1
REMARK  1 active torsions:
REMARK  status: ('A' for Active; 'I' for Inactive)
REMARK    1  A    between atoms: C1_2  and  C2_3 
ROOT
ATOM      1  C2  UNL d   1       0.683  -3.440   0.410  0.00  0.00    -0.076 A 
ATOM      2  C3  UNL d   1       1.977  -3.356  -0.133  0.00  0.00     0.004 A 
ATOM      3  C4  UNL d   1       2.367  -2.253  -0.890  0.00  0.00    -0.003 A 
ATOM      4  C5  UNL d   1       1.469  -1.215  -1.116  0.00  0.00     0.000 A 
ATOM      5  C6  UNL d   1       0.188  -1.273  -0.569  0.00  0.00     0.000 A 
ATOM      6  C7  UNL d   1      -0.216  -2.371   0.210  0.00  0.00    -0.073 A 
ATOM      7  C8  UNL d   1      -1.612  -2.385   0.770  0.00  0.00     0.078 C 
ENDROOT
BRANCH   1   8
ATOM      8  C1  UNL d   1       0.308  -4.674   1.200  0.00  0.00     0.053 C 
ATOM      9  C   UNL d   1       1.282  -5.822   0.984  0.00  0.00     0.018 C 
ENDBRANCH   1   8
TORSDOF 1
ENDMDL
