MODEL 1
REMARK minimizedAffinity -1.87940216
REMARK minimizedRMSD -1
REMARK  1 active torsions:
REMARK  status: ('A' for Active; 'I' for Inactive)
REMARK    1  A    between atoms: C1_2  and  C2_3 
ROOT
ATOM      1  C2  UNL d   1       0.905  -2.060  -0.807  0.00  0.00    -0.076 A 
ATOM      2  C3  UNL d   1       2.088  -2.584  -0.258  0.00  0.00     0.004 A 
ATOM      3  C4  UNL d   1       2.072  -3.752   0.501  0.00  0.00    -0.003 A 
ATOM      4  C5  UNL d   1       0.871  -4.417   0.723  0.00  0.00     0.000 A 
ATOM      5  C6  UNL d   1      -0.310  -3.922   0.172  0.00  0.00     0.000 A 
ATOM      6  C7  UNL d   1      -0.308  -2.754  -0.610  0.00  0.00    -0.073 A 
ATOM      7  C8  UNL d   1      -1.612  -2.261  -1.175  0.00  0.00     0.078 C 
ENDROOT
BRANCH   1   8
ATOM      8  C1  UNL d   1       0.980  -0.774  -1.599  0.00  0.00     0.053 C 
ATOM      9  C   UNL d   1       2.351  -0.119  -1.517  0.00  0.00     0.018 C 
ENDBRANCH   1   8
TORSDOF 1
ENDMDL
