MODEL 1
REMARK minimizedAffinity 2.09183598
REMARK minimizedRMSD -1
REMARK  1 active torsions:
REMARK  status: ('A' for Active; 'I' for Inactive)
REMARK    1  A    between atoms: C1_2  and  C2_3 
ROOT
ATOM      1  C2  UNL d   1       0.109  -1.220  -2.301  0.00  0.00    -0.076 A 
ATOM      2  C3  UNL d   1       1.383  -0.652  -2.125  0.00  0.00     0.004 A 
ATOM      3  C4  UNL d   1       1.908  -0.448  -0.850  0.00  0.00    -0.003 A 
ATOM      4  C5  UNL d   1       1.167  -0.809   0.270  0.00  0.00     0.000 A 
ATOM      5  C6  UNL d   1      -0.091  -1.390   0.114  0.00  0.00     0.000 A 
ATOM      6  C7  UNL d   1      -0.628  -1.618  -1.165  0.00  0.00    -0.073 A 
ATOM      7  C8  UNL d   1      -1.992  -2.242  -1.274  0.00  0.00     0.078 C 
ENDROOT
BRANCH   1   8
ATOM      8  C1  UNL d   1      -0.419  -1.393  -3.707  0.00  0.00     0.053 C 
ATOM      9  C   UNL d   1      -0.111  -0.197  -4.596  0.00  0.00     0.018 C 
ENDBRANCH   1   8
TORSDOF 1
ENDMDL
