MODEL 1
REMARK minimizedAffinity -4.91977453
REMARK minimizedRMSD -1
REMARK  1 active torsions:
REMARK  status: ('A' for Active; 'I' for Inactive)
REMARK    1  A    between atoms: C1_2  and  C2_3 
ROOT
ATOM      1  C2  UNL d   1       1.327  -1.160  -1.954  0.00  0.00    -0.076 A 
ATOM      2  C3  UNL d   1       2.499  -1.934  -1.896  0.00  0.00     0.004 A 
ATOM      3  C4  UNL d   1       2.804  -2.691  -0.766  0.00  0.00    -0.003 A 
ATOM      4  C5  UNL d   1       1.941  -2.687   0.324  0.00  0.00     0.000 A 
ATOM      5  C6  UNL d   1       0.765  -1.939   0.277  0.00  0.00     0.000 A 
ATOM      6  C7  UNL d   1       0.435  -1.183  -0.861  0.00  0.00    -0.073 A 
ATOM      7  C8  UNL d   1      -0.844  -0.391  -0.855  0.00  0.00     0.078 C 
ENDROOT
BRANCH   1   8
ATOM      8  C1  UNL d   1       1.063  -0.337  -3.195  0.00  0.00     0.053 C 
ATOM      9  C   UNL d   1       0.600  -1.186  -4.369  0.00  0.00     0.018 C 
ENDBRANCH   1   8
TORSDOF 1
ENDMDL
