MODEL 1
REMARK minimizedAffinity 8.54981995
REMARK minimizedRMSD -1
REMARK  1 active torsions:
REMARK  status: ('A' for Active; 'I' for Inactive)
REMARK    1  A    between atoms: C1_2  and  C2_3 
ROOT
ATOM      1  C2  UNL d   1      -4.611  -0.467   3.389  0.00  0.00    -0.076 A 
ATOM      2  C3  UNL d   1      -4.304   0.847   3.782  0.00  0.00     0.004 A 
ATOM      3  C4  UNL d   1      -3.135   1.132   4.485  0.00  0.00    -0.003 A 
ATOM      4  C5  UNL d   1      -2.253   0.106   4.808  0.00  0.00     0.000 A 
ATOM      5  C6  UNL d   1      -2.533  -1.202   4.411  0.00  0.00     0.000 A 
ATOM      6  C7  UNL d   1      -3.699  -1.503   3.687  0.00  0.00    -0.073 A 
ATOM      7  C8  UNL d   1      -3.954  -2.931   3.290  0.00  0.00     0.078 C 
ENDROOT
BRANCH   1   8
ATOM      8  C1  UNL d   1      -5.907  -0.719   2.652  0.00  0.00     0.053 C 
ATOM      9  C   UNL d   1      -5.939  -0.051   1.286  0.00  0.00     0.018 C 
ENDBRANCH   1   8
TORSDOF 1
ENDMDL
