MODEL 1
REMARK minimizedAffinity -4.94774342
REMARK minimizedRMSD -1
REMARK  1 active torsions:
REMARK  status: ('A' for Active; 'I' for Inactive)
REMARK    1  A    between atoms: C1_2  and  C2_3 
ROOT
ATOM      1  C2  UNL d   1       1.266  -3.133  -0.125  0.00  0.00    -0.076 A 
ATOM      2  C3  UNL d   1       2.133  -2.051  -0.353  0.00  0.00     0.004 A 
ATOM      3  C4  UNL d   1       1.640  -0.756  -0.504  0.00  0.00    -0.003 A 
ATOM      4  C5  UNL d   1       0.272  -0.522  -0.429  0.00  0.00     0.000 A 
ATOM      5  C6  UNL d   1      -0.602  -1.581  -0.185  0.00  0.00     0.000 A 
ATOM      6  C7  UNL d   1      -0.120  -2.890  -0.014  0.00  0.00    -0.073 A 
ATOM      7  C8  UNL d   1      -1.108  -3.996   0.240  0.00  0.00     0.078 C 
ENDROOT
BRANCH   1   8
ATOM      8  C1  UNL d   1       1.856  -4.519   0.004  0.00  0.00     0.053 C 
ATOM      9  C   UNL d   1       1.136  -5.365   1.044  0.00  0.00     0.018 C 
ENDBRANCH   1   8
TORSDOF 1
ENDMDL
