MODEL 1
REMARK minimizedAffinity 2.41778779
REMARK minimizedRMSD -1
REMARK  1 active torsions:
REMARK  status: ('A' for Active; 'I' for Inactive)
REMARK    1  A    between atoms: C1_2  and  C2_3 
ROOT
ATOM      1  C2  UNL d   1       1.476  -2.180  -0.120  0.00  0.00    -0.076 A 
ATOM      2  C3  UNL d   1       1.937  -1.101  -0.894  0.00  0.00     0.004 A 
ATOM      3  C4  UNL d   1       1.044  -0.260  -1.556  0.00  0.00    -0.003 A 
ATOM      4  C5  UNL d   1      -0.324  -0.484  -1.453  0.00  0.00     0.000 A 
ATOM      5  C6  UNL d   1      -0.800  -1.539  -0.675  0.00  0.00     0.000 A 
ATOM      6  C7  UNL d   1       0.086  -2.386   0.011  0.00  0.00    -0.073 A 
ATOM      7  C8  UNL d   1      -0.481  -3.513   0.831  0.00  0.00     0.078 C 
ENDROOT
BRANCH   1   8
ATOM      8  C1  UNL d   1       2.493  -3.075   0.552  0.00  0.00     0.053 C 
ATOM      9  C   UNL d   1       2.061  -4.533   0.575  0.00  0.00     0.018 C 
ENDBRANCH   1   8
TORSDOF 1
ENDMDL
