MODEL 1
REMARK minimizedAffinity -1.60740972
REMARK minimizedRMSD -1
REMARK  1 active torsions:
REMARK  status: ('A' for Active; 'I' for Inactive)
REMARK    1  A    between atoms: C1_2  and  C2_3 
ROOT
ATOM      1  C2  UNL d   1       0.247  -2.737  -0.022  0.00  0.00    -0.076 A 
ATOM      2  C3  UNL d   1       1.579  -2.466   0.338  0.00  0.00     0.004 A 
ATOM      3  C4  UNL d   1       2.156  -1.225   0.072  0.00  0.00    -0.003 A 
ATOM      4  C5  UNL d   1       1.410  -0.235  -0.558  0.00  0.00     0.000 A 
ATOM      5  C6  UNL d   1       0.082  -0.480  -0.906  0.00  0.00     0.000 A 
ATOM      6  C7  UNL d   1      -0.519  -1.720  -0.630  0.00  0.00    -0.073 A 
ATOM      7  C8  UNL d   1      -1.953  -1.932  -1.033  0.00  0.00     0.078 C 
ENDROOT
BRANCH   1   8
ATOM      8  C1  UNL d   1      -0.316  -4.110   0.268  0.00  0.00     0.053 C 
ATOM      9  C   UNL d   1       0.748  -5.088   0.743  0.00  0.00     0.018 C 
ENDBRANCH   1   8
TORSDOF 1
ENDMDL
