MODEL 1
REMARK minimizedAffinity 4.73659372
REMARK minimizedRMSD -1
REMARK  1 active torsions:
REMARK  status: ('A' for Active; 'I' for Inactive)
REMARK    1  A    between atoms: C1_2  and  C2_3 
ROOT
ATOM      1  C2  UNL d   1       0.232  -1.564  -0.604  0.00  0.00    -0.076 A 
ATOM      2  C3  UNL d   1      -0.015  -0.258  -1.062  0.00  0.00     0.004 A 
ATOM      3  C4  UNL d   1       1.027   0.555  -1.504  0.00  0.00    -0.003 A 
ATOM      4  C5  UNL d   1       2.332   0.075  -1.497  0.00  0.00     0.000 A 
ATOM      5  C6  UNL d   1       2.593  -1.224  -1.062  0.00  0.00     0.000 A 
ATOM      6  C7  UNL d   1       1.552  -2.063  -0.628  0.00  0.00    -0.073 A 
ATOM      7  C8  UNL d   1       1.890  -3.453  -0.165  0.00  0.00     0.078 C 
ENDROOT
BRANCH   1   8
ATOM      8  C1  UNL d   1      -0.935  -2.391  -0.111  0.00  0.00     0.053 C 
ATOM      9  C   UNL d   1      -2.248  -1.998  -0.771  0.00  0.00     0.018 C 
ENDBRANCH   1   8
TORSDOF 1
ENDMDL
