MODEL 1
REMARK minimizedAffinity 0.198181584
REMARK minimizedRMSD -1
REMARK  1 active torsions:
REMARK  status: ('A' for Active; 'I' for Inactive)
REMARK    1  A    between atoms: C1_2  and  C2_3 
ROOT
ATOM      1  C2  UNL d   1      -4.006   1.532   0.979  0.00  0.00    -0.076 A 
ATOM      2  C3  UNL d   1      -3.377   1.937   2.169  0.00  0.00     0.004 A 
ATOM      3  C4  UNL d   1      -3.368   1.113   3.293  0.00  0.00    -0.003 A 
ATOM      4  C5  UNL d   1      -3.988  -0.130   3.245  0.00  0.00     0.000 A 
ATOM      5  C6  UNL d   1      -4.602  -0.556   2.068  0.00  0.00     0.000 A 
ATOM      6  C7  UNL d   1      -4.605   0.255   0.920  0.00  0.00    -0.073 A 
ATOM      7  C8  UNL d   1      -5.287  -0.252  -0.321  0.00  0.00     0.078 C 
ENDROOT
BRANCH   1   8
ATOM      8  C1  UNL d   1      -4.007   2.479  -0.199  0.00  0.00     0.053 C 
ATOM      9  C   UNL d   1      -2.848   3.463  -0.157  0.00  0.00     0.018 C 
ENDBRANCH   1   8
TORSDOF 1
ENDMDL
