MODEL 1
REMARK minimizedAffinity -4.01768494
REMARK minimizedRMSD -1
REMARK  1 active torsions:
REMARK  status: ('A' for Active; 'I' for Inactive)
REMARK    1  A    between atoms: C1_2  and  C2_3 
ROOT
ATOM      1  C2  UNL d   1      -0.004  -2.280   0.346  0.00  0.00    -0.076 A 
ATOM      2  C3  UNL d   1      -0.826  -1.851  -0.711  0.00  0.00     0.004 A 
ATOM      3  C4  UNL d   1      -0.454  -0.778  -1.519  0.00  0.00    -0.003 A 
ATOM      4  C5  UNL d   1       0.746  -0.116  -1.284  0.00  0.00     0.000 A 
ATOM      5  C6  UNL d   1       1.582  -0.539  -0.251  0.00  0.00     0.000 A 
ATOM      6  C7  UNL d   1       1.230  -1.630   0.563  0.00  0.00    -0.073 A 
ATOM      7  C8  UNL d   1       2.166  -2.040   1.666  0.00  0.00     0.078 C 
ENDROOT
BRANCH   1   8
ATOM      8  C1  UNL d   1      -0.472  -3.432   1.206  0.00  0.00     0.053 C 
ATOM      9  C   UNL d   1       0.366  -4.685   1.007  0.00  0.00     0.018 C 
ENDBRANCH   1   8
TORSDOF 1
ENDMDL
