MODEL 1
REMARK minimizedAffinity 2.24247742
REMARK minimizedRMSD -1
REMARK  1 active torsions:
REMARK  status: ('A' for Active; 'I' for Inactive)
REMARK    1  A    between atoms: C1_2  and  C2_3 
ROOT
ATOM      1  C2  UNL d   1       2.669  -3.625   1.432  0.00  0.00    -0.076 A 
ATOM      2  C3  UNL d   1       2.930  -2.394   0.804  0.00  0.00     0.004 A 
ATOM      3  C4  UNL d   1       2.421  -2.113  -0.462  0.00  0.00    -0.003 A 
ATOM      4  C5  UNL d   1       1.642  -3.057  -1.122  0.00  0.00     0.000 A 
ATOM      5  C6  UNL d   1       1.359  -4.277  -0.507  0.00  0.00     0.000 A 
ATOM      6  C7  UNL d   1       1.851  -4.570   0.777  0.00  0.00    -0.073 A 
ATOM      7  C8  UNL d   1       1.519  -5.902   1.390  0.00  0.00     0.078 C 
ENDROOT
BRANCH   1   8
ATOM      8  C1  UNL d   1       3.271  -3.885   2.795  0.00  0.00     0.053 C 
ATOM      9  C   UNL d   1       3.955  -2.656   3.373  0.00  0.00     0.018 C 
ENDBRANCH   1   8
TORSDOF 1
ENDMDL
