MODEL 1
REMARK minimizedAffinity -3.78047657
REMARK minimizedRMSD -1
REMARK  1 active torsions:
REMARK  status: ('A' for Active; 'I' for Inactive)
REMARK    1  A    between atoms: C1_2  and  C2_3 
ROOT
ATOM      1  C2  UNL d   1       0.316  -2.375   0.241  0.00  0.00    -0.076 A 
ATOM      2  C3  UNL d   1      -0.253  -3.582   0.681  0.00  0.00     0.004 A 
ATOM      3  C4  UNL d   1       0.510  -4.746   0.765  0.00  0.00    -0.003 A 
ATOM      4  C5  UNL d   1       1.854  -4.720   0.411  0.00  0.00     0.000 A 
ATOM      5  C6  UNL d   1       2.439  -3.527  -0.011  0.00  0.00     0.000 A 
ATOM      6  C7  UNL d   1       1.689  -2.341  -0.086  0.00  0.00    -0.073 A 
ATOM      7  C8  UNL d   1       2.369  -1.084  -0.554  0.00  0.00     0.078 C 
ENDROOT
BRANCH   1   8
ATOM      8  C1  UNL d   1      -0.567  -1.151   0.144  0.00  0.00     0.053 C 
ATOM      9  C   UNL d   1      -0.857  -0.754  -1.295  0.00  0.00     0.018 C 
ENDBRANCH   1   8
TORSDOF 1
ENDMDL
