MODEL 1
REMARK minimizedAffinity -1.86997497
REMARK minimizedRMSD -1
REMARK  0 active torsions:
REMARK  status: ('A' for Active; 'I' for Inactive)
ROOT
ATOM      1  C   UNL d   1      -0.158   3.698   1.149  0.00  0.00    -0.002 A 
ATOM      2  C1  UNL d   1       0.414   3.518  -0.103  0.00  0.00     0.010 A 
ATOM      3  C2  UNL d   1       0.696   2.236  -0.577  0.00  0.00     0.041 A 
ATOM      4  C3  UNL d   1       0.390   1.126   0.235  0.00  0.00    -0.075 A 
ATOM      5  S   UNL d   1       0.647  -0.537  -0.139  0.00  0.00     0.015 SA
ATOM      6  C4  UNL d   1       0.003  -1.049   1.354  0.00  0.00     0.022 A 
ATOM      7  C5  UNL d   1      -0.402   0.010   2.131  0.00  0.00     0.026 A 
ATOM      8  C6  UNL d   1      -0.186   1.281   1.498  0.00  0.00    -0.082 A 
ATOM      9  C7  UNL d   1      -0.460   2.594   1.951  0.00  0.00     0.045 A 
ENDROOT
TORSDOF 0
ENDMDL
