MODEL 1
REMARK minimizedAffinity 0.30210349
REMARK minimizedRMSD -1
REMARK  0 active torsions:
REMARK  status: ('A' for Active; 'I' for Inactive)
ROOT
ATOM      1  C   UNL d   1      -1.336   1.120   2.341  0.00  0.00    -0.002 A 
ATOM      2  C1  UNL d   1      -0.708   2.153   1.660  0.00  0.00     0.010 A 
ATOM      3  C2  UNL d   1       0.162   1.882   0.602  0.00  0.00     0.041 A 
ATOM      4  C3  UNL d   1       0.392   0.541   0.236  0.00  0.00    -0.075 A 
ATOM      5  S   UNL d   1       1.416  -0.031  -1.027  0.00  0.00     0.015 SA
ATOM      6  C4  UNL d   1       1.044  -1.660  -0.693  0.00  0.00     0.022 A 
ATOM      7  C5  UNL d   1       0.162  -1.783   0.354  0.00  0.00     0.026 A 
ATOM      8  C6  UNL d   1      -0.229  -0.517   0.907  0.00  0.00    -0.082 A 
ATOM      9  C7  UNL d   1      -1.105  -0.209   1.975  0.00  0.00     0.045 A 
ENDROOT
TORSDOF 0
ENDMDL
