MODEL 1
REMARK minimizedAffinity -2.36639357
REMARK minimizedRMSD -1
REMARK  0 active torsions:
REMARK  status: ('A' for Active; 'I' for Inactive)
ROOT
ATOM      1  C   UNL d   1      -0.546   4.177   0.658  0.00  0.00    -0.002 A 
ATOM      2  C1  UNL d   1       0.012   3.827  -0.563  0.00  0.00     0.010 A 
ATOM      3  C2  UNL d   1       0.149   2.484  -0.922  0.00  0.00     0.041 A 
ATOM      4  C3  UNL d   1      -0.292   1.491  -0.026  0.00  0.00    -0.075 A 
ATOM      5  S   UNL d   1      -0.226  -0.217  -0.253  0.00  0.00     0.015 SA
ATOM      6  C4  UNL d   1      -0.939  -0.521   1.265  0.00  0.00     0.022 A 
ATOM      7  C5  UNL d   1      -1.226   0.640   1.942  0.00  0.00     0.026 A 
ATOM      8  C6  UNL d   1      -0.858   1.819   1.209  0.00  0.00    -0.082 A 
ATOM      9  C7  UNL d   1      -0.982   3.189   1.545  0.00  0.00     0.045 A 
ENDROOT
TORSDOF 0
ENDMDL
