MODEL 1
REMARK minimizedAffinity -1.8491956
REMARK minimizedRMSD -1
REMARK  0 active torsions:
REMARK  status: ('A' for Active; 'I' for Inactive)
ROOT
ATOM      1  C   UNL d   1      -0.167   0.386   0.775  0.00  0.00    -0.002 A 
ATOM      2  C1  UNL d   1      -0.998  -0.643   1.194  0.00  0.00     0.010 A 
ATOM      3  C2  UNL d   1      -1.062  -1.841   0.479  0.00  0.00     0.041 A 
ATOM      4  C3  UNL d   1      -0.268  -1.989  -0.675  0.00  0.00    -0.075 A 
ATOM      5  S   UNL d   1      -0.182  -3.366  -1.708  0.00  0.00     0.015 SA
ATOM      6  C4  UNL d   1       0.961  -2.621  -2.730  0.00  0.00     0.022 A 
ATOM      7  C5  UNL d   1       1.280  -1.352  -2.308  0.00  0.00     0.026 A 
ATOM      8  C6  UNL d   1       0.578  -0.967  -1.117  0.00  0.00    -0.082 A 
ATOM      9  C7  UNL d   1       0.619   0.236  -0.370  0.00  0.00     0.045 A 
ENDROOT
TORSDOF 0
ENDMDL
