MODEL 1
REMARK minimizedAffinity 3.89880061
REMARK minimizedRMSD -1
REMARK  0 active torsions:
REMARK  status: ('A' for Active; 'I' for Inactive)
ROOT
ATOM      1  C   UNL d   1      -1.481   1.330   1.890  0.00  0.00    -0.002 A 
ATOM      2  C1  UNL d   1      -0.962   2.416   1.199  0.00  0.00     0.010 A 
ATOM      3  C2  UNL d   1      -0.081   2.224   0.133  0.00  0.00     0.041 A 
ATOM      4  C3  UNL d   1       0.271   0.910  -0.232  0.00  0.00    -0.075 A 
ATOM      5  S   UNL d   1       1.332   0.434  -1.505  0.00  0.00     0.015 SA
ATOM      6  C4  UNL d   1       1.120  -1.222  -1.163  0.00  0.00     0.022 A 
ATOM      7  C5  UNL d   1       0.265  -1.425  -0.106  0.00  0.00     0.026 A 
ATOM      8  C6  UNL d   1      -0.239  -0.200   0.448  0.00  0.00    -0.082 A 
ATOM      9  C7  UNL d   1      -1.129   0.028   1.525  0.00  0.00     0.045 A 
ENDROOT
TORSDOF 0
ENDMDL
