MODEL 1
REMARK minimizedAffinity 2.17873383
REMARK minimizedRMSD -1
REMARK  0 active torsions:
REMARK  status: ('A' for Active; 'I' for Inactive)
ROOT
ATOM      1  C   UNL d   1      -1.659   0.080   1.881  0.00  0.00    -0.002 A 
ATOM      2  C1  UNL d   1      -0.719   1.097   1.796  0.00  0.00     0.010 A 
ATOM      3  C2  UNL d   1       0.327   1.022   0.874  0.00  0.00     0.041 A 
ATOM      4  C3  UNL d   1       0.412  -0.103   0.030  0.00  0.00    -0.075 A 
ATOM      5  S   UNL d   1       1.606  -0.410  -1.175  0.00  0.00     0.015 SA
ATOM      6  C4  UNL d   1       0.896  -1.898  -1.606  0.00  0.00     0.022 A 
ATOM      7  C5  UNL d   1      -0.225  -2.170  -0.858  0.00  0.00     0.026 A 
ATOM      8  C6  UNL d   1      -0.523  -1.139   0.097  0.00  0.00    -0.082 A 
ATOM      9  C7  UNL d   1      -1.571  -1.034   1.042  0.00  0.00     0.045 A 
ENDROOT
TORSDOF 0
ENDMDL
