MODEL 1
REMARK minimizedAffinity -1.39615691
REMARK minimizedRMSD -1
REMARK  0 active torsions:
REMARK  status: ('A' for Active; 'I' for Inactive)
ROOT
ATOM      1  C   UNL d   1       1.539   1.507  -1.473  0.00  0.00    -0.002 A 
ATOM      2  C1  UNL d   1       1.883   0.173  -1.305  0.00  0.00     0.010 A 
ATOM      3  C2  UNL d   1       1.287  -0.593  -0.301  0.00  0.00     0.041 A 
ATOM      4  C3  UNL d   1       0.329   0.009   0.538  0.00  0.00    -0.075 A 
ATOM      5  S   UNL d   1      -0.533  -0.734   1.833  0.00  0.00     0.015 SA
ATOM      6  C4  UNL d   1      -1.378   0.701   2.194  0.00  0.00     0.022 A 
ATOM      7  C5  UNL d   1      -1.023   1.733   1.356  0.00  0.00     0.026 A 
ATOM      8  C6  UNL d   1      -0.035   1.351   0.388  0.00  0.00    -0.082 A 
ATOM      9  C7  UNL d   1       0.588   2.101  -0.638  0.00  0.00     0.045 A 
ENDROOT
TORSDOF 0
ENDMDL
