MODEL 1
REMARK minimizedAffinity 4.33652067
REMARK minimizedRMSD -1
REMARK  0 active torsions:
REMARK  status: ('A' for Active; 'I' for Inactive)
ROOT
ATOM      1  C   UNL d   1      -1.381   0.269   1.902  0.00  0.00    -0.002 A 
ATOM      2  C1  UNL d   1      -0.891   1.495   1.476  0.00  0.00     0.010 A 
ATOM      3  C2  UNL d   1       0.127   1.560   0.522  0.00  0.00     0.041 A 
ATOM      4  C3  UNL d   1       0.647   0.360  -0.002  0.00  0.00    -0.075 A 
ATOM      5  S   UNL d   1       1.896   0.195  -1.180  0.00  0.00     0.015 SA
ATOM      6  C4  UNL d   1       1.806  -1.507  -1.145  0.00  0.00     0.022 A 
ATOM      7  C5  UNL d   1       0.853  -1.955  -0.261  0.00  0.00     0.026 A 
ATOM      8  C6  UNL d   1       0.169  -0.887   0.412  0.00  0.00    -0.082 A 
ATOM      9  C7  UNL d   1      -0.863  -0.919   1.380  0.00  0.00     0.045 A 
ENDROOT
TORSDOF 0
ENDMDL
