MODEL 1
REMARK minimizedAffinity -3.23915291
REMARK minimizedRMSD -1
REMARK  0 active torsions:
REMARK  status: ('A' for Active; 'I' for Inactive)
ROOT
ATOM      1  C   UNL d   1      -1.532   3.267   1.836  0.00  0.00    -0.002 A 
ATOM      2  C1  UNL d   1      -0.854   3.686   0.700  0.00  0.00     0.010 A 
ATOM      3  C2  UNL d   1      -0.238   2.758  -0.143  0.00  0.00     0.041 A 
ATOM      4  C3  UNL d   1      -0.319   1.389   0.177  0.00  0.00    -0.075 A 
ATOM      5  S   UNL d   1       0.357   0.073  -0.708  0.00  0.00     0.015 SA
ATOM      6  C4  UNL d   1      -0.239  -1.077   0.400  0.00  0.00     0.022 A 
ATOM      7  C5  UNL d   1      -0.939  -0.488   1.427  0.00  0.00     0.026 A 
ATOM      8  C6  UNL d   1      -0.997   0.942   1.315  0.00  0.00    -0.082 A 
ATOM      9  C7  UNL d   1      -1.609   1.908   2.150  0.00  0.00     0.045 A 
ENDROOT
TORSDOF 0
ENDMDL
