MODEL 1
REMARK minimizedAffinity -0.353287309
REMARK minimizedRMSD -1
REMARK  0 active torsions:
REMARK  status: ('A' for Active; 'I' for Inactive)
ROOT
ATOM      1  C   UNL d   1      -0.244   3.994   1.254  0.00  0.00    -0.002 A 
ATOM      2  C1  UNL d   1       0.402   4.078   0.029  0.00  0.00     0.010 A 
ATOM      3  C2  UNL d   1       0.809   2.922  -0.640  0.00  0.00     0.041 A 
ATOM      4  C3  UNL d   1       0.552   1.668  -0.052  0.00  0.00    -0.075 A 
ATOM      5  S   UNL d   1       0.959   0.118  -0.689  0.00  0.00     0.015 SA
ATOM      6  C4  UNL d   1       0.284  -0.692   0.650  0.00  0.00     0.022 A 
ATOM      7  C5  UNL d   1      -0.243   0.183   1.570  0.00  0.00     0.026 A 
ATOM      8  C6  UNL d   1      -0.098   1.558   1.181  0.00  0.00    -0.082 A 
ATOM      9  C7  UNL d   1      -0.498   2.748   1.835  0.00  0.00     0.045 A 
ENDROOT
TORSDOF 0
ENDMDL
