MODEL 1
REMARK minimizedAffinity 7.57419872
REMARK minimizedRMSD -1
REMARK  1 active torsions:
REMARK  status: ('A' for Active; 'I' for Inactive)
REMARK    1  A    between atoms: C1_2  and  C2_3 
ROOT
ATOM      1  C2  UNL d   1       2.027   1.642   0.894  0.00  0.00    -0.081 A 
ATOM      2  C3  UNL d   1       1.902   2.308   2.120  0.00  0.00     0.006 A 
ATOM      3  C4  UNL d   1       1.272   3.553   2.188  0.00  0.00     0.002 A 
ATOM      4  C5  UNL d   1       0.751   4.149   1.034  0.00  0.00    -0.080 A 
ATOM      5  C6  UNL d   1       0.047   5.472   1.098  0.00  0.00     0.076 C 
ATOM      6  C7  UNL d   1       0.892   3.492  -0.193  0.00  0.00     0.002 A 
ATOM      7  C8  UNL d   1       1.522   2.247  -0.262  0.00  0.00     0.006 A 
ENDROOT
BRANCH   1   8
ATOM      8  C1  UNL d   1       2.648   0.270   0.828  0.00  0.00     0.054 C 
ATOM      9  C   UNL d   1       2.047  -0.555  -0.302  0.00  0.00     0.018 C 
ENDBRANCH   1   8
TORSDOF 1
ENDMDL
