MODEL 1
REMARK minimizedAffinity 4.4202981
REMARK minimizedRMSD -1
REMARK  1 active torsions:
REMARK  status: ('A' for Active; 'I' for Inactive)
REMARK    1  A    between atoms: C1_2  and  C2_3 
ROOT
ATOM      1  C2  UNL d   1       4.032   2.039  -1.037  0.00  0.00    -0.081 A 
ATOM      2  C3  UNL d   1       3.367   1.666   0.137  0.00  0.00     0.006 A 
ATOM      3  C4  UNL d   1       2.816   0.389   0.264  0.00  0.00     0.002 A 
ATOM      4  C5  UNL d   1       2.929  -0.539  -0.777  0.00  0.00    -0.080 A 
ATOM      5  C6  UNL d   1       2.369  -1.924  -0.643  0.00  0.00     0.076 C 
ATOM      6  C7  UNL d   1       3.579  -0.161  -1.957  0.00  0.00     0.002 A 
ATOM      7  C8  UNL d   1       4.129   1.117  -2.084  0.00  0.00     0.006 A 
ENDROOT
BRANCH   1   8
ATOM      8  C1  UNL d   1       4.683   3.394  -1.151  0.00  0.00     0.054 C 
ATOM      9  C   UNL d   1       6.000   3.313  -1.912  0.00  0.00     0.018 C 
ENDBRANCH   1   8
TORSDOF 1
ENDMDL
