MODEL 1
REMARK minimizedAffinity 6.72587252
REMARK minimizedRMSD -1
REMARK  1 active torsions:
REMARK  status: ('A' for Active; 'I' for Inactive)
REMARK    1  A    between atoms: C1_2  and  C2_3 
ROOT
ATOM      1  C2  UNL d   1      -5.074   3.560   1.704  0.00  0.00    -0.081 A 
ATOM      2  C3  UNL d   1      -4.883   3.059   2.997  0.00  0.00     0.006 A 
ATOM      3  C4  UNL d   1      -5.170   3.850   4.112  0.00  0.00     0.002 A 
ATOM      4  C5  UNL d   1      -5.658   5.151   3.953  0.00  0.00    -0.080 A 
ATOM      5  C6  UNL d   1      -5.999   6.000   5.142  0.00  0.00     0.076 C 
ATOM      6  C7  UNL d   1      -5.832   5.658   2.661  0.00  0.00     0.002 A 
ATOM      7  C8  UNL d   1      -5.545   4.868   1.546  0.00  0.00     0.006 A 
ENDROOT
BRANCH   1   8
ATOM      8  C1  UNL d   1      -4.827   2.688   0.500  0.00  0.00     0.054 C 
ATOM      9  C   UNL d   1      -3.761   1.640   0.784  0.00  0.00     0.018 C 
ENDBRANCH   1   8
TORSDOF 1
ENDMDL
