MODEL 1
REMARK minimizedAffinity 5.17330122
REMARK minimizedRMSD -1
REMARK  1 active torsions:
REMARK  status: ('A' for Active; 'I' for Inactive)
REMARK    1  A    between atoms: C1_2  and  C2_3 
ROOT
ATOM      1  C2  UNL d   1      -1.277  -5.178   1.908  0.00  0.00    -0.081 A 
ATOM      2  C3  UNL d   1      -0.586  -3.995   2.196  0.00  0.00     0.006 A 
ATOM      3  C4  UNL d   1      -0.330  -3.628   3.519  0.00  0.00     0.002 A 
ATOM      4  C5  UNL d   1      -0.753  -4.442   4.576  0.00  0.00    -0.080 A 
ATOM      5  C6  UNL d   1      -0.457  -4.075   6.000  0.00  0.00     0.076 C 
ATOM      6  C7  UNL d   1      -1.458  -5.615   4.289  0.00  0.00     0.002 A 
ATOM      7  C8  UNL d   1      -1.716  -5.982   2.966  0.00  0.00     0.006 A 
ENDROOT
BRANCH   1   8
ATOM      8  C1  UNL d   1      -1.499  -5.609   0.481  0.00  0.00     0.054 C 
ATOM      9  C   UNL d   1      -0.267  -5.346  -0.374  0.00  0.00     0.018 C 
ENDBRANCH   1   8
TORSDOF 1
ENDMDL
