MODEL 1
REMARK minimizedAffinity -3.71113706
REMARK minimizedRMSD -1
REMARK  1 active torsions:
REMARK  status: ('A' for Active; 'I' for Inactive)
REMARK    1  A    between atoms: C1_2  and  C2_3 
ROOT
ATOM      1  C2  UNL d   1       1.157  -1.074  -0.103  0.00  0.00    -0.076 A 
ATOM      2  C3  UNL d   1       1.350   0.244   0.346  0.00  0.00     0.004 A 
ATOM      3  C4  UNL d   1       0.300   1.161   0.352  0.00  0.00    -0.003 A 
ATOM      4  C5  UNL d   1      -0.960   0.775  -0.090  0.00  0.00     0.000 A 
ATOM      5  C6  UNL d   1      -1.174  -0.534  -0.523  0.00  0.00     0.000 A 
ATOM      6  C7  UNL d   1      -0.131  -1.475  -0.520  0.00  0.00    -0.073 A 
ATOM      7  C8  UNL d   1      -0.416  -2.871  -1.002  0.00  0.00     0.078 C 
ENDROOT
BRANCH   1   8
ATOM      8  C1  UNL d   1       2.339  -2.017  -0.112  0.00  0.00     0.053 C 
ATOM      9  C   UNL d   1       3.623  -1.345   0.348  0.00  0.00     0.018 C 
ENDBRANCH   1   8
TORSDOF 1
ENDMDL
