MODEL 1
REMARK minimizedAffinity -1.27052987
REMARK minimizedRMSD -1
REMARK  1 active torsions:
REMARK  status: ('A' for Active; 'I' for Inactive)
REMARK    1  A    between atoms: C1_2  and  C2_3 
ROOT
ATOM      1  C2  UNL d   1       1.287  -0.420   0.217  0.00  0.00    -0.076 A 
ATOM      2  C3  UNL d   1       0.314  -1.322  -0.248  0.00  0.00     0.004 A 
ATOM      3  C4  UNL d   1      -0.999  -0.909  -0.468  0.00  0.00    -0.003 A 
ATOM      4  C5  UNL d   1      -1.360   0.412  -0.229  0.00  0.00     0.000 A 
ATOM      5  C6  UNL d   1      -0.403   1.324   0.215  0.00  0.00     0.000 A 
ATOM      6  C7  UNL d   1       0.928   0.929   0.427  0.00  0.00    -0.073 A 
ATOM      7  C8  UNL d   1       1.917   1.953   0.913  0.00  0.00     0.078 C 
ENDROOT
BRANCH   1   8
ATOM      8  C1  UNL d   1       2.688  -0.931   0.464  0.00  0.00     0.053 C 
ATOM      9  C   UNL d   1       2.701  -2.324   1.074  0.00  0.00     0.018 C 
ENDBRANCH   1   8
TORSDOF 1
ENDMDL
