MODEL 1
REMARK minimizedAffinity -0.380563796
REMARK minimizedRMSD -1
REMARK  1 active torsions:
REMARK  status: ('A' for Active; 'I' for Inactive)
REMARK    1  A    between atoms: C1_2  and  C2_3 
ROOT
ATOM      1  C2  UNL d   1      -1.007   0.200  -0.356  0.00  0.00    -0.076 A 
ATOM      2  C3  UNL d   1      -1.110  -1.202  -0.379  0.00  0.00     0.004 A 
ATOM      3  C4  UNL d   1       0.028  -2.006  -0.347  0.00  0.00    -0.003 A 
ATOM      4  C5  UNL d   1       1.288  -1.421  -0.291  0.00  0.00     0.000 A 
ATOM      5  C6  UNL d   1       1.409  -0.032  -0.249  0.00  0.00     0.000 A 
ATOM      6  C7  UNL d   1       0.271   0.792  -0.264  0.00  0.00    -0.073 A 
ATOM      7  C8  UNL d   1       0.460   2.284  -0.223  0.00  0.00     0.078 C 
ENDROOT
BRANCH   1   8
ATOM      8  C1  UNL d   1      -2.275   1.021  -0.420  0.00  0.00     0.053 C 
ATOM      9  C   UNL d   1      -3.159   0.825   0.802  0.00  0.00     0.018 C 
ENDBRANCH   1   8
TORSDOF 1
ENDMDL
