MODEL 1
REMARK minimizedAffinity -4.0866456
REMARK minimizedRMSD -1
REMARK  1 active torsions:
REMARK  status: ('A' for Active; 'I' for Inactive)
REMARK    1  A    between atoms: C1_2  and  C2_3 
ROOT
ATOM      1  C2  UNL d   1       0.445   0.350  -0.429  0.00  0.00    -0.076 A 
ATOM      2  C3  UNL d   1       0.094  -0.997  -0.629  0.00  0.00     0.004 A 
ATOM      3  C4  UNL d   1       1.050  -2.007  -0.544  0.00  0.00    -0.003 A 
ATOM      4  C5  UNL d   1       2.372  -1.688  -0.256  0.00  0.00     0.000 A 
ATOM      5  C6  UNL d   1       2.735  -0.359  -0.038  0.00  0.00     0.000 A 
ATOM      6  C7  UNL d   1       1.780   0.670  -0.104  0.00  0.00    -0.073 A 
ATOM      7  C8  UNL d   1       2.228   2.086   0.134  0.00  0.00     0.078 C 
ENDROOT
BRANCH   1   8
ATOM      8  C1  UNL d   1      -0.630   1.406  -0.562  0.00  0.00     0.053 C 
ATOM      9  C   UNL d   1      -2.022   0.858  -0.287  0.00  0.00     0.018 C 
ENDBRANCH   1   8
TORSDOF 1
ENDMDL
