MODEL 1
REMARK minimizedAffinity -3.21688485
REMARK minimizedRMSD -1
REMARK  1 active torsions:
REMARK  status: ('A' for Active; 'I' for Inactive)
REMARK    1  A    between atoms: C1_2  and  C2_3 
ROOT
ATOM      1  C2  UNL d   1       0.348  -1.283   0.239  0.00  0.00    -0.076 A 
ATOM      2  C3  UNL d   1       0.585   0.069  -0.066  0.00  0.00     0.004 A 
ATOM      3  C4  UNL d   1      -0.467   0.978  -0.158  0.00  0.00    -0.003 A 
ATOM      4  C5  UNL d   1      -1.773   0.551   0.055  0.00  0.00     0.000 A 
ATOM      5  C6  UNL d   1      -2.025  -0.782   0.376  0.00  0.00     0.000 A 
ATOM      6  C7  UNL d   1      -0.974  -1.709   0.489  0.00  0.00    -0.073 A 
ATOM      7  C8  UNL d   1      -1.303  -3.136   0.832  0.00  0.00     0.078 C 
ENDROOT
BRANCH   1   8
ATOM      8  C1  UNL d   1       1.527  -2.229   0.299  0.00  0.00     0.053 C 
ATOM      9  C   UNL d   1       2.624  -1.855  -0.686  0.00  0.00     0.018 C 
ENDBRANCH   1   8
TORSDOF 1
ENDMDL
