MODEL 1
REMARK minimizedAffinity -3.98234916
REMARK minimizedRMSD -1
REMARK  1 active torsions:
REMARK  status: ('A' for Active; 'I' for Inactive)
REMARK    1  A    between atoms: C1_2  and  C2_3 
ROOT
ATOM      1  C2  UNL d   1       0.964  -0.389   0.502  0.00  0.00    -0.076 A 
ATOM      2  C3  UNL d   1      -0.079  -1.129  -0.082  0.00  0.00     0.004 A 
ATOM      3  C4  UNL d   1      -1.186  -0.491  -0.638  0.00  0.00    -0.003 A 
ATOM      4  C5  UNL d   1      -1.269   0.897  -0.619  0.00  0.00     0.000 A 
ATOM      5  C6  UNL d   1      -0.235   1.647  -0.059  0.00  0.00     0.000 A 
ATOM      6  C7  UNL d   1       0.896   1.020   0.491  0.00  0.00    -0.073 A 
ATOM      7  C8  UNL d   1       1.979   1.878   1.087  0.00  0.00     0.078 C 
ENDROOT
BRANCH   1   8
ATOM      8  C1  UNL d   1       2.128  -1.137   1.113  0.00  0.00     0.053 C 
ATOM      9  C   UNL d   1       2.950  -1.885   0.075  0.00  0.00     0.018 C 
ENDBRANCH   1   8
TORSDOF 1
ENDMDL
