MODEL 1
REMARK minimizedAffinity 8.09163475
REMARK minimizedRMSD -1
REMARK  1 active torsions:
REMARK  status: ('A' for Active; 'I' for Inactive)
REMARK    1  A    between atoms: C1_2  and  C2_3 
ROOT
ATOM      1  C2  UNL d   1       0.771  -0.953  -0.230  0.00  0.00    -0.076 A 
ATOM      2  C3  UNL d   1      -0.222  -1.110   0.753  0.00  0.00     0.004 A 
ATOM      3  C4  UNL d   1      -0.518  -2.366   1.280  0.00  0.00    -0.003 A 
ATOM      4  C5  UNL d   1       0.176  -3.486   0.834  0.00  0.00     0.000 A 
ATOM      5  C6  UNL d   1       1.176  -3.346  -0.127  0.00  0.00     0.000 A 
ATOM      6  C7  UNL d   1       1.498  -2.085  -0.657  0.00  0.00    -0.073 A 
ATOM      7  C8  UNL d   1       2.581  -1.993  -1.696  0.00  0.00     0.078 C 
ENDROOT
BRANCH   1   8
ATOM      8  C1  UNL d   1       1.029   0.430  -0.784  0.00  0.00     0.053 C 
ATOM      9  C   UNL d   1       2.187   1.129  -0.090  0.00  0.00     0.018 C 
ENDBRANCH   1   8
TORSDOF 1
ENDMDL
