MODEL 1
REMARK minimizedAffinity -5.04184961
REMARK minimizedRMSD -1
REMARK  1 active torsions:
REMARK  status: ('A' for Active; 'I' for Inactive)
REMARK    1  A    between atoms: C1_2  and  C2_3 
ROOT
ATOM      1  C2  UNL d   1       0.514   0.312  -0.252  0.00  0.00    -0.076 A 
ATOM      2  C3  UNL d   1       1.330   0.757   0.803  0.00  0.00     0.004 A 
ATOM      3  C4  UNL d   1       2.310  -0.069   1.350  0.00  0.00    -0.003 A 
ATOM      4  C5  UNL d   1       2.491  -1.354   0.850  0.00  0.00     0.000 A 
ATOM      5  C6  UNL d   1       1.703  -1.806  -0.208  0.00  0.00     0.000 A 
ATOM      6  C7  UNL d   1       0.721  -0.979  -0.781  0.00  0.00    -0.073 A 
ATOM      7  C8  UNL d   1      -0.105  -1.520  -1.916  0.00  0.00     0.078 C 
ENDROOT
BRANCH   1   8
ATOM      8  C1  UNL d   1      -0.550   1.243  -0.787  0.00  0.00     0.053 C 
ATOM      9  C   UNL d   1      -1.873   1.100  -0.050  0.00  0.00     0.018 C 
ENDBRANCH   1   8
TORSDOF 1
ENDMDL
