MODEL 1
REMARK minimizedAffinity -3.82254672
REMARK minimizedRMSD -1
REMARK  1 active torsions:
REMARK  status: ('A' for Active; 'I' for Inactive)
REMARK    1  A    between atoms: C1_2  and  C2_3 
ROOT
ATOM      1  C2  UNL d   1       1.051  -0.936  -0.253  0.00  0.00    -0.076 A 
ATOM      2  C3  UNL d   1       1.259   0.206   0.540  0.00  0.00     0.004 A 
ATOM      3  C4  UNL d   1       0.247   1.148   0.721  0.00  0.00    -0.003 A 
ATOM      4  C5  UNL d   1      -0.989   0.962   0.112  0.00  0.00     0.000 A 
ATOM      5  C6  UNL d   1      -1.219  -0.174  -0.664  0.00  0.00     0.000 A 
ATOM      6  C7  UNL d   1      -0.215  -1.141  -0.843  0.00  0.00    -0.073 A 
ATOM      7  C8  UNL d   1      -0.515  -2.344  -1.695  0.00  0.00     0.078 C 
ENDROOT
BRANCH   1   8
ATOM      8  C1  UNL d   1       2.194  -1.909  -0.435  0.00  0.00     0.053 C 
ATOM      9  C   UNL d   1       3.178  -1.875   0.724  0.00  0.00     0.018 C 
ENDBRANCH   1   8
TORSDOF 1
ENDMDL
