MODEL 1
REMARK minimizedAffinity -2.46422744
REMARK minimizedRMSD -1
REMARK  0 active torsions:
REMARK  status: ('A' for Active; 'I' for Inactive)
ROOT
ATOM      1  C   UNL d   1      -0.718   1.744   2.039  0.00  0.00    -0.002 A 
ATOM      2  C1  UNL d   1      -0.142   0.486   2.153  0.00  0.00     0.010 A 
ATOM      3  C2  UNL d   1       0.196  -0.246   1.014  0.00  0.00     0.041 A 
ATOM      4  C3  UNL d   1      -0.056   0.312  -0.255  0.00  0.00    -0.075 A 
ATOM      5  S   UNL d   1       0.275  -0.402  -1.789  0.00  0.00     0.015 SA
ATOM      6  C4  UNL d   1      -0.339   0.946  -2.632  0.00  0.00     0.022 A 
ATOM      7  C5  UNL d   1      -0.790   1.926  -1.780  0.00  0.00     0.026 A 
ATOM      8  C6  UNL d   1      -0.634   1.577  -0.396  0.00  0.00    -0.082 A 
ATOM      9  C7  UNL d   1      -0.966   2.294   0.779  0.00  0.00     0.045 A 
ENDROOT
TORSDOF 0
ENDMDL
