MODEL 1
REMARK minimizedAffinity -1.78705001
REMARK minimizedRMSD -1
REMARK  0 active torsions:
REMARK  status: ('A' for Active; 'I' for Inactive)
ROOT
ATOM      1  C   UNL d   1      -0.085   1.421   0.465  0.00  0.00    -0.002 A 
ATOM      2  C1  UNL d   1      -0.532   0.539   1.438  0.00  0.00     0.010 A 
ATOM      3  C2  UNL d   1      -0.552  -0.836   1.196  0.00  0.00     0.041 A 
ATOM      4  C3  UNL d   1      -0.108  -1.314  -0.053  0.00  0.00    -0.075 A 
ATOM      5  S   UNL d   1      -0.041  -2.956  -0.573  0.00  0.00     0.015 SA
ATOM      6  C4  UNL d   1       0.583  -2.525  -2.100  0.00  0.00     0.022 A 
ATOM      7  C5  UNL d   1       0.743  -1.166  -2.226  0.00  0.00     0.026 A 
ATOM      8  C6  UNL d   1       0.347  -0.445  -1.049  0.00  0.00    -0.082 A 
ATOM      9  C7  UNL d   1       0.354   0.943  -0.772  0.00  0.00     0.045 A 
ENDROOT
TORSDOF 0
ENDMDL
