MODEL 1
REMARK minimizedAffinity -3.9469924
REMARK minimizedRMSD -1
REMARK  0 active torsions:
REMARK  status: ('A' for Active; 'I' for Inactive)
ROOT
ATOM      1  C   UNL d   1      -1.367   3.038   1.482  0.00  0.00    -0.002 A 
ATOM      2  C1  UNL d   1      -1.188   3.341   0.140  0.00  0.00     0.010 A 
ATOM      3  C2  UNL d   1      -0.693   2.380  -0.745  0.00  0.00     0.041 A 
ATOM      4  C3  UNL d   1      -0.379   1.098  -0.253  0.00  0.00    -0.075 A 
ATOM      5  S   UNL d   1       0.240  -0.237  -1.151  0.00  0.00     0.015 SA
ATOM      6  C4  UNL d   1       0.282  -1.240   0.226  0.00  0.00     0.022 A 
ATOM      7  C5  UNL d   1      -0.162  -0.588   1.352  0.00  0.00     0.026 A 
ATOM      8  C6  UNL d   1      -0.551   0.770   1.095  0.00  0.00    -0.082 A 
ATOM      9  C7  UNL d   1      -1.054   1.765   1.967  0.00  0.00     0.045 A 
ENDROOT
TORSDOF 0
ENDMDL
