MODEL 1
REMARK minimizedAffinity -2.87381482
REMARK minimizedRMSD -1
REMARK  0 active torsions:
REMARK  status: ('A' for Active; 'I' for Inactive)
ROOT
ATOM      1  C   UNL d   1       3.494  -4.899  -0.592  0.00  0.00    -0.002 A 
ATOM      2  C1  UNL d   1       2.880  -5.962   0.056  0.00  0.00     0.010 A 
ATOM      3  C2  UNL d   1       1.492  -5.998   0.205  0.00  0.00     0.041 A 
ATOM      4  C3  UNL d   1       0.724  -4.938  -0.315  0.00  0.00    -0.075 A 
ATOM      5  S   UNL d   1      -0.991  -4.768  -0.251  0.00  0.00     0.015 SA
ATOM      6  C4  UNL d   1      -0.950  -3.281  -1.082  0.00  0.00     0.022 A 
ATOM      7  C5  UNL d   1       0.333  -2.908  -1.408  0.00  0.00     0.026 A 
ATOM      8  C6  UNL d   1       1.318  -3.857  -0.972  0.00  0.00    -0.082 A 
ATOM      9  C7  UNL d   1       2.728  -3.849  -1.106  0.00  0.00     0.045 A 
ENDROOT
TORSDOF 0
ENDMDL
