MODEL 1
REMARK minimizedAffinity 1.66246128
REMARK minimizedRMSD -1
REMARK  0 active torsions:
REMARK  status: ('A' for Active; 'I' for Inactive)
ROOT
ATOM      1  C   UNL d   1      -2.006   2.163  -0.215  0.00  0.00    -0.002 A 
ATOM      2  C1  UNL d   1      -1.712   2.297   1.134  0.00  0.00     0.010 A 
ATOM      3  C2  UNL d   1      -0.773   1.461   1.743  0.00  0.00     0.041 A 
ATOM      4  C3  UNL d   1      -0.127   0.481   0.965  0.00  0.00    -0.075 A 
ATOM      5  S   UNL d   1       1.058  -0.653   1.495  0.00  0.00     0.015 SA
ATOM      6  C4  UNL d   1       1.203  -1.341  -0.057  0.00  0.00     0.022 A 
ATOM      7  C5  UNL d   1       0.375  -0.733  -0.970  0.00  0.00     0.026 A 
ATOM      8  C6  UNL d   1      -0.405   0.327  -0.397  0.00  0.00    -0.082 A 
ATOM      9  C7  UNL d   1      -1.363   1.189  -0.984  0.00  0.00     0.045 A 
ENDROOT
TORSDOF 0
ENDMDL
