MODEL 1
REMARK minimizedAffinity 4.85908222
REMARK minimizedRMSD -1
REMARK  0 active torsions:
REMARK  status: ('A' for Active; 'I' for Inactive)
ROOT
ATOM      1  C   UNL d   1       0.288   1.603   2.053  0.00  0.00     0.020 A 
ATOM      2  C1  UNL d   1       0.630   2.949   1.927  0.00  0.00     0.020 A 
ATOM      3  C2  UNL d   1       0.365   3.627   0.736  0.00  0.00     0.034 A 
ATOM      4  C3  UNL d   1      -0.242   2.960  -0.334  0.00  0.00     0.017 A 
ATOM      5  C4  UNL d   1      -0.585   1.609  -0.207  0.00  0.00     0.017 A 
ATOM      6  C5  UNL d   1      -0.317   0.935   0.989  0.00  0.00     0.034 A 
ATOM      7 Cl   UNL d   1      -1.337   0.719  -1.483  0.00  0.00    -0.070 Cl
ATOM      8 Cl1  UNL d   1      -0.540   3.861  -1.778  0.00  0.00    -0.070 Cl
ENDROOT
TORSDOF 0
ENDMDL
