MODEL 1
REMARK minimizedAffinity 8.56369305
REMARK minimizedRMSD -1
REMARK  0 active torsions:
REMARK  status: ('A' for Active; 'I' for Inactive)
ROOT
ATOM      1  C   UNL d   1      -0.384   2.406   1.251  0.00  0.00     0.020 A 
ATOM      2  C1  UNL d   1       0.865   2.361   1.868  0.00  0.00     0.020 A 
ATOM      3  C2  UNL d   1       1.114   1.423   2.873  0.00  0.00     0.034 A 
ATOM      4  C3  UNL d   1       0.112   0.528   3.264  0.00  0.00     0.017 A 
ATOM      5  C4  UNL d   1      -1.142   0.574   2.644  0.00  0.00     0.017 A 
ATOM      6  C5  UNL d   1      -1.385   1.515   1.638  0.00  0.00     0.034 A 
ATOM      7 Cl   UNL d   1      -2.428  -0.498   3.072  0.00  0.00    -0.070 Cl
ATOM      8 Cl1  UNL d   1       0.490  -0.605   4.512  0.00  0.00    -0.070 Cl
ENDROOT
TORSDOF 0
ENDMDL
