MODEL 1
REMARK minimizedAffinity 3.4966464
REMARK minimizedRMSD -1
REMARK  0 active torsions:
REMARK  status: ('A' for Active; 'I' for Inactive)
ROOT
ATOM      1  C   UNL d   1       0.631   1.233   2.567  0.00  0.00     0.020 A 
ATOM      2  C1  UNL d   1      -0.758   1.337   2.625  0.00  0.00     0.020 A 
ATOM      3  C2  UNL d   1      -1.389   2.509   2.201  0.00  0.00     0.034 A 
ATOM      4  C3  UNL d   1      -0.630   3.581   1.716  0.00  0.00     0.017 A 
ATOM      5  C4  UNL d   1       0.764   3.475   1.658  0.00  0.00     0.017 A 
ATOM      6  C5  UNL d   1       1.390   2.299   2.084  0.00  0.00     0.034 A 
ATOM      7 Cl   UNL d   1       1.767   4.755   1.071  0.00  0.00    -0.070 Cl
ATOM      8 Cl1  UNL d   1      -1.476   4.999   1.208  0.00  0.00    -0.070 Cl
ENDROOT
TORSDOF 0
ENDMDL
