MODEL 1
REMARK minimizedAffinity 6.34366846
REMARK minimizedRMSD -1
REMARK  0 active torsions:
REMARK  status: ('A' for Active; 'I' for Inactive)
ROOT
ATOM      1  C   UNL d   1       1.362  -0.999   2.238  0.00  0.00     0.020 A 
ATOM      2  C1  UNL d   1       0.732  -0.616   3.421  0.00  0.00     0.020 A 
ATOM      3  C2  UNL d   1      -0.145   0.470   3.425  0.00  0.00     0.034 A 
ATOM      4  C3  UNL d   1      -0.396   1.177   2.244  0.00  0.00     0.017 A 
ATOM      5  C4  UNL d   1       0.236   0.792   1.056  0.00  0.00     0.017 A 
ATOM      6  C5  UNL d   1       1.114  -0.297   1.058  0.00  0.00     0.034 A 
ATOM      7 Cl   UNL d   1      -0.023   1.615  -0.441  0.00  0.00    -0.070 Cl
ATOM      8 Cl1  UNL d   1      -1.493   2.510   2.322  0.00  0.00    -0.070 Cl
ENDROOT
TORSDOF 0
ENDMDL
