MODEL 1
REMARK minimizedAffinity 0.72959727
REMARK minimizedRMSD -1
REMARK  0 active torsions:
REMARK  status: ('A' for Active; 'I' for Inactive)
ROOT
ATOM      1  C   UNL d   1       0.282   0.167   2.374  0.00  0.00     0.020 A 
ATOM      2  C1  UNL d   1       0.038   1.447   2.870  0.00  0.00     0.020 A 
ATOM      3  C2  UNL d   1       0.128   2.553   2.023  0.00  0.00     0.034 A 
ATOM      4  C3  UNL d   1       0.463   2.382   0.675  0.00  0.00     0.017 A 
ATOM      5  C4  UNL d   1       0.707   1.096   0.177  0.00  0.00     0.017 A 
ATOM      6  C5  UNL d   1       0.615  -0.008   1.030  0.00  0.00     0.034 A 
ATOM      7 Cl   UNL d   1       1.125   0.805  -1.474  0.00  0.00    -0.070 Cl
ATOM      8 Cl1  UNL d   1       0.556   3.794  -0.316  0.00  0.00    -0.070 Cl
ENDROOT
TORSDOF 0
ENDMDL
