MODEL 1
REMARK minimizedAffinity 1.39794028
REMARK minimizedRMSD -1
REMARK  0 active torsions:
REMARK  status: ('A' for Active; 'I' for Inactive)
ROOT
ATOM      1  C   UNL d   1       0.173  -0.391   2.721  0.00  0.00     0.020 A 
ATOM      2  C1  UNL d   1       0.370   0.822   3.382  0.00  0.00     0.020 A 
ATOM      3  C2  UNL d   1       0.669   1.974   2.651  0.00  0.00     0.034 A 
ATOM      4  C3  UNL d   1       0.772   1.917   1.257  0.00  0.00     0.017 A 
ATOM      5  C4  UNL d   1       0.574   0.700   0.595  0.00  0.00     0.017 A 
ATOM      6  C5  UNL d   1       0.275  -0.451   1.331  0.00  0.00     0.034 A 
ATOM      7 Cl   UNL d   1       0.684   0.550  -1.124  0.00  0.00    -0.070 Cl
ATOM      8 Cl1  UNL d   1       1.144   3.381   0.418  0.00  0.00    -0.070 Cl
ENDROOT
TORSDOF 0
ENDMDL
