MODEL 1
REMARK minimizedAffinity 3.76549888
REMARK minimizedRMSD -1
REMARK  0 active torsions:
REMARK  status: ('A' for Active; 'I' for Inactive)
ROOT
ATOM      1  C   UNL d   1      -1.711  -1.479  -3.769  0.00  0.00     0.020 A 
ATOM      2  C1  UNL d   1      -3.062  -1.151  -3.881  0.00  0.00     0.020 A 
ATOM      3  C2  UNL d   1      -3.576  -0.059  -3.179  0.00  0.00     0.034 A 
ATOM      4  C3  UNL d   1      -2.739   0.710  -2.362  0.00  0.00     0.017 A 
ATOM      5  C4  UNL d   1      -1.383   0.381  -2.250  0.00  0.00     0.017 A 
ATOM      6  C5  UNL d   1      -0.874  -0.714  -2.955  0.00  0.00     0.034 A 
ATOM      7 Cl   UNL d   1      -0.289   1.282  -1.262  0.00  0.00    -0.070 Cl
ATOM      8 Cl1  UNL d   1      -3.442   2.048  -1.524  0.00  0.00    -0.070 Cl
ENDROOT
TORSDOF 0
ENDMDL
