MODEL 1
REMARK minimizedAffinity 2.20820475
REMARK minimizedRMSD -1
REMARK  0 active torsions:
REMARK  status: ('A' for Active; 'I' for Inactive)
ROOT
ATOM      1  C   UNL d   1      -5.898  -1.797   5.999  0.00  0.00     0.020 A 
ATOM      2  C1  UNL d   1      -5.969  -2.642   4.893  0.00  0.00     0.020 A 
ATOM      3  C2  UNL d   1      -5.999  -2.105   3.604  0.00  0.00     0.034 A 
ATOM      4  C3  UNL d   1      -5.959  -0.718   3.419  0.00  0.00     0.017 A 
ATOM      5  C4  UNL d   1      -5.888   0.130   4.530  0.00  0.00     0.017 A 
ATOM      6  C5  UNL d   1      -5.858  -0.414   5.818  0.00  0.00     0.034 A 
ATOM      7 Cl   UNL d   1      -5.835   1.851   4.381  0.00  0.00    -0.070 Cl
ATOM      8 Cl1  UNL d   1      -5.999  -0.123   1.797  0.00  0.00    -0.070 Cl
ENDROOT
TORSDOF 0
ENDMDL
