MODEL 1
REMARK minimizedAffinity 0.562783182
REMARK minimizedRMSD -1
REMARK  0 active torsions:
REMARK  status: ('A' for Active; 'I' for Inactive)
ROOT
ATOM      1  C   UNL d   1       0.768  -0.471   1.535  0.00  0.00     0.020 A 
ATOM      2  C1  UNL d   1       0.173  -0.044   0.348  0.00  0.00     0.020 A 
ATOM      3  C2  UNL d   1       0.108   1.319   0.050  0.00  0.00     0.034 A 
ATOM      4  C3  UNL d   1       0.639   2.260   0.940  0.00  0.00     0.017 A 
ATOM      5  C4  UNL d   1       1.236   1.831   2.131  0.00  0.00     0.017 A 
ATOM      6  C5  UNL d   1       1.298   0.465   2.424  0.00  0.00     0.034 A 
ATOM      7 Cl   UNL d   1       1.912   2.932   3.278  0.00  0.00    -0.070 Cl
ATOM      8 Cl1  UNL d   1       0.524   3.929   0.508  0.00  0.00    -0.070 Cl
ENDROOT
TORSDOF 0
ENDMDL
