MODEL 1
REMARK minimizedAffinity 5.2112093
REMARK minimizedRMSD -1
REMARK  0 active torsions:
REMARK  status: ('A' for Active; 'I' for Inactive)
ROOT
ATOM      1  N1  IND d   1       0.404   1.425  -0.642  0.00  0.00    -0.196 N 
ATOM      2  C2  IND d   1       1.443   0.538  -0.694  0.00  0.00     0.054 A 
ATOM      3  C3  IND d   1       1.775   0.129   0.551  0.00  0.00    -0.031 A 
ATOM      4  C4  IND d   1       0.680   0.707   2.808  0.00  0.00     0.051 A 
ATOM      5  C5  IND d   1      -0.279   1.504   3.368  0.00  0.00    -0.031 A 
ATOM      6  C6  IND d   1      -1.078   2.330   2.603  0.00  0.00     0.015 A 
ATOM      7  C7  IND d   1      -0.954   2.381   1.244  0.00  0.00    -0.016 A 
ATOM      8  C8  IND d   1       0.024   1.579   0.673  0.00  0.00    -0.047 A 
ATOM      9  C9  IND d   1       0.866   0.771   1.448  0.00  0.00    -0.096 A 
ATOM     10  HN1 IND d   1       0.048   1.821  -1.318  0.00  0.00     0.298 HD
ENDROOT
TORSDOF 0
ENDMDL
