MODEL 1
REMARK minimizedAffinity 9.19503593
REMARK minimizedRMSD -1
REMARK  0 active torsions:
REMARK  status: ('A' for Active; 'I' for Inactive)
ROOT
ATOM      1  N1  IND d   1       3.920   0.273  -1.477  0.00  0.00    -0.196 N 
ATOM      2  C2  IND d   1       3.610   0.887  -0.297  0.00  0.00     0.054 A 
ATOM      3  C3  IND d   1       2.753   0.126   0.419  0.00  0.00    -0.031 A 
ATOM      4  C4  IND d   1       1.808  -2.210  -0.109  0.00  0.00     0.051 A 
ATOM      5  C5  IND d   1       1.776  -3.163  -1.088  0.00  0.00    -0.031 A 
ATOM      6  C6  IND d   1       2.473  -3.017  -2.270  0.00  0.00     0.015 A 
ATOM      7  C7  IND d   1       3.241  -1.914  -2.513  0.00  0.00    -0.016 A 
ATOM      8  C8  IND d   1       3.270  -0.941  -1.524  0.00  0.00    -0.047 A 
ATOM      9  C9  IND d   1       2.531  -1.064  -0.340  0.00  0.00    -0.096 A 
ATOM     10  HN1 IND d   1       4.435   0.591  -2.089  0.00  0.00     0.298 HD
ENDROOT
TORSDOF 0
ENDMDL
