MODEL 1
REMARK minimizedAffinity 12.5288811
REMARK minimizedRMSD -1
REMARK  0 active torsions:
REMARK  status: ('A' for Active; 'I' for Inactive)
ROOT
ATOM      1  N1  IND d   1       2.087   0.797  -0.956  0.00  0.00    -0.196 N 
ATOM      2  C2  IND d   1       1.943  -0.547  -0.751  0.00  0.00     0.054 A 
ATOM      3  C3  IND d   1       3.114  -1.090  -0.350  0.00  0.00    -0.031 A 
ATOM      4  C4  IND d   1       5.368   0.056   0.134  0.00  0.00     0.051 A 
ATOM      5  C5  IND d   1       6.000   1.266   0.057  0.00  0.00    -0.031 A 
ATOM      6  C6  IND d   1       5.346   2.404  -0.368  0.00  0.00     0.015 A 
ATOM      7  C7  IND d   1       4.027   2.378  -0.722  0.00  0.00    -0.016 A 
ATOM      8  C8  IND d   1       3.384   1.150  -0.652  0.00  0.00    -0.047 A 
ATOM      9  C9  IND d   1       4.053  -0.017  -0.262  0.00  0.00    -0.096 A 
ATOM     10  HN1 IND d   1       1.472   1.332  -1.229  0.00  0.00     0.298 HD
ENDROOT
TORSDOF 0
ENDMDL
