MODEL 1
REMARK minimizedAffinity 3.65810895
REMARK minimizedRMSD -1
REMARK  0 active torsions:
REMARK  status: ('A' for Active; 'I' for Inactive)
ROOT
ATOM      1  N1  IND d   1       2.219  -2.523  -1.182  0.00  0.00    -0.196 N 
ATOM      2  C2  IND d   1       1.846  -2.634   0.129  0.00  0.00     0.054 A 
ATOM      3  C3  IND d   1       2.483  -1.708   0.880  0.00  0.00    -0.031 A 
ATOM      4  C4  IND d   1       4.103   0.155   0.151  0.00  0.00     0.051 A 
ATOM      5  C5  IND d   1       4.775   0.633  -0.939  0.00  0.00    -0.031 A 
ATOM      6  C6  IND d   1       4.624   0.074  -2.191  0.00  0.00     0.015 A 
ATOM      7  C7  IND d   1       3.783  -0.982  -2.403  0.00  0.00    -0.016 A 
ATOM      8  C8  IND d   1       3.105  -1.474  -1.298  0.00  0.00    -0.047 A 
ATOM      9  C9  IND d   1       3.286  -0.938  -0.016  0.00  0.00    -0.096 A 
ATOM     10  HN1 IND d   1       1.947  -3.024  -1.825  0.00  0.00     0.298 HD
ENDROOT
TORSDOF 0
ENDMDL
