MODEL 1
REMARK minimizedAffinity 6.6120019
REMARK minimizedRMSD -1
REMARK  0 active torsions:
REMARK  status: ('A' for Active; 'I' for Inactive)
ROOT
ATOM      1  N1  IND d   1       1.378  -3.263  -0.593  0.00  0.00    -0.196 N 
ATOM      2  C2  IND d   1       0.214  -3.078  -1.286  0.00  0.00     0.054 A 
ATOM      3  C3  IND d   1       0.087  -1.784  -1.655  0.00  0.00    -0.031 A 
ATOM      4  C4  IND d   1       1.715   0.181  -1.316  0.00  0.00     0.051 A 
ATOM      5  C5  IND d   1       2.893   0.511  -0.707  0.00  0.00    -0.031 A 
ATOM      6  C6  IND d   1       3.643  -0.419  -0.018  0.00  0.00     0.015 A 
ATOM      7  C7  IND d   1       3.247  -1.723   0.079  0.00  0.00    -0.016 A 
ATOM      8  C8  IND d   1       2.047  -2.060  -0.532  0.00  0.00    -0.047 A 
ATOM      9  C9  IND d   1       1.261  -1.111  -1.196  0.00  0.00    -0.096 A 
ATOM     10  HN1 IND d   1       1.647  -4.005  -0.253  0.00  0.00     0.298 HD
ENDROOT
TORSDOF 0
ENDMDL
