MODEL 1
REMARK minimizedAffinity 8.62186241
REMARK minimizedRMSD -1
REMARK  0 active torsions:
REMARK  status: ('A' for Active; 'I' for Inactive)
ROOT
ATOM      1  N1  IND d   1       4.163  -1.915   0.790  0.00  0.00    -0.196 N 
ATOM      2  C2  IND d   1       2.989  -2.244   0.173  0.00  0.00     0.054 A 
ATOM      3  C3  IND d   1       2.679  -1.326  -0.770  0.00  0.00    -0.031 A 
ATOM      4  C4  IND d   1       4.007   0.741  -1.539  0.00  0.00     0.051 A 
ATOM      5  C5  IND d   1       5.123   1.474  -1.247  0.00  0.00    -0.031 A 
ATOM      6  C6  IND d   1       5.995   1.106  -0.243  0.00  0.00     0.015 A 
ATOM      7  C7  IND d   1       5.789  -0.020   0.503  0.00  0.00    -0.016 A 
ATOM      8  C8  IND d   1       4.653  -0.763   0.214  0.00  0.00    -0.047 A 
ATOM      9  C9  IND d   1       3.742  -0.372  -0.776  0.00  0.00    -0.096 A 
ATOM     10  HN1 IND d   1       4.534  -2.353   1.430  0.00  0.00     0.298 HD
ENDROOT
TORSDOF 0
ENDMDL
