MODEL 1
REMARK minimizedAffinity 5.63134623
REMARK minimizedRMSD -1
REMARK  0 active torsions:
REMARK  status: ('A' for Active; 'I' for Inactive)
ROOT
ATOM      1  N1  IND d   1       3.367  -1.876   0.431  0.00  0.00    -0.196 N 
ATOM      2  C2  IND d   1       2.265  -1.791  -0.374  0.00  0.00     0.054 A 
ATOM      3  C3  IND d   1       2.338  -0.690  -1.156  0.00  0.00    -0.031 A 
ATOM      4  C4  IND d   1       4.221   1.054  -1.353  0.00  0.00     0.051 A 
ATOM      5  C5  IND d   1       5.414   1.419  -0.795  0.00  0.00    -0.031 A 
ATOM      6  C6  IND d   1       5.999   0.688   0.219  0.00  0.00     0.015 A 
ATOM      7  C7  IND d   1       5.415  -0.447   0.707  0.00  0.00    -0.016 A 
ATOM      8  C8  IND d   1       4.200  -0.816   0.147  0.00  0.00    -0.047 A 
ATOM      9  C9  IND d   1       3.581  -0.055  -0.852  0.00  0.00    -0.096 A 
ATOM     10  HN1 IND d   1       3.515  -2.488   1.016  0.00  0.00     0.298 HD
ENDROOT
TORSDOF 0
ENDMDL
