MODEL 1
REMARK minimizedAffinity 5.91793299
REMARK minimizedRMSD -1
REMARK  0 active torsions:
REMARK  status: ('A' for Active; 'I' for Inactive)
ROOT
ATOM      1  N1  IND d   1      -3.901   3.580  -3.703  0.00  0.00    -0.196 N 
ATOM      2  C2  IND d   1      -5.135   4.164  -3.625  0.00  0.00     0.054 A 
ATOM      3  C3  IND d   1      -5.981   3.386  -2.914  0.00  0.00    -0.031 A 
ATOM      4  C4  IND d   1      -5.526   1.162  -1.699  0.00  0.00     0.051 A 
ATOM      5  C5  IND d   1      -4.559   0.215  -1.512  0.00  0.00    -0.031 A 
ATOM      6  C6  IND d   1      -3.297   0.344  -2.055  0.00  0.00     0.015 A 
ATOM      7  C7  IND d   1      -2.950   1.437  -2.799  0.00  0.00    -0.016 A 
ATOM      8  C8  IND d   1      -3.932   2.398  -2.996  0.00  0.00    -0.047 A 
ATOM      9  C9  IND d   1      -5.227   2.251  -2.483  0.00  0.00    -0.096 A 
ATOM     10  HN1 IND d   1      -3.221   3.897  -4.122  0.00  0.00     0.298 HD
ENDROOT
TORSDOF 0
ENDMDL
