MODEL 1
REMARK minimizedAffinity 8.15622997
REMARK minimizedRMSD -1
REMARK  0 active torsions:
REMARK  status: ('A' for Active; 'I' for Inactive)
ROOT
ATOM      1  N1  IND d   1       3.561   1.462  -1.125  0.00  0.00    -0.196 N 
ATOM      2  C2  IND d   1       4.910   1.272  -1.003  0.00  0.00     0.054 A 
ATOM      3  C3  IND d   1       5.184  -0.037  -0.806  0.00  0.00    -0.031 A 
ATOM      4  C4  IND d   1       3.585  -2.053  -0.749  0.00  0.00     0.051 A 
ATOM      5  C5  IND d   1       2.257  -2.376  -0.778  0.00  0.00    -0.031 A 
ATOM      6  C6  IND d   1       1.276  -1.417  -0.929  0.00  0.00     0.015 A 
ATOM      7  C7  IND d   1       1.589  -0.094  -1.069  0.00  0.00    -0.016 A 
ATOM      8  C8  IND d   1       2.936   0.238  -1.034  0.00  0.00    -0.047 A 
ATOM      9  C9  IND d   1       3.933  -0.726  -0.838  0.00  0.00    -0.096 A 
ATOM     10  HN1 IND d   1       3.170   2.219  -1.239  0.00  0.00     0.298 HD
ENDROOT
TORSDOF 0
ENDMDL
