MODEL 1
REMARK minimizedAffinity 8.2936306
REMARK minimizedRMSD -1
REMARK  0 active torsions:
REMARK  status: ('A' for Active; 'I' for Inactive)
ROOT
ATOM      1  N1  IND d   1       1.996  -2.823  -1.294  0.00  0.00    -0.196 N 
ATOM      2  C2  IND d   1       1.424  -2.596  -0.073  0.00  0.00     0.054 A 
ATOM      3  C3  IND d   1       1.831  -1.406   0.423  0.00  0.00    -0.031 A 
ATOM      4  C4  IND d   1       3.354   0.375  -0.643  0.00  0.00     0.051 A 
ATOM      5  C5  IND d   1       4.145   0.603  -1.734  0.00  0.00    -0.031 A 
ATOM      6  C6  IND d   1       4.261  -0.318  -2.756  0.00  0.00     0.015 A 
ATOM      7  C7  IND d   1       3.577  -1.500  -2.730  0.00  0.00    -0.016 A 
ATOM      8  C8  IND d   1       2.778  -1.738  -1.621  0.00  0.00    -0.047 A 
ATOM      9  C9  IND d   1       2.690  -0.826  -0.561  0.00  0.00    -0.096 A 
ATOM     10  HN1 IND d   1       1.886  -3.527  -1.776  0.00  0.00     0.298 HD
ENDROOT
TORSDOF 0
ENDMDL
