MODEL 1
REMARK minimizedAffinity -2.08897305
REMARK minimizedRMSD -1
REMARK  0 active torsions:
REMARK  status: ('A' for Active; 'I' for Inactive)
ROOT
ATOM      1  C4' PXY d   1      -0.788  -3.234  -1.233  0.00  0.00     0.077 C 
ATOM      2  C1' PXY d   1       0.191   1.488   1.955  0.00  0.00     0.077 C 
ATOM      3  C1  PXY d   1      -0.063   0.256   1.108  0.00  0.00    -0.082 A 
ATOM      4  C2  PXY d   1      -0.869  -0.692   1.557  0.00  0.00     0.003 A 
ATOM      5  C3  PXY d   1      -1.085  -1.827   0.818  0.00  0.00     0.003 A 
ATOM      6  C4  PXY d   1      -0.510  -1.969  -0.416  0.00  0.00    -0.082 A 
ATOM      7  C5  PXY d   1       0.306  -1.002  -0.886  0.00  0.00     0.003 A 
ATOM      8  C6  PXY d   1       0.544   0.124  -0.103  0.00  0.00     0.003 A 
ENDROOT
TORSDOF 0
ENDMDL
