MODEL 1
REMARK minimizedAffinity -2.50700593
REMARK minimizedRMSD -1
REMARK  0 active torsions:
REMARK  status: ('A' for Active; 'I' for Inactive)
ROOT
ATOM      1  C4' PXY d   1      -0.077   3.451  -1.253  0.00  0.00     0.077 C 
ATOM      2  C1' PXY d   1       0.421  -0.484   2.952  0.00  0.00     0.077 C 
ATOM      3  C1  PXY d   1       0.298   0.541   1.842  0.00  0.00    -0.082 A 
ATOM      4  C2  PXY d   1      -0.065   1.780   2.132  0.00  0.00     0.003 A 
ATOM      5  C3  PXY d   1      -0.212   2.711   1.137  0.00  0.00     0.003 A 
ATOM      6  C4  PXY d   1       0.069   2.386  -0.163  0.00  0.00    -0.082 A 
ATOM      7  C5  PXY d   1       0.451   1.127  -0.466  0.00  0.00     0.003 A 
ATOM      8  C6  PXY d   1       0.553   0.185   0.553  0.00  0.00     0.003 A 
ENDROOT
TORSDOF 0
ENDMDL
