MODEL 1
REMARK minimizedAffinity 1.7807641
REMARK minimizedRMSD -1
REMARK  0 active torsions:
REMARK  status: ('A' for Active; 'I' for Inactive)
ROOT
ATOM      1  C4' PXY d   1       0.392  -2.659  -1.199  0.00  0.00     0.077 C 
ATOM      2  C1' PXY d   1       0.415   1.976   2.255  0.00  0.00     0.077 C 
ATOM      3  C1  PXY d   1       0.399   0.765   1.342  0.00  0.00    -0.082 A 
ATOM      4  C2  PXY d   1       0.850  -0.396   1.788  0.00  0.00     0.003 A 
ATOM      5  C3  PXY d   1       0.873  -1.493   0.966  0.00  0.00     0.003 A 
ATOM      6  C4  PXY d   1       0.380  -1.413  -0.309  0.00  0.00    -0.082 A 
ATOM      7  C5  PXY d   1      -0.092  -0.234  -0.768  0.00  0.00     0.003 A 
ATOM      8  C6  PXY d   1      -0.068   0.877   0.069  0.00  0.00     0.003 A 
ENDROOT
TORSDOF 0
ENDMDL
