MODEL 1
REMARK minimizedAffinity -3.40368295
REMARK minimizedRMSD -1
REMARK  0 active torsions:
REMARK  status: ('A' for Active; 'I' for Inactive)
ROOT
ATOM      1  C4' PXY d   1       0.036   2.247   1.297  0.00  0.00     0.077 C 
ATOM      2  C1' PXY d   1       0.347  -2.911  -1.296  0.00  0.00     0.077 C 
ATOM      3  C1  PXY d   1       0.274  -1.554  -0.624  0.00  0.00    -0.082 A 
ATOM      4  C2  PXY d   1      -0.155  -1.464   0.624  0.00  0.00     0.003 A 
ATOM      5  C3  PXY d   1      -0.257  -0.241   1.236  0.00  0.00     0.003 A 
ATOM      6  C4  PXY d   1       0.135   0.896   0.582  0.00  0.00    -0.082 A 
ATOM      7  C5  PXY d   1       0.584   0.812  -0.689  0.00  0.00     0.003 A 
ATOM      8  C6  PXY d   1       0.641  -0.435  -1.306  0.00  0.00     0.003 A 
ENDROOT
TORSDOF 0
ENDMDL
