MODEL 1
REMARK minimizedAffinity 0.377120048
REMARK minimizedRMSD -1
REMARK  0 active torsions:
REMARK  status: ('A' for Active; 'I' for Inactive)
ROOT
ATOM      1  C4' PXY d   1      -0.481   2.182   1.790  0.00  0.00     0.077 C 
ATOM      2  C1' PXY d   1       0.992  -2.517  -1.238  0.00  0.00     0.077 C 
ATOM      3  C1  PXY d   1       0.610  -1.277  -0.453  0.00  0.00    -0.082 A 
ATOM      4  C2  PXY d   1       0.447  -1.357   0.858  0.00  0.00     0.003 A 
ATOM      5  C3  PXY d   1       0.071  -0.253   1.578  0.00  0.00     0.003 A 
ATOM      6  C4  PXY d   1      -0.087   0.958   0.959  0.00  0.00    -0.082 A 
ATOM      7  C5  PXY d   1       0.088   1.050  -0.377  0.00  0.00     0.003 A 
ATOM      8  C6  PXY d   1       0.429  -0.092  -1.096  0.00  0.00     0.003 A 
ENDROOT
TORSDOF 0
ENDMDL
