MODEL 1
REMARK minimizedAffinity -4.43461418
REMARK minimizedRMSD -1
REMARK  0 active torsions:
REMARK  status: ('A' for Active; 'I' for Inactive)
ROOT
ATOM      1  C4' PXY d   1      -0.453   4.070  -0.961  0.00  0.00     0.077 C 
ATOM      2  C1' PXY d   1      -0.161  -0.980   1.835  0.00  0.00     0.077 C 
ATOM      3  C1  PXY d   1      -0.232   0.339   1.091  0.00  0.00    -0.082 A 
ATOM      4  C2  PXY d   1      -0.260   1.473   1.772  0.00  0.00     0.003 A 
ATOM      5  C3  PXY d   1      -0.357   2.673   1.116  0.00  0.00     0.003 A 
ATOM      6  C4  PXY d   1      -0.372   2.716  -0.253  0.00  0.00    -0.082 A 
ATOM      7  C5  PXY d   1      -0.333   1.563  -0.955  0.00  0.00     0.003 A 
ATOM      8  C6  PXY d   1      -0.277   0.353  -0.269  0.00  0.00     0.003 A 
ENDROOT
TORSDOF 0
ENDMDL
