MODEL 1
REMARK minimizedAffinity -4.41926479
REMARK minimizedRMSD -1
REMARK  0 active torsions:
REMARK  status: ('A' for Active; 'I' for Inactive)
ROOT
ATOM      1  C4' PXY d   1       0.126  -2.736  -1.021  0.00  0.00     0.077 C 
ATOM      2  C1' PXY d   1      -0.473   2.248   1.845  0.00  0.00     0.077 C 
ATOM      3  C1  PXY d   1      -0.323   0.946   1.083  0.00  0.00    -0.082 A 
ATOM      4  C2  PXY d   1      -0.053  -0.169   1.742  0.00  0.00     0.003 A 
ATOM      5  C3  PXY d   1       0.118  -1.350   1.066  0.00  0.00     0.003 A 
ATOM      6  C4  PXY d   1      -0.043  -1.400  -0.293  0.00  0.00    -0.082 A 
ATOM      7  C5  PXY d   1      -0.330  -0.268  -0.971  0.00  0.00     0.003 A 
ATOM      8  C6  PXY d   1      -0.458   0.928  -0.271  0.00  0.00     0.003 A 
ENDROOT
TORSDOF 0
ENDMDL
