MODEL 1
REMARK minimizedAffinity -3.61290598
REMARK minimizedRMSD -1
REMARK  0 active torsions:
REMARK  status: ('A' for Active; 'I' for Inactive)
ROOT
ATOM      1  C4' PXY d   1       0.198  -2.917  -1.446  0.00  0.00     0.077 C 
ATOM      2  C1' PXY d   1       0.116   2.075   1.467  0.00  0.00     0.077 C 
ATOM      3  C1  PXY d   1       0.143   0.772   0.693  0.00  0.00    -0.082 A 
ATOM      4  C2  PXY d   1      -0.710  -0.191   1.003  0.00  0.00     0.003 A 
ATOM      5  C3  PXY d   1      -0.678  -1.387   0.334  0.00  0.00     0.003 A 
ATOM      6  C4  PXY d   1       0.201  -1.581  -0.698  0.00  0.00    -0.082 A 
ATOM      7  C5  PXY d   1       1.067  -0.600  -1.027  0.00  0.00     0.003 A 
ATOM      8  C6  PXY d   1       1.046   0.592  -0.308  0.00  0.00     0.003 A 
ENDROOT
TORSDOF 0
ENDMDL
