MODEL 1
REMARK minimizedAffinity -5.27168751
REMARK minimizedRMSD -1
REMARK  0 active torsions:
REMARK  status: ('A' for Active; 'I' for Inactive)
ROOT
ATOM      1  C4' PXY d   1      -0.186   1.653   2.201  0.00  0.00     0.077 C 
ATOM      2  C1' PXY d   1       0.103  -3.142  -1.014  0.00  0.00     0.077 C 
ATOM      3  C1  PXY d   1       0.015  -1.888  -0.167  0.00  0.00    -0.082 A 
ATOM      4  C2  PXY d   1       0.728  -0.824  -0.498  0.00  0.00     0.003 A 
ATOM      5  C3  PXY d   1       0.685   0.308   0.275  0.00  0.00     0.003 A 
ATOM      6  C4  PXY d   1      -0.136   0.368   1.369  0.00  0.00    -0.082 A 
ATOM      7  C5  PXY d   1      -0.874  -0.710   1.708  0.00  0.00     0.003 A 
ATOM      8  C6  PXY d   1      -0.785  -1.863   0.933  0.00  0.00     0.003 A 
ENDROOT
TORSDOF 0
ENDMDL
