MODEL 1
REMARK minimizedAffinity -0.324716955
REMARK minimizedRMSD -1
REMARK  0 active torsions:
REMARK  status: ('A' for Active; 'I' for Inactive)
ROOT
ATOM      1  C4' PXY d   1       0.665  -2.867  -1.606  0.00  0.00     0.077 C 
ATOM      2  C1' PXY d   1       0.408   2.101   1.338  0.00  0.00     0.077 C 
ATOM      3  C1  PXY d   1       0.473   0.805   0.555  0.00  0.00    -0.082 A 
ATOM      4  C2  PXY d   1       0.275  -0.346   1.177  0.00  0.00     0.003 A 
ATOM      5  C3  PXY d   1       0.361  -1.530   0.491  0.00  0.00     0.003 A 
ATOM      6  C4  PXY d   1       0.600  -1.533  -0.857  0.00  0.00    -0.082 A 
ATOM      7  C5  PXY d   1       0.792  -0.362  -1.502  0.00  0.00     0.003 A 
ATOM      8  C6  PXY d   1       0.741   0.826  -0.779  0.00  0.00     0.003 A 
ENDROOT
TORSDOF 0
ENDMDL
