MODEL 1
REMARK minimizedAffinity -3.32062078
REMARK minimizedRMSD -1
REMARK  0 active torsions:
REMARK  status: ('A' for Active; 'I' for Inactive)
ROOT
ATOM      1  C4' PXY d   1       0.584  -2.287  -1.478  0.00  0.00     0.077 C 
ATOM      2  C1' PXY d   1      -0.088   2.499   1.694  0.00  0.00     0.077 C 
ATOM      3  C1  PXY d   1       0.080   1.249   0.854  0.00  0.00    -0.082 A 
ATOM      4  C2  PXY d   1       0.492   0.128   1.423  0.00  0.00     0.003 A 
ATOM      5  C3  PXY d   1       0.680  -1.004   0.672  0.00  0.00     0.003 A 
ATOM      6  C4  PXY d   1       0.392  -1.002  -0.666  0.00  0.00    -0.082 A 
ATOM      7  C5  PXY d   1      -0.039   0.134  -1.253  0.00  0.00     0.003 A 
ATOM      8  C6  PXY d   1      -0.184   1.283  -0.481  0.00  0.00     0.003 A 
ENDROOT
TORSDOF 0
ENDMDL
