MODEL 1
REMARK minimizedAffinity -2.13559008
REMARK minimizedRMSD -1
REMARK  0 active torsions:
REMARK  status: ('A' for Active; 'I' for Inactive)
ROOT
ATOM      1  C4' PXY d   1       0.464  -2.737  -1.283  0.00  0.00     0.077 C 
ATOM      2  C1' PXY d   1       0.459   2.114   1.860  0.00  0.00     0.077 C 
ATOM      3  C1  PXY d   1       0.451   0.847   1.028  0.00  0.00    -0.082 A 
ATOM      4  C2  PXY d   1       0.838  -0.295   1.572  0.00  0.00     0.003 A 
ATOM      5  C3  PXY d   1       0.867  -1.444   0.825  0.00  0.00     0.003 A 
ATOM      6  C4  PXY d   1       0.446  -1.435  -0.478  0.00  0.00    -0.082 A 
ATOM      7  C5  PXY d   1       0.040  -0.275  -1.037  0.00  0.00     0.003 A 
ATOM      8  C6  PXY d   1       0.057   0.888  -0.274  0.00  0.00     0.003 A 
ENDROOT
TORSDOF 0
ENDMDL
