MODEL 1
REMARK minimizedAffinity -2.4264338
REMARK minimizedRMSD -1
REMARK  0 active torsions:
REMARK  status: ('A' for Active; 'I' for Inactive)
ROOT
ATOM      1  C4' PXY d   1       0.058   1.718   2.227  0.00  0.00     0.077 C 
ATOM      2  C1' PXY d   1      -0.650  -2.823  -1.280  0.00  0.00     0.077 C 
ATOM      3  C1  PXY d   1      -0.453  -1.629  -0.366  0.00  0.00    -0.082 A 
ATOM      4  C2  PXY d   1      -1.051  -1.603   0.813  0.00  0.00     0.003 A 
ATOM      5  C3  PXY d   1      -0.910  -0.517   1.639  0.00  0.00     0.003 A 
ATOM      6  C4  PXY d   1      -0.104   0.529   1.275  0.00  0.00    -0.082 A 
ATOM      7  C5  PXY d   1       0.518   0.505   0.078  0.00  0.00     0.003 A 
ATOM      8  C6  PXY d   1       0.328  -0.588  -0.763  0.00  0.00     0.003 A 
ENDROOT
TORSDOF 0
ENDMDL
