MODEL 1
REMARK minimizedAffinity 2.35210562
REMARK minimizedRMSD -1
REMARK  0 active torsions:
REMARK  status: ('A' for Active; 'I' for Inactive)
ROOT
ATOM      1  C4' PXY d   1       0.464   4.041  -0.458  0.00  0.00     0.077 C 
ATOM      2  C1' PXY d   1       2.710   3.519   4.842  0.00  0.00     0.077 C 
ATOM      3  C1  PXY d   1       2.116   3.644   3.454  0.00  0.00    -0.082 A 
ATOM      4  C2  PXY d   1       2.672   4.463   2.575  0.00  0.00     0.003 A 
ATOM      5  C3  PXY d   1       2.128   4.612   1.325  0.00  0.00     0.003 A 
ATOM      6  C4  PXY d   1       1.035   3.876   0.953  0.00  0.00    -0.082 A 
ATOM      7  C5  PXY d   1       0.469   3.030   1.839  0.00  0.00     0.003 A 
ATOM      8  C6  PXY d   1       1.011   2.924   3.117  0.00  0.00     0.003 A 
ENDROOT
TORSDOF 0
ENDMDL
