MODEL 1
REMARK minimizedAffinity 4.93992662
REMARK minimizedRMSD -1
REMARK  0 active torsions:
REMARK  status: ('A' for Active; 'I' for Inactive)
ROOT
ATOM      1  C   UNL d   1       0.091  -2.334   1.174  0.00  0.00     0.078 C 
ATOM      2  C1  UNL d   1      -0.595  -2.579  -0.137  0.00  0.00    -0.077 A 
ATOM      3  C2  UNL d   1       0.142  -2.830  -1.301  0.00  0.00    -0.001 A 
ATOM      4  C3  UNL d   1      -0.510  -3.047  -2.516  0.00  0.00     0.003 A 
ATOM      5  C4  UNL d   1      -1.901  -3.014  -2.579  0.00  0.00    -0.005 A 
ATOM      6  C5  UNL d   1      -2.643  -2.763  -1.427  0.00  0.00     0.003 A 
ATOM      7  C6  UNL d   1      -1.993  -2.546  -0.211  0.00  0.00    -0.001 A 
ENDROOT
TORSDOF 0
ENDMDL
