MODEL 1
REMARK minimizedAffinity 9.86978054
REMARK minimizedRMSD -1
REMARK  0 active torsions:
REMARK  status: ('A' for Active; 'I' for Inactive)
ROOT
ATOM      1  C   UNL d   1      -0.551  -2.166   1.206  0.00  0.00     0.078 C 
ATOM      2  C1  UNL d   1       0.510  -2.995   0.547  0.00  0.00    -0.077 A 
ATOM      3  C2  UNL d   1       1.333  -3.843   1.298  0.00  0.00    -0.001 A 
ATOM      4  C3  UNL d   1       2.323  -4.602   0.672  0.00  0.00     0.003 A 
ATOM      5  C4  UNL d   1       2.500  -4.520  -0.708  0.00  0.00    -0.005 A 
ATOM      6  C5  UNL d   1       1.687  -3.678  -1.463  0.00  0.00     0.003 A 
ATOM      7  C6  UNL d   1       0.697  -2.918  -0.839  0.00  0.00    -0.001 A 
ENDROOT
TORSDOF 0
ENDMDL
