MODEL 1
REMARK minimizedAffinity -2.98048115
REMARK minimizedRMSD -1
REMARK  0 active torsions:
REMARK  status: ('A' for Active; 'I' for Inactive)
ROOT
ATOM      1  C   UNL d   1       2.386   0.297   1.721  0.00  0.00     0.078 C 
ATOM      2  C1  UNL d   1       1.802   1.391   0.879  0.00  0.00    -0.077 A 
ATOM      3  C2  UNL d   1       2.568   2.035  -0.101  0.00  0.00    -0.001 A 
ATOM      4  C3  UNL d   1       2.014   3.058  -0.871  0.00  0.00     0.003 A 
ATOM      5  C4  UNL d   1       0.691   3.449  -0.668  0.00  0.00    -0.005 A 
ATOM      6  C5  UNL d   1      -0.078   2.816   0.306  0.00  0.00     0.003 A 
ATOM      7  C6  UNL d   1       0.474   1.792   1.077  0.00  0.00    -0.001 A 
ENDROOT
TORSDOF 0
ENDMDL
