MODEL 1
REMARK minimizedAffinity -1.43889236
REMARK minimizedRMSD -1
REMARK  0 active torsions:
REMARK  status: ('A' for Active; 'I' for Inactive)
ROOT
ATOM      1  C   UNL d   1       1.917   3.474  -0.331  0.00  0.00     0.078 C 
ATOM      2  C1  UNL d   1       2.470   2.214   0.264  0.00  0.00    -0.077 A 
ATOM      3  C2  UNL d   1       3.393   1.429  -0.438  0.00  0.00    -0.001 A 
ATOM      4  C3  UNL d   1       3.892   0.253   0.124  0.00  0.00     0.003 A 
ATOM      5  C4  UNL d   1       3.473  -0.149   1.391  0.00  0.00    -0.005 A 
ATOM      6  C5  UNL d   1       2.554   0.624   2.096  0.00  0.00     0.003 A 
ATOM      7  C6  UNL d   1       2.054   1.800   1.536  0.00  0.00    -0.001 A 
ENDROOT
TORSDOF 0
ENDMDL
