MODEL 1
REMARK minimizedAffinity 0.723452806
REMARK minimizedRMSD -1
REMARK  0 active torsions:
REMARK  status: ('A' for Active; 'I' for Inactive)
ROOT
ATOM      1  C   UNL d   1       1.085   3.987  -0.863  0.00  0.00     0.078 C 
ATOM      2  C1  UNL d   1       1.388   2.779  -0.028  0.00  0.00    -0.077 A 
ATOM      3  C2  UNL d   1       2.668   2.211  -0.021  0.00  0.00    -0.001 A 
ATOM      4  C3  UNL d   1       2.933   1.080   0.754  0.00  0.00     0.003 A 
ATOM      5  C4  UNL d   1       1.924   0.508   1.526  0.00  0.00    -0.005 A 
ATOM      6  C5  UNL d   1       0.648   1.066   1.523  0.00  0.00     0.003 A 
ATOM      7  C6  UNL d   1       0.380   2.196   0.749  0.00  0.00    -0.001 A 
ENDROOT
TORSDOF 0
ENDMDL
