MODEL 1
REMARK minimizedAffinity 0.739615381
REMARK minimizedRMSD -1
REMARK  0 active torsions:
REMARK  status: ('A' for Active; 'I' for Inactive)
ROOT
ATOM      1  C   UNL d   1      -0.011  -2.018   1.171  0.00  0.00     0.078 C 
ATOM      2  C1  UNL d   1      -0.550  -2.023  -0.229  0.00  0.00    -0.077 A 
ATOM      3  C2  UNL d   1       0.280  -2.308  -1.320  0.00  0.00    -0.001 A 
ATOM      4  C3  UNL d   1      -0.234  -2.300  -2.618  0.00  0.00     0.003 A 
ATOM      5  C4  UNL d   1      -1.578  -2.007  -2.837  0.00  0.00    -0.005 A 
ATOM      6  C5  UNL d   1      -2.411  -1.720  -1.757  0.00  0.00     0.003 A 
ATOM      7  C6  UNL d   1      -1.900  -1.728  -0.459  0.00  0.00    -0.001 A 
ENDROOT
TORSDOF 0
ENDMDL
