MODEL 1
REMARK minimizedAffinity -1.75531971
REMARK minimizedRMSD -1
REMARK  0 active torsions:
REMARK  status: ('A' for Active; 'I' for Inactive)
ROOT
ATOM      1  C   UNL d   1       2.438   1.106   0.724  0.00  0.00     0.078 C 
ATOM      2  C1  UNL d   1       1.507   2.213   0.327  0.00  0.00    -0.077 A 
ATOM      3  C2  UNL d   1       1.984   3.356  -0.328  0.00  0.00    -0.001 A 
ATOM      4  C3  UNL d   1       1.108   4.382  -0.683  0.00  0.00     0.003 A 
ATOM      5  C4  UNL d   1      -0.250   4.278  -0.387  0.00  0.00    -0.005 A 
ATOM      6  C5  UNL d   1      -0.733   3.146   0.266  0.00  0.00     0.003 A 
ATOM      7  C6  UNL d   1       0.142   2.118   0.622  0.00  0.00    -0.001 A 
ENDROOT
TORSDOF 0
ENDMDL
