MODEL 1
REMARK minimizedAffinity 5.66073322
REMARK minimizedRMSD -1
REMARK  0 active torsions:
REMARK  status: ('A' for Active; 'I' for Inactive)
ROOT
ATOM      1  C   UNL d   1      -0.056  -2.533  -2.169  0.00  0.00     0.078 C 
ATOM      2  C1  UNL d   1      -1.506  -2.382  -2.519  0.00  0.00    -0.077 A 
ATOM      3  C2  UNL d   1      -2.439  -3.366  -2.168  0.00  0.00    -0.001 A 
ATOM      4  C3  UNL d   1      -3.784  -3.217  -2.509  0.00  0.00     0.003 A 
ATOM      5  C4  UNL d   1      -4.209  -2.087  -3.204  0.00  0.00    -0.005 A 
ATOM      6  C5  UNL d   1      -3.288  -1.104  -3.560  0.00  0.00     0.003 A 
ATOM      7  C6  UNL d   1      -1.942  -1.251  -3.219  0.00  0.00    -0.001 A 
ENDROOT
TORSDOF 0
ENDMDL
