MODEL 1
REMARK minimizedAffinity 9.66120243
REMARK minimizedRMSD -1
REMARK  0 active torsions:
REMARK  status: ('A' for Active; 'I' for Inactive)
ROOT
ATOM      1  C   UNL d   1       2.354   3.706  -0.365  0.00  0.00     0.078 C 
ATOM      2  C1  UNL d   1       2.600   2.370   0.270  0.00  0.00    -0.077 A 
ATOM      3  C2  UNL d   1       3.134   1.307  -0.468  0.00  0.00    -0.001 A 
ATOM      4  C3  UNL d   1       3.348   0.066   0.134  0.00  0.00     0.003 A 
ATOM      5  C4  UNL d   1       3.031  -0.123   1.477  0.00  0.00    -0.005 A 
ATOM      6  C5  UNL d   1       2.497   0.928   2.220  0.00  0.00     0.003 A 
ATOM      7  C6  UNL d   1       2.282   2.169   1.619  0.00  0.00    -0.001 A 
ENDROOT
TORSDOF 0
ENDMDL
