MODEL 1
REMARK minimizedAffinity -0.862937272
REMARK minimizedRMSD -1
REMARK  0 active torsions:
REMARK  status: ('A' for Active; 'I' for Inactive)
ROOT
ATOM      1  C   UNL d   1       0.616   2.186   0.397  0.00  0.00     0.078 C 
ATOM      2  C1  UNL d   1       1.204   0.954   1.016  0.00  0.00    -0.077 A 
ATOM      3  C2  UNL d   1       2.509   0.955   1.525  0.00  0.00    -0.001 A 
ATOM      4  C3  UNL d   1       3.047  -0.202   2.090  0.00  0.00     0.003 A 
ATOM      5  C4  UNL d   1       2.289  -1.369   2.151  0.00  0.00    -0.005 A 
ATOM      6  C5  UNL d   1       0.991  -1.381   1.645  0.00  0.00     0.003 A 
ATOM      7  C6  UNL d   1       0.451  -0.225   1.079  0.00  0.00    -0.001 A 
ENDROOT
TORSDOF 0
ENDMDL
