MODEL 1
REMARK minimizedAffinity -3.4895153
REMARK minimizedRMSD -1
REMARK  0 active torsions:
REMARK  status: ('A' for Active; 'I' for Inactive)
ROOT
ATOM      1  C   UNL d   1       1.365  -2.457   4.783  0.00  0.00     0.078 C 
ATOM      2  C1  UNL d   1       1.236  -1.663   3.517  0.00  0.00    -0.077 A 
ATOM      3  C2  UNL d   1       1.977  -0.491   3.322  0.00  0.00    -0.001 A 
ATOM      4  C3  UNL d   1       1.839   0.243   2.143  0.00  0.00     0.003 A 
ATOM      5  C4  UNL d   1       0.961  -0.186   1.150  0.00  0.00    -0.005 A 
ATOM      6  C5  UNL d   1       0.218  -1.350   1.336  0.00  0.00     0.003 A 
ATOM      7  C6  UNL d   1       0.354  -2.085   2.514  0.00  0.00    -0.001 A 
ENDROOT
TORSDOF 0
ENDMDL
