MODEL 1
REMARK minimizedAffinity 1.0831461
REMARK minimizedRMSD -1
REMARK  0 active torsions:
REMARK  status: ('A' for Active; 'I' for Inactive)
ROOT
ATOM      1  C   UNL d   1       1.482  -1.109   1.997  0.00  0.00     0.078 C 
ATOM      2  C1  UNL d   1       2.220  -1.970   2.977  0.00  0.00    -0.077 A 
ATOM      3  C2  UNL d   1       1.555  -2.573   4.052  0.00  0.00    -0.001 A 
ATOM      4  C3  UNL d   1       2.256  -3.364   4.963  0.00  0.00     0.003 A 
ATOM      5  C4  UNL d   1       3.627  -3.559   4.809  0.00  0.00    -0.005 A 
ATOM      6  C5  UNL d   1       4.299  -2.962   3.745  0.00  0.00     0.003 A 
ATOM      7  C6  UNL d   1       3.599  -2.170   2.833  0.00  0.00    -0.001 A 
ENDROOT
TORSDOF 0
ENDMDL
