MODEL 1
REMARK minimizedAffinity 1.88654852
REMARK minimizedRMSD -1
REMARK  0 active torsions:
REMARK  status: ('A' for Active; 'I' for Inactive)
ROOT
ATOM      1  C   UNL d   1       0.778  -0.739   3.879  0.00  0.00     0.078 C 
ATOM      2  C1  UNL d   1       1.180  -2.065   4.451  0.00  0.00    -0.077 A 
ATOM      3  C2  UNL d   1       0.408  -3.212   4.227  0.00  0.00    -0.001 A 
ATOM      4  C3  UNL d   1       0.790  -4.438   4.774  0.00  0.00     0.003 A 
ATOM      5  C4  UNL d   1       1.943  -4.529   5.550  0.00  0.00    -0.005 A 
ATOM      6  C5  UNL d   1       2.717  -3.393   5.781  0.00  0.00     0.003 A 
ATOM      7  C6  UNL d   1       2.337  -2.166   5.234  0.00  0.00    -0.001 A 
ENDROOT
TORSDOF 0
ENDMDL
