MODEL 1
REMARK minimizedAffinity 19.9580841
REMARK minimizedRMSD -1
REMARK  1 active torsions:
REMARK  status: ('A' for Active; 'I' for Inactive)
REMARK    1  A    between atoms: C1_2  and  C2_3 
ROOT
ATOM      1  C2  UNL d   1       3.411   1.501  -0.862  0.00  0.00    -0.081 A 
ATOM      2  C3  UNL d   1       2.605   1.781   0.248  0.00  0.00     0.006 A 
ATOM      3  C4  UNL d   1       2.700   1.005   1.406  0.00  0.00     0.002 A 
ATOM      4  C5  UNL d   1       3.608  -0.057   1.476  0.00  0.00    -0.080 A 
ATOM      5  C6  UNL d   1       3.742  -0.879   2.723  0.00  0.00     0.076 C 
ATOM      6  C7  UNL d   1       4.401  -0.348   0.360  0.00  0.00     0.002 A 
ATOM      7  C8  UNL d   1       4.306   0.427  -0.798  0.00  0.00     0.006 A 
ENDROOT
BRANCH   1   8
ATOM      8  C1  UNL d   1       3.357   2.376  -2.089  0.00  0.00     0.054 C 
ATOM      9  C   UNL d   1       4.205   1.803  -3.215  0.00  0.00     0.018 C 
ENDBRANCH   1   8
TORSDOF 1
ENDMDL
