MODEL 1
REMARK minimizedAffinity 17.8756828
REMARK minimizedRMSD -1
REMARK  1 active torsions:
REMARK  status: ('A' for Active; 'I' for Inactive)
REMARK    1  A    between atoms: C1_2  and  C2_3 
ROOT
ATOM      1  C2  UNL d   1      -1.405  -3.605   1.349  0.00  0.00    -0.081 A 
ATOM      2  C3  UNL d   1      -2.660  -3.265   0.829  0.00  0.00     0.006 A 
ATOM      3  C4  UNL d   1      -2.761  -2.437  -0.292  0.00  0.00     0.002 A 
ATOM      4  C5  UNL d   1      -1.610  -1.943  -0.916  0.00  0.00    -0.080 A 
ATOM      5  C6  UNL d   1      -1.704  -1.078  -2.138  0.00  0.00     0.076 C 
ATOM      6  C7  UNL d   1      -0.357  -2.268  -0.386  0.00  0.00     0.002 A 
ATOM      7  C8  UNL d   1      -0.255  -3.095   0.735  0.00  0.00     0.006 A 
ENDROOT
BRANCH   1   8
ATOM      8  C1  UNL d   1      -1.290  -4.550   2.518  0.00  0.00     0.054 C 
ATOM      9  C   UNL d   1      -1.410  -6.000   2.071  0.00  0.00     0.018 C 
ENDBRANCH   1   8
TORSDOF 1
ENDMDL
