MODEL 1
REMARK minimizedAffinity 6.30095625
REMARK minimizedRMSD -1
REMARK  1 active torsions:
REMARK  status: ('A' for Active; 'I' for Inactive)
REMARK    1  A    between atoms: C1_2  and  C2_3 
ROOT
ATOM      1  C2  UNL d   1       2.490  -0.611   2.574  0.00  0.00    -0.081 A 
ATOM      2  C3  UNL d   1       2.133   0.486   1.780  0.00  0.00     0.006 A 
ATOM      3  C4  UNL d   1       0.973   1.213   2.056  0.00  0.00     0.002 A 
ATOM      4  C5  UNL d   1       0.154   0.860   3.134  0.00  0.00    -0.080 A 
ATOM      5  C6  UNL d   1      -1.079   1.650   3.459  0.00  0.00     0.076 C 
ATOM      6  C7  UNL d   1       0.500  -0.247   3.916  0.00  0.00     0.002 A 
ATOM      7  C8  UNL d   1       1.660  -0.974   3.641  0.00  0.00     0.006 A 
ENDROOT
BRANCH   1   8
ATOM      8  C1  UNL d   1       3.775  -1.356   2.319  0.00  0.00     0.054 C 
ATOM      9  C   UNL d   1       4.356  -1.006   0.956  0.00  0.00     0.018 C 
ENDBRANCH   1   8
TORSDOF 1
ENDMDL
