MODEL 1
REMARK minimizedAffinity 14.6369476
REMARK minimizedRMSD -1
REMARK  1 active torsions:
REMARK  status: ('A' for Active; 'I' for Inactive)
REMARK    1  A    between atoms: C1_2  and  C2_3 
ROOT
ATOM      1  C2  UNL d   1       2.677   5.062  -4.946  0.00  0.00    -0.081 A 
ATOM      2  C3  UNL d   1       2.222   3.740  -4.866  0.00  0.00     0.006 A 
ATOM      3  C4  UNL d   1       2.683   2.892  -3.856  0.00  0.00     0.002 A 
ATOM      4  C5  UNL d   1       3.600   3.353  -2.905  0.00  0.00    -0.080 A 
ATOM      5  C6  UNL d   1       4.079   2.462  -1.798  0.00  0.00     0.076 C 
ATOM      6  C7  UNL d   1       4.068   4.669  -2.995  0.00  0.00     0.002 A 
ATOM      7  C8  UNL d   1       3.608   5.517  -4.005  0.00  0.00     0.006 A 
ENDROOT
BRANCH   1   8
ATOM      8  C1  UNL d   1       2.133   5.998  -5.994  0.00  0.00     0.054 C 
ATOM      9  C   UNL d   1       0.611   6.000  -5.998  0.00  0.00     0.018 C 
ENDBRANCH   1   8
TORSDOF 1
ENDMDL
