MODEL 1
REMARK minimizedAffinity 10.5531511
REMARK minimizedRMSD -1
REMARK  1 active torsions:
REMARK  status: ('A' for Active; 'I' for Inactive)
REMARK    1  A    between atoms: C1_2  and  C2_3 
ROOT
ATOM      1  C2  UNL d   1      -3.140  -3.515  -1.713  0.00  0.00    -0.081 A 
ATOM      2  C3  UNL d   1      -2.829  -3.082  -0.418  0.00  0.00     0.006 A 
ATOM      3  C4  UNL d   1      -3.139  -3.878   0.687  0.00  0.00     0.002 A 
ATOM      4  C5  UNL d   1      -3.757  -5.121   0.516  0.00  0.00    -0.080 A 
ATOM      5  C6  UNL d   1      -4.068  -5.998   1.693  0.00  0.00     0.076 C 
ATOM      6  C7  UNL d   1      -4.083  -5.546  -0.776  0.00  0.00     0.002 A 
ATOM      7  C8  UNL d   1      -3.774  -4.751  -1.882  0.00  0.00     0.006 A 
ENDROOT
BRANCH   1   8
ATOM      8  C1  UNL d   1      -2.748  -2.689  -2.912  0.00  0.00     0.054 C 
ATOM      9  C   UNL d   1      -1.490  -1.877  -2.638  0.00  0.00     0.018 C 
ENDBRANCH   1   8
TORSDOF 1
ENDMDL
