MODEL 1
REMARK minimizedAffinity 11.1073246
REMARK minimizedRMSD -1
REMARK  1 active torsions:
REMARK  status: ('A' for Active; 'I' for Inactive)
REMARK    1  A    between atoms: C1_2  and  C2_3 
ROOT
ATOM      1  C2  UNL d   1      -4.001   3.489   2.842  0.00  0.00    -0.081 A 
ATOM      2  C3  UNL d   1      -5.005   3.878   1.946  0.00  0.00     0.006 A 
ATOM      3  C4  UNL d   1      -4.689   4.626   0.810  0.00  0.00     0.002 A 
ATOM      4  C5  UNL d   1      -3.364   4.990   0.545  0.00  0.00    -0.080 A 
ATOM      5  C6  UNL d   1      -3.008   5.767  -0.687  0.00  0.00     0.076 C 
ATOM      6  C7  UNL d   1      -2.364   4.617   1.449  0.00  0.00     0.002 A 
ATOM      7  C8  UNL d   1      -2.679   3.870   2.586  0.00  0.00     0.006 A 
ENDROOT
BRANCH   1   8
ATOM      8  C1  UNL d   1      -4.329   2.627   4.034  0.00  0.00     0.054 C 
ATOM      9  C   UNL d   1      -4.599   1.188   3.620  0.00  0.00     0.018 C 
ENDBRANCH   1   8
TORSDOF 1
ENDMDL
