MODEL 1
REMARK minimizedAffinity 6.98522472
REMARK minimizedRMSD -1
REMARK  1 active torsions:
REMARK  status: ('A' for Active; 'I' for Inactive)
REMARK    1  A    between atoms: C1_2  and  C2_3 
ROOT
ATOM      1  C2  UNL d   1       4.124   2.200   0.749  0.00  0.00    -0.081 A 
ATOM      2  C3  UNL d   1       5.183   1.996  -0.145  0.00  0.00     0.006 A 
ATOM      3  C4  UNL d   1       5.800   0.746  -0.236  0.00  0.00     0.002 A 
ATOM      4  C5  UNL d   1       5.365  -0.321   0.557  0.00  0.00    -0.080 A 
ATOM      5  C6  UNL d   1       5.999  -1.676   0.446  0.00  0.00     0.076 C 
ATOM      6  C7  UNL d   1       4.319  -0.112   1.462  0.00  0.00     0.002 A 
ATOM      7  C8  UNL d   1       3.701   1.137   1.554  0.00  0.00     0.006 A 
ENDROOT
BRANCH   1   8
ATOM      8  C1  UNL d   1       3.414   3.529   0.803  0.00  0.00     0.054 C 
ATOM      9  C   UNL d   1       1.930   3.351   1.092  0.00  0.00     0.018 C 
ENDBRANCH   1   8
TORSDOF 1
ENDMDL
