MODEL 1
REMARK minimizedAffinity 9.37888241
REMARK minimizedRMSD -1
REMARK  1 active torsions:
REMARK  status: ('A' for Active; 'I' for Inactive)
REMARK    1  A    between atoms: C1_2  and  C2_3 
ROOT
ATOM      1  C2  UNL d   1       3.325   1.599  -0.729  0.00  0.00    -0.081 A 
ATOM      2  C3  UNL d   1       3.465   0.319  -0.179  0.00  0.00     0.006 A 
ATOM      3  C4  UNL d   1       2.594  -0.121   0.821  0.00  0.00     0.002 A 
ATOM      4  C5  UNL d   1       1.565   0.708   1.281  0.00  0.00    -0.080 A 
ATOM      5  C6  UNL d   1       0.605   0.237   2.333  0.00  0.00     0.076 C 
ATOM      6  C7  UNL d   1       1.436   1.993   0.744  0.00  0.00     0.002 A 
ATOM      7  C8  UNL d   1       2.307   2.434  -0.255  0.00  0.00     0.006 A 
ENDROOT
BRANCH   1   8
ATOM      8  C1  UNL d   1       4.222   2.053  -1.853  0.00  0.00     0.054 C 
ATOM      9  C   UNL d   1       4.095   1.140  -3.064  0.00  0.00     0.018 C 
ENDBRANCH   1   8
TORSDOF 1
ENDMDL
