MODEL 1
REMARK minimizedAffinity 8.72489738
REMARK minimizedRMSD -1
REMARK  1 active torsions:
REMARK  status: ('A' for Active; 'I' for Inactive)
REMARK    1  A    between atoms: C1_2  and  C2_3 
ROOT
ATOM      1  C2  UNL d   1       3.160   2.531   1.110  0.00  0.00    -0.081 A 
ATOM      2  C3  UNL d   1       3.229   1.353   1.864  0.00  0.00     0.006 A 
ATOM      3  C4  UNL d   1       4.138   0.348   1.526  0.00  0.00     0.002 A 
ATOM      4  C5  UNL d   1       4.998   0.507   0.434  0.00  0.00    -0.080 A 
ATOM      5  C6  UNL d   1       5.999  -0.552   0.079  0.00  0.00     0.076 C 
ATOM      6  C7  UNL d   1       4.917   1.676  -0.330  0.00  0.00     0.002 A 
ATOM      7  C8  UNL d   1       4.008   2.681   0.007  0.00  0.00     0.006 A 
ENDROOT
BRANCH   1   8
ATOM      8  C1  UNL d   1       2.226   3.644   1.510  0.00  0.00     0.054 C 
ATOM      9  C   UNL d   1       2.992   4.916   1.847  0.00  0.00     0.018 C 
ENDBRANCH   1   8
TORSDOF 1
ENDMDL
