MODEL 1
REMARK minimizedAffinity 19.2774715
REMARK minimizedRMSD -1
REMARK  1 active torsions:
REMARK  status: ('A' for Active; 'I' for Inactive)
REMARK    1  A    between atoms: C1_2  and  C2_3 
ROOT
ATOM      1  C2  UNL d   1       2.985   0.430   2.454  0.00  0.00    -0.081 A 
ATOM      2  C3  UNL d   1       2.626   1.259   1.384  0.00  0.00     0.006 A 
ATOM      3  C4  UNL d   1       1.427   1.974   1.415  0.00  0.00     0.002 A 
ATOM      4  C5  UNL d   1       0.571   1.879   2.517  0.00  0.00    -0.080 A 
ATOM      5  C6  UNL d   1      -0.705   2.665   2.575  0.00  0.00     0.076 C 
ATOM      6  C7  UNL d   1       0.921   1.037   3.578  0.00  0.00     0.002 A 
ATOM      7  C8  UNL d   1       2.120   0.321   3.548  0.00  0.00     0.006 A 
ENDROOT
BRANCH   1   8
ATOM      8  C1  UNL d   1       4.308  -0.292   2.454  0.00  0.00     0.054 C 
ATOM      9  C   UNL d   1       4.836  -0.480   1.038  0.00  0.00     0.018 C 
ENDBRANCH   1   8
TORSDOF 1
ENDMDL
