MODEL 1
REMARK minimizedAffinity 17.8922024
REMARK minimizedRMSD -1
REMARK  1 active torsions:
REMARK  status: ('A' for Active; 'I' for Inactive)
REMARK    1  A    between atoms: C1_2  and  C2_3 
ROOT
ATOM      1  C2  UNL d   1      -1.761  -3.210  -3.888  0.00  0.00    -0.081 A 
ATOM      2  C3  UNL d   1      -1.645  -1.903  -3.400  0.00  0.00     0.006 A 
ATOM      3  C4  UNL d   1      -2.026  -1.599  -2.091  0.00  0.00     0.002 A 
ATOM      4  C5  UNL d   1      -2.521  -2.597  -1.246  0.00  0.00    -0.080 A 
ATOM      5  C6  UNL d   1      -2.905  -2.290   0.171  0.00  0.00     0.076 C 
ATOM      6  C7  UNL d   1      -2.654  -3.900  -1.739  0.00  0.00     0.002 A 
ATOM      7  C8  UNL d   1      -2.274  -4.204  -3.048  0.00  0.00     0.006 A 
ENDROOT
BRANCH   1   8
ATOM      8  C1  UNL d   1      -1.291  -3.554  -5.278  0.00  0.00     0.054 C 
ATOM      9  C   UNL d   1      -0.740  -2.330  -5.995  0.00  0.00     0.018 C 
ENDBRANCH   1   8
TORSDOF 1
ENDMDL
