MODEL 1
REMARK minimizedAffinity 15.0782452
REMARK minimizedRMSD -1
REMARK  1 active torsions:
REMARK  status: ('A' for Active; 'I' for Inactive)
REMARK    1  A    between atoms: C1_2  and  C2_3 
ROOT
ATOM      1  C2  UNL d   1       2.210   3.730  -4.956  0.00  0.00    -0.081 A 
ATOM      2  C3  UNL d   1       2.276   4.165  -3.627  0.00  0.00     0.006 A 
ATOM      3  C4  UNL d   1       2.981   3.425  -2.674  0.00  0.00     0.002 A 
ATOM      4  C5  UNL d   1       3.637   2.244  -3.036  0.00  0.00    -0.080 A 
ATOM      5  C6  UNL d   1       4.423   1.457  -2.029  0.00  0.00     0.076 C 
ATOM      6  C7  UNL d   1       3.557   1.800  -4.360  0.00  0.00     0.002 A 
ATOM      7  C8  UNL d   1       2.851   2.539  -5.313  0.00  0.00     0.006 A 
ENDROOT
BRANCH   1   8
ATOM      8  C1  UNL d   1       1.505   4.559  -5.999  0.00  0.00     0.054 C 
ATOM      9  C   UNL d   1       2.009   5.995  -5.999  0.00  0.00     0.018 C 
ENDBRANCH   1   8
TORSDOF 1
ENDMDL
