MODEL 1
REMARK minimizedAffinity 16.6766376
REMARK minimizedRMSD -1
REMARK  1 active torsions:
REMARK  status: ('A' for Active; 'I' for Inactive)
REMARK    1  A    between atoms: C1_2  and  C2_3 
ROOT
ATOM      1  C2  UNL d   1       2.845   2.099  -2.451  0.00  0.00    -0.081 A 
ATOM      2  C3  UNL d   1       2.714   1.969  -3.839  0.00  0.00     0.006 A 
ATOM      3  C4  UNL d   1       3.738   1.395  -4.596  0.00  0.00     0.002 A 
ATOM      4  C5  UNL d   1       4.906   0.935  -3.978  0.00  0.00    -0.080 A 
ATOM      5  C6  UNL d   1       6.000   0.290  -4.776  0.00  0.00     0.076 C 
ATOM      6  C7  UNL d   1       5.044   1.081  -2.594  0.00  0.00     0.002 A 
ATOM      7  C8  UNL d   1       4.021   1.655  -1.836  0.00  0.00     0.006 A 
ENDROOT
BRANCH   1   8
ATOM      8  C1  UNL d   1       1.716   2.658  -1.623  0.00  0.00     0.054 C 
ATOM      9  C   UNL d   1       2.235   3.321  -0.355  0.00  0.00     0.018 C 
ENDBRANCH   1   8
TORSDOF 1
ENDMDL
