MODEL 1
REMARK minimizedAffinity -0.726294816
REMARK minimizedRMSD -1
REMARK  1 active torsions:
REMARK  status: ('A' for Active; 'I' for Inactive)
REMARK    1  A    between atoms: C1_2  and  C2_3 
ROOT
ATOM      1  C2  UNL d   1       3.468   4.490  -4.971  0.00  0.00    -0.081 A 
ATOM      2  C3  UNL d   1       4.002   3.256  -5.365  0.00  0.00     0.006 A 
ATOM      3  C4  UNL d   1       4.700   2.463  -4.451  0.00  0.00     0.002 A 
ATOM      4  C5  UNL d   1       4.868   2.885  -3.128  0.00  0.00    -0.080 A 
ATOM      5  C6  UNL d   1       5.589   2.028  -2.130  0.00  0.00     0.076 C 
ATOM      6  C7  UNL d   1       4.350   4.124  -2.739  0.00  0.00     0.002 A 
ATOM      7  C8  UNL d   1       3.653   4.919  -3.652  0.00  0.00     0.006 A 
ENDROOT
BRANCH   1   8
ATOM      8  C1  UNL d   1       2.660   5.318  -5.937  0.00  0.00     0.054 C 
ATOM      9  C   UNL d   1       1.215   4.843  -5.999  0.00  0.00     0.018 C 
ENDBRANCH   1   8
TORSDOF 1
ENDMDL
