MODEL 1
REMARK minimizedAffinity -2.76597118
REMARK minimizedRMSD -1
REMARK  1 active torsions:
REMARK  status: ('A' for Active; 'I' for Inactive)
REMARK    1  A    between atoms: C1_2  and  C2_3 
ROOT
ATOM      1  C2  UNL d   1       0.011  -0.125  -0.399  0.00  0.00    -0.073 A 
ATOM      2  C3  UNL d   1       1.334  -0.315   0.016  0.00  0.00    -0.002 A 
ATOM      3  C4  UNL d   1       1.721   0.025   1.313  0.00  0.00     0.004 A 
ATOM      4  C5  UNL d   1       0.790   0.550   2.209  0.00  0.00    -0.004 A 
ATOM      5  C6  UNL d   1      -0.540   0.736   1.816  0.00  0.00    -0.075 A 
ATOM      6  C7  UNL d   1      -1.553   1.303   2.766  0.00  0.00     0.076 C 
ATOM      7  C8  UNL d   1      -0.920   0.395   0.511  0.00  0.00     0.001 A 
ENDROOT
BRANCH   1   8
ATOM      8  C1  UNL d   1      -0.412  -0.497  -1.797  0.00  0.00     0.053 C 
ATOM      9  C   UNL d   1       0.528   0.071  -2.848  0.00  0.00     0.018 C 
ENDBRANCH   1   8
TORSDOF 1
ENDMDL
