MODEL 1
REMARK minimizedAffinity -0.56275034
REMARK minimizedRMSD -1
REMARK  1 active torsions:
REMARK  status: ('A' for Active; 'I' for Inactive)
REMARK    1  A    between atoms: C1_2  and  C2_3 
ROOT
ATOM      1  C2  UNL d   1      -3.210  -0.896  -0.669  0.00  0.00    -0.073 A 
ATOM      2  C3  UNL d   1      -3.697   0.414  -0.608  0.00  0.00    -0.002 A 
ATOM      3  C4  UNL d   1      -2.889   1.445  -0.126  0.00  0.00     0.004 A 
ATOM      4  C5  UNL d   1      -1.586   1.178   0.292  0.00  0.00    -0.004 A 
ATOM      5  C6  UNL d   1      -1.077  -0.123   0.228  0.00  0.00    -0.075 A 
ATOM      6  C7  UNL d   1       0.323  -0.428   0.676  0.00  0.00     0.076 C 
ATOM      7  C8  UNL d   1      -1.895  -1.153  -0.255  0.00  0.00     0.001 A 
ENDROOT
BRANCH   1   8
ATOM      8  C1  UNL d   1      -4.077  -2.011  -1.195  0.00  0.00     0.053 C 
ATOM      9  C   UNL d   1      -5.304  -1.485  -1.921  0.00  0.00     0.018 C 
ENDBRANCH   1   8
TORSDOF 1
ENDMDL
