MODEL 1
REMARK minimizedAffinity -4.80910444
REMARK minimizedRMSD -1
REMARK  1 active torsions:
REMARK  status: ('A' for Active; 'I' for Inactive)
REMARK    1  A    between atoms: C1_2  and  C2_3 
ROOT
ATOM      1  C2  UNL d   1       0.438  -0.385  -0.611  0.00  0.00    -0.073 A 
ATOM      2  C3  UNL d   1       1.589  -0.734   0.104  0.00  0.00    -0.002 A 
ATOM      3  C4  UNL d   1       1.620  -0.611   1.494  0.00  0.00     0.004 A 
ATOM      4  C5  UNL d   1       0.500  -0.146   2.182  0.00  0.00    -0.004 A 
ATOM      5  C6  UNL d   1      -0.664   0.197   1.487  0.00  0.00    -0.075 A 
ATOM      6  C7  UNL d   1      -1.876   0.702   2.212  0.00  0.00     0.076 C 
ATOM      7  C8  UNL d   1      -0.686   0.074   0.091  0.00  0.00     0.001 A 
ENDROOT
BRANCH   1   8
ATOM      8  C1  UNL d   1       0.398  -0.522  -2.111  0.00  0.00     0.053 C 
ATOM      9  C   UNL d   1       1.312   0.479  -2.800  0.00  0.00     0.018 C 
ENDBRANCH   1   8
TORSDOF 1
ENDMDL
