MODEL 1
REMARK minimizedAffinity -3.97183013
REMARK minimizedRMSD -1
REMARK  1 active torsions:
REMARK  status: ('A' for Active; 'I' for Inactive)
REMARK    1  A    between atoms: C1_2  and  C2_3 
ROOT
ATOM      1  C2  UNL d   1       0.492  -0.357  -0.857  0.00  0.00    -0.073 A 
ATOM      2  C3  UNL d   1       1.657  -0.879  -0.284  0.00  0.00    -0.002 A 
ATOM      3  C4  UNL d   1       1.952  -0.637   1.059  0.00  0.00     0.004 A 
ATOM      4  C5  UNL d   1       1.084   0.123   1.842  0.00  0.00    -0.004 A 
ATOM      5  C6  UNL d   1      -0.091   0.644   1.290  0.00  0.00    -0.075 A 
ATOM      6  C7  UNL d   1      -1.034   1.466   2.119  0.00  0.00     0.076 C 
ATOM      7  C8  UNL d   1      -0.379   0.398  -0.059  0.00  0.00     0.001 A 
ENDROOT
BRANCH   1   8
ATOM      8  C1  UNL d   1       0.166  -0.621  -2.304  0.00  0.00     0.053 C 
ATOM      9  C   UNL d   1       1.114   0.106  -3.244  0.00  0.00     0.018 C 
ENDBRANCH   1   8
TORSDOF 1
ENDMDL
