MODEL 1
REMARK minimizedAffinity -3.33420658
REMARK minimizedRMSD -1
REMARK  1 active torsions:
REMARK  status: ('A' for Active; 'I' for Inactive)
REMARK    1  A    between atoms: C1_2  and  C2_3 
ROOT
ATOM      1  C2  UNL d   1       0.349  -0.057  -0.827  0.00  0.00    -0.073 A 
ATOM      2  C3  UNL d   1      -0.992  -0.377  -1.069  0.00  0.00    -0.002 A 
ATOM      3  C4  UNL d   1      -1.970  -0.081  -0.118  0.00  0.00     0.004 A 
ATOM      4  C5  UNL d   1      -1.620   0.543   1.079  0.00  0.00    -0.004 A 
ATOM      5  C6  UNL d   1      -0.287   0.882   1.334  0.00  0.00    -0.075 A 
ATOM      6  C7  UNL d   1       0.107   1.552   2.617  0.00  0.00     0.076 C 
ATOM      7  C8  UNL d   1       0.690   0.579   0.376  0.00  0.00     0.001 A 
ENDROOT
BRANCH   1   8
ATOM      8  C1  UNL d   1       1.407  -0.369  -1.853  0.00  0.00     0.053 C 
ATOM      9  C   UNL d   1       0.890  -0.204  -3.273  0.00  0.00     0.018 C 
ENDBRANCH   1   8
TORSDOF 1
ENDMDL
