MODEL 1
REMARK minimizedAffinity -0.486039132
REMARK minimizedRMSD -1
REMARK  1 active torsions:
REMARK  status: ('A' for Active; 'I' for Inactive)
REMARK    1  A    between atoms: C1_2  and  C2_3 
ROOT
ATOM      1  C2  UNL d   1      -0.225  -0.606  -1.687  0.00  0.00    -0.073 A 
ATOM      2  C3  UNL d   1       1.129  -0.279  -1.828  0.00  0.00    -0.002 A 
ATOM      3  C4  UNL d   1       1.638   0.094  -3.073  0.00  0.00     0.004 A 
ATOM      4  C5  UNL d   1       0.799   0.150  -4.186  0.00  0.00    -0.004 A 
ATOM      5  C6  UNL d   1      -0.559  -0.162  -4.063  0.00  0.00    -0.075 A 
ATOM      6  C7  UNL d   1      -1.474  -0.108  -5.251  0.00  0.00     0.076 C 
ATOM      7  C8  UNL d   1      -1.062  -0.537  -2.810  0.00  0.00     0.001 A 
ENDROOT
BRANCH   1   8
ATOM      8  C1  UNL d   1      -0.780  -1.002  -0.344  0.00  0.00     0.053 C 
ATOM      9  C   UNL d   1      -0.950   0.194   0.579  0.00  0.00     0.018 C 
ENDBRANCH   1   8
TORSDOF 1
ENDMDL
