MODEL 1
REMARK minimizedAffinity -4.49720764
REMARK minimizedRMSD -1
REMARK  1 active torsions:
REMARK  status: ('A' for Active; 'I' for Inactive)
REMARK    1  A    between atoms: C1_2  and  C2_3 
ROOT
ATOM      1  C2  UNL d   1      -0.004  -0.323  -1.556  0.00  0.00    -0.073 A 
ATOM      2  C3  UNL d   1       0.643  -0.504  -0.328  0.00  0.00    -0.002 A 
ATOM      3  C4  UNL d   1       0.025  -0.108   0.859  0.00  0.00     0.004 A 
ATOM      4  C5  UNL d   1      -1.246   0.466   0.832  0.00  0.00    -0.004 A 
ATOM      5  C6  UNL d   1      -1.913   0.645  -0.385  0.00  0.00    -0.075 A 
ATOM      6  C7  UNL d   1      -3.279   1.263  -0.431  0.00  0.00     0.076 C 
ATOM      7  C8  UNL d   1      -1.285   0.247  -1.573  0.00  0.00     0.001 A 
ENDROOT
BRANCH   1   8
ATOM      8  C1  UNL d   1       0.656  -0.755  -2.840  0.00  0.00     0.053 C 
ATOM      9  C   UNL d   1       1.561   0.327  -3.408  0.00  0.00     0.018 C 
ENDBRANCH   1   8
TORSDOF 1
ENDMDL
