MODEL 1
REMARK minimizedAffinity -4.87778759
REMARK minimizedRMSD -1
REMARK  1 active torsions:
REMARK  status: ('A' for Active; 'I' for Inactive)
REMARK    1  A    between atoms: C1_2  and  C2_3 
ROOT
ATOM      1  C2  UNL d   1      -0.470   0.367  -1.117  0.00  0.00    -0.073 A 
ATOM      2  C3  UNL d   1       0.579  -0.410  -1.624  0.00  0.00    -0.002 A 
ATOM      3  C4  UNL d   1       1.411  -1.121  -0.758  0.00  0.00     0.004 A 
ATOM      4  C5  UNL d   1       1.199  -1.070   0.619  0.00  0.00    -0.004 A 
ATOM      5  C6  UNL d   1       0.149  -0.310   1.144  0.00  0.00    -0.075 A 
ATOM      6  C7  UNL d   1      -0.091  -0.243   2.623  0.00  0.00     0.076 C 
ATOM      7  C8  UNL d   1      -0.680   0.404   0.268  0.00  0.00     0.001 A 
ENDROOT
BRANCH   1   8
ATOM      8  C1  UNL d   1      -1.374   1.132  -2.048  0.00  0.00     0.053 C 
ATOM      9  C   UNL d   1      -0.695   2.369  -2.614  0.00  0.00     0.018 C 
ENDBRANCH   1   8
TORSDOF 1
ENDMDL
