MODEL 1
REMARK minimizedAffinity -3.4810822
REMARK minimizedRMSD -1
REMARK  1 active torsions:
REMARK  status: ('A' for Active; 'I' for Inactive)
REMARK    1  A    between atoms: C1_2  and  C2_3 
ROOT
ATOM      1  C2  UNL d   1       0.757  -1.093  -0.119  0.00  0.00    -0.073 A 
ATOM      2  C3  UNL d   1       1.321  -1.069   1.161  0.00  0.00    -0.002 A 
ATOM      3  C4  UNL d   1       0.513  -0.887   2.284  0.00  0.00     0.004 A 
ATOM      4  C5  UNL d   1      -0.866  -0.734   2.140  0.00  0.00    -0.004 A 
ATOM      5  C6  UNL d   1      -1.450  -0.768   0.869  0.00  0.00    -0.075 A 
ATOM      6  C7  UNL d   1      -2.931  -0.603   0.696  0.00  0.00     0.076 C 
ATOM      7  C8  UNL d   1      -0.631  -0.948  -0.254  0.00  0.00     0.001 A 
ENDROOT
BRANCH   1   8
ATOM      8  C1  UNL d   1       1.625  -1.296  -1.334  0.00  0.00     0.053 C 
ATOM      9  C   UNL d   1       2.976  -1.893  -0.976  0.00  0.00     0.018 C 
ENDBRANCH   1   8
TORSDOF 1
ENDMDL
