MODEL 1
REMARK minimizedAffinity -4.81043053
REMARK minimizedRMSD -1
REMARK  1 active torsions:
REMARK  status: ('A' for Active; 'I' for Inactive)
REMARK    1  A    between atoms: C1_2  and  C2_3 
ROOT
ATOM      1  C2  UNL d   1      -0.197   0.206  -0.142  0.00  0.00    -0.073 A 
ATOM      2  C3  UNL d   1      -1.459  -0.165   0.337  0.00  0.00    -0.002 A 
ATOM      3  C4  UNL d   1      -1.619  -0.566   1.664  0.00  0.00     0.004 A 
ATOM      4  C5  UNL d   1      -0.523  -0.593   2.527  0.00  0.00    -0.004 A 
ATOM      5  C6  UNL d   1       0.743  -0.215   2.070  0.00  0.00    -0.075 A 
ATOM      6  C7  UNL d   1       1.933  -0.241   2.985  0.00  0.00     0.076 C 
ATOM      7  C8  UNL d   1       0.897   0.184   0.735  0.00  0.00     0.001 A 
ENDROOT
BRANCH   1   8
ATOM      8  C1  UNL d   1      -0.020   0.646  -1.572  0.00  0.00     0.053 C 
ATOM      9  C   UNL d   1      -0.529   2.060  -1.801  0.00  0.00     0.018 C 
ENDBRANCH   1   8
TORSDOF 1
ENDMDL
