MODEL 1
REMARK minimizedAffinity -1.85422397
REMARK minimizedRMSD -1
REMARK  1 active torsions:
REMARK  status: ('A' for Active; 'I' for Inactive)
REMARK    1  A    between atoms: C1_2  and  C2_3 
ROOT
ATOM      1  C2  UNL d   1      -0.132  -0.689   0.398  0.00  0.00    -0.073 A 
ATOM      2  C3  UNL d   1       0.798  -0.514  -0.634  0.00  0.00    -0.002 A 
ATOM      3  C4  UNL d   1       2.166  -0.562  -0.364  0.00  0.00     0.004 A 
ATOM      4  C5  UNL d   1       2.618  -0.792   0.935  0.00  0.00    -0.004 A 
ATOM      5  C6  UNL d   1       1.705  -0.981   1.977  0.00  0.00    -0.075 A 
ATOM      6  C7  UNL d   1       2.175  -1.228   3.380  0.00  0.00     0.076 C 
ATOM      7  C8  UNL d   1       0.332  -0.929   1.699  0.00  0.00     0.001 A 
ENDROOT
BRANCH   1   8
ATOM      8  C1  UNL d   1      -1.611  -0.645   0.111  0.00  0.00     0.053 C 
ATOM      9  C   UNL d   1      -2.442  -0.821   1.372  0.00  0.00     0.018 C 
ENDBRANCH   1   8
TORSDOF 1
ENDMDL
