MODEL 1
REMARK minimizedAffinity -2.23702931
REMARK minimizedRMSD -1
REMARK  0 active torsions:
REMARK  status: ('A' for Active; 'I' for Inactive)
ROOT
ATOM      1  C4' PXY d   1       2.052  -0.315   0.551  0.00  0.00     0.077 C 
ATOM      2  C1' PXY d   1      -2.434   1.475  -2.624  0.00  0.00     0.077 C 
ATOM      3  C1  PXY d   1      -1.258   1.017  -1.784  0.00  0.00    -0.082 A 
ATOM      4  C2  PXY d   1      -0.417   0.120  -2.272  0.00  0.00     0.003 A 
ATOM      5  C3  PXY d   1       0.634  -0.330  -1.514  0.00  0.00     0.003 A 
ATOM      6  C4  PXY d   1       0.856   0.184  -0.264  0.00  0.00    -0.082 A 
ATOM      7  C5  PXY d   1       0.009   1.108   0.236  0.00  0.00     0.003 A 
ATOM      8  C6  PXY d   1      -1.075   1.520  -0.533  0.00  0.00     0.003 A 
ENDROOT
TORSDOF 0
ENDMDL
