MODEL 1
REMARK minimizedAffinity -2.60576367
REMARK minimizedRMSD -1
REMARK  0 active torsions:
REMARK  status: ('A' for Active; 'I' for Inactive)
ROOT
ATOM      1  C4' PXY d   1       1.903  -3.211   1.337  0.00  0.00     0.077 C 
ATOM      2  C1' PXY d   1      -0.138   2.044   0.059  0.00  0.00     0.077 C 
ATOM      3  C1  PXY d   1       0.407   0.668   0.386  0.00  0.00    -0.082 A 
ATOM      4  C2  PXY d   1      -0.411  -0.269   0.838  0.00  0.00     0.003 A 
ATOM      5  C3  PXY d   1       0.071  -1.509   1.169  0.00  0.00     0.003 A 
ATOM      6  C4  PXY d   1       1.395  -1.810   0.985  0.00  0.00    -0.082 A 
ATOM      7  C5  PXY d   1       2.233  -0.862   0.515  0.00  0.00     0.003 A 
ATOM      8  C6  PXY d   1       1.732   0.403   0.224  0.00  0.00     0.003 A 
ENDROOT
TORSDOF 0
ENDMDL
