MODEL 1
REMARK minimizedAffinity -5.61492443
REMARK minimizedRMSD -1
REMARK  0 active torsions:
REMARK  status: ('A' for Active; 'I' for Inactive)
ROOT
ATOM      1  C4' PXY d   1      -1.142   1.578  -0.861  0.00  0.00     0.077 C 
ATOM      2  C1' PXY d   1       1.706  -2.948   1.336  0.00  0.00     0.077 C 
ATOM      3  C1  PXY d   1       0.970  -1.756   0.756  0.00  0.00    -0.082 A 
ATOM      4  C2  PXY d   1      -0.220  -1.428   1.231  0.00  0.00     0.003 A 
ATOM      5  C3  PXY d   1      -0.913  -0.372   0.696  0.00  0.00     0.003 A 
ATOM      6  C4  PXY d   1      -0.359   0.388  -0.299  0.00  0.00    -0.082 A 
ATOM      7  C5  PXY d   1       0.860   0.066  -0.781  0.00  0.00     0.003 A 
ATOM      8  C6  PXY d   1       1.529  -1.034  -0.253  0.00  0.00     0.003 A 
ENDROOT
TORSDOF 0
ENDMDL
