MODEL 1
REMARK minimizedAffinity -3.87878537
REMARK minimizedRMSD -1
REMARK  0 active torsions:
REMARK  status: ('A' for Active; 'I' for Inactive)
ROOT
ATOM      1  C4' PXY d   1      -1.139   1.904   0.022  0.00  0.00     0.077 C 
ATOM      2  C1' PXY d   1       1.381  -3.219   0.931  0.00  0.00     0.077 C 
ATOM      3  C1  PXY d   1       0.731  -1.871   0.687  0.00  0.00    -0.082 A 
ATOM      4  C2  PXY d   1      -0.279  -1.484   1.449  0.00  0.00     0.003 A 
ATOM      5  C3  PXY d   1      -0.899  -0.283   1.222  0.00  0.00     0.003 A 
ATOM      6  C4  PXY d   1      -0.446   0.555   0.238  0.00  0.00    -0.082 A 
ATOM      7  C5  PXY d   1       0.591   0.173  -0.537  0.00  0.00     0.003 A 
ATOM      8  C6  PXY d   1       1.180  -1.069  -0.317  0.00  0.00     0.003 A 
ENDROOT
TORSDOF 0
ENDMDL
