MODEL 1
REMARK minimizedAffinity -5.19215775
REMARK minimizedRMSD -1
REMARK  0 active torsions:
REMARK  status: ('A' for Active; 'I' for Inactive)
ROOT
ATOM      1  C4' PXY d   1      -1.587  -0.723   2.246  0.00  0.00     0.077 C 
ATOM      2  C1' PXY d   1       3.638  -1.034  -0.208  0.00  0.00     0.077 C 
ATOM      3  C1  PXY d   1       2.268  -0.939   0.434  0.00  0.00    -0.082 A 
ATOM      4  C2  PXY d   1       1.844  -1.918   1.217  0.00  0.00     0.003 A 
ATOM      5  C3  PXY d   1       0.595  -1.864   1.780  0.00  0.00     0.003 A 
ATOM      6  C4  PXY d   1      -0.207  -0.772   1.584  0.00  0.00    -0.082 A 
ATOM      7  C5  PXY d   1       0.223   0.236   0.795  0.00  0.00     0.003 A 
ATOM      8  C6  PXY d   1       1.477   0.143   0.199  0.00  0.00     0.003 A 
ENDROOT
TORSDOF 0
ENDMDL
