MODEL 1
REMARK minimizedAffinity -4.35957336
REMARK minimizedRMSD -1
REMARK  0 active torsions:
REMARK  status: ('A' for Active; 'I' for Inactive)
ROOT
ATOM      1  C4' PXY d   1       3.058  -1.677   1.150  0.00  0.00     0.077 C 
ATOM      2  C1' PXY d   1      -1.230   1.625  -0.881  0.00  0.00     0.077 C 
ATOM      3  C1  PXY d   1      -0.114   0.751  -0.344  0.00  0.00    -0.082 A 
ATOM      4  C2  PXY d   1       1.059   1.290  -0.058  0.00  0.00     0.003 A 
ATOM      5  C3  PXY d   1       2.089   0.508   0.398  0.00  0.00     0.003 A 
ATOM      6  C4  PXY d   1       1.900  -0.830   0.614  0.00  0.00    -0.082 A 
ATOM      7  C5  PXY d   1       0.702  -1.386   0.334  0.00  0.00     0.003 A 
ATOM      8  C6  PXY d   1      -0.318  -0.583  -0.167  0.00  0.00     0.003 A 
ENDROOT
TORSDOF 0
ENDMDL
