MODEL 1
REMARK minimizedAffinity -1.77833128
REMARK minimizedRMSD -1
REMARK  0 active torsions:
REMARK  status: ('A' for Active; 'I' for Inactive)
ROOT
ATOM      1  C4' PXY d   1       1.155  -0.228   0.237  0.00  0.00     0.077 C 
ATOM      2  C1' PXY d   1      -2.625   1.591  -3.740  0.00  0.00     0.077 C 
ATOM      3  C1  PXY d   1      -1.641   1.120  -2.688  0.00  0.00    -0.082 A 
ATOM      4  C2  PXY d   1      -0.397   0.833  -3.037  0.00  0.00     0.003 A 
ATOM      5  C3  PXY d   1       0.497   0.375  -2.104  0.00  0.00     0.003 A 
ATOM      6  C4  PXY d   1       0.130   0.260  -0.790  0.00  0.00    -0.082 A 
ATOM      7  C5  PXY d   1      -1.134   0.561  -0.424  0.00  0.00     0.003 A 
ATOM      8  C6  PXY d   1      -2.038   0.985  -1.393  0.00  0.00     0.003 A 
ENDROOT
TORSDOF 0
ENDMDL
