MODEL 1
REMARK minimizedAffinity -2.276757
REMARK minimizedRMSD -1
REMARK  0 active torsions:
REMARK  status: ('A' for Active; 'I' for Inactive)
ROOT
ATOM      1  C4' PXY d   1       3.876  -0.625   2.042  0.00  0.00     0.077 C 
ATOM      2  C1' PXY d   1      -0.492  -0.316  -1.732  0.00  0.00     0.077 C 
ATOM      3  C1  PXY d   1       0.659  -0.406  -0.750  0.00  0.00    -0.082 A 
ATOM      4  C2  PXY d   1       0.467  -0.072   0.515  0.00  0.00     0.003 A 
ATOM      5  C3  PXY d   1       1.505  -0.116   1.410  0.00  0.00     0.003 A 
ATOM      6  C4  PXY d   1       2.740  -0.559   1.017  0.00  0.00    -0.082 A 
ATOM      7  C5  PXY d   1       2.941  -0.912  -0.270  0.00  0.00     0.003 A 
ATOM      8  C6  PXY d   1       1.885  -0.821  -1.172  0.00  0.00     0.003 A 
ENDROOT
TORSDOF 0
ENDMDL
