MODEL 1
REMARK minimizedAffinity -4.58288431
REMARK minimizedRMSD -1
REMARK  0 active torsions:
REMARK  status: ('A' for Active; 'I' for Inactive)
ROOT
ATOM      1  C4' PXY d   1      -1.451   1.050  -1.781  0.00  0.00     0.077 C 
ATOM      2  C1' PXY d   1       2.442  -1.980   1.232  0.00  0.00     0.077 C 
ATOM      3  C1  PXY d   1       1.411  -1.191   0.449  0.00  0.00    -0.082 A 
ATOM      4  C2  PXY d   1       1.700  -0.768  -0.771  0.00  0.00     0.003 A 
ATOM      5  C3  PXY d   1       0.792  -0.025  -1.481  0.00  0.00     0.003 A 
ATOM      6  C4  PXY d   1      -0.445   0.242  -0.958  0.00  0.00    -0.082 A 
ATOM      7  C5  PXY d   1      -0.751  -0.196   0.282  0.00  0.00     0.003 A 
ATOM      8  C6  PXY d   1       0.200  -0.912   1.003  0.00  0.00     0.003 A 
ENDROOT
TORSDOF 0
ENDMDL
