MODEL 1
REMARK minimizedAffinity -3.75965023
REMARK minimizedRMSD -1
REMARK  0 active torsions:
REMARK  status: ('A' for Active; 'I' for Inactive)
ROOT
ATOM      1  C4' PXY d   1       1.617  -2.839   1.290  0.00  0.00     0.077 C 
ATOM      2  C1' PXY d   1      -1.271   1.662  -0.905  0.00  0.00     0.077 C 
ATOM      3  C1  PXY d   1      -0.505   0.482  -0.339  0.00  0.00    -0.082 A 
ATOM      4  C2  PXY d   1      -1.117  -0.368   0.470  0.00  0.00     0.003 A 
ATOM      5  C3  PXY d   1      -0.431  -1.422   1.016  0.00  0.00     0.003 A 
ATOM      6  C4  PXY d   1       0.881  -1.639   0.688  0.00  0.00    -0.082 A 
ATOM      7  C5  PXY d   1       1.509  -0.783  -0.145  0.00  0.00     0.003 A 
ATOM      8  C6  PXY d   1       0.806   0.305  -0.656  0.00  0.00     0.003 A 
ENDROOT
TORSDOF 0
ENDMDL
