MODEL 1
REMARK minimizedAffinity -3.3641758
REMARK minimizedRMSD -1
REMARK  0 active torsions:
REMARK  status: ('A' for Active; 'I' for Inactive)
ROOT
ATOM      1  C4' PXY d   1       2.672  -1.312   1.023  0.00  0.00     0.077 C 
ATOM      2  C1' PXY d   1      -1.304   1.988  -1.568  0.00  0.00     0.077 C 
ATOM      3  C1  PXY d   1      -0.269   1.113  -0.889  0.00  0.00    -0.082 A 
ATOM      4  C2  PXY d   1       0.694   1.672  -0.175  0.00  0.00     0.003 A 
ATOM      5  C3  PXY d   1       1.656   0.897   0.420  0.00  0.00     0.003 A 
ATOM      6  C4  PXY d   1       1.601  -0.468   0.327  0.00  0.00    -0.082 A 
ATOM      7  C5  PXY d   1       0.615  -1.047  -0.391  0.00  0.00     0.003 A 
ATOM      8  C6  PXY d   1      -0.328  -0.240  -1.021  0.00  0.00     0.003 A 
ENDROOT
TORSDOF 0
ENDMDL
