MODEL 1
REMARK minimizedAffinity -3.12339854
REMARK minimizedRMSD -1
REMARK  0 active torsions:
REMARK  status: ('A' for Active; 'I' for Inactive)
ROOT
ATOM      1  C4' PXY d   1       2.776  -1.429   1.350  0.00  0.00     0.077 C 
ATOM      2  C1' PXY d   1      -1.463   1.476  -1.297  0.00  0.00     0.077 C 
ATOM      3  C1  PXY d   1      -0.360   0.705  -0.599  0.00  0.00    -0.082 A 
ATOM      4  C2  PXY d   1       0.752   1.330  -0.245  0.00  0.00     0.003 A 
ATOM      5  C3  PXY d   1       1.772   0.641   0.359  0.00  0.00     0.003 A 
ATOM      6  C4  PXY d   1       1.632  -0.689   0.652  0.00  0.00    -0.082 A 
ATOM      7  C5  PXY d   1       0.497  -1.331   0.304  0.00  0.00     0.003 A 
ATOM      8  C6  PXY d   1      -0.511  -0.623  -0.346  0.00  0.00     0.003 A 
ENDROOT
TORSDOF 0
ENDMDL
