MODEL 1
REMARK minimizedAffinity -5.63733768
REMARK minimizedRMSD -1
REMARK  0 active torsions:
REMARK  status: ('A' for Active; 'I' for Inactive)
ROOT
ATOM      1  C4' PXY d   1       1.832  -2.931   1.842  0.00  0.00     0.077 C 
ATOM      2  C1' PXY d   1      -0.504   1.850  -0.416  0.00  0.00     0.077 C 
ATOM      3  C1  PXY d   1       0.102   0.598   0.187  0.00  0.00    -0.082 A 
ATOM      4  C2  PXY d   1       1.273   0.163  -0.248  0.00  0.00     0.003 A 
ATOM      5  C3  PXY d   1       1.820  -0.985   0.264  0.00  0.00     0.003 A 
ATOM      6  C4  PXY d   1       1.187  -1.666   1.269  0.00  0.00    -0.082 A 
ATOM      7  C5  PXY d   1      -0.004  -1.223   1.725  0.00  0.00     0.003 A 
ATOM      8  C6  PXY d   1      -0.562  -0.078   1.164  0.00  0.00     0.003 A 
ENDROOT
TORSDOF 0
ENDMDL
