MODEL 1
REMARK minimizedAffinity -5.09365368
REMARK minimizedRMSD -1
REMARK  0 active torsions:
REMARK  status: ('A' for Active; 'I' for Inactive)
ROOT
ATOM      1  C4' PXY d   1      -1.148   1.908  -0.770  0.00  0.00     0.077 C 
ATOM      2  C1' PXY d   1       1.781  -2.218   2.025  0.00  0.00     0.077 C 
ATOM      3  C1  PXY d   1       1.024  -1.132   1.286  0.00  0.00    -0.082 A 
ATOM      4  C2  PXY d   1      -0.114  -0.675   1.782  0.00  0.00     0.003 A 
ATOM      5  C3  PXY d   1      -0.828   0.284   1.111  0.00  0.00     0.003 A 
ATOM      6  C4  PXY d   1      -0.345   0.819  -0.054  0.00  0.00    -0.082 A 
ATOM      7  C5  PXY d   1       0.820   0.365  -0.561  0.00  0.00     0.003 A 
ATOM      8  C6  PXY d   1       1.509  -0.639   0.114  0.00  0.00     0.003 A 
ENDROOT
TORSDOF 0
ENDMDL
