MODEL 1
REMARK minimizedAffinity -4.59966946
REMARK minimizedRMSD -1
REMARK  0 active torsions:
REMARK  status: ('A' for Active; 'I' for Inactive)
ROOT
ATOM      1  C4' PXY d   1      -1.393   1.226  -1.222  0.00  0.00     0.077 C 
ATOM      2  C1' PXY d   1       1.598  -2.696   1.792  0.00  0.00     0.077 C 
ATOM      3  C1  PXY d   1       0.803  -1.674   1.003  0.00  0.00    -0.082 A 
ATOM      4  C2  PXY d   1       1.420  -0.901   0.125  0.00  0.00     0.003 A 
ATOM      5  C3  PXY d   1       0.722   0.050  -0.574  0.00  0.00     0.003 A 
ATOM      6  C4  PXY d   1      -0.632   0.175  -0.410  0.00  0.00    -0.082 A 
ATOM      7  C5  PXY d   1      -1.271  -0.618   0.476  0.00  0.00     0.003 A 
ATOM      8  C6  PXY d   1      -0.537  -1.549   1.206  0.00  0.00     0.003 A 
ENDROOT
TORSDOF 0
ENDMDL
