MODEL 1
REMARK minimizedAffinity -1.10392749
REMARK minimizedRMSD -1
REMARK  0 active torsions:
REMARK  status: ('A' for Active; 'I' for Inactive)
ROOT
ATOM      1  C4' PXY d   1      -2.192   1.001   1.614  0.00  0.00     0.077 C 
ATOM      2  C1' PXY d   1       2.782  -1.510   0.075  0.00  0.00     0.077 C 
ATOM      3  C1  PXY d   1       1.481  -0.841   0.472  0.00  0.00    -0.082 A 
ATOM      4  C2  PXY d   1       0.846  -1.240   1.562  0.00  0.00     0.003 A 
ATOM      5  C3  PXY d   1      -0.348  -0.668   1.918  0.00  0.00     0.003 A 
ATOM      6  C4  PXY d   1      -0.870   0.361   1.180  0.00  0.00    -0.082 A 
ATOM      7  C5  PXY d   1      -0.223   0.781   0.073  0.00  0.00     0.003 A 
ATOM      8  C6  PXY d   1       0.967   0.159  -0.294  0.00  0.00     0.003 A 
ENDROOT
TORSDOF 0
ENDMDL
