MODEL 1
REMARK minimizedAffinity -5.57889843
REMARK minimizedRMSD -1
REMARK  0 active torsions:
REMARK  status: ('A' for Active; 'I' for Inactive)
ROOT
ATOM      1  C4' PXY d   1      -0.393   1.602  -1.084  0.00  0.00     0.077 C 
ATOM      2  C1' PXY d   1       1.570  -3.229   1.409  0.00  0.00     0.077 C 
ATOM      3  C1  PXY d   1       1.066  -1.956   0.759  0.00  0.00    -0.082 A 
ATOM      4  C2  PXY d   1      -0.234  -1.774   0.597  0.00  0.00     0.003 A 
ATOM      5  C3  PXY d   1      -0.706  -0.643  -0.018  0.00  0.00     0.003 A 
ATOM      6  C4  PXY d   1       0.160   0.337  -0.424  0.00  0.00    -0.082 A 
ATOM      7  C5  PXY d   1       1.488   0.164  -0.253  0.00  0.00     0.003 A 
ATOM      8  C6  PXY d   1       1.949  -1.010   0.337  0.00  0.00     0.003 A 
ENDROOT
TORSDOF 0
ENDMDL
