MODEL 1
REMARK minimizedAffinity -4.6609621
REMARK minimizedRMSD -1
REMARK  0 active torsions:
REMARK  status: ('A' for Active; 'I' for Inactive)
ROOT
ATOM      1  C4' PXY d   1      -1.493   1.801  -0.425  0.00  0.00     0.077 C 
ATOM      2  C1' PXY d   1       1.810  -2.716   1.022  0.00  0.00     0.077 C 
ATOM      3  C1  PXY d   1       0.955  -1.524   0.639  0.00  0.00    -0.082 A 
ATOM      4  C2  PXY d   1      -0.248  -1.385   1.173  0.00  0.00     0.003 A 
ATOM      5  C3  PXY d   1      -1.048  -0.330   0.814  0.00  0.00     0.003 A 
ATOM      6  C4  PXY d   1      -0.591   0.619  -0.061  0.00  0.00    -0.082 A 
ATOM      7  C5  PXY d   1       0.639   0.489  -0.601  0.00  0.00     0.003 A 
ATOM      8  C6  PXY d   1       1.419  -0.610  -0.255  0.00  0.00     0.003 A 
ENDROOT
TORSDOF 0
ENDMDL
