MODEL 1
REMARK minimizedAffinity -1.8709172
REMARK minimizedRMSD -1
REMARK  0 active torsions:
REMARK  status: ('A' for Active; 'I' for Inactive)
ROOT
ATOM      1  C1  DEN d   1      -3.212   1.907   3.275  0.00  0.00     0.130 A 
ATOM      2  C2  DEN d   1      -4.079   0.740   3.417  0.00  0.00    -0.031 A 
ATOM      3  C3  DEN d   1      -3.390  -0.417   2.811  0.00  0.00     0.027 A 
ATOM      4  C4  DEN d   1      -1.076  -0.516   1.678  0.00  0.00     0.027 A 
ATOM      5  C5  DEN d   1       0.026   0.223   1.309  0.00  0.00    -0.003 A 
ATOM      6  C6  DEN d   1       0.111   1.571   1.537  0.00  0.00     0.001 A 
ATOM      7  C7  DEN d   1      -0.906   2.214   2.192  0.00  0.00     0.017 A 
ATOM      8  C8  DEN d   1      -2.024   1.476   2.560  0.00  0.00    -0.094 A 
ATOM      9  C9  DEN d   1      -2.085   0.112   2.332  0.00  0.00    -0.072 A 
ENDROOT
TORSDOF 0
ENDMDL
