MODEL 1
REMARK minimizedAffinity 0.593721628
REMARK minimizedRMSD -1
REMARK  0 active torsions:
REMARK  status: ('A' for Active; 'I' for Inactive)
ROOT
ATOM      1  C1  DEN d   1      -0.711  -0.892   2.651  0.00  0.00     0.130 A 
ATOM      2  C2  DEN d   1       0.467  -1.425   1.973  0.00  0.00    -0.031 A 
ATOM      3  C3  DEN d   1       1.029  -0.355   1.124  0.00  0.00     0.027 A 
ATOM      4  C4  DEN d   1       0.196   2.064   0.799  0.00  0.00     0.027 A 
ATOM      5  C5  DEN d   1      -0.774   2.974   1.155  0.00  0.00    -0.003 A 
ATOM      6  C6  DEN d   1      -1.802   2.653   2.002  0.00  0.00     0.001 A 
ATOM      7  C7  DEN d   1      -1.859   1.401   2.556  0.00  0.00     0.017 A 
ATOM      8  C8  DEN d   1      -0.888   0.475   2.195  0.00  0.00    -0.094 A 
ATOM      9  C9  DEN d   1       0.150   0.824   1.348  0.00  0.00    -0.072 A 
ENDROOT
TORSDOF 0
ENDMDL
