MODEL 1
REMARK minimizedAffinity -0.944753051
REMARK minimizedRMSD -1
REMARK  0 active torsions:
REMARK  status: ('A' for Active; 'I' for Inactive)
ROOT
ATOM      1  C1  DEN d   1       1.640  -0.629   0.678  0.00  0.00     0.130 A 
ATOM      2  C2  DEN d   1       2.339   0.461   0.003  0.00  0.00    -0.031 A 
ATOM      3  C3  DEN d   1       1.448   1.639  -0.004  0.00  0.00     0.027 A 
ATOM      4  C4  DEN d   1      -0.930   1.881   0.966  0.00  0.00     0.027 A 
ATOM      5  C5  DEN d   1      -1.946   1.224   1.623  0.00  0.00    -0.003 A 
ATOM      6  C6  DEN d   1      -1.853  -0.096   1.978  0.00  0.00     0.001 A 
ATOM      7  C7  DEN d   1      -0.700  -0.789   1.718  0.00  0.00     0.017 A 
ATOM      8  C8  DEN d   1       0.326  -0.135   1.049  0.00  0.00    -0.094 A 
ATOM      9  C9  DEN d   1       0.218   1.203   0.710  0.00  0.00    -0.072 A 
ENDROOT
TORSDOF 0
ENDMDL
