MODEL 1
REMARK minimizedAffinity -0.0634922013
REMARK minimizedRMSD -1
REMARK  0 active torsions:
REMARK  status: ('A' for Active; 'I' for Inactive)
ROOT
ATOM      1  C1  DEN d   1      -0.954   2.834   1.904  0.00  0.00     0.130 A 
ATOM      2  C2  DEN d   1       0.084   2.080   1.207  0.00  0.00    -0.031 A 
ATOM      3  C3  DEN d   1      -0.251   0.645   1.304  0.00  0.00     0.027 A 
ATOM      4  C4  DEN d   1      -2.269  -0.475   2.455  0.00  0.00     0.027 A 
ATOM      5  C5  DEN d   1      -3.412  -0.247   3.188  0.00  0.00    -0.003 A 
ATOM      6  C6  DEN d   1      -3.795   1.011   3.571  0.00  0.00     0.001 A 
ATOM      7  C7  DEN d   1      -3.052   2.094   3.183  0.00  0.00     0.017 A 
ATOM      8  C8  DEN d   1      -1.894   1.871   2.449  0.00  0.00    -0.094 A 
ATOM      9  C9  DEN d   1      -1.530   0.593   2.062  0.00  0.00    -0.072 A 
ENDROOT
TORSDOF 0
ENDMDL
