MODEL 1
REMARK minimizedAffinity -0.391457111
REMARK minimizedRMSD -1
REMARK  0 active torsions:
REMARK  status: ('A' for Active; 'I' for Inactive)
ROOT
ATOM      1  C1  DEN d   1      -0.183  -0.572   1.113  0.00  0.00     0.130 A 
ATOM      2  C2  DEN d   1       0.919   0.275   0.665  0.00  0.00    -0.031 A 
ATOM      3  C3  DEN d   1       0.628   1.661   1.081  0.00  0.00     0.027 A 
ATOM      4  C4  DEN d   1      -1.409   2.573   2.373  0.00  0.00     0.027 A 
ATOM      5  C5  DEN d   1      -2.611   2.237   2.957  0.00  0.00    -0.003 A 
ATOM      6  C6  DEN d   1      -3.099   0.958   2.938  0.00  0.00     0.001 A 
ATOM      7  C7  DEN d   1      -2.361  -0.042   2.361  0.00  0.00     0.017 A 
ATOM      8  C8  DEN d   1      -1.152   0.291   1.764  0.00  0.00    -0.094 A 
ATOM      9  C9  DEN d   1      -0.670   1.588   1.805  0.00  0.00    -0.072 A 
ENDROOT
TORSDOF 0
ENDMDL
