MODEL 1
REMARK minimizedAffinity 2.90680885
REMARK minimizedRMSD -1
REMARK  0 active torsions:
REMARK  status: ('A' for Active; 'I' for Inactive)
ROOT
ATOM      1  C1  DEN d   1       2.457  -0.959   0.983  0.00  0.00     0.130 A 
ATOM      2  C2  DEN d   1       3.043   0.042   0.096  0.00  0.00    -0.031 A 
ATOM      3  C3  DEN d   1       2.049   1.116  -0.100  0.00  0.00     0.027 A 
ATOM      4  C4  DEN d   1      -0.326   1.329   0.882  0.00  0.00     0.027 A 
ATOM      5  C5  DEN d   1      -1.269   0.721   1.681  0.00  0.00    -0.003 A 
ATOM      6  C6  DEN d   1      -1.051  -0.496   2.271  0.00  0.00     0.001 A 
ATOM      7  C7  DEN d   1       0.156  -1.123   2.107  0.00  0.00     0.017 A 
ATOM      8  C8  DEN d   1       1.109  -0.520   1.297  0.00  0.00    -0.094 A 
ATOM      9  C9  DEN d   1       0.874   0.716   0.720  0.00  0.00    -0.072 A 
ENDROOT
TORSDOF 0
ENDMDL
