MODEL 1
REMARK minimizedAffinity 0.0431720652
REMARK minimizedRMSD -1
REMARK  0 active torsions:
REMARK  status: ('A' for Active; 'I' for Inactive)
ROOT
ATOM      1  C1  DEN d   1       0.600   1.535   0.777  0.00  0.00     0.130 A 
ATOM      2  C2  DEN d   1       0.062   0.538   1.700  0.00  0.00    -0.031 A 
ATOM      3  C3  DEN d   1       0.827  -0.712   1.517  0.00  0.00     0.027 A 
ATOM      4  C4  DEN d   1       2.783  -1.198  -0.092  0.00  0.00     0.027 A 
ATOM      5  C5  DEN d   1       3.583  -0.666  -1.079  0.00  0.00    -0.003 A 
ATOM      6  C6  DEN d   1       3.425   0.616  -1.536  0.00  0.00     0.001 A 
ATOM      7  C7  DEN d   1       2.472   1.424  -0.974  0.00  0.00     0.017 A 
ATOM      8  C8  DEN d   1       1.656   0.892   0.016  0.00  0.00    -0.094 A 
ATOM      9  C9  DEN d   1       1.840  -0.402   0.473  0.00  0.00    -0.072 A 
ENDROOT
TORSDOF 0
ENDMDL
