MODEL 1
REMARK minimizedAffinity -1.77557373
REMARK minimizedRMSD -1
REMARK  0 active torsions:
REMARK  status: ('A' for Active; 'I' for Inactive)
ROOT
ATOM      1  C1  DEN d   1      -0.070   2.745   1.816  0.00  0.00     0.130 A 
ATOM      2  C2  DEN d   1       1.079   2.165   1.125  0.00  0.00    -0.031 A 
ATOM      3  C3  DEN d   1       0.872   0.706   1.039  0.00  0.00     0.027 A 
ATOM      4  C4  DEN d   1      -1.108  -0.705   1.900  0.00  0.00     0.027 A 
ATOM      5  C5  DEN d   1      -2.315  -0.660   2.562  0.00  0.00    -0.003 A 
ATOM      6  C6  DEN d   1      -2.838   0.509   3.048  0.00  0.00     0.001 A 
ATOM      7  C7  DEN d   1      -2.173   1.689   2.839  0.00  0.00     0.017 A 
ATOM      8  C8  DEN d   1      -0.952   1.650   2.178  0.00  0.00    -0.094 A 
ATOM      9  C9  DEN d   1      -0.446   0.459   1.684  0.00  0.00    -0.072 A 
ENDROOT
TORSDOF 0
ENDMDL
