MODEL 1
REMARK minimizedAffinity -6.56547689
REMARK minimizedRMSD -1
REMARK  0 active torsions:
REMARK  status: ('A' for Active; 'I' for Inactive)
ROOT
ATOM      1  C1  DEN d   1      -0.161   3.010   1.854  0.00  0.00     0.130 A 
ATOM      2  C2  DEN d   1       0.945   2.416   1.108  0.00  0.00    -0.031 A 
ATOM      3  C3  DEN d   1       0.673   0.972   0.960  0.00  0.00     0.027 A 
ATOM      4  C4  DEN d   1      -1.346  -0.393   1.805  0.00  0.00     0.027 A 
ATOM      5  C5  DEN d   1      -2.533  -0.328   2.500  0.00  0.00    -0.003 A 
ATOM      6  C6  DEN d   1      -2.993   0.838   3.053  0.00  0.00     0.001 A 
ATOM      7  C7  DEN d   1      -2.282   1.997   2.881  0.00  0.00     0.017 A 
ATOM      8  C8  DEN d   1      -1.080   1.937   2.188  0.00  0.00    -0.094 A 
ATOM      9  C9  DEN d   1      -0.639   0.751   1.626  0.00  0.00    -0.072 A 
ENDROOT
TORSDOF 0
ENDMDL
