MODEL 1
REMARK minimizedAffinity -5.38107872
REMARK minimizedRMSD -1
REMARK  0 active torsions:
REMARK  status: ('A' for Active; 'I' for Inactive)
ROOT
ATOM      1  C1  DEN d   1       0.400   1.486   0.908  0.00  0.00     0.130 A 
ATOM      2  C2  DEN d   1       0.680   0.074   0.660  0.00  0.00    -0.031 A 
ATOM      3  C3  DEN d   1      -0.395  -0.721   1.289  0.00  0.00     0.027 A 
ATOM      4  C4  DEN d   1      -2.455   0.093   2.610  0.00  0.00     0.027 A 
ATOM      5  C5  DEN d   1      -3.113   1.204   3.091  0.00  0.00    -0.003 A 
ATOM      6  C6  DEN d   1      -2.632   2.473   2.909  0.00  0.00     0.001 A 
ATOM      7  C7  DEN d   1      -1.483   2.667   2.189  0.00  0.00     0.017 A 
ATOM      8  C8  DEN d   1      -0.810   1.552   1.707  0.00  0.00    -0.094 A 
ATOM      9  C9  DEN d   1      -1.318   0.278   1.891  0.00  0.00    -0.072 A 
ENDROOT
TORSDOF 0
ENDMDL
