MODEL 1
REMARK minimizedAffinity 1.76246476
REMARK minimizedRMSD -1
REMARK  0 active torsions:
REMARK  status: ('A' for Active; 'I' for Inactive)
ROOT
ATOM      1  C1  DEN d   1      -2.159   0.971   3.252  0.00  0.00     0.130 A 
ATOM      2  C2  DEN d   1      -2.866   2.188   2.863  0.00  0.00    -0.031 A 
ATOM      3  C3  DEN d   1      -2.015   2.925   1.908  0.00  0.00     0.027 A 
ATOM      4  C4  DEN d   1       0.315   2.301   0.994  0.00  0.00     0.027 A 
ATOM      5  C5  DEN d   1       1.327   1.368   1.043  0.00  0.00    -0.003 A 
ATOM      6  C6  DEN d   1       1.263   0.263   1.851  0.00  0.00     0.001 A 
ATOM      7  C7  DEN d   1       0.144   0.041   2.609  0.00  0.00     0.017 A 
ATOM      8  C8  DEN d   1      -0.877   0.981   2.571  0.00  0.00    -0.094 A 
ATOM      9  C9  DEN d   1      -0.799   2.085   1.739  0.00  0.00    -0.072 A 
ENDROOT
TORSDOF 0
ENDMDL
