MODEL 1
REMARK minimizedAffinity 0.465159178
REMARK minimizedRMSD -1
REMARK  0 active torsions:
REMARK  status: ('A' for Active; 'I' for Inactive)
ROOT
ATOM      1  C1  DEN d   1       1.071   1.982   1.200  0.00  0.00     0.130 A 
ATOM      2  C2  DEN d   1       1.614   0.784   0.566  0.00  0.00    -0.031 A 
ATOM      3  C3  DEN d   1       0.577  -0.266   0.609  0.00  0.00     0.027 A 
ATOM      4  C4  DEN d   1      -1.807  -0.152   1.587  0.00  0.00     0.027 A 
ATOM      5  C5  DEN d   1      -2.716   0.652   2.240  0.00  0.00    -0.003 A 
ATOM      6  C6  DEN d   1      -2.416   1.933   2.619  0.00  0.00     0.001 A 
ATOM      7  C7  DEN d   1      -1.192   2.465   2.308  0.00  0.00     0.017 A 
ATOM      8  C8  DEN d   1      -0.269   1.658   1.657  0.00  0.00    -0.094 A 
ATOM      9  C9  DEN d   1      -0.595   0.369   1.270  0.00  0.00    -0.072 A 
ENDROOT
TORSDOF 0
ENDMDL
