MODEL 1
REMARK minimizedAffinity 2.76669574
REMARK minimizedRMSD -1
REMARK  0 active torsions:
REMARK  status: ('A' for Active; 'I' for Inactive)
ROOT
ATOM      1  C1  DEN d   1      -2.156   1.868   3.766  0.00  0.00     0.130 A 
ATOM      2  C2  DEN d   1      -2.299   0.925   2.660  0.00  0.00    -0.031 A 
ATOM      3  C3  DEN d   1      -3.693   0.438   2.652  0.00  0.00     0.027 A 
ATOM      4  C4  DEN d   1      -5.636   1.053   4.233  0.00  0.00     0.027 A 
ATOM      5  C5  DEN d   1      -5.995   1.803   5.331  0.00  0.00    -0.003 A 
ATOM      6  C6  DEN d   1      -5.099   2.595   5.999  0.00  0.00     0.001 A 
ATOM      7  C7  DEN d   1      -3.809   2.690   5.548  0.00  0.00     0.017 A 
ATOM      8  C8  DEN d   1      -3.437   1.931   4.446  0.00  0.00    -0.094 A 
ATOM      9  C9  DEN d   1      -4.361   1.146   3.777  0.00  0.00    -0.072 A 
ENDROOT
TORSDOF 0
ENDMDL
