MODEL 1
REMARK minimizedAffinity 3.18648243
REMARK minimizedRMSD -1
REMARK  0 active torsions:
REMARK  status: ('A' for Active; 'I' for Inactive)
ROOT
ATOM      1  C1  DEN d   1      -2.391   0.511   3.018  0.00  0.00     0.130 A 
ATOM      2  C2  DEN d   1      -3.357   1.606   3.051  0.00  0.00    -0.031 A 
ATOM      3  C3  DEN d   1      -2.668   2.836   2.612  0.00  0.00     0.027 A 
ATOM      4  C4  DEN d   1      -0.213   3.149   1.885  0.00  0.00     0.027 A 
ATOM      5  C5  DEN d   1       0.995   2.511   1.705  0.00  0.00    -0.003 A 
ATOM      6  C6  DEN d   1       1.166   1.180   1.980  0.00  0.00     0.001 A 
ATOM      7  C7  DEN d   1       0.100   0.433   2.408  0.00  0.00     0.017 A 
ATOM      8  C8  DEN d   1      -1.119   1.071   2.599  0.00  0.00    -0.094 A 
ATOM      9  C9  DEN d   1      -1.275   2.415   2.303  0.00  0.00    -0.072 A 
ENDROOT
TORSDOF 0
ENDMDL
