MODEL 1
REMARK minimizedAffinity -1.58967137
REMARK minimizedRMSD -1
REMARK  1 active torsions:
REMARK  status: ('A' for Active; 'I' for Inactive)
REMARK    1  A    between atoms: C1_2  and  C2_3 
ROOT
ATOM      1  C2  UNL d   1       0.457  -0.903  -0.602  0.00  0.00    -0.077 A 
ATOM      2  C3  UNL d   1       1.665  -0.989  -1.309  0.00  0.00     0.002 A 
ATOM      3  C4  UNL d   1       2.851  -0.519  -0.741  0.00  0.00     0.002 A 
ATOM      4  C5  UNL d   1       2.841   0.035   0.537  0.00  0.00    -0.004 A 
ATOM      5  C6  UNL d   1       1.645   0.127   1.248  0.00  0.00     0.002 A 
ATOM      6  C7  UNL d   1       0.459  -0.341   0.681  0.00  0.00     0.002 A 
ENDROOT
BRANCH   1   7
ATOM      7  C1  UNL d   1      -0.814  -1.455  -1.193  0.00  0.00     0.055 C 
ATOM      8  C   UNL d   1      -1.701  -0.342  -1.733  0.00  0.00     0.019 C 
ENDBRANCH   1   7
TORSDOF 1
ENDMDL
