MODEL 1
REMARK minimizedAffinity 0.231275186
REMARK minimizedRMSD -1
REMARK  1 active torsions:
REMARK  status: ('A' for Active; 'I' for Inactive)
REMARK    1  A    between atoms: C1_2  and  C2_3 
ROOT
ATOM      1  C2  UNL d   1       0.437  -0.367   1.625  0.00  0.00    -0.077 A 
ATOM      2  C3  UNL d   1      -0.394  -0.710   0.550  0.00  0.00     0.002 A 
ATOM      3  C4  UNL d   1      -1.749  -0.375   0.570  0.00  0.00     0.002 A 
ATOM      4  C5  UNL d   1      -2.284   0.308   1.661  0.00  0.00    -0.004 A 
ATOM      5  C6  UNL d   1      -1.465   0.651   2.737  0.00  0.00     0.002 A 
ATOM      6  C7  UNL d   1      -0.111   0.316   2.718  0.00  0.00     0.002 A 
ENDROOT
BRANCH   1   7
ATOM      7  C1  UNL d   1       1.910  -0.684   1.583  0.00  0.00     0.055 C 
ATOM      8  C   UNL d   1       2.305  -1.299   0.249  0.00  0.00     0.019 C 
ENDBRANCH   1   7
TORSDOF 1
ENDMDL
