MODEL 1
REMARK minimizedAffinity 5.37123251
REMARK minimizedRMSD -1
REMARK  1 active torsions:
REMARK  status: ('A' for Active; 'I' for Inactive)
REMARK    1  A    between atoms: C1_2  and  C2_3 
ROOT
ATOM      1  C2  UNL d   1      -0.797  -3.062  -4.256  0.00  0.00    -0.077 A 
ATOM      2  C3  UNL d   1      -1.950  -3.734  -4.686  0.00  0.00     0.002 A 
ATOM      3  C4  UNL d   1      -1.906  -5.099  -4.973  0.00  0.00     0.002 A 
ATOM      4  C5  UNL d   1      -0.713  -5.805  -4.828  0.00  0.00    -0.004 A 
ATOM      5  C6  UNL d   1       0.439  -5.145  -4.403  0.00  0.00     0.002 A 
ATOM      6  C7  UNL d   1       0.397  -3.780  -4.117  0.00  0.00     0.002 A 
ENDROOT
BRANCH   1   7
ATOM      7  C1  UNL d   1      -0.854  -1.599  -3.899  0.00  0.00     0.055 C 
ATOM      8  C   UNL d   1      -0.075  -0.755  -4.897  0.00  0.00     0.019 C 
ENDBRANCH   1   7
TORSDOF 1
ENDMDL
