MODEL 1
REMARK minimizedAffinity -0.130169794
REMARK minimizedRMSD -1
REMARK  1 active torsions:
REMARK  status: ('A' for Active; 'I' for Inactive)
REMARK    1  A    between atoms: C1_2  and  C2_3 
ROOT
ATOM      1  C2  UNL d   1      -3.329   0.299   0.128  0.00  0.00    -0.077 A 
ATOM      2  C3  UNL d   1      -3.054  -1.035   0.460  0.00  0.00     0.002 A 
ATOM      3  C4  UNL d   1      -2.393  -1.345   1.650  0.00  0.00     0.002 A 
ATOM      4  C5  UNL d   1      -2.005  -0.327   2.519  0.00  0.00    -0.004 A 
ATOM      5  C6  UNL d   1      -2.272   1.003   2.197  0.00  0.00     0.002 A 
ATOM      6  C7  UNL d   1      -2.931   1.315   1.007  0.00  0.00     0.002 A 
ENDROOT
BRANCH   1   7
ATOM      7  C1  UNL d   1      -4.085   0.632  -1.131  0.00  0.00     0.055 C 
ATOM      8  C   UNL d   1      -5.389   1.352  -0.820  0.00  0.00     0.019 C 
ENDBRANCH   1   7
TORSDOF 1
ENDMDL
