MODEL 1
REMARK minimizedAffinity -1.2454319
REMARK minimizedRMSD -1
REMARK  2 active torsions:
REMARK  status: ('A' for Active; 'I' for Inactive)
REMARK    1  A    between atoms: C2'_3  and  C1'_4 
REMARK    2  A    between atoms: C1'_4  and  C1_5 
ROOT
ATOM      1  C1  I4B d   1      -0.451   0.228   0.014  0.00  0.00    -0.075 A 
ATOM      2  C2  I4B d   1      -1.175   1.232  -0.578  0.00  0.00     0.003 A 
ATOM      3  C3  I4B d   1      -0.528   2.195  -1.389  0.00  0.00     0.002 A 
ATOM      4  C4  I4B d   1       0.843   2.146  -1.539  0.00  0.00    -0.004 A 
ATOM      5  C5  I4B d   1       1.573   1.114  -0.956  0.00  0.00     0.002 A 
ATOM      6  C6  I4B d   1       0.921   0.141  -0.185  0.00  0.00     0.003 A 
ENDROOT
BRANCH   1   7
ATOM      7  C1' I4B d   1      -1.162  -0.753   0.891  0.00  0.00     0.060 C 
BRANCH   7   8
ATOM      8  C2' I4B d   1      -0.832  -0.418   2.331  0.00  0.00    -0.013 C 
ATOM      9  C4' I4B d   1       0.470  -1.048   2.753  0.00  0.00     0.013 C 
ATOM     10  C3' I4B d   1      -0.776   1.076   2.457  0.00  0.00     0.013 C 
ENDBRANCH   7   8
ENDBRANCH   1   7
TORSDOF 2
ENDMDL
