MODEL 1
REMARK minimizedAffinity -4.66413069
REMARK minimizedRMSD -1
REMARK  2 active torsions:
REMARK  status: ('A' for Active; 'I' for Inactive)
REMARK    1  A    between atoms: C2'_3  and  C1'_4 
REMARK    2  A    between atoms: C1'_4  and  C1_5 
ROOT
ATOM      1  C1  I4B d   1      -0.250  -0.033  -0.059  0.00  0.00    -0.075 A 
ATOM      2  C2  I4B d   1       0.107   0.403   1.192  0.00  0.00     0.003 A 
ATOM      3  C3  I4B d   1      -0.846   1.041   2.023  0.00  0.00     0.002 A 
ATOM      4  C4  I4B d   1      -2.121   1.267   1.547  0.00  0.00    -0.004 A 
ATOM      5  C5  I4B d   1      -2.487   0.805   0.286  0.00  0.00     0.002 A 
ATOM      6  C6  I4B d   1      -1.550   0.140  -0.518  0.00  0.00     0.003 A 
ENDROOT
BRANCH   1   7
ATOM      7  C1' I4B d   1       0.789  -0.673  -0.923  0.00  0.00     0.060 C 
BRANCH   7   8
ATOM      8  C2' I4B d   1       0.531  -2.166  -0.934  0.00  0.00    -0.013 C 
ATOM      9  C4' I4B d   1      -0.168  -2.590  -2.199  0.00  0.00     0.013 C 
ATOM     10  C3' I4B d   1       1.850  -2.865  -0.785  0.00  0.00     0.013 C 
ENDBRANCH   7   8
ENDBRANCH   1   7
TORSDOF 2
ENDMDL
