MODEL 1
REMARK minimizedAffinity -3.35312939
REMARK minimizedRMSD -1
REMARK  2 active torsions:
REMARK  status: ('A' for Active; 'I' for Inactive)
REMARK    1  A    between atoms: C2'_3  and  C1'_4 
REMARK    2  A    between atoms: C1'_4  and  C1_5 
ROOT
ATOM      1  C1  I4B d   1       0.161  -0.043  -0.215  0.00  0.00    -0.075 A 
ATOM      2  C2  I4B d   1       0.317  -0.421   1.095  0.00  0.00     0.003 A 
ATOM      3  C3  I4B d   1      -0.450   0.197   2.112  0.00  0.00     0.002 A 
ATOM      4  C4  I4B d   1      -1.320   1.217   1.781  0.00  0.00    -0.004 A 
ATOM      5  C5  I4B d   1      -1.494   1.583   0.450  0.00  0.00     0.002 A 
ATOM      6  C6  I4B d   1      -0.758   0.941  -0.557  0.00  0.00     0.003 A 
ENDROOT
BRANCH   1   7
ATOM      7  C1' I4B d   1       1.012  -0.694  -1.259  0.00  0.00     0.060 C 
BRANCH   7   8
ATOM      8  C2' I4B d   1       0.665  -2.169  -1.291  0.00  0.00    -0.013 C 
ATOM      9  C4' I4B d   1       0.043  -2.554  -2.607  0.00  0.00     0.013 C 
ATOM     10  C3' I4B d   1       1.923  -2.945  -1.039  0.00  0.00     0.013 C 
ENDBRANCH   7   8
ENDBRANCH   1   7
TORSDOF 2
ENDMDL
