MODEL 1
REMARK minimizedAffinity -4.76230955
REMARK minimizedRMSD -1
REMARK  2 active torsions:
REMARK  status: ('A' for Active; 'I' for Inactive)
REMARK    1  A    between atoms: C2'_3  and  C1'_4 
REMARK    2  A    between atoms: C1'_4  and  C1_5 
ROOT
ATOM      1  C1  I4B d   1       0.625  -0.940  -0.827  0.00  0.00    -0.075 A 
ATOM      2  C2  I4B d   1       1.887  -1.480  -0.862  0.00  0.00     0.003 A 
ATOM      3  C3  I4B d   1       2.145  -2.638  -1.635  0.00  0.00     0.002 A 
ATOM      4  C4  I4B d   1       1.109  -3.249  -2.311  0.00  0.00    -0.004 A 
ATOM      5  C5  I4B d   1      -0.164  -2.688  -2.292  0.00  0.00     0.002 A 
ATOM      6  C6  I4B d   1      -0.406  -1.519  -1.556  0.00  0.00     0.003 A 
ENDROOT
BRANCH   1   7
ATOM      7  C1' I4B d   1       0.380   0.264   0.026  0.00  0.00     0.060 C 
BRANCH   7   8
ATOM      8  C2' I4B d   1      -0.272  -0.200   1.313  0.00  0.00    -0.013 C 
ATOM      9  C4' I4B d   1       0.748  -0.761   2.268  0.00  0.00     0.013 C 
ATOM     10  C3' I4B d   1      -0.991   0.970   1.915  0.00  0.00     0.013 C 
ENDBRANCH   7   8
ENDBRANCH   1   7
TORSDOF 2
ENDMDL
