MODEL 1
REMARK minimizedAffinity -3.40895486
REMARK minimizedRMSD -1
REMARK  2 active torsions:
REMARK  status: ('A' for Active; 'I' for Inactive)
REMARK    1  A    between atoms: C2'_3  and  C1'_4 
REMARK    2  A    between atoms: C1'_4  and  C1_5 
ROOT
ATOM      1  C1  I4B d   1       0.628  -0.811  -0.677  0.00  0.00    -0.075 A 
ATOM      2  C2  I4B d   1      -0.058  -1.056   0.486  0.00  0.00     0.003 A 
ATOM      3  C3  I4B d   1      -0.503   0.019   1.292  0.00  0.00     0.002 A 
ATOM      4  C4  I4B d   1      -0.198   1.314   0.926  0.00  0.00    -0.004 A 
ATOM      5  C5  I4B d   1       0.478   1.563  -0.265  0.00  0.00     0.002 A 
ATOM      6  C6  I4B d   1       0.883   0.494  -1.078  0.00  0.00     0.003 A 
ENDROOT
BRANCH   1   7
ATOM      7  C1' I4B d   1       1.112  -1.971  -1.488  0.00  0.00     0.060 C 
BRANCH   7   8
ATOM      8  C2' I4B d   1       0.118  -2.205  -2.607  0.00  0.00    -0.013 C 
ATOM      9  C4' I4B d   1       0.686  -1.782  -3.937  0.00  0.00     0.013 C 
ATOM     10  C3' I4B d   1      -0.242  -3.660  -2.610  0.00  0.00     0.013 C 
ENDBRANCH   7   8
ENDBRANCH   1   7
TORSDOF 2
ENDMDL
