MODEL 1
REMARK minimizedAffinity -5.78729439
REMARK minimizedRMSD -1
REMARK  2 active torsions:
REMARK  status: ('A' for Active; 'I' for Inactive)
REMARK    1  A    between atoms: C2'_3  and  C1'_4 
REMARK    2  A    between atoms: C1'_4  and  C1_5 
ROOT
ATOM      1  C1  I4B d   1       0.376  -0.097  -0.167  0.00  0.00    -0.075 A 
ATOM      2  C2  I4B d   1      -0.039   1.194  -0.383  0.00  0.00     0.003 A 
ATOM      3  C3  I4B d   1      -0.820   1.864   0.589  0.00  0.00     0.002 A 
ATOM      4  C4  I4B d   1      -1.203   1.193   1.733  0.00  0.00    -0.004 A 
ATOM      5  C5  I4B d   1      -0.762  -0.107   1.961  0.00  0.00     0.002 A 
ATOM      6  C6  I4B d   1       0.043  -0.753   1.011  0.00  0.00     0.003 A 
ENDROOT
BRANCH   1   7
ATOM      7  C1' I4B d   1       1.172  -0.785  -1.230  0.00  0.00     0.060 C 
BRANCH   7   8
ATOM      8  C2' I4B d   1       0.534  -2.134  -1.491  0.00  0.00    -0.013 C 
ATOM      9  C4' I4B d   1      -0.212  -2.140  -2.800  0.00  0.00     0.013 C 
ATOM     10  C3' I4B d   1       1.618  -3.170  -1.482  0.00  0.00     0.013 C 
ENDBRANCH   7   8
ENDBRANCH   1   7
TORSDOF 2
ENDMDL
