MODEL 1
REMARK minimizedAffinity -6.50303364
REMARK minimizedRMSD -1
REMARK  2 active torsions:
REMARK  status: ('A' for Active; 'I' for Inactive)
REMARK    1  A    between atoms: C2'_3  and  C1'_4 
REMARK    2  A    between atoms: C1'_4  and  C1_5 
ROOT
ATOM      1  C1  I4B d   1       0.049   0.168  -0.086  0.00  0.00    -0.075 A 
ATOM      2  C2  I4B d   1      -0.290   1.459  -0.405  0.00  0.00     0.003 A 
ATOM      3  C3  I4B d   1      -1.211   2.174   0.400  0.00  0.00     0.002 A 
ATOM      4  C4  I4B d   1      -1.802   1.546   1.477  0.00  0.00    -0.004 A 
ATOM      5  C5  I4B d   1      -1.439   0.245   1.812  0.00  0.00     0.002 A 
ATOM      6  C6  I4B d   1      -0.499  -0.445   1.033  0.00  0.00     0.003 A 
ENDROOT
BRANCH   1   7
ATOM      7  C1' I4B d   1       0.999  -0.569  -0.976  0.00  0.00     0.060 C 
BRANCH   7   8
ATOM      8  C2' I4B d   1       0.476  -1.980  -1.151  0.00  0.00    -0.013 C 
ATOM      9  C4' I4B d   1      -0.275  -2.127  -2.448  0.00  0.00     0.013 C 
ATOM     10  C3' I4B d   1       1.645  -2.917  -1.093  0.00  0.00     0.013 C 
ENDBRANCH   7   8
ENDBRANCH   1   7
TORSDOF 2
ENDMDL
