MODEL 1
REMARK minimizedAffinity -1.99796057
REMARK minimizedRMSD -1
REMARK  2 active torsions:
REMARK  status: ('A' for Active; 'I' for Inactive)
REMARK    1  A    between atoms: C2'_3  and  C1'_4 
REMARK    2  A    between atoms: C1'_4  and  C1_5 
ROOT
ATOM      1  C1  I4B d   1       0.353  -0.287   0.040  0.00  0.00    -0.075 A 
ATOM      2  C2  I4B d   1      -0.174   0.611  -0.854  0.00  0.00     0.003 A 
ATOM      3  C3  I4B d   1      -1.248   1.451  -0.472  0.00  0.00     0.002 A 
ATOM      4  C4  I4B d   1      -1.794   1.324   0.789  0.00  0.00    -0.004 A 
ATOM      5  C5  I4B d   1      -1.245   0.429   1.701  0.00  0.00     0.002 A 
ATOM      6  C6  I4B d   1      -0.156  -0.374   1.329  0.00  0.00     0.003 A 
ENDROOT
BRANCH   1   7
ATOM      7  C1' I4B d   1       1.465  -1.182  -0.408  0.00  0.00     0.060 C 
BRANCH   7   8
ATOM      8  C2' I4B d   1       0.938  -2.601  -0.443  0.00  0.00    -0.013 C 
ATOM      9  C4' I4B d   1       0.236  -2.891  -1.743  0.00  0.00     0.013 C 
ATOM     10  C3' I4B d   1       2.096  -3.531  -0.233  0.00  0.00     0.013 C 
ENDBRANCH   7   8
ENDBRANCH   1   7
TORSDOF 2
ENDMDL
