MODEL 1
REMARK minimizedAffinity -3.53343725
REMARK minimizedRMSD -1
REMARK  2 active torsions:
REMARK  status: ('A' for Active; 'I' for Inactive)
REMARK    1  A    between atoms: C2'_3  and  C1'_4 
REMARK    2  A    between atoms: C1'_4  and  C1_5 
ROOT
ATOM      1  C1  I4B d   1       0.148  -0.094  -0.095  0.00  0.00    -0.075 A 
ATOM      2  C2  I4B d   1      -0.328   1.183  -0.260  0.00  0.00     0.003 A 
ATOM      3  C3  I4B d   1      -1.212   1.743   0.694  0.00  0.00     0.002 A 
ATOM      4  C4  I4B d   1      -1.630   0.978   1.764  0.00  0.00    -0.004 A 
ATOM      5  C5  I4B d   1      -1.128  -0.308   1.942  0.00  0.00     0.002 A 
ATOM      6  C6  I4B d   1      -0.224  -0.844   1.013  0.00  0.00     0.003 A 
ENDROOT
BRANCH   1   7
ATOM      7  C1' I4B d   1       1.053  -0.666  -1.140  0.00  0.00     0.060 C 
BRANCH   7   8
ATOM      8  C2' I4B d   1       0.595  -2.081  -1.430  0.00  0.00    -0.013 C 
ATOM      9  C4' I4B d   1      -0.185  -2.148  -2.716  0.00  0.00     0.013 C 
ATOM     10  C3' I4B d   1       1.810  -2.958  -1.487  0.00  0.00     0.013 C 
ENDBRANCH   7   8
ENDBRANCH   1   7
TORSDOF 2
ENDMDL
