MODEL 1
REMARK minimizedAffinity -1.40877402
REMARK minimizedRMSD -1
REMARK  2 active torsions:
REMARK  status: ('A' for Active; 'I' for Inactive)
REMARK    1  A    between atoms: C2'_3  and  C1'_4 
REMARK    2  A    between atoms: C1'_4  and  C1_5 
ROOT
ATOM      1  C1  I4B d   1       0.075  -0.822   0.109  0.00  0.00    -0.075 A 
ATOM      2  C2  I4B d   1      -1.275  -1.054   0.027  0.00  0.00     0.003 A 
ATOM      3  C3  I4B d   1      -2.116  -0.765   1.130  0.00  0.00     0.002 A 
ATOM      4  C4  I4B d   1      -1.561  -0.298   2.303  0.00  0.00    -0.004 A 
ATOM      5  C5  I4B d   1      -0.195  -0.042   2.377  0.00  0.00     0.002 A 
ATOM      6  C6  I4B d   1       0.627  -0.294   1.269  0.00  0.00     0.003 A 
ENDROOT
BRANCH   1   7
ATOM      7  C1' I4B d   1       0.938  -1.169  -1.063  0.00  0.00     0.060 C 
BRANCH   7   8
ATOM      8  C2' I4B d   1       0.661  -2.611  -1.436  0.00  0.00    -0.013 C 
ATOM      9  C4' I4B d   1       0.205  -2.726  -2.866  0.00  0.00     0.013 C 
ATOM     10  C3' I4B d   1       1.916  -3.399  -1.202  0.00  0.00     0.013 C 
ENDBRANCH   7   8
ENDBRANCH   1   7
TORSDOF 2
ENDMDL
