MODEL 1
REMARK minimizedAffinity -6.22651625
REMARK minimizedRMSD -1
REMARK  2 active torsions:
REMARK  status: ('A' for Active; 'I' for Inactive)
REMARK    1  A    between atoms: C2'_3  and  C1'_4 
REMARK    2  A    between atoms: C1'_4  and  C1_5 
ROOT
ATOM      1  C1  I4B d   1      -0.743   0.980  -0.226  0.00  0.00    -0.075 A 
ATOM      2  C2  I4B d   1       0.073   0.112   0.455  0.00  0.00     0.003 A 
ATOM      3  C3  I4B d   1       0.042   0.066   1.870  0.00  0.00     0.002 A 
ATOM      4  C4  I4B d   1      -0.779   0.935   2.560  0.00  0.00    -0.004 A 
ATOM      5  C5  I4B d   1      -1.622   1.799   1.867  0.00  0.00     0.002 A 
ATOM      6  C6  I4B d   1      -1.614   1.813   0.465  0.00  0.00     0.003 A 
ENDROOT
BRANCH   1   7
ATOM      7  C1' I4B d   1      -0.661   1.025  -1.719  0.00  0.00     0.060 C 
BRANCH   7   8
ATOM      8  C2' I4B d   1       0.141   2.252  -2.105  0.00  0.00    -0.013 C 
ATOM      9  C4' I4B d   1      -0.268   3.450  -1.289  0.00  0.00     0.013 C 
ATOM     10  C3' I4B d   1       1.594   1.935  -1.911  0.00  0.00     0.013 C 
ENDBRANCH   7   8
ENDBRANCH   1   7
TORSDOF 2
ENDMDL
