MODEL 1
REMARK minimizedAffinity -3.03125405
REMARK minimizedRMSD -1
REMARK  2 active torsions:
REMARK  status: ('A' for Active; 'I' for Inactive)
REMARK    1  A    between atoms: C2'_3  and  C1'_4 
REMARK    2  A    between atoms: C1'_4  and  C1_5 
ROOT
ATOM      1  C1  I4B d   1       0.782  -0.606  -0.224  0.00  0.00    -0.075 A 
ATOM      2  C2  I4B d   1      -0.500  -0.126  -0.325  0.00  0.00     0.003 A 
ATOM      3  C3  I4B d   1      -1.135   0.451   0.801  0.00  0.00     0.002 A 
ATOM      4  C4  I4B d   1      -0.475   0.483   2.012  0.00  0.00    -0.004 A 
ATOM      5  C5  I4B d   1       0.833   0.016   2.107  0.00  0.00     0.002 A 
ATOM      6  C6  I4B d   1       1.471  -0.521   0.979  0.00  0.00     0.003 A 
ENDROOT
BRANCH   1   7
ATOM      7  C1' I4B d   1       1.410  -1.240  -1.425  0.00  0.00     0.060 C 
BRANCH   7   8
ATOM      8  C2' I4B d   1       0.589  -2.459  -1.793  0.00  0.00    -0.013 C 
ATOM      9  C4' I4B d   1       0.350  -2.527  -3.278  0.00  0.00     0.013 C 
ATOM     10  C3' I4B d   1       1.321  -3.674  -1.306  0.00  0.00     0.013 C 
ENDBRANCH   7   8
ENDBRANCH   1   7
TORSDOF 2
ENDMDL
