MODEL 1
REMARK minimizedAffinity -4.30478239
REMARK minimizedRMSD -1
REMARK  2 active torsions:
REMARK  status: ('A' for Active; 'I' for Inactive)
REMARK    1  A    between atoms: C2'_3  and  C1'_4 
REMARK    2  A    between atoms: C1'_4  and  C1_5 
ROOT
ATOM      1  C1  I4B d   1       0.211  -0.048  -0.105  0.00  0.00    -0.075 A 
ATOM      2  C2  I4B d   1      -0.304  -0.712   0.981  0.00  0.00     0.003 A 
ATOM      3  C3  I4B d   1      -1.182  -0.048   1.871  0.00  0.00     0.002 A 
ATOM      4  C4  I4B d   1      -1.477   1.285   1.668  0.00  0.00    -0.004 A 
ATOM      5  C5  I4B d   1      -0.973   1.949   0.554  0.00  0.00     0.002 A 
ATOM      6  C6  I4B d   1      -0.133   1.276  -0.345  0.00  0.00     0.003 A 
ENDROOT
BRANCH   1   7
ATOM      7  C1' I4B d   1       1.161  -0.770  -1.006  0.00  0.00     0.060 C 
BRANCH   7   8
ATOM      8  C2' I4B d   1       0.497  -2.057  -1.451  0.00  0.00    -0.013 C 
ATOM      9  C4' I4B d   1      -0.218  -1.876  -2.764  0.00  0.00     0.013 C 
ATOM     10  C3' I4B d   1       1.556  -3.114  -1.552  0.00  0.00     0.013 C 
ENDBRANCH   7   8
ENDBRANCH   1   7
TORSDOF 2
ENDMDL
