MODEL 1
REMARK minimizedAffinity -5.67794704
REMARK minimizedRMSD -1
REMARK  2 active torsions:
REMARK  status: ('A' for Active; 'I' for Inactive)
REMARK    1  A    between atoms: C2'_3  and  C1'_4 
REMARK    2  A    between atoms: C1'_4  and  C1_5 
ROOT
ATOM      1  C1  I4B d   1      -0.499   0.661   0.515  0.00  0.00    -0.075 A 
ATOM      2  C2  I4B d   1      -1.462   0.714   1.492  0.00  0.00     0.003 A 
ATOM      3  C3  I4B d   1      -2.181   1.913   1.719  0.00  0.00     0.002 A 
ATOM      4  C4  I4B d   1      -1.873   3.040   0.985  0.00  0.00    -0.004 A 
ATOM      5  C5  I4B d   1      -0.912   2.977  -0.021  0.00  0.00     0.002 A 
ATOM      6  C6  I4B d   1      -0.230   1.777  -0.266  0.00  0.00     0.003 A 
ENDROOT
BRANCH   1   7
ATOM      7  C1' I4B d   1       0.264  -0.611   0.324  0.00  0.00     0.060 C 
BRANCH   7   8
ATOM      8  C2' I4B d   1       0.840  -0.605  -1.077  0.00  0.00    -0.013 C 
ATOM      9  C4' I4B d   1       2.217   0.006  -1.098  0.00  0.00     0.013 C 
ATOM     10  C3' I4B d   1       0.868  -2.020  -1.573  0.00  0.00     0.013 C 
ENDBRANCH   7   8
ENDBRANCH   1   7
TORSDOF 2
ENDMDL
