MODEL 1
REMARK minimizedAffinity 2.37668896
REMARK minimizedRMSD -1
REMARK  2 active torsions:
REMARK  status: ('A' for Active; 'I' for Inactive)
REMARK    1  A    between atoms: C1_2  and  C2_3 
REMARK    2  A    between atoms: C2_3  and  C3_4 
ROOT
ATOM      1  C3  UNL d   1      -4.636  -0.824   2.619  0.00  0.00    -0.075 A 
ATOM      2  C4  UNL d   1      -5.596   0.160   2.344  0.00  0.00     0.002 A 
ATOM      3  C5  UNL d   1      -5.632   0.785   1.097  0.00  0.00     0.002 A 
ATOM      4  C6  UNL d   1      -4.705   0.442   0.115  0.00  0.00    -0.004 A 
ATOM      5  C7  UNL d   1      -3.737  -0.522   0.383  0.00  0.00     0.002 A 
ATOM      6  C8  UNL d   1      -3.700  -1.153   1.628  0.00  0.00     0.002 A 
ENDROOT
BRANCH   1   7
ATOM      7  C2  UNL d   1      -4.609  -1.526   3.956  0.00  0.00     0.056 C 
BRANCH   7   8
ATOM      8  C1  UNL d   1      -5.996  -1.769   4.560  0.00  0.00     0.007 C 
ATOM      9  C   UNL d   1      -5.999  -2.834   5.648  0.00  0.00     0.009 C 
ENDBRANCH   7   8
ENDBRANCH   1   7
TORSDOF 2
ENDMDL
