MODEL 1
REMARK minimizedAffinity 9.06052113
REMARK minimizedRMSD -1
REMARK  2 active torsions:
REMARK  status: ('A' for Active; 'I' for Inactive)
REMARK    1  A    between atoms: C1_2  and  C2_3 
REMARK    2  A    between atoms: C2_3  and  C3_4 
ROOT
ATOM      1  C3  UNL d   1      -4.021  -0.002   2.420  0.00  0.00    -0.075 A 
ATOM      2  C4  UNL d   1      -3.969  -1.231   3.094  0.00  0.00     0.002 A 
ATOM      3  C5  UNL d   1      -4.921  -1.548   4.064  0.00  0.00     0.002 A 
ATOM      4  C6  UNL d   1      -5.929  -0.639   4.378  0.00  0.00    -0.004 A 
ATOM      5  C7  UNL d   1      -5.981   0.592   3.726  0.00  0.00     0.002 A 
ATOM      6  C8  UNL d   1      -5.032   0.909   2.752  0.00  0.00     0.002 A 
ENDROOT
BRANCH   1   7
ATOM      7  C2  UNL d   1      -3.012   0.335   1.348  0.00  0.00     0.056 C 
BRANCH   7   8
ATOM      8  C1  UNL d   1      -3.288  -0.335  -0.002  0.00  0.00     0.007 C 
ATOM      9  C   UNL d   1      -4.138   0.519  -0.933  0.00  0.00     0.009 C 
ENDBRANCH   7   8
ENDBRANCH   1   7
TORSDOF 2
ENDMDL
