MODEL 1
REMARK minimizedAffinity 9.71137333
REMARK minimizedRMSD -1
REMARK  2 active torsions:
REMARK  status: ('A' for Active; 'I' for Inactive)
REMARK    1  A    between atoms: C1_2  and  C2_3 
REMARK    2  A    between atoms: C2_3  and  C3_4 
ROOT
ATOM      1  C3  UNL d   1       0.442   0.705   2.266  0.00  0.00    -0.075 A 
ATOM      2  C4  UNL d   1       1.142  -0.232   1.494  0.00  0.00     0.002 A 
ATOM      3  C5  UNL d   1       1.490  -1.473   2.029  0.00  0.00     0.002 A 
ATOM      4  C6  UNL d   1       1.152  -1.788   3.343  0.00  0.00    -0.004 A 
ATOM      5  C7  UNL d   1       0.471  -0.857   4.125  0.00  0.00     0.002 A 
ATOM      6  C8  UNL d   1       0.118   0.383   3.591  0.00  0.00     0.002 A 
ENDROOT
BRANCH   1   7
ATOM      7  C2  UNL d   1       0.037   2.039   1.684  0.00  0.00     0.056 C 
BRANCH   7   8
ATOM      8  C1  UNL d   1      -0.086   2.040   0.156  0.00  0.00     0.007 C 
ATOM      9  C   UNL d   1       0.286   3.376  -0.474  0.00  0.00     0.009 C 
ENDBRANCH   7   8
ENDBRANCH   1   7
TORSDOF 2
ENDMDL
