MODEL 1
REMARK minimizedAffinity -2.23444033
REMARK minimizedRMSD -1
REMARK  2 active torsions:
REMARK  status: ('A' for Active; 'I' for Inactive)
REMARK    1  A    between atoms: C1_2  and  C2_3 
REMARK    2  A    between atoms: C2_3  and  C3_4 
ROOT
ATOM      1  C3  UNL d   1      -5.544  -1.913   4.124  0.00  0.00    -0.075 A 
ATOM      2  C4  UNL d   1      -5.999  -0.587   4.149  0.00  0.00     0.002 A 
ATOM      3  C5  UNL d   1      -5.807   0.248   3.048  0.00  0.00     0.002 A 
ATOM      4  C6  UNL d   1      -5.151  -0.227   1.915  0.00  0.00    -0.004 A 
ATOM      5  C7  UNL d   1      -4.680  -1.538   1.886  0.00  0.00     0.002 A 
ATOM      6  C8  UNL d   1      -4.875  -2.378   2.984  0.00  0.00     0.002 A 
ENDROOT
BRANCH   1   7
ATOM      7  C2  UNL d   1      -5.775  -2.831   5.301  0.00  0.00     0.056 C 
BRANCH   7   8
ATOM      8  C1  UNL d   1      -4.990  -4.145   5.230  0.00  0.00     0.007 C 
ATOM      9  C   UNL d   1      -3.675  -4.102   5.999  0.00  0.00     0.009 C 
ENDBRANCH   7   8
ENDBRANCH   1   7
TORSDOF 2
ENDMDL
