MODEL 1
REMARK minimizedAffinity 4.15638542
REMARK minimizedRMSD -1
REMARK  2 active torsions:
REMARK  status: ('A' for Active; 'I' for Inactive)
REMARK    1  A    between atoms: C1_2  and  C2_3 
REMARK    2  A    between atoms: C2_3  and  C3_4 
ROOT
ATOM      1  C3  UNL d   1       3.448  -4.724  -1.162  0.00  0.00    -0.075 A 
ATOM      2  C4  UNL d   1       3.392  -3.751  -0.153  0.00  0.00     0.002 A 
ATOM      3  C5  UNL d   1       2.164  -3.344   0.370  0.00  0.00     0.002 A 
ATOM      4  C6  UNL d   1       0.980  -3.894  -0.115  0.00  0.00    -0.004 A 
ATOM      5  C7  UNL d   1       1.023  -4.849  -1.128  0.00  0.00     0.002 A 
ATOM      6  C8  UNL d   1       2.250  -5.262  -1.651  0.00  0.00     0.002 A 
ENDROOT
BRANCH   1   7
ATOM      7  C2  UNL d   1       4.775  -5.190  -1.712  0.00  0.00     0.056 C 
BRANCH   7   8
ATOM      8  C1  UNL d   1       5.955  -4.976  -0.759  0.00  0.00     0.007 C 
ATOM      9  C   UNL d   1       5.998  -5.985   0.382  0.00  0.00     0.009 C 
ENDBRANCH   7   8
ENDBRANCH   1   7
TORSDOF 2
ENDMDL
