MODEL 1
REMARK minimizedAffinity -4.05063248
REMARK minimizedRMSD -1
REMARK  1 active torsions:
REMARK  status: ('A' for Active; 'I' for Inactive)
REMARK    1  A    between atoms: N_2  and  C1_3 
ROOT
ATOM      1  C1  UNL d   1      -0.132  -0.170   0.245  0.00  0.00     0.143 A 
ATOM      2  C2  UNL d   1       0.865   0.094   1.191  0.00  0.00    -0.057 A 
ATOM      3  C3  UNL d   1       0.639  -0.107   2.559  0.00  0.00     0.033 A 
ATOM      4  C4  UNL d   1      -0.601  -0.548   3.008  0.00  0.00    -0.042 A 
ATOM      5  C5  UNL d   1      -1.614  -0.793   2.087  0.00  0.00     0.033 A 
ATOM      6  C6  UNL d   1      -1.381  -0.597   0.723  0.00  0.00    -0.057 A 
ENDROOT
BRANCH   1   7
ATOM      7  N   UNL d   1      -0.001   0.103  -1.118  0.00  0.00    -0.732 N 
ATOM      8  C   UNL d   1       0.266  -0.962  -2.061  0.00  0.00     0.284 C 
ATOM      9  H3  UNL d   1      -0.681   0.787  -1.445  0.00  0.00     0.395 HD
ENDBRANCH   1   7
TORSDOF 1
ENDMDL
