MODEL 1
REMARK minimizedAffinity -2.30549598
REMARK minimizedRMSD -1
REMARK  1 active torsions:
REMARK  status: ('A' for Active; 'I' for Inactive)
REMARK    1  A    between atoms: N_2  and  C1_3 
ROOT
ATOM      1  C1  UNL d   1      -0.007  -0.469   0.499  0.00  0.00     0.143 A 
ATOM      2  C2  UNL d   1       1.227   0.056   0.895  0.00  0.00    -0.057 A 
ATOM      3  C3  UNL d   1       1.463   0.436   2.222  0.00  0.00     0.033 A 
ATOM      4  C4  UNL d   1       0.455   0.323   3.173  0.00  0.00    -0.042 A 
ATOM      5  C5  UNL d   1      -0.788  -0.174   2.797  0.00  0.00     0.033 A 
ATOM      6  C6  UNL d   1      -1.015  -0.557   1.472  0.00  0.00    -0.057 A 
ENDROOT
BRANCH   1   7
ATOM      7  N   UNL d   1      -0.336  -0.773  -0.825  0.00  0.00    -0.732 N 
ATOM      8  C   UNL d   1       0.286  -0.059  -1.920  0.00  0.00     0.284 C 
ATOM      9  H3  UNL d   1      -0.432  -1.773  -0.981  0.00  0.00     0.395 HD
ENDBRANCH   1   7
TORSDOF 1
ENDMDL
