MODEL 1
REMARK minimizedAffinity -4.12241793
REMARK minimizedRMSD -1
REMARK  1 active torsions:
REMARK  status: ('A' for Active; 'I' for Inactive)
REMARK    1  A    between atoms: N_2  and  C1_3 
ROOT
ATOM      1  C1  UNL d   1       0.470  -0.227  -1.320  0.00  0.00     0.143 A 
ATOM      2  C2  UNL d   1       1.019   0.594  -2.311  0.00  0.00    -0.057 A 
ATOM      3  C3  UNL d   1       1.463   0.064  -3.529  0.00  0.00     0.033 A 
ATOM      4  C4  UNL d   1       1.392  -1.305  -3.765  0.00  0.00    -0.042 A 
ATOM      5  C5  UNL d   1       0.873  -2.143  -2.785  0.00  0.00     0.033 A 
ATOM      6  C6  UNL d   1       0.425  -1.607  -1.574  0.00  0.00    -0.057 A 
ENDROOT
BRANCH   1   7
ATOM      7  N   UNL d   1       0.102   0.227  -0.051  0.00  0.00    -0.732 N 
ATOM      8  C   UNL d   1      -1.056  -0.324   0.621  0.00  0.00     0.284 C 
ATOM      9  H3  UNL d   1       0.904   0.375   0.557  0.00  0.00     0.395 HD
ENDBRANCH   1   7
TORSDOF 1
ENDMDL
