MODEL 1
REMARK minimizedAffinity -2.54397631
REMARK minimizedRMSD -1
REMARK  1 active torsions:
REMARK  status: ('A' for Active; 'I' for Inactive)
REMARK    1  A    between atoms: N_2  and  C1_3 
ROOT
ATOM      1  C1  UNL d   1       0.097  -0.276   0.138  0.00  0.00     0.143 A 
ATOM      2  C2  UNL d   1       0.456  -1.621  -0.005  0.00  0.00    -0.057 A 
ATOM      3  C3  UNL d   1       0.827  -2.145  -1.249  0.00  0.00     0.033 A 
ATOM      4  C4  UNL d   1       0.818  -1.338  -2.381  0.00  0.00    -0.042 A 
ATOM      5  C5  UNL d   1       0.441  -0.004  -2.268  0.00  0.00     0.033 A 
ATOM      6  C6  UNL d   1       0.077   0.515  -1.022  0.00  0.00    -0.057 A 
ENDROOT
BRANCH   1   7
ATOM      7  N   UNL d   1      -0.377   0.281   1.328  0.00  0.00    -0.732 N 
ATOM      8  C   UNL d   1       0.143  -0.158   2.605  0.00  0.00     0.284 C 
ATOM      9  H3  UNL d   1      -0.516   1.286   1.259  0.00  0.00     0.395 HD
ENDBRANCH   1   7
TORSDOF 1
ENDMDL
