MODEL 1
REMARK minimizedAffinity -2.96220064
REMARK minimizedRMSD -1
REMARK  1 active torsions:
REMARK  status: ('A' for Active; 'I' for Inactive)
REMARK    1  A    between atoms: N_2  and  C1_3 
ROOT
ATOM      1  C1  UNL d   1      -0.296   0.009   1.321  0.00  0.00     0.143 A 
ATOM      2  C2  UNL d   1      -0.715  -0.085  -0.010  0.00  0.00    -0.057 A 
ATOM      3  C3  UNL d   1       0.201  -0.018  -1.067  0.00  0.00     0.033 A 
ATOM      4  C4  UNL d   1       1.554   0.176  -0.811  0.00  0.00    -0.042 A 
ATOM      5  C5  UNL d   1       1.991   0.297   0.503  0.00  0.00     0.033 A 
ATOM      6  C6  UNL d   1       1.072   0.222   1.555  0.00  0.00    -0.057 A 
ENDROOT
BRANCH   1   7
ATOM      7  N   UNL d   1      -1.169   0.048   2.411  0.00  0.00    -0.732 N 
ATOM      8  C   UNL d   1      -2.599   0.127   2.207  0.00  0.00     0.284 C 
ATOM      9  H3  UNL d   1      -0.889  -0.587   3.155  0.00  0.00     0.395 HD
ENDBRANCH   1   7
TORSDOF 1
ENDMDL
