MODEL 1
REMARK minimizedAffinity -4.61203766
REMARK minimizedRMSD -1
REMARK  1 active torsions:
REMARK  status: ('A' for Active; 'I' for Inactive)
REMARK    1  A    between atoms: N_2  and  C1_3 
ROOT
ATOM      1  C1  UNL d   1       0.466  -0.285   0.576  0.00  0.00     0.143 A 
ATOM      2  C2  UNL d   1       0.654  -1.526  -0.041  0.00  0.00    -0.057 A 
ATOM      3  C3  UNL d   1       0.824  -1.629  -1.427  0.00  0.00     0.033 A 
ATOM      4  C4  UNL d   1       0.780  -0.491  -2.226  0.00  0.00    -0.042 A 
ATOM      5  C5  UNL d   1       0.569   0.750  -1.637  0.00  0.00     0.033 A 
ATOM      6  C6  UNL d   1       0.407   0.848  -0.252  0.00  0.00    -0.057 A 
ENDROOT
BRANCH   1   7
ATOM      7  N   UNL d   1       0.193  -0.126   1.937  0.00  0.00    -0.732 N 
ATOM      8  C   UNL d   1      -1.167  -0.189   2.428  0.00  0.00     0.284 C 
ATOM      9  H3  UNL d   1       0.871  -0.603   2.527  0.00  0.00     0.395 HD
ENDBRANCH   1   7
TORSDOF 1
ENDMDL
