MODEL 1
REMARK minimizedAffinity -2.67346334
REMARK minimizedRMSD -1
REMARK  1 active torsions:
REMARK  status: ('A' for Active; 'I' for Inactive)
REMARK    1  A    between atoms: N_2  and  C1_3 
ROOT
ATOM      1  C1  UNL d   1       0.684  -0.332  -0.562  0.00  0.00     0.143 A 
ATOM      2  C2  UNL d   1       1.250   0.819  -0.004  0.00  0.00    -0.057 A 
ATOM      3  C3  UNL d   1       1.299   1.005   1.383  0.00  0.00     0.033 A 
ATOM      4  C4  UNL d   1       0.755   0.053   2.238  0.00  0.00    -0.042 A 
ATOM      5  C5  UNL d   1       0.164  -1.088   1.704  0.00  0.00     0.033 A 
ATOM      6  C6  UNL d   1       0.125  -1.270   0.319  0.00  0.00    -0.057 A 
ENDROOT
BRANCH   1   7
ATOM      7  N   UNL d   1       0.517  -0.529  -1.935  0.00  0.00    -0.732 N 
ATOM      8  C   UNL d   1       1.665  -0.684  -2.803  0.00  0.00     0.284 C 
ATOM      9  H3  UNL d   1      -0.252  -1.161  -2.146  0.00  0.00     0.395 HD
ENDBRANCH   1   7
TORSDOF 1
ENDMDL
