MODEL 1
REMARK minimizedAffinity -3.82906246
REMARK minimizedRMSD -1
REMARK  1 active torsions:
REMARK  status: ('A' for Active; 'I' for Inactive)
REMARK    1  A    between atoms: N_2  and  C1_3 
ROOT
ATOM      1  C1  UNL d   1       0.220  -0.189   0.280  0.00  0.00     0.143 A 
ATOM      2  C2  UNL d   1       0.215   0.682  -0.815  0.00  0.00    -0.057 A 
ATOM      3  C3  UNL d   1       0.339   0.203  -2.125  0.00  0.00     0.033 A 
ATOM      4  C4  UNL d   1       0.500  -1.158  -2.361  0.00  0.00    -0.042 A 
ATOM      5  C5  UNL d   1       0.533  -2.040  -1.287  0.00  0.00     0.033 A 
ATOM      6  C6  UNL d   1       0.402  -1.556   0.018  0.00  0.00    -0.057 A 
ENDROOT
BRANCH   1   7
ATOM      7  N   UNL d   1       0.199   0.234   1.611  0.00  0.00    -0.732 N 
ATOM      8  C   UNL d   1      -0.554  -0.499   2.606  0.00  0.00     0.284 C 
ATOM      9  H3  UNL d   1       1.111   0.553   1.931  0.00  0.00     0.395 HD
ENDBRANCH   1   7
TORSDOF 1
ENDMDL
