MODEL 1
REMARK minimizedAffinity -4.55480719
REMARK minimizedRMSD -1
REMARK  1 active torsions:
REMARK  status: ('A' for Active; 'I' for Inactive)
REMARK    1  A    between atoms: N_2  and  C1_3 
ROOT
ATOM      1  C1  UNL d   1      -1.176   0.412   0.989  0.00  0.00     0.143 A 
ATOM      2  C2  UNL d   1      -0.377   0.484  -0.157  0.00  0.00    -0.057 A 
ATOM      3  C3  UNL d   1       1.008   0.286  -0.091  0.00  0.00     0.033 A 
ATOM      4  C4  UNL d   1       1.623   0.040   1.132  0.00  0.00    -0.042 A 
ATOM      5  C5  UNL d   1       0.852  -0.011   2.288  0.00  0.00     0.033 A 
ATOM      6  C6  UNL d   1      -0.531   0.181   2.214  0.00  0.00    -0.057 A 
ENDROOT
BRANCH   1   7
ATOM      7  N   UNL d   1      -2.543   0.697   1.003  0.00  0.00    -0.732 N 
ATOM      8  C   UNL d   1      -3.253   0.844   2.256  0.00  0.00     0.284 C 
ATOM      9  H3  UNL d   1      -2.805   1.379   0.294  0.00  0.00     0.395 HD
ENDBRANCH   1   7
TORSDOF 1
ENDMDL
