MODEL 1
REMARK minimizedAffinity -2.56203842
REMARK minimizedRMSD -1
REMARK  1 active torsions:
REMARK  status: ('A' for Active; 'I' for Inactive)
REMARK    1  A    between atoms: N_2  and  C1_3 
ROOT
ATOM      1  C1  UNL d   1       0.939  -0.733  -2.539  0.00  0.00     0.143 A 
ATOM      2  C2  UNL d   1       0.687   0.562  -2.073  0.00  0.00    -0.057 A 
ATOM      3  C3  UNL d   1       0.346   0.799  -0.736  0.00  0.00     0.033 A 
ATOM      4  C4  UNL d   1       0.223  -0.262   0.155  0.00  0.00    -0.042 A 
ATOM      5  C5  UNL d   1       0.445  -1.560  -0.292  0.00  0.00     0.033 A 
ATOM      6  C6  UNL d   1       0.791  -1.789  -1.627  0.00  0.00    -0.057 A 
ENDROOT
BRANCH   1   7
ATOM      7  N   UNL d   1       1.186  -1.043  -3.878  0.00  0.00    -0.732 N 
ATOM      8  C   UNL d   1       0.488  -2.135  -4.523  0.00  0.00     0.284 C 
ATOM      9  H3  UNL d   1       1.283  -0.213  -4.458  0.00  0.00     0.395 HD
ENDBRANCH   1   7
TORSDOF 1
ENDMDL
