MODEL 1
REMARK minimizedAffinity -2.80699563
REMARK minimizedRMSD -1
REMARK  1 active torsions:
REMARK  status: ('A' for Active; 'I' for Inactive)
REMARK    1  A    between atoms: N_2  and  C1_3 
ROOT
ATOM      1  C1  UNL d   1      -0.334   0.124  -0.186  0.00  0.00     0.143 A 
ATOM      2  C2  UNL d   1       0.634  -0.024   0.812  0.00  0.00    -0.057 A 
ATOM      3  C3  UNL d   1       0.275  -0.148   2.160  0.00  0.00     0.033 A 
ATOM      4  C4  UNL d   1      -1.063  -0.097   2.537  0.00  0.00    -0.042 A 
ATOM      5  C5  UNL d   1      -2.041   0.075   1.564  0.00  0.00     0.033 A 
ATOM      6  C6  UNL d   1      -1.677   0.192   0.219  0.00  0.00    -0.057 A 
ENDROOT
BRANCH   1   7
ATOM      7  N   UNL d   1      -0.036   0.351  -1.532  0.00  0.00    -0.732 N 
ATOM      8  C   UNL d   1       0.649  -0.655  -2.315  0.00  0.00     0.284 C 
ATOM      9  H3  UNL d   1      -0.795   0.816  -2.025  0.00  0.00     0.395 HD
ENDBRANCH   1   7
TORSDOF 1
ENDMDL
