MODEL 1
REMARK minimizedAffinity -1.77433276
REMARK minimizedRMSD -1
REMARK  2 active torsions:
REMARK  status: ('A' for Active; 'I' for Inactive)
REMARK    1  A    between atoms: C2'_3  and  C1'_4 
REMARK    2  A    between atoms: C1'_4  and  C1_5 
ROOT
ATOM      1  C1  I4B d   1      -0.404   0.878   0.490  0.00  0.00    -0.075 A 
ATOM      2  C2  I4B d   1      -1.455   0.025   0.720  0.00  0.00     0.003 A 
ATOM      3  C3  I4B d   1      -2.117   0.031   1.971  0.00  0.00     0.002 A 
ATOM      4  C4  I4B d   1      -1.666   0.864   2.975  0.00  0.00    -0.004 A 
ATOM      5  C5  I4B d   1      -0.616   1.744   2.733  0.00  0.00     0.002 A 
ATOM      6  C6  I4B d   1       0.012   1.760   1.479  0.00  0.00     0.003 A 
ENDROOT
BRANCH   1   7
ATOM      7  C1' I4B d   1       0.294   0.822  -0.832  0.00  0.00     0.060 C 
BRANCH   7   8
ATOM      8  C2' I4B d   1       0.451  -0.636  -1.215  0.00  0.00    -0.013 C 
ATOM      9  C4' I4B d   1       0.600  -0.794  -2.705  0.00  0.00     0.013 C 
ATOM     10  C3' I4B d   1       1.647  -1.178  -0.491  0.00  0.00     0.013 C 
ENDBRANCH   7   8
ENDBRANCH   1   7
TORSDOF 2
ENDMDL
