MODEL 1
REMARK minimizedAffinity -0.205816746
REMARK minimizedRMSD -1
REMARK  2 active torsions:
REMARK  status: ('A' for Active; 'I' for Inactive)
REMARK    1  A    between atoms: C2'_3  and  C1'_4 
REMARK    2  A    between atoms: C1'_4  and  C1_5 
ROOT
ATOM      1  C1  I4B d   1       0.800  -0.703  -0.977  0.00  0.00    -0.075 A 
ATOM      2  C2  I4B d   1       1.650  -1.102   0.024  0.00  0.00     0.003 A 
ATOM      3  C3  I4B d   1       1.626  -0.451   1.281  0.00  0.00     0.002 A 
ATOM      4  C4  I4B d   1       0.778   0.619   1.476  0.00  0.00    -0.004 A 
ATOM      5  C5  I4B d   1      -0.099   1.008   0.468  0.00  0.00     0.002 A 
ATOM      6  C6  I4B d   1      -0.097   0.335  -0.763  0.00  0.00     0.003 A 
ENDROOT
BRANCH   1   7
ATOM      7  C1' I4B d   1       0.875  -1.391  -2.303  0.00  0.00     0.060 C 
BRANCH   7   8
ATOM      8  C2' I4B d   1       0.298  -0.456  -3.347  0.00  0.00    -0.013 C 
ATOM      9  C4' I4B d   1       1.388   0.262  -4.098  0.00  0.00     0.013 C 
ATOM     10  C3' I4B d   1      -0.555  -1.269  -4.275  0.00  0.00     0.013 C 
ENDBRANCH   7   8
ENDBRANCH   1   7
TORSDOF 2
ENDMDL
