MODEL 1
REMARK minimizedAffinity -3.53762579
REMARK minimizedRMSD -1
REMARK  2 active torsions:
REMARK  status: ('A' for Active; 'I' for Inactive)
REMARK    1  A    between atoms: C2'_3  and  C1'_4 
REMARK    2  A    between atoms: C1'_4  and  C1_5 
ROOT
ATOM      1  C1  I4B d   1       0.204  -0.281  -0.256  0.00  0.00    -0.075 A 
ATOM      2  C2  I4B d   1       0.973   0.317   0.711  0.00  0.00     0.003 A 
ATOM      3  C3  I4B d   1       0.361   0.923   1.834  0.00  0.00     0.002 A 
ATOM      4  C4  I4B d   1      -1.016   0.952   1.925  0.00  0.00    -0.004 A 
ATOM      5  C5  I4B d   1      -1.793   0.326   0.956  0.00  0.00     0.002 A 
ATOM      6  C6  I4B d   1      -1.180  -0.306  -0.136  0.00  0.00     0.003 A 
ENDROOT
BRANCH   1   7
ATOM      7  C1' I4B d   1       0.881  -0.883  -1.446  0.00  0.00     0.060 C 
BRANCH   7   8
ATOM      8  C2' I4B d   1       0.991   0.188  -2.512  0.00  0.00    -0.013 C 
ATOM      9  C4' I4B d   1       2.431   0.495  -2.830  0.00  0.00     0.013 C 
ATOM     10  C3' I4B d   1       0.258  -0.293  -3.729  0.00  0.00     0.013 C 
ENDBRANCH   7   8
ENDBRANCH   1   7
TORSDOF 2
ENDMDL
