MODEL 1
REMARK minimizedAffinity 3.98884487
REMARK minimizedRMSD -1
REMARK  0 active torsions:
REMARK  status: ('A' for Active; 'I' for Inactive)
ROOT
ATOM      1  C1  BNZ d   1      -2.310  -2.811   0.570  0.00  0.00     0.000 A 
ATOM      2  C2  BNZ d   1      -2.433  -2.161  -0.629  0.00  0.00     0.000 A 
ATOM      3  C3  BNZ d   1      -1.517  -1.223  -1.014  0.00  0.00     0.000 A 
ATOM      4  C4  BNZ d   1      -0.502  -0.907  -0.184  0.00  0.00     0.000 A 
ATOM      5  C5  BNZ d   1      -0.370  -1.547   1.033  0.00  0.00     0.000 A 
ATOM      6  C6  BNZ d   1      -1.272  -2.518   1.400  0.00  0.00     0.000 A 
ENDROOT
TORSDOF 0
ENDMDL
