MODEL 1
REMARK minimizedAffinity 6.3233633
REMARK minimizedRMSD -1
REMARK  0 active torsions:
REMARK  status: ('A' for Active; 'I' for Inactive)
ROOT
ATOM      1  C1  BNZ d   1       6.000  -0.916   1.298  0.00  0.00     0.000 A 
ATOM      2  C2  BNZ d   1       5.031  -0.901   2.266  0.00  0.00     0.000 A 
ATOM      3  C3  BNZ d   1       3.759  -0.492   1.976  0.00  0.00     0.000 A 
ATOM      4  C4  BNZ d   1       3.468  -0.061   0.731  0.00  0.00     0.000 A 
ATOM      5  C5  BNZ d   1       4.437  -0.062  -0.253  0.00  0.00     0.000 A 
ATOM      6  C6  BNZ d   1       5.706  -0.511   0.033  0.00  0.00     0.000 A 
ENDROOT
TORSDOF 0
ENDMDL
