MODEL 1
REMARK minimizedAffinity 3.319628
REMARK minimizedRMSD -1
REMARK  0 active torsions:
REMARK  status: ('A' for Active; 'I' for Inactive)
ROOT
ATOM      1  C1  BNZ d   1       5.057  -2.622  -1.135  0.00  0.00     0.000 A 
ATOM      2  C2  BNZ d   1       5.996  -2.058  -0.313  0.00  0.00     0.000 A 
ATOM      3  C3  BNZ d   1       6.000  -0.713  -0.074  0.00  0.00     0.000 A 
ATOM      4  C4  BNZ d   1       5.091   0.072  -0.688  0.00  0.00     0.000 A 
ATOM      5  C5  BNZ d   1       4.144  -0.480  -1.527  0.00  0.00     0.000 A 
ATOM      6  C6  BNZ d   1       4.119  -1.840  -1.735  0.00  0.00     0.000 A 
ENDROOT
TORSDOF 0
ENDMDL
