MODEL 1
REMARK minimizedAffinity 4.87726545
REMARK minimizedRMSD -1
REMARK  0 active torsions:
REMARK  status: ('A' for Active; 'I' for Inactive)
ROOT
ATOM      1  C1  BNZ d   1      -5.274   3.767   2.727  0.00  0.00     0.000 A 
ATOM      2  C2  BNZ d   1      -4.781   3.787   4.004  0.00  0.00     0.000 A 
ATOM      3  C3  BNZ d   1      -4.916   4.898   4.789  0.00  0.00     0.000 A 
ATOM      4  C4  BNZ d   1      -5.506   5.999   4.283  0.00  0.00     0.000 A 
ATOM      5  C5  BNZ d   1      -6.000   5.998   2.994  0.00  0.00     0.000 A 
ATOM      6  C6  BNZ d   1      -5.897   4.865   2.220  0.00  0.00     0.000 A 
ENDROOT
TORSDOF 0
ENDMDL
