MODEL 1
REMARK minimizedAffinity 0.424354792
REMARK minimizedRMSD -1
REMARK  0 active torsions:
REMARK  status: ('A' for Active; 'I' for Inactive)
ROOT
ATOM      1  C1  BNZ d   1      -5.610   2.773   5.078  0.00  0.00     0.000 A 
ATOM      2  C2  BNZ d   1      -5.255   2.648   3.762  0.00  0.00     0.000 A 
ATOM      3  C3  BNZ d   1      -5.294   1.431   3.139  0.00  0.00     0.000 A 
ATOM      4  C4  BNZ d   1      -5.648   0.337   3.842  0.00  0.00     0.000 A 
ATOM      5  C5  BNZ d   1      -6.000   0.445   5.173  0.00  0.00     0.000 A 
ATOM      6  C6  BNZ d   1      -5.997   1.677   5.787  0.00  0.00     0.000 A 
ENDROOT
TORSDOF 0
ENDMDL
