MODEL 1
REMARK minimizedAffinity 9.25627041
REMARK minimizedRMSD -1
REMARK  0 active torsions:
REMARK  status: ('A' for Active; 'I' for Inactive)
ROOT
ATOM      1  C1  BNZ d   1       1.294   0.788   1.874  0.00  0.00     0.000 A 
ATOM      2  C2  BNZ d   1       2.312   0.700   0.963  0.00  0.00     0.000 A 
ATOM      3  C3  BNZ d   1       3.377  -0.129   1.180  0.00  0.00     0.000 A 
ATOM      4  C4  BNZ d   1       3.442  -0.838   2.326  0.00  0.00     0.000 A 
ATOM      5  C5  BNZ d   1       2.428  -0.753   3.259  0.00  0.00     0.000 A 
ATOM      6  C6  BNZ d   1       1.339   0.053   3.018  0.00  0.00     0.000 A 
ENDROOT
TORSDOF 0
ENDMDL
