MODEL 1
REMARK minimizedAffinity 10.8573093
REMARK minimizedRMSD -1
REMARK  0 active torsions:
REMARK  status: ('A' for Active; 'I' for Inactive)
ROOT
ATOM      1  C1  BNZ d   1       4.470   0.454   0.051  0.00  0.00     0.000 A 
ATOM      2  C2  BNZ d   1       3.735   0.081   1.144  0.00  0.00     0.000 A 
ATOM      3  C3  BNZ d   1       2.658   0.819   1.549  0.00  0.00     0.000 A 
ATOM      4  C4  BNZ d   1       2.342   1.949   0.885  0.00  0.00     0.000 A 
ATOM      5  C5  BNZ d   1       3.078   2.344  -0.213  0.00  0.00     0.000 A 
ATOM      6  C6  BNZ d   1       4.138   1.578  -0.642  0.00  0.00     0.000 A 
ENDROOT
TORSDOF 0
ENDMDL
