MODEL 1
REMARK minimizedAffinity 8.81965542
REMARK minimizedRMSD -1
REMARK  0 active torsions:
REMARK  status: ('A' for Active; 'I' for Inactive)
ROOT
ATOM      1  C1  BNZ d   1       3.884   5.610   3.611  0.00  0.00     0.000 A 
ATOM      2  C2  BNZ d   1       3.405   5.985   4.838  0.00  0.00     0.000 A 
ATOM      3  C3  BNZ d   1       4.222   5.999   5.934  0.00  0.00     0.000 A 
ATOM      4  C4  BNZ d   1       5.504   5.601   5.809  0.00  0.00     0.000 A 
ATOM      5  C5  BNZ d   1       6.000   5.212   4.581  0.00  0.00     0.000 A 
ATOM      6  C6  BNZ d   1       5.185   5.236   3.472  0.00  0.00     0.000 A 
ENDROOT
TORSDOF 0
ENDMDL
