MODEL 1
REMARK minimizedAffinity 5.43916368
REMARK minimizedRMSD -1
REMARK  0 active torsions:
REMARK  status: ('A' for Active; 'I' for Inactive)
ROOT
ATOM      1  C1  BNZ d   1      -3.305  -2.774  -1.421  0.00  0.00     0.000 A 
ATOM      2  C2  BNZ d   1      -2.218  -1.943  -1.465  0.00  0.00     0.000 A 
ATOM      3  C3  BNZ d   1      -1.564  -1.708  -2.643  0.00  0.00     0.000 A 
ATOM      4  C4  BNZ d   1      -1.973  -2.335  -3.764  0.00  0.00     0.000 A 
ATOM      5  C5  BNZ d   1      -3.062  -3.183  -3.734  0.00  0.00     0.000 A 
ATOM      6  C6  BNZ d   1      -3.742  -3.387  -2.555  0.00  0.00     0.000 A 
ENDROOT
TORSDOF 0
ENDMDL
