MODEL 1
REMARK minimizedAffinity 4.29286623
REMARK minimizedRMSD -1
REMARK  0 active torsions:
REMARK  status: ('A' for Active; 'I' for Inactive)
ROOT
ATOM      1  C1  BNZ d   1       1.069   4.865  -5.991  0.00  0.00     0.000 A 
ATOM      2  C2  BNZ d   1       1.840   5.989  -5.856  0.00  0.00     0.000 A 
ATOM      3  C3  BNZ d   1       2.927   5.996  -5.026  0.00  0.00     0.000 A 
ATOM      4  C4  BNZ d   1       3.217   4.895  -4.304  0.00  0.00     0.000 A 
ATOM      5  C5  BNZ d   1       2.443   3.758  -4.422  0.00  0.00     0.000 A 
ATOM      6  C6  BNZ d   1       1.373   3.741  -5.287  0.00  0.00     0.000 A 
ENDROOT
TORSDOF 0
ENDMDL
