MODEL 1
REMARK minimizedAffinity 4.493505
REMARK minimizedRMSD -1
REMARK  0 active torsions:
REMARK  status: ('A' for Active; 'I' for Inactive)
ROOT
ATOM      1  C1  BNZ d   1       4.064   6.000   3.957  0.00  0.00     0.000 A 
ATOM      2  C2  BNZ d   1       4.082   5.041   2.980  0.00  0.00     0.000 A 
ATOM      3  C3  BNZ d   1       5.038   4.063   2.976  0.00  0.00     0.000 A 
ATOM      4  C4  BNZ d   1       5.997   4.070   3.925  0.00  0.00     0.000 A 
ATOM      5  C5  BNZ d   1       5.997   5.036   4.911  0.00  0.00     0.000 A 
ATOM      6  C6  BNZ d   1       5.011   5.995   4.935  0.00  0.00     0.000 A 
ENDROOT
TORSDOF 0
ENDMDL
