MODEL 1
REMARK minimizedAffinity 6.44323492
REMARK minimizedRMSD -1
REMARK  0 active torsions:
REMARK  status: ('A' for Active; 'I' for Inactive)
ROOT
ATOM      1  C1  BNZ d   1      -5.966   5.241   3.704  0.00  0.00     0.000 A 
ATOM      2  C2  BNZ d   1      -5.404   3.992   3.729  0.00  0.00     0.000 A 
ATOM      3  C3  BNZ d   1      -4.875   3.485   4.883  0.00  0.00     0.000 A 
ATOM      4  C4  BNZ d   1      -4.872   4.242   5.999  0.00  0.00     0.000 A 
ATOM      5  C5  BNZ d   1      -5.427   5.506   5.988  0.00  0.00     0.000 A 
ATOM      6  C6  BNZ d   1      -5.993   5.998   4.835  0.00  0.00     0.000 A 
ENDROOT
TORSDOF 0
ENDMDL
