MODEL 1
REMARK minimizedAffinity 11.9663591
REMARK minimizedRMSD -1
REMARK  0 active torsions:
REMARK  status: ('A' for Active; 'I' for Inactive)
ROOT
ATOM      1  C1  BNZ d   1      -3.343  -5.997   1.160  0.00  0.00     0.000 A 
ATOM      2  C2  BNZ d   1      -4.657  -5.992   1.546  0.00  0.00     0.000 A 
ATOM      3  C3  BNZ d   1      -5.660  -6.000   0.617  0.00  0.00     0.000 A 
ATOM      4  C4  BNZ d   1      -5.348  -5.972  -0.695  0.00  0.00     0.000 A 
ATOM      5  C5  BNZ d   1      -4.028  -5.968  -1.100  0.00  0.00     0.000 A 
ATOM      6  C6  BNZ d   1      -3.022  -5.999  -0.162  0.00  0.00     0.000 A 
ENDROOT
TORSDOF 0
ENDMDL
