MODEL 1
REMARK minimizedAffinity 2.16409707
REMARK minimizedRMSD -1
REMARK  0 active torsions:
REMARK  status: ('A' for Active; 'I' for Inactive)
ROOT
ATOM      1  C1  BNZ d   1      -1.127  -6.000   1.085  0.00  0.00     0.000 A 
ATOM      2  C2  BNZ d   1      -0.288  -5.187   0.371  0.00  0.00     0.000 A 
ATOM      3  C3  BNZ d   1      -0.461  -3.831   0.368  0.00  0.00     0.000 A 
ATOM      4  C4  BNZ d   1      -1.496  -3.294   1.046  0.00  0.00     0.000 A 
ATOM      5  C5  BNZ d   1      -2.356  -4.101   1.764  0.00  0.00     0.000 A 
ATOM      6  C6  BNZ d   1      -2.156  -5.462   1.796  0.00  0.00     0.000 A 
ENDROOT
TORSDOF 0
ENDMDL
