MODEL 1
REMARK minimizedAffinity -2.5805378
REMARK minimizedRMSD -1
REMARK  1 active torsions:
REMARK  status: ('A' for Active; 'I' for Inactive)
REMARK    1  A    between atoms: C3_4  and  O_7 
ROOT
ATOM      1  C   UNL d   1      -1.415  -0.237   0.741  0.00  0.00    -0.033 A 
ATOM      2  C1  UNL d   1      -0.686  -0.521  -0.415  0.00  0.00     0.039 A 
ATOM      3  C2  UNL d   1       0.668  -0.849  -0.326  0.00  0.00    -0.080 A 
ATOM      4  C3  UNL d   1       1.280  -0.891   0.924  0.00  0.00     0.150 A 
ATOM      5  C4  UNL d   1       0.559  -0.612   2.080  0.00  0.00    -0.007 A 
ATOM      6  C5  UNL d   1      -0.793  -0.284   1.989  0.00  0.00     0.039 A 
ENDROOT
BRANCH   4   7
ATOM      7  O   UNL d   1       2.601  -1.201   1.061  0.00  0.00    -0.526 OA
ATOM      8  H5  UNL d   1       2.977  -1.341   0.176  0.00  0.00     0.418 HD
ENDBRANCH   4   7
TORSDOF 1
ENDMDL
