MODEL 1
REMARK minimizedAffinity -5.9489398
REMARK minimizedRMSD -1
REMARK  1 active torsions:
REMARK  status: ('A' for Active; 'I' for Inactive)
REMARK    1  A    between atoms: C3_4  and  O_7 
ROOT
ATOM      1  C   UNL d   1      -0.080   0.906   3.264  0.00  0.00    -0.033 A 
ATOM      2  C1  UNL d   1       1.142   0.323   2.921  0.00  0.00     0.039 A 
ATOM      3  C2  UNL d   1       1.400  -0.034   1.596  0.00  0.00    -0.080 A 
ATOM      4  C3  UNL d   1       0.429   0.196   0.625  0.00  0.00     0.150 A 
ATOM      5  C4  UNL d   1      -0.788   0.779   0.959  0.00  0.00    -0.007 A 
ATOM      6  C5  UNL d   1      -1.044   1.135   2.282  0.00  0.00     0.039 A 
ENDROOT
BRANCH   4   7
ATOM      7  O   UNL d   1       0.633  -0.140  -0.680  0.00  0.00    -0.526 OA
ATOM      8  H5  UNL d   1       1.507  -0.560  -0.757  0.00  0.00     0.418 HD
ENDBRANCH   4   7
TORSDOF 1
ENDMDL
