MODEL 1
REMARK minimizedAffinity -5.57089138
REMARK minimizedRMSD -1
REMARK  1 active torsions:
REMARK  status: ('A' for Active; 'I' for Inactive)
REMARK    1  A    between atoms: C3_4  and  O_7 
ROOT
ATOM      1  C   UNL d   1      -1.100   1.367   1.967  0.00  0.00    -0.033 A 
ATOM      2  C1  UNL d   1      -0.673   0.678   0.830  0.00  0.00     0.039 A 
ATOM      3  C2  UNL d   1       0.491  -0.093   0.875  0.00  0.00    -0.080 A 
ATOM      4  C3  UNL d   1       1.216  -0.167   2.061  0.00  0.00     0.150 A 
ATOM      5  C4  UNL d   1       0.794   0.514   3.199  0.00  0.00    -0.007 A 
ATOM      6  C5  UNL d   1      -0.367   1.284   3.152  0.00  0.00     0.039 A 
ENDROOT
BRANCH   4   7
ATOM      7  O   UNL d   1       2.360  -0.903   2.152  0.00  0.00    -0.526 OA
ATOM      8  H5  UNL d   1       2.544  -1.294   1.282  0.00  0.00     0.418 HD
ENDBRANCH   4   7
TORSDOF 1
ENDMDL
