MODEL 1
REMARK minimizedAffinity -4.17582273
REMARK minimizedRMSD -1
REMARK  1 active torsions:
REMARK  status: ('A' for Active; 'I' for Inactive)
REMARK    1  A    between atoms: C3_4  and  O_7 
ROOT
ATOM      1  C   UNL d   1      -1.546   0.124   1.199  0.00  0.00    -0.033 A 
ATOM      2  C1  UNL d   1      -0.551  -0.200   0.274  0.00  0.00     0.039 A 
ATOM      3  C2  UNL d   1       0.696  -0.646   0.716  0.00  0.00    -0.080 A 
ATOM      4  C3  UNL d   1       0.935  -0.765   2.083  0.00  0.00     0.150 A 
ATOM      5  C4  UNL d   1      -0.053  -0.448   3.009  0.00  0.00    -0.007 A 
ATOM      6  C5  UNL d   1      -1.298  -0.002   2.566  0.00  0.00     0.039 A 
ENDROOT
BRANCH   4   7
ATOM      7  O   UNL d   1       2.138  -1.192   2.562  0.00  0.00    -0.526 OA
ATOM      8  H5  UNL d   1       2.732  -1.347   1.808  0.00  0.00     0.418 HD
ENDBRANCH   4   7
TORSDOF 1
ENDMDL
