MODEL 1
REMARK minimizedAffinity -5.34355354
REMARK minimizedRMSD -1
REMARK  1 active torsions:
REMARK  status: ('A' for Active; 'I' for Inactive)
REMARK    1  A    between atoms: C3_4  and  O_7 
ROOT
ATOM      1  C   UNL d   1      -0.008   0.800   3.466  0.00  0.00    -0.033 A 
ATOM      2  C1  UNL d   1       1.117   0.086   3.049  0.00  0.00     0.039 A 
ATOM      3  C2  UNL d   1       1.284  -0.229   1.699  0.00  0.00    -0.080 A 
ATOM      4  C3  UNL d   1       0.322   0.175   0.778  0.00  0.00     0.150 A 
ATOM      5  C4  UNL d   1      -0.800   0.889   1.187  0.00  0.00    -0.007 A 
ATOM      6  C5  UNL d   1      -0.966   1.203   2.535  0.00  0.00     0.039 A 
ENDROOT
BRANCH   4   7
ATOM      7  O   UNL d   1       0.439  -0.114  -0.549  0.00  0.00    -0.526 OA
ATOM      8  H5  UNL d   1       1.248  -0.637  -0.680  0.00  0.00     0.418 HD
ENDBRANCH   4   7
TORSDOF 1
ENDMDL
