MODEL 1
REMARK minimizedAffinity -4.12672377
REMARK minimizedRMSD -1
REMARK  1 active torsions:
REMARK  status: ('A' for Active; 'I' for Inactive)
REMARK    1  A    between atoms: C3_4  and  O_7 
ROOT
ATOM      1  C   UNL d   1      -0.050  -0.606   2.912  0.00  0.00    -0.033 A 
ATOM      2  C1  UNL d   1       1.163  -1.071   2.400  0.00  0.00     0.039 A 
ATOM      3  C2  UNL d   1       1.304  -1.294   1.029  0.00  0.00    -0.080 A 
ATOM      4  C3  UNL d   1       0.227  -1.046   0.182  0.00  0.00     0.150 A 
ATOM      5  C4  UNL d   1      -0.983  -0.579   0.685  0.00  0.00    -0.007 A 
ATOM      6  C5  UNL d   1      -1.122  -0.358   2.055  0.00  0.00     0.039 A 
ENDROOT
BRANCH   4   7
ATOM      7  O   UNL d   1       0.315  -1.253  -1.163  0.00  0.00    -0.526 OA
ATOM      8  H5  UNL d   1       1.199  -1.604  -1.362  0.00  0.00     0.418 HD
ENDBRANCH   4   7
TORSDOF 1
ENDMDL
