MODEL 1
REMARK minimizedAffinity -2.45229959
REMARK minimizedRMSD -1
REMARK  2 active torsions:
REMARK  status: ('A' for Active; 'I' for Inactive)
REMARK    1  A    between atoms: C1_2  and  C2_3 
REMARK    2  A    between atoms: C2_3  and  C3_4 
ROOT
ATOM      1  C3  UNL d   1       1.144   1.569   0.607  0.00  0.00    -0.075 A 
ATOM      2  C4  UNL d   1       2.090   2.131  -0.263  0.00  0.00     0.002 A 
ATOM      3  C5  UNL d   1       2.907   3.180   0.162  0.00  0.00     0.002 A 
ATOM      4  C6  UNL d   1       2.781   3.686   1.454  0.00  0.00    -0.004 A 
ATOM      5  C7  UNL d   1       1.833   3.146   2.320  0.00  0.00     0.002 A 
ATOM      6  C8  UNL d   1       1.018   2.094   1.900  0.00  0.00     0.002 A 
ENDROOT
BRANCH   1   7
ATOM      7  C2  UNL d   1       0.278   0.414   0.163  0.00  0.00     0.056 C 
BRANCH   7   8
ATOM      8  C1  UNL d   1       0.500  -0.875   0.961  0.00  0.00     0.007 C 
ATOM      9  C   UNL d   1      -0.767  -1.397   1.624  0.00  0.00     0.009 C 
ENDBRANCH   7   8
ENDBRANCH   1   7
TORSDOF 2
ENDMDL
