MODEL 1
REMARK minimizedAffinity -4.57223415
REMARK minimizedRMSD -1
REMARK  2 active torsions:
REMARK  status: ('A' for Active; 'I' for Inactive)
REMARK    1  A    between atoms: C1_2  and  C2_3 
REMARK    2  A    between atoms: C2_3  and  C3_4 
ROOT
ATOM      1  C3  UNL d   1       2.894   2.433   1.069  0.00  0.00    -0.075 A 
ATOM      2  C4  UNL d   1       2.898   3.476   2.007  0.00  0.00     0.002 A 
ATOM      3  C5  UNL d   1       3.377   4.739   1.660  0.00  0.00     0.002 A 
ATOM      4  C6  UNL d   1       3.866   4.974   0.376  0.00  0.00    -0.004 A 
ATOM      5  C7  UNL d   1       3.881   3.941  -0.559  0.00  0.00     0.002 A 
ATOM      6  C8  UNL d   1       3.399   2.677  -0.215  0.00  0.00     0.002 A 
ENDROOT
BRANCH   1   7
ATOM      7  C2  UNL d   1       2.350   1.072   1.429  0.00  0.00     0.056 C 
BRANCH   7   8
ATOM      8  C1  UNL d   1       1.140   0.642   0.593  0.00  0.00     0.007 C 
ATOM      9  C   UNL d   1       0.678  -0.778   0.891  0.00  0.00     0.009 C 
ENDBRANCH   7   8
ENDBRANCH   1   7
TORSDOF 2
ENDMDL
