MODEL 1
REMARK minimizedAffinity -6.01117945
REMARK minimizedRMSD -1
REMARK  2 active torsions:
REMARK  status: ('A' for Active; 'I' for Inactive)
REMARK    1  A    between atoms: C1_2  and  C2_3 
REMARK    2  A    between atoms: C2_3  and  C3_4 
ROOT
ATOM      1  C3  UNL d   1       2.119   1.743   1.076  0.00  0.00    -0.075 A 
ATOM      2  C4  UNL d   1       1.944   0.362   1.248  0.00  0.00     0.002 A 
ATOM      3  C5  UNL d   1       0.674  -0.207   1.162  0.00  0.00     0.002 A 
ATOM      4  C6  UNL d   1      -0.438   0.596   0.914  0.00  0.00    -0.004 A 
ATOM      5  C7  UNL d   1      -0.278   1.971   0.759  0.00  0.00     0.002 A 
ATOM      6  C8  UNL d   1       0.993   2.543   0.840  0.00  0.00     0.002 A 
ENDROOT
BRANCH   1   7
ATOM      7  C2  UNL d   1       3.495   2.362   1.139  0.00  0.00     0.056 C 
BRANCH   7   8
ATOM      8  C1  UNL d   1       3.581   3.756   0.507  0.00  0.00     0.007 C 
ATOM      9  C   UNL d   1       4.062   3.731  -0.938  0.00  0.00     0.009 C 
ENDBRANCH   7   8
ENDBRANCH   1   7
TORSDOF 2
ENDMDL
