MODEL 1
REMARK minimizedAffinity -1.35279965
REMARK minimizedRMSD -1
REMARK  2 active torsions:
REMARK  status: ('A' for Active; 'I' for Inactive)
REMARK    1  A    between atoms: C1_2  and  C2_3 
REMARK    2  A    between atoms: C2_3  and  C3_4 
ROOT
ATOM      1  C3  UNL d   1       0.732   0.413   0.077  0.00  0.00    -0.075 A 
ATOM      2  C4  UNL d   1      -0.057   0.541  -1.075  0.00  0.00     0.002 A 
ATOM      3  C5  UNL d   1      -1.328  -0.031  -1.130  0.00  0.00     0.002 A 
ATOM      4  C6  UNL d   1      -1.821  -0.746  -0.041  0.00  0.00    -0.004 A 
ATOM      5  C7  UNL d   1      -1.039  -0.894   1.103  0.00  0.00     0.002 A 
ATOM      6  C8  UNL d   1       0.231  -0.318   1.162  0.00  0.00     0.002 A 
ENDROOT
BRANCH   1   7
ATOM      7  C2  UNL d   1       2.097   1.056   0.154  0.00  0.00     0.056 C 
BRANCH   7   8
ATOM      8  C1  UNL d   1       2.267   2.018   1.334  0.00  0.00     0.007 C 
ATOM      9  C   UNL d   1       3.053   3.273   0.977  0.00  0.00     0.009 C 
ENDBRANCH   7   8
ENDBRANCH   1   7
TORSDOF 2
ENDMDL
