MODEL 1
REMARK minimizedAffinity -4.17746115
REMARK minimizedRMSD -1
REMARK  2 active torsions:
REMARK  status: ('A' for Active; 'I' for Inactive)
REMARK    1  A    between atoms: C1_2  and  C2_3 
REMARK    2  A    between atoms: C2_3  and  C3_4 
ROOT
ATOM      1  C3  UNL d   1      -0.439  -0.154  -0.582  0.00  0.00    -0.075 A 
ATOM      2  C4  UNL d   1       0.113  -0.706   0.583  0.00  0.00     0.002 A 
ATOM      3  C5  UNL d   1      -0.657  -1.520   1.415  0.00  0.00     0.002 A 
ATOM      4  C6  UNL d   1      -1.988  -1.783   1.099  0.00  0.00    -0.004 A 
ATOM      5  C7  UNL d   1      -2.552  -1.226  -0.047  0.00  0.00     0.002 A 
ATOM      6  C8  UNL d   1      -1.783  -0.415  -0.883  0.00  0.00     0.002 A 
ENDROOT
BRANCH   1   7
ATOM      7  C2  UNL d   1       0.397   0.703  -1.502  0.00  0.00     0.056 C 
BRANCH   7   8
ATOM      8  C1  UNL d   1       1.633  -0.007  -2.064  0.00  0.00     0.007 C 
ATOM      9  C   UNL d   1       1.918   0.345  -3.518  0.00  0.00     0.009 C 
ENDBRANCH   7   8
ENDBRANCH   1   7
TORSDOF 2
ENDMDL
