MODEL 1
REMARK minimizedAffinity -4.7283659
REMARK minimizedRMSD -1
REMARK  2 active torsions:
REMARK  status: ('A' for Active; 'I' for Inactive)
REMARK    1  A    between atoms: C1_2  and  C2_3 
REMARK    2  A    between atoms: C2_3  and  C3_4 
ROOT
ATOM      1  C3  UNL d   1      -0.893  -0.696   0.465  0.00  0.00    -0.075 A 
ATOM      2  C4  UNL d   1      -1.536  -1.790   1.062  0.00  0.00     0.002 A 
ATOM      3  C5  UNL d   1      -2.814  -2.170   0.652  0.00  0.00     0.002 A 
ATOM      4  C6  UNL d   1      -3.469  -1.457  -0.350  0.00  0.00    -0.004 A 
ATOM      5  C7  UNL d   1      -2.846  -0.358  -0.939  0.00  0.00     0.002 A 
ATOM      6  C8  UNL d   1      -1.565   0.022  -0.534  0.00  0.00     0.002 A 
ENDROOT
BRANCH   1   7
ATOM      7  C2  UNL d   1       0.502  -0.297   0.883  0.00  0.00     0.056 C 
BRANCH   7   8
ATOM      8  C1  UNL d   1       1.270   0.496  -0.180  0.00  0.00     0.007 C 
ATOM      9  C   UNL d   1       2.096   1.635   0.401  0.00  0.00     0.009 C 
ENDBRANCH   7   8
ENDBRANCH   1   7
TORSDOF 2
ENDMDL
