MODEL 1
REMARK minimizedAffinity -4.92037058
REMARK minimizedRMSD -1
REMARK  2 active torsions:
REMARK  status: ('A' for Active; 'I' for Inactive)
REMARK    1  A    between atoms: C1_2  and  C2_3 
REMARK    2  A    between atoms: C2_3  and  C3_4 
ROOT
ATOM      1  C3  UNL d   1      -0.167  -0.120  -0.175  0.00  0.00    -0.075 A 
ATOM      2  C4  UNL d   1      -0.890   0.211  -1.330  0.00  0.00     0.002 A 
ATOM      3  C5  UNL d   1      -2.278   0.067  -1.363  0.00  0.00     0.002 A 
ATOM      4  C6  UNL d   1      -2.957  -0.418  -0.248  0.00  0.00    -0.004 A 
ATOM      5  C7  UNL d   1      -2.247  -0.765   0.900  0.00  0.00     0.002 A 
ATOM      6  C8  UNL d   1      -0.860  -0.618   0.937  0.00  0.00     0.002 A 
ENDROOT
BRANCH   1   7
ATOM      7  C2  UNL d   1       1.331   0.061  -0.122  0.00  0.00     0.056 C 
BRANCH   7   8
ATOM      8  C1  UNL d   1       1.795   1.499  -0.379  0.00  0.00     0.007 C 
ATOM      9  C   UNL d   1       2.130   2.259   0.897  0.00  0.00     0.009 C 
ENDBRANCH   7   8
ENDBRANCH   1   7
TORSDOF 2
ENDMDL
