MODEL 1
REMARK minimizedAffinity -3.68762732
REMARK minimizedRMSD -1
REMARK  2 active torsions:
REMARK  status: ('A' for Active; 'I' for Inactive)
REMARK    1  A    between atoms: C1_2  and  C2_3 
REMARK    2  A    between atoms: C2_3  and  C3_4 
ROOT
ATOM      1  C3  UNL d   1      -0.740  -0.177  -1.235  0.00  0.00    -0.075 A 
ATOM      2  C4  UNL d   1      -1.991  -0.677  -1.625  0.00  0.00     0.002 A 
ATOM      3  C5  UNL d   1      -2.972  -0.953  -0.672  0.00  0.00     0.002 A 
ATOM      4  C6  UNL d   1      -2.713  -0.743   0.681  0.00  0.00    -0.004 A 
ATOM      5  C7  UNL d   1      -1.468  -0.261   1.081  0.00  0.00     0.002 A 
ATOM      6  C8  UNL d   1      -0.486   0.020   0.129  0.00  0.00     0.002 A 
ENDROOT
BRANCH   1   7
ATOM      7  C2  UNL d   1       0.315   0.152  -2.263  0.00  0.00     0.056 C 
BRANCH   7   8
ATOM      8  C1  UNL d   1       1.728  -0.294  -1.871  0.00  0.00     0.007 C 
ATOM      9  C   UNL d   1       2.587  -0.685  -3.066  0.00  0.00     0.009 C 
ENDBRANCH   7   8
ENDBRANCH   1   7
TORSDOF 2
ENDMDL
