MODEL 1
REMARK minimizedAffinity -1.35932946
REMARK minimizedRMSD -1
REMARK  2 active torsions:
REMARK  status: ('A' for Active; 'I' for Inactive)
REMARK    1  A    between atoms: C1_2  and  C2_3 
REMARK    2  A    between atoms: C2_3  and  C3_4 
ROOT
ATOM      1  C3  UNL d   1      -0.265  -0.490  -0.825  0.00  0.00    -0.075 A 
ATOM      2  C4  UNL d   1      -0.337  -1.182   0.392  0.00  0.00     0.002 A 
ATOM      3  C5  UNL d   1      -1.567  -1.612   0.891  0.00  0.00     0.002 A 
ATOM      4  C6  UNL d   1      -2.739  -1.347   0.186  0.00  0.00    -0.004 A 
ATOM      5  C7  UNL d   1      -2.682  -0.645  -1.016  0.00  0.00     0.002 A 
ATOM      6  C8  UNL d   1      -1.452  -0.218  -1.519  0.00  0.00     0.002 A 
ENDROOT
BRANCH   1   7
ATOM      7  C2  UNL d   1       1.065  -0.047  -1.385  0.00  0.00     0.056 C 
BRANCH   7   8
ATOM      8  C1  UNL d   1       1.254  -0.367  -2.872  0.00  0.00     0.007 C 
ATOM      9  C   UNL d   1       2.615  -0.972  -3.188  0.00  0.00     0.009 C 
ENDBRANCH   7   8
ENDBRANCH   1   7
TORSDOF 2
ENDMDL
