MODEL 1
REMARK minimizedAffinity -2.4519155
REMARK minimizedRMSD -1
REMARK  2 active torsions:
REMARK  status: ('A' for Active; 'I' for Inactive)
REMARK    1  A    between atoms: C1_2  and  C2_3 
REMARK    2  A    between atoms: C2_3  and  C3_4 
ROOT
ATOM      1  C3  UNL d   1       3.375   2.625   1.397  0.00  0.00    -0.075 A 
ATOM      2  C4  UNL d   1       3.832   1.432   1.976  0.00  0.00     0.002 A 
ATOM      3  C5  UNL d   1       3.777   1.248   3.358  0.00  0.00     0.002 A 
ATOM      4  C6  UNL d   1       3.275   2.257   4.178  0.00  0.00    -0.004 A 
ATOM      5  C7  UNL d   1       2.834   3.452   3.616  0.00  0.00     0.002 A 
ATOM      6  C8  UNL d   1       2.884   3.637   2.233  0.00  0.00     0.002 A 
ENDROOT
BRANCH   1   7
ATOM      7  C2  UNL d   1       3.404   2.819  -0.100  0.00  0.00     0.056 C 
BRANCH   7   8
ATOM      8  C1  UNL d   1       4.170   4.066  -0.553  0.00  0.00     0.007 C 
ATOM      9  C   UNL d   1       5.276   3.761  -1.554  0.00  0.00     0.009 C 
ENDBRANCH   7   8
ENDBRANCH   1   7
TORSDOF 2
ENDMDL
