MODEL 1
REMARK minimizedAffinity -4.75005531
REMARK minimizedRMSD -1
REMARK  3 active torsions:
REMARK  status: ('A' for Active; 'I' for Inactive)
REMARK    1  A    between atoms: C3'_2  and  C2'_3 
REMARK    2  A    between atoms: C2'_3  and  C1'_4 
REMARK    3  A    between atoms: C1'_4  and  C1_5 
ROOT
ATOM      1  C1  N4B d   1      -0.275  -0.111  -0.112  0.00  0.00    -0.075 A 
ATOM      2  C2  N4B d   1      -1.676  -0.111   0.070  0.00  0.00     0.002 A 
ATOM      3  C3  N4B d   1      -2.219   0.412   1.218  0.00  0.00     0.002 A 
ATOM      4  C4  N4B d   1      -1.385   0.921   2.201  0.00  0.00    -0.004 A 
ATOM      5  C5  N4B d   1      -0.035   0.941   2.007  0.00  0.00     0.002 A 
ATOM      6  C6  N4B d   1       0.525   0.422   0.857  0.00  0.00     0.002 A 
ENDROOT
BRANCH   1   7
ATOM      7  C1' N4B d   1       0.370  -0.749  -1.311  0.00  0.00     0.057 C 
BRANCH   7   8
ATOM      8  C2' N4B d   1       1.688  -0.040  -1.608  0.00  0.00     0.009 C 
BRANCH   8   9
ATOM      9  C3' N4B d   1       1.649   0.701  -2.934  0.00  0.00     0.004 C 
ATOM     10  C4' N4B d   1       0.881  -0.038  -3.989  0.00  0.00     0.003 C 
ENDBRANCH   8   9
ENDBRANCH   7   8
ENDBRANCH   1   7
TORSDOF 3
ENDMDL
