MODEL 1
REMARK minimizedAffinity -3.71223569
REMARK minimizedRMSD -1
REMARK  3 active torsions:
REMARK  status: ('A' for Active; 'I' for Inactive)
REMARK    1  A    between atoms: C3'_2  and  C2'_3 
REMARK    2  A    between atoms: C2'_3  and  C1'_4 
REMARK    3  A    between atoms: C1'_4  and  C1_5 
ROOT
ATOM      1  C1  N4B d   1      -0.898   0.082   0.146  0.00  0.00    -0.075 A 
ATOM      2  C2  N4B d   1      -2.111  -0.420   0.666  0.00  0.00     0.002 A 
ATOM      3  C3  N4B d   1      -2.378  -0.312   2.009  0.00  0.00     0.002 A 
ATOM      4  C4  N4B d   1      -1.444   0.274   2.850  0.00  0.00    -0.004 A 
ATOM      5  C5  N4B d   1      -0.286   0.780   2.335  0.00  0.00     0.002 A 
ATOM      6  C6  N4B d   1      -0.006   0.682   0.987  0.00  0.00     0.002 A 
ENDROOT
BRANCH   1   7
ATOM      7  C1' N4B d   1      -0.524  -0.089  -1.301  0.00  0.00     0.057 C 
BRANCH   7   8
ATOM      8  C2' N4B d   1       0.996  -0.154  -1.421  0.00  0.00     0.009 C 
BRANCH   8   9
ATOM      9  C3' N4B d   1       1.481   0.334  -2.775  0.00  0.00     0.004 C 
ATOM     10  C4' N4B d   1       0.441   0.202  -3.846  0.00  0.00     0.003 C 
ENDBRANCH   8   9
ENDBRANCH   7   8
ENDBRANCH   1   7
TORSDOF 3
ENDMDL
