MODEL 1
REMARK minimizedAffinity -2.88772249
REMARK minimizedRMSD -1
REMARK  0 active torsions:
REMARK  status: ('A' for Active; 'I' for Inactive)
ROOT
ATOM      1  C2' OXE d   1      -1.509   0.614   1.466  0.00  0.00     0.078 C 
ATOM      2  C1' OXE d   1      -3.477   2.463   2.233  0.00  0.00     0.078 C 
ATOM      3  C1  OXE d   1      -2.166   2.482   2.978  0.00  0.00    -0.078 A 
ATOM      4  C2  OXE d   1      -1.226   1.543   2.627  0.00  0.00    -0.078 A 
ATOM      5  C3  OXE d   1       0.021   1.552   3.245  0.00  0.00     0.003 A 
ATOM      6  C4  OXE d   1       0.271   2.408   4.325  0.00  0.00    -0.002 A 
ATOM      7  C5  OXE d   1      -0.687   3.346   4.724  0.00  0.00    -0.002 A 
ATOM      8  C6  OXE d   1      -1.892   3.424   4.035  0.00  0.00     0.003 A 
ENDROOT
TORSDOF 0
ENDMDL
