MODEL 1
REMARK minimizedAffinity -2.42440486
REMARK minimizedRMSD -1
REMARK  0 active torsions:
REMARK  status: ('A' for Active; 'I' for Inactive)
ROOT
ATOM      1  C2' OXE d   1       0.202   1.432   3.453  0.00  0.00     0.078 C 
ATOM      2  C1' OXE d   1      -2.183   2.434   2.362  0.00  0.00     0.078 C 
ATOM      3  C1  OXE d   1      -1.326   1.552   1.489  0.00  0.00    -0.078 A 
ATOM      4  C2  OXE d   1      -0.138   1.104   2.015  0.00  0.00    -0.078 A 
ATOM      5  C3  OXE d   1       0.664   0.243   1.271  0.00  0.00     0.003 A 
ATOM      6  C4  OXE d   1       0.347  -0.047  -0.061  0.00  0.00    -0.002 A 
ATOM      7  C5  OXE d   1      -0.839   0.431  -0.629  0.00  0.00    -0.002 A 
ATOM      8  C6  OXE d   1      -1.705   1.195   0.144  0.00  0.00     0.003 A 
ENDROOT
TORSDOF 0
ENDMDL
