MODEL 1
REMARK minimizedAffinity -4.60772896
REMARK minimizedRMSD -1
REMARK  0 active torsions:
REMARK  status: ('A' for Active; 'I' for Inactive)
ROOT
ATOM      1  C2' OXE d   1      -3.550   0.218   0.640  0.00  0.00     0.078 C 
ATOM      2  C1' OXE d   1      -1.030  -0.048  -0.569  0.00  0.00     0.078 C 
ATOM      3  C1  OXE d   1      -1.112  -0.205   0.928  0.00  0.00    -0.078 A 
ATOM      4  C2  OXE d   1      -2.341  -0.027   1.517  0.00  0.00    -0.078 A 
ATOM      5  C3  OXE d   1      -2.481  -0.214   2.889  0.00  0.00     0.003 A 
ATOM      6  C4  OXE d   1      -1.356  -0.431   3.694  0.00  0.00    -0.002 A 
ATOM      7  C5  OXE d   1      -0.089  -0.576   3.119  0.00  0.00    -0.002 A 
ATOM      8  C6  OXE d   1       0.043  -0.509   1.737  0.00  0.00     0.003 A 
ENDROOT
TORSDOF 0
ENDMDL
