MODEL 1
REMARK minimizedAffinity -1.96224165
REMARK minimizedRMSD -1
REMARK  0 active torsions:
REMARK  status: ('A' for Active; 'I' for Inactive)
ROOT
ATOM      1  C2' OXE d   1      -0.903  -1.112   3.316  0.00  0.00     0.078 C 
ATOM      2  C1' OXE d   1       0.092   1.343   2.387  0.00  0.00     0.078 C 
ATOM      3  C1  OXE d   1      -0.001   0.204   1.403  0.00  0.00    -0.078 A 
ATOM      4  C2  OXE d   1      -0.445  -1.007   1.878  0.00  0.00    -0.078 A 
ATOM      5  C3  OXE d   1      -0.601  -2.075   1.000  0.00  0.00     0.003 A 
ATOM      6  C4  OXE d   1      -0.166  -1.973  -0.327  0.00  0.00    -0.002 A 
ATOM      7  C5  OXE d   1       0.327  -0.760  -0.821  0.00  0.00    -0.002 A 
ATOM      8  C6  OXE d   1       0.376   0.348   0.018  0.00  0.00     0.003 A 
ENDROOT
TORSDOF 0
ENDMDL
