MODEL 1
REMARK minimizedAffinity -4.84883404
REMARK minimizedRMSD -1
REMARK  0 active torsions:
REMARK  status: ('A' for Active; 'I' for Inactive)
ROOT
ATOM      1  C2' OXE d   1      -1.497   1.106  -1.133  0.00  0.00     0.078 C 
ATOM      2  C1' OXE d   1       0.733  -0.569  -1.458  0.00  0.00     0.078 C 
ATOM      3  C1  OXE d   1       0.166  -0.414  -0.069  0.00  0.00    -0.078 A 
ATOM      4  C2  OXE d   1      -0.896   0.444   0.088  0.00  0.00    -0.078 A 
ATOM      5  C3  OXE d   1      -1.492   0.581   1.339  0.00  0.00     0.003 A 
ATOM      6  C4  OXE d   1      -0.925  -0.027   2.465  0.00  0.00    -0.002 A 
ATOM      7  C5  OXE d   1       0.182  -0.873   2.333  0.00  0.00    -0.002 A 
ATOM      8  C6  OXE d   1       0.712  -1.110   1.070  0.00  0.00     0.003 A 
ENDROOT
TORSDOF 0
ENDMDL
