MODEL 1
REMARK minimizedAffinity -4.30741978
REMARK minimizedRMSD -1
REMARK  0 active torsions:
REMARK  status: ('A' for Active; 'I' for Inactive)
ROOT
ATOM      1  C2' OXE d   1       0.084   0.091  -1.526  0.00  0.00     0.078 C 
ATOM      2  C1' OXE d   1      -2.065  -0.126   0.268  0.00  0.00     0.078 C 
ATOM      3  C1  OXE d   1      -0.667  -0.192   0.832  0.00  0.00    -0.078 A 
ATOM      4  C2  OXE d   1       0.378  -0.131  -0.058  0.00  0.00    -0.078 A 
ATOM      5  C3  OXE d   1       1.687  -0.133   0.414  0.00  0.00     0.003 A 
ATOM      6  C4  OXE d   1       1.950  -0.349   1.772  0.00  0.00    -0.002 A 
ATOM      7  C5  OXE d   1       0.900  -0.453   2.691  0.00  0.00    -0.002 A 
ATOM      8  C6  OXE d   1      -0.411  -0.334   2.244  0.00  0.00     0.003 A 
ENDROOT
TORSDOF 0
ENDMDL
