MODEL 1
REMARK minimizedAffinity -3.64546871
REMARK minimizedRMSD -1
REMARK  0 active torsions:
REMARK  status: ('A' for Active; 'I' for Inactive)
ROOT
ATOM      1  C2' OXE d   1       0.751  -0.522   0.159  0.00  0.00     0.078 C 
ATOM      2  C1' OXE d   1      -1.131  -1.943   1.682  0.00  0.00     0.078 C 
ATOM      3  C1  OXE d   1      -1.648  -0.929   0.694  0.00  0.00    -0.078 A 
ATOM      4  C2  OXE d   1      -0.719  -0.204  -0.014  0.00  0.00    -0.078 A 
ATOM      5  C3  OXE d   1      -1.143   0.705  -0.978  0.00  0.00     0.003 A 
ATOM      6  C4  OXE d   1      -2.504   1.000  -1.125  0.00  0.00    -0.002 A 
ATOM      7  C5  OXE d   1      -3.465   0.302  -0.386  0.00  0.00    -0.002 A 
ATOM      8  C6  OXE d   1      -3.057  -0.693   0.495  0.00  0.00     0.003 A 
ENDROOT
TORSDOF 0
ENDMDL
