MODEL 1
REMARK minimizedAffinity -5.51852322
REMARK minimizedRMSD -1
REMARK  0 active torsions:
REMARK  status: ('A' for Active; 'I' for Inactive)
ROOT
ATOM      1  C2' OXE d   1      -2.796  -0.031   0.375  0.00  0.00     0.078 C 
ATOM      2  C1' OXE d   1      -0.874   0.725  -1.526  0.00  0.00     0.078 C 
ATOM      3  C1  OXE d   1      -0.405   0.464  -0.116  0.00  0.00    -0.078 A 
ATOM      4  C2  OXE d   1      -1.359   0.140   0.818  0.00  0.00    -0.078 A 
ATOM      5  C3  OXE d   1      -0.973  -0.164   2.120  0.00  0.00     0.003 A 
ATOM      6  C4  OXE d   1       0.357   0.007   2.524  0.00  0.00    -0.002 A 
ATOM      7  C5  OXE d   1       1.338   0.375   1.597  0.00  0.00    -0.002 A 
ATOM      8  C6  OXE d   1       0.982   0.565   0.267  0.00  0.00     0.003 A 
ENDROOT
TORSDOF 0
ENDMDL
