MODEL 1
REMARK minimizedAffinity -5.05310631
REMARK minimizedRMSD -1
REMARK  0 active torsions:
REMARK  status: ('A' for Active; 'I' for Inactive)
ROOT
ATOM      1  C2' OXE d   1      -2.670  -0.402   1.026  0.00  0.00     0.078 C 
ATOM      2  C1' OXE d   1      -1.231  -0.880   3.388  0.00  0.00     0.078 C 
ATOM      3  C1  OXE d   1      -0.496  -0.248   2.233  0.00  0.00    -0.078 A 
ATOM      4  C2  OXE d   1      -1.196  -0.061   1.065  0.00  0.00    -0.078 A 
ATOM      5  C3  OXE d   1      -0.581   0.569  -0.014  0.00  0.00     0.003 A 
ATOM      6  C4  OXE d   1       0.785   0.872   0.027  0.00  0.00    -0.002 A 
ATOM      7  C5  OXE d   1       1.526   0.653   1.193  0.00  0.00    -0.002 A 
ATOM      8  C6  OXE d   1       0.892   0.134   2.316  0.00  0.00     0.003 A 
ENDROOT
TORSDOF 0
ENDMDL
