MODEL 1
REMARK minimizedAffinity -2.77281117
REMARK minimizedRMSD -1
REMARK  0 active torsions:
REMARK  status: ('A' for Active; 'I' for Inactive)
ROOT
ATOM      1  C2' OXE d   1       1.462   0.357   0.887  0.00  0.00     0.078 C 
ATOM      2  C1' OXE d   1      -0.973   0.109  -0.489  0.00  0.00     0.078 C 
ATOM      3  C1  OXE d   1       0.259  -0.482  -1.127  0.00  0.00    -0.078 A 
ATOM      4  C2  OXE d   1       1.454  -0.316  -0.469  0.00  0.00    -0.078 A 
ATOM      5  C3  OXE d   1       2.612  -0.889  -0.986  0.00  0.00     0.003 A 
ATOM      6  C4  OXE d   1       2.598  -1.500  -2.246  0.00  0.00    -0.002 A 
ATOM      7  C5  OXE d   1       1.399  -1.646  -2.951  0.00  0.00    -0.002 A 
ATOM      8  C6  OXE d   1       0.216  -1.181  -2.387  0.00  0.00     0.003 A 
ENDROOT
TORSDOF 0
ENDMDL
