MODEL 1
REMARK minimizedAffinity -1.31383002
REMARK minimizedRMSD -1
REMARK  0 active torsions:
REMARK  status: ('A' for Active; 'I' for Inactive)
ROOT
ATOM      1  C2' OXE d   1       0.750   0.083  -0.989  0.00  0.00     0.078 C 
ATOM      2  C1' OXE d   1      -1.912   0.186  -0.106  0.00  0.00     0.078 C 
ATOM      3  C1  OXE d   1      -0.826   0.148   0.939  0.00  0.00    -0.078 A 
ATOM      4  C2  OXE d   1       0.472   0.050   0.499  0.00  0.00    -0.078 A 
ATOM      5  C3  OXE d   1       1.516   0.067   1.420  0.00  0.00     0.003 A 
ATOM      6  C4  OXE d   1       1.249   0.026   2.794  0.00  0.00    -0.002 A 
ATOM      7  C5  OXE d   1      -0.067   0.085   3.264  0.00  0.00    -0.002 A 
ATOM      8  C6  OXE d   1      -1.112   0.188   2.352  0.00  0.00     0.003 A 
ENDROOT
TORSDOF 0
ENDMDL
