MODEL 1
REMARK minimizedAffinity -4.23321152
REMARK minimizedRMSD -1
REMARK  0 active torsions:
REMARK  status: ('A' for Active; 'I' for Inactive)
ROOT
ATOM      1  C2' OXE d   1      -0.743  -0.924   3.047  0.00  0.00     0.078 C 
ATOM      2  C1' OXE d   1       1.595   0.552   2.557  0.00  0.00     0.078 C 
ATOM      3  C1  OXE d   1       0.696   0.248   1.384  0.00  0.00    -0.078 A 
ATOM      4  C2  OXE d   1      -0.422  -0.515   1.625  0.00  0.00    -0.078 A 
ATOM      5  C3  OXE d   1      -1.313  -0.778   0.589  0.00  0.00     0.003 A 
ATOM      6  C4  OXE d   1      -1.003  -0.405  -0.724  0.00  0.00    -0.002 A 
ATOM      7  C5  OXE d   1       0.150   0.338  -0.998  0.00  0.00    -0.002 A 
ATOM      8  C6  OXE d   1       0.987   0.708   0.049  0.00  0.00     0.003 A 
ENDROOT
TORSDOF 0
ENDMDL
