MODEL 1
REMARK minimizedAffinity -3.26309681
REMARK minimizedRMSD -1
REMARK  0 active torsions:
REMARK  status: ('A' for Active; 'I' for Inactive)
ROOT
ATOM      1  C2' OXE d   1      -2.715  -0.547   0.623  0.00  0.00     0.078 C 
ATOM      2  C1' OXE d   1      -0.994  -0.495   2.841  0.00  0.00     0.078 C 
ATOM      3  C1  OXE d   1      -0.472   0.043   1.532  0.00  0.00    -0.078 A 
ATOM      4  C2  OXE d   1      -1.305  -0.030   0.441  0.00  0.00    -0.078 A 
ATOM      5  C3  OXE d   1      -0.893   0.502  -0.777  0.00  0.00     0.003 A 
ATOM      6  C4  OXE d   1       0.417   0.970  -0.940  0.00  0.00    -0.002 A 
ATOM      7  C5  OXE d   1       1.295   1.016   0.149  0.00  0.00    -0.002 A 
ATOM      8  C6  OXE d   1       0.853   0.597   1.399  0.00  0.00     0.003 A 
ENDROOT
TORSDOF 0
ENDMDL
