MODEL 1
REMARK minimizedAffinity -2.83569717
REMARK minimizedRMSD -1
REMARK  0 active torsions:
REMARK  status: ('A' for Active; 'I' for Inactive)
ROOT
ATOM      1  C2' OXE d   1      -0.597  -0.789   3.225  0.00  0.00     0.078 C 
ATOM      2  C1' OXE d   1       1.614   0.919   2.962  0.00  0.00     0.078 C 
ATOM      3  C1  OXE d   1       0.813   0.610   1.722  0.00  0.00    -0.078 A 
ATOM      4  C2  OXE d   1      -0.240  -0.264   1.851  0.00  0.00    -0.078 A 
ATOM      5  C3  OXE d   1      -1.045  -0.541   0.750  0.00  0.00     0.003 A 
ATOM      6  C4  OXE d   1      -0.701  -0.059  -0.519  0.00  0.00    -0.002 A 
ATOM      7  C5  OXE d   1       0.390   0.801  -0.679  0.00  0.00    -0.002 A 
ATOM      8  C6  OXE d   1       1.131   1.179   0.435  0.00  0.00     0.003 A 
ENDROOT
TORSDOF 0
ENDMDL
