MODEL 1
REMARK minimizedAffinity -3.54242516
REMARK minimizedRMSD -1
REMARK  0 active torsions:
REMARK  status: ('A' for Active; 'I' for Inactive)
ROOT
ATOM      1  C2' OXE d   1       2.325  -1.399   0.996  0.00  0.00     0.078 C 
ATOM      2  C1' OXE d   1       0.722   0.021  -0.819  0.00  0.00     0.078 C 
ATOM      3  C1  OXE d   1       0.180  -0.207   0.570  0.00  0.00    -0.078 A 
ATOM      4  C2  OXE d   1       0.951  -0.943   1.437  0.00  0.00    -0.078 A 
ATOM      5  C3  OXE d   1       0.522  -1.136   2.747  0.00  0.00     0.003 A 
ATOM      6  C4  OXE d   1      -0.755  -0.719   3.143  0.00  0.00    -0.002 A 
ATOM      7  C5  OXE d   1      -1.572  -0.002   2.264  0.00  0.00    -0.002 A 
ATOM      8  C6  OXE d   1      -1.104   0.299   0.990  0.00  0.00     0.003 A 
ENDROOT
TORSDOF 0
ENDMDL
