MODEL 1
REMARK minimizedAffinity -4.41641045
REMARK minimizedRMSD -1
REMARK  0 active torsions:
REMARK  status: ('A' for Active; 'I' for Inactive)
ROOT
ATOM      1  C2' OXE d   1       2.274   0.181   1.891  0.00  0.00     0.078 C 
ATOM      2  C1' OXE d   1       1.198  -0.288  -0.659  0.00  0.00     0.078 C 
ATOM      3  C1  OXE d   1       0.236  -0.028   0.473  0.00  0.00    -0.078 A 
ATOM      4  C2  OXE d   1       0.770   0.154   1.727  0.00  0.00    -0.078 A 
ATOM      5  C3  OXE d   1      -0.070   0.452   2.796  0.00  0.00     0.003 A 
ATOM      6  C4  OXE d   1      -1.461   0.415   2.638  0.00  0.00    -0.002 A 
ATOM      7  C5  OXE d   1      -2.026   0.192   1.377  0.00  0.00    -0.002 A 
ATOM      8  C6  OXE d   1      -1.192   0.012   0.279  0.00  0.00     0.003 A 
ENDROOT
TORSDOF 0
ENDMDL
