MODEL 1
REMARK minimizedAffinity -5.10709953
REMARK minimizedRMSD -1
REMARK  0 active torsions:
REMARK  status: ('A' for Active; 'I' for Inactive)
ROOT
ATOM      1  C2' OXE d   1      -1.035  -0.902   3.063  0.00  0.00     0.078 C 
ATOM      2  C1' OXE d   1       1.347   0.534   2.687  0.00  0.00     0.078 C 
ATOM      3  C1  OXE d   1       0.395   0.434   1.521  0.00  0.00    -0.078 A 
ATOM      4  C2  OXE d   1      -0.747  -0.310   1.700  0.00  0.00    -0.078 A 
ATOM      5  C3  OXE d   1      -1.685  -0.390   0.675  0.00  0.00     0.003 A 
ATOM      6  C4  OXE d   1      -1.406   0.152  -0.585  0.00  0.00    -0.002 A 
ATOM      7  C5  OXE d   1      -0.231   0.880  -0.801  0.00  0.00    -0.002 A 
ATOM      8  C6  OXE d   1       0.658   1.066   0.252  0.00  0.00     0.003 A 
ENDROOT
TORSDOF 0
ENDMDL
