MODEL 1
REMARK minimizedAffinity 9.06416512
REMARK minimizedRMSD -1
REMARK  0 active torsions:
REMARK  status: ('A' for Active; 'I' for Inactive)
ROOT
ATOM      1  C   UNL d   1       1.940   0.382   2.814  0.00  0.00     0.023 A 
ATOM      2  C1  UNL d   1       2.107   0.824   1.501  0.00  0.00     0.003 A 
ATOM      3  C2  UNL d   1       3.271   0.507   0.799  0.00  0.00     0.048 A 
ATOM      4  C3  UNL d   1       4.266  -0.252   1.415  0.00  0.00     0.023 A 
ATOM      5  C4  UNL d   1       4.103  -0.697   2.728  0.00  0.00     0.048 A 
ATOM      6  C5  UNL d   1       2.938  -0.377   3.426  0.00  0.00     0.003 A 
ATOM      7  I   UNL d   1       6.000  -0.724   0.371  0.00  0.00    -0.146 I 
ENDROOT
TORSDOF 0
ENDMDL
