MODEL 1
REMARK minimizedAffinity 16.0887051
REMARK minimizedRMSD -1
REMARK  0 active torsions:
REMARK  status: ('A' for Active; 'I' for Inactive)
ROOT
ATOM      1  C   UNL d   1      -5.034  -3.061  -5.101  0.00  0.00     0.023 A 
ATOM      2  C1  UNL d   1      -3.652  -2.963  -5.261  0.00  0.00     0.003 A 
ATOM      3  C2  UNL d   1      -2.835  -2.729  -4.153  0.00  0.00     0.048 A 
ATOM      4  C3  UNL d   1      -3.406  -2.596  -2.888  0.00  0.00     0.023 A 
ATOM      5  C4  UNL d   1      -4.789  -2.694  -2.723  0.00  0.00     0.048 A 
ATOM      6  C5  UNL d   1      -5.602  -2.927  -3.834  0.00  0.00     0.003 A 
ATOM      7  I   UNL d   1      -2.192  -2.248  -1.237  0.00  0.00    -0.146 I 
ENDROOT
TORSDOF 0
ENDMDL
