MODEL 1
REMARK minimizedAffinity 7.07042265
REMARK minimizedRMSD -1
REMARK  0 active torsions:
REMARK  status: ('A' for Active; 'I' for Inactive)
ROOT
ATOM      1  C   UNL d   1      -4.873  -0.228   4.354  0.00  0.00     0.023 A 
ATOM      2  C1  UNL d   1      -5.581   0.039   5.526  0.00  0.00     0.003 A 
ATOM      3  C2  UNL d   1      -5.681   1.349   6.000  0.00  0.00     0.048 A 
ATOM      4  C3  UNL d   1      -5.072   2.387   5.297  0.00  0.00     0.023 A 
ATOM      5  C4  UNL d   1      -4.363   2.125   4.123  0.00  0.00     0.048 A 
ATOM      6  C5  UNL d   1      -4.265   0.814   3.653  0.00  0.00     0.003 A 
ATOM      7  I   UNL d   1      -5.219   4.337   6.000  0.00  0.00    -0.146 I 
ENDROOT
TORSDOF 0
ENDMDL
