MODEL 1
REMARK minimizedAffinity 10.2111521
REMARK minimizedRMSD -1
REMARK  0 active torsions:
REMARK  status: ('A' for Active; 'I' for Inactive)
ROOT
ATOM      1  C   UNL d   1       4.049  -1.127   1.354  0.00  0.00     0.023 A 
ATOM      2  C1  UNL d   1       3.231  -1.118   2.484  0.00  0.00     0.003 A 
ATOM      3  C2  UNL d   1       3.789  -0.930   3.750  0.00  0.00     0.048 A 
ATOM      4  C3  UNL d   1       5.166  -0.751   3.879  0.00  0.00     0.023 A 
ATOM      5  C4  UNL d   1       5.988  -0.759   2.751  0.00  0.00     0.048 A 
ATOM      6  C5  UNL d   1       5.426  -0.948   1.487  0.00  0.00     0.003 A 
ATOM      7  I   UNL d   1       6.000  -0.472   5.762  0.00  0.00    -0.146 I 
ENDROOT
TORSDOF 0
ENDMDL
