MODEL 1
REMARK minimizedAffinity 16.1370258
REMARK minimizedRMSD -1
REMARK  0 active torsions:
REMARK  status: ('A' for Active; 'I' for Inactive)
ROOT
ATOM      1  C   UNL d   1       3.696   1.433   0.480  0.00  0.00     0.023 A 
ATOM      2  C1  UNL d   1       2.469   2.090   0.569  0.00  0.00     0.003 A 
ATOM      3  C2  UNL d   1       1.366   1.440   1.126  0.00  0.00     0.048 A 
ATOM      4  C3  UNL d   1       1.498   0.133   1.594  0.00  0.00     0.023 A 
ATOM      5  C4  UNL d   1       2.724  -0.528   1.509  0.00  0.00     0.048 A 
ATOM      6  C5  UNL d   1       3.823   0.125   0.949  0.00  0.00     0.003 A 
ATOM      7  I   UNL d   1      -0.143  -0.836   2.425  0.00  0.00    -0.146 I 
ENDROOT
TORSDOF 0
ENDMDL
