MODEL 1
REMARK minimizedAffinity 16.7543755
REMARK minimizedRMSD -1
REMARK  0 active torsions:
REMARK  status: ('A' for Active; 'I' for Inactive)
ROOT
ATOM      1  C   UNL d   1      -0.735  -1.702  -2.091  0.00  0.00     0.023 A 
ATOM      2  C1  UNL d   1      -0.984  -2.287  -3.333  0.00  0.00     0.003 A 
ATOM      3  C2  UNL d   1      -2.226  -2.868  -3.596  0.00  0.00     0.048 A 
ATOM      4  C3  UNL d   1      -3.215  -2.861  -2.613  0.00  0.00     0.023 A 
ATOM      5  C4  UNL d   1      -2.971  -2.276  -1.369  0.00  0.00     0.048 A 
ATOM      6  C5  UNL d   1      -1.728  -1.696  -1.110  0.00  0.00     0.003 A 
ATOM      7  I   UNL d   1      -5.065  -3.725  -3.002  0.00  0.00    -0.146 I 
ENDROOT
TORSDOF 0
ENDMDL
