MODEL 1
REMARK minimizedAffinity 5.60087442
REMARK minimizedRMSD -1
REMARK  0 active torsions:
REMARK  status: ('A' for Active; 'I' for Inactive)
ROOT
ATOM      1  C   UNL d   1      -4.191   3.058   3.989  0.00  0.00     0.023 A 
ATOM      2  C1  UNL d   1      -4.538   3.046   5.340  0.00  0.00     0.003 A 
ATOM      3  C2  UNL d   1      -5.057   1.886   5.919  0.00  0.00     0.048 A 
ATOM      4  C3  UNL d   1      -5.226   0.741   5.141  0.00  0.00     0.023 A 
ATOM      5  C4  UNL d   1      -4.880   0.748   3.789  0.00  0.00     0.048 A 
ATOM      6  C5  UNL d   1      -4.362   1.910   3.214  0.00  0.00     0.003 A 
ATOM      7  I   UNL d   1      -5.999  -0.986   6.000  0.00  0.00    -0.146 I 
ENDROOT
TORSDOF 0
ENDMDL
