MODEL 1
REMARK minimizedAffinity 13.4214172
REMARK minimizedRMSD -1
REMARK  0 active torsions:
REMARK  status: ('A' for Active; 'I' for Inactive)
ROOT
ATOM      1  C   UNL d   1       0.149   1.157   2.251  0.00  0.00     0.023 A 
ATOM      2  C1  UNL d   1       1.291   1.506   1.530  0.00  0.00     0.003 A 
ATOM      3  C2  UNL d   1       2.531   0.968   1.880  0.00  0.00     0.048 A 
ATOM      4  C3  UNL d   1       2.622   0.081   2.952  0.00  0.00     0.023 A 
ATOM      5  C4  UNL d   1       1.482  -0.272   3.676  0.00  0.00     0.048 A 
ATOM      6  C5  UNL d   1       0.244   0.269   3.323  0.00  0.00     0.003 A 
ATOM      7  I   UNL d   1       4.467  -0.720   3.476  0.00  0.00    -0.146 I 
ENDROOT
TORSDOF 0
ENDMDL
