MODEL 1
REMARK minimizedAffinity 1.19914615
REMARK minimizedRMSD -1
REMARK  0 active torsions:
REMARK  status: ('A' for Active; 'I' for Inactive)
ROOT
ATOM      1  C   UNL d   1      -5.417   0.297   4.328  0.00  0.00     0.023 A 
ATOM      2  C1  UNL d   1      -6.000   0.735   5.518  0.00  0.00     0.003 A 
ATOM      3  C2  UNL d   1      -5.728   2.017   5.999  0.00  0.00     0.048 A 
ATOM      4  C3  UNL d   1      -4.872   2.857   5.286  0.00  0.00     0.023 A 
ATOM      5  C4  UNL d   1      -4.287   2.423   4.095  0.00  0.00     0.048 A 
ATOM      6  C5  UNL d   1      -4.562   1.139   3.618  0.00  0.00     0.003 A 
ATOM      7  I   UNL d   1      -4.466   4.766   6.000  0.00  0.00    -0.146 I 
ENDROOT
TORSDOF 0
ENDMDL
