MODEL 1
REMARK minimizedAffinity 11.2940922
REMARK minimizedRMSD -1
REMARK  0 active torsions:
REMARK  status: ('A' for Active; 'I' for Inactive)
ROOT
ATOM      1  C   UNL d   1      -6.000  -4.816  -2.624  0.00  0.00     0.023 A 
ATOM      2  C1  UNL d   1      -5.988  -3.520  -3.139  0.00  0.00     0.003 A 
ATOM      3  C2  UNL d   1      -4.893  -2.685  -2.907  0.00  0.00     0.048 A 
ATOM      4  C3  UNL d   1      -3.812  -3.154  -2.160  0.00  0.00     0.023 A 
ATOM      5  C4  UNL d   1      -3.820  -4.451  -1.644  0.00  0.00     0.048 A 
ATOM      6  C5  UNL d   1      -4.917  -5.281  -1.878  0.00  0.00     0.003 A 
ATOM      7  I   UNL d   1      -2.181  -1.914  -1.814  0.00  0.00    -0.146 I 
ENDROOT
TORSDOF 0
ENDMDL
