MODEL 1
REMARK minimizedAffinity 0.897756636
REMARK minimizedRMSD -1
REMARK  0 active torsions:
REMARK  status: ('A' for Active; 'I' for Inactive)
ROOT
ATOM      1  C   UNL d   1      -5.264  -0.748   3.498  0.00  0.00     0.023 A 
ATOM      2  C1  UNL d   1      -5.995  -0.626   4.680  0.00  0.00     0.003 A 
ATOM      3  C2  UNL d   1      -5.969   0.571   5.399  0.00  0.00     0.048 A 
ATOM      4  C3  UNL d   1      -5.210   1.643   4.930  0.00  0.00     0.023 A 
ATOM      5  C4  UNL d   1      -4.478   1.526   3.747  0.00  0.00     0.048 A 
ATOM      6  C5  UNL d   1      -4.506   0.327   3.032  0.00  0.00     0.003 A 
ATOM      7  I   UNL d   1      -5.170   3.425   5.998  0.00  0.00    -0.146 I 
ENDROOT
TORSDOF 0
ENDMDL
