MODEL 1
REMARK minimizedAffinity 2.10492182
REMARK minimizedRMSD -1
REMARK  0 active torsions:
REMARK  status: ('A' for Active; 'I' for Inactive)
ROOT
ATOM      1  C   UNL d   1      -2.527   5.987  -2.226  0.00  0.00     0.023 A 
ATOM      2  C1  UNL d   1      -3.870   5.995  -2.600  0.00  0.00     0.003 A 
ATOM      3  C2  UNL d   1      -4.868   5.988  -1.624  0.00  0.00     0.048 A 
ATOM      4  C3  UNL d   1      -4.515   5.975  -0.275  0.00  0.00     0.023 A 
ATOM      5  C4  UNL d   1      -3.172   5.967   0.104  0.00  0.00     0.048 A 
ATOM      6  C5  UNL d   1      -2.178   5.973  -0.876  0.00  0.00     0.003 A 
ATOM      7  I   UNL d   1      -5.999   5.964   1.181  0.00  0.00    -0.146 I 
ENDROOT
TORSDOF 0
ENDMDL
