MODEL 1
REMARK minimizedAffinity 11.2744703
REMARK minimizedRMSD -1
REMARK  0 active torsions:
REMARK  status: ('A' for Active; 'I' for Inactive)
ROOT
ATOM      1  C   UNL d   1      -3.596   3.285   4.072  0.00  0.00     0.023 A 
ATOM      2  C1  UNL d   1      -4.089   3.365   5.375  0.00  0.00     0.003 A 
ATOM      3  C2  UNL d   1      -4.779   2.285   5.929  0.00  0.00     0.048 A 
ATOM      4  C3  UNL d   1      -4.972   1.127   5.176  0.00  0.00     0.023 A 
ATOM      5  C4  UNL d   1      -4.480   1.042   3.873  0.00  0.00     0.048 A 
ATOM      6  C5  UNL d   1      -3.791   2.125   3.322  0.00  0.00     0.003 A 
ATOM      7  I   UNL d   1      -5.999  -0.481   5.999  0.00  0.00    -0.146 I 
ENDROOT
TORSDOF 0
ENDMDL
