MODEL 1
REMARK minimizedAffinity 7.03327942
REMARK minimizedRMSD -1
REMARK  0 active torsions:
REMARK  status: ('A' for Active; 'I' for Inactive)
ROOT
ATOM      1  C   UNL d   1       3.958   2.257  -3.358  0.00  0.00     0.023 A 
ATOM      2  C1  UNL d   1       3.575   3.442  -2.729  0.00  0.00     0.003 A 
ATOM      3  C2  UNL d   1       3.090   4.511  -3.486  0.00  0.00     0.048 A 
ATOM      4  C3  UNL d   1       2.987   4.387  -4.871  0.00  0.00     0.023 A 
ATOM      5  C4  UNL d   1       3.368   3.202  -5.504  0.00  0.00     0.048 A 
ATOM      6  C5  UNL d   1       3.854   2.137  -4.744  0.00  0.00     0.003 A 
ATOM      7  I   UNL d   1       2.264   5.975  -5.999  0.00  0.00    -0.146 I 
ENDROOT
TORSDOF 0
ENDMDL
