MODEL 1
REMARK minimizedAffinity 9.93949509
REMARK minimizedRMSD -1
REMARK  1 active torsions:
REMARK  status: ('A' for Active; 'I' for Inactive)
REMARK    1  A    between atoms: C1_2  and  C2_3 
ROOT
ATOM      1  C2  UNL d   1      -5.214  -3.457  -4.377  0.00  0.00    -0.076 A 
ATOM      2  C3  UNL d   1      -5.999  -4.534  -3.929  0.00  0.00     0.004 A 
ATOM      3  C4  UNL d   1      -5.888  -5.794  -4.512  0.00  0.00    -0.003 A 
ATOM      4  C5  UNL d   1      -4.989  -5.999  -5.554  0.00  0.00     0.000 A 
ATOM      5  C6  UNL d   1      -4.190  -4.947  -6.000  0.00  0.00     0.000 A 
ATOM      6  C7  UNL d   1      -4.278  -3.674  -5.411  0.00  0.00    -0.073 A 
ATOM      7  C8  UNL d   1      -3.397  -2.574  -5.936  0.00  0.00     0.078 C 
ENDROOT
BRANCH   1   8
ATOM      8  C1  UNL d   1      -5.397  -2.106  -3.724  0.00  0.00     0.053 C 
ATOM      9  C   UNL d   1      -4.131  -1.265  -3.760  0.00  0.00     0.018 C 
ENDBRANCH   1   8
TORSDOF 1
ENDMDL
