MODEL 1
REMARK minimizedAffinity 18.2463837
REMARK minimizedRMSD -1
REMARK  1 active torsions:
REMARK  status: ('A' for Active; 'I' for Inactive)
REMARK    1  A    between atoms: C1_2  and  C2_3 
ROOT
ATOM      1  C2  UNL d   1       1.439   0.016   1.907  0.00  0.00    -0.076 A 
ATOM      2  C3  UNL d   1       0.535  -0.366   2.913  0.00  0.00     0.004 A 
ATOM      3  C4  UNL d   1       0.378  -1.705   3.266  0.00  0.00    -0.003 A 
ATOM      4  C5  UNL d   1       1.124  -2.684   2.619  0.00  0.00     0.000 A 
ATOM      5  C6  UNL d   1       2.039  -2.322   1.632  0.00  0.00     0.000 A 
ATOM      6  C7  UNL d   1       2.221  -0.974   1.275  0.00  0.00    -0.073 A 
ATOM      7  C8  UNL d   1       3.217  -0.641   0.199  0.00  0.00     0.078 C 
ENDROOT
BRANCH   1   8
ATOM      8  C1  UNL d   1       1.547   1.481   1.549  0.00  0.00     0.053 C 
ATOM      9  C   UNL d   1       1.095   2.393   2.679  0.00  0.00     0.018 C 
ENDBRANCH   1   8
TORSDOF 1
ENDMDL
