MODEL 1
REMARK minimizedAffinity 18.6678696
REMARK minimizedRMSD -1
REMARK  1 active torsions:
REMARK  status: ('A' for Active; 'I' for Inactive)
REMARK    1  A    between atoms: C1_2  and  C2_3 
ROOT
ATOM      1  C2  UNL d   1      -4.815   2.858  -2.959  0.00  0.00    -0.076 A 
ATOM      2  C3  UNL d   1      -3.868   1.850  -3.209  0.00  0.00     0.004 A 
ATOM      3  C4  UNL d   1      -3.084   1.332  -2.180  0.00  0.00    -0.003 A 
ATOM      4  C5  UNL d   1      -3.234   1.814  -0.884  0.00  0.00     0.000 A 
ATOM      5  C6  UNL d   1      -4.181   2.802  -0.615  0.00  0.00     0.000 A 
ATOM      6  C7  UNL d   1      -4.991   3.323  -1.638  0.00  0.00    -0.073 A 
ATOM      7  C8  UNL d   1      -5.992   4.391  -1.293  0.00  0.00     0.078 C 
ENDROOT
BRANCH   1   8
ATOM      8  C1  UNL d   1      -5.619   3.401  -4.120  0.00  0.00     0.053 C 
ATOM      9  C   UNL d   1      -5.046   2.989  -5.467  0.00  0.00     0.018 C 
ENDBRANCH   1   8
TORSDOF 1
ENDMDL
