MODEL 1
REMARK minimizedAffinity 12.1823635
REMARK minimizedRMSD -1
REMARK  1 active torsions:
REMARK  status: ('A' for Active; 'I' for Inactive)
REMARK    1  A    between atoms: C1_2  and  C2_3 
ROOT
ATOM      1  C2  UNL d   1      -4.703   1.557  -3.322  0.00  0.00    -0.076 A 
ATOM      2  C3  UNL d   1      -5.243   0.312  -3.688  0.00  0.00     0.004 A 
ATOM      3  C4  UNL d   1      -4.926  -0.844  -2.977  0.00  0.00    -0.003 A 
ATOM      4  C5  UNL d   1      -4.065  -0.774  -1.887  0.00  0.00     0.000 A 
ATOM      5  C6  UNL d   1      -3.534   0.456  -1.499  0.00  0.00     0.000 A 
ATOM      6  C7  UNL d   1      -3.856   1.633  -2.196  0.00  0.00    -0.073 A 
ATOM      7  C8  UNL d   1      -3.250   2.932  -1.737  0.00  0.00     0.078 C 
ENDROOT
BRANCH   1   8
ATOM      8  C1  UNL d   1      -5.061   2.772  -4.147  0.00  0.00     0.053 C 
ATOM      9  C   UNL d   1      -5.302   2.433  -5.610  0.00  0.00     0.018 C 
ENDBRANCH   1   8
TORSDOF 1
ENDMDL
