MODEL 1
REMARK minimizedAffinity 14.217309
REMARK minimizedRMSD -1
REMARK  1 active torsions:
REMARK  status: ('A' for Active; 'I' for Inactive)
REMARK    1  A    between atoms: C1_2  and  C2_3 
ROOT
ATOM      1  C2  UNL d   1      -4.013   2.791  -0.163  0.00  0.00    -0.076 A 
ATOM      2  C3  UNL d   1      -5.260   3.439  -0.191  0.00  0.00     0.004 A 
ATOM      3  C4  UNL d   1      -5.999   3.622   0.976  0.00  0.00    -0.003 A 
ATOM      4  C5  UNL d   1      -5.503   3.161   2.190  0.00  0.00     0.000 A 
ATOM      5  C6  UNL d   1      -4.259   2.533   2.239  0.00  0.00     0.000 A 
ATOM      6  C7  UNL d   1      -3.494   2.355   1.074  0.00  0.00    -0.073 A 
ATOM      7  C8  UNL d   1      -2.162   1.665   1.184  0.00  0.00     0.078 C 
ENDROOT
BRANCH   1   8
ATOM      8  C1  UNL d   1      -3.268   2.597  -1.465  0.00  0.00     0.053 C 
ATOM      9  C   UNL d   1      -4.191   2.214  -2.612  0.00  0.00     0.018 C 
ENDBRANCH   1   8
TORSDOF 1
ENDMDL
