MODEL 1
REMARK minimizedAffinity 3.65199685
REMARK minimizedRMSD -1
REMARK  0 active torsions:
REMARK  status: ('A' for Active; 'I' for Inactive)
ROOT
ATOM      1  C   UNL d   1      -3.197   0.320   1.534  0.00  0.00     0.023 A 
ATOM      2  C1  UNL d   1      -2.444   0.966   0.553  0.00  0.00     0.003 A 
ATOM      3  C2  UNL d   1      -1.050   0.896   0.582  0.00  0.00     0.048 A 
ATOM      4  C3  UNL d   1      -0.415   0.178   1.595  0.00  0.00     0.023 A 
ATOM      5  C4  UNL d   1      -1.164  -0.471   2.578  0.00  0.00     0.048 A 
ATOM      6  C5  UNL d   1      -2.558  -0.397   2.545  0.00  0.00     0.003 A 
ATOM      7  I   UNL d   1       1.660   0.072   1.640  0.00  0.00    -0.146 I 
ENDROOT
TORSDOF 0
ENDMDL
