MODEL 1
REMARK minimizedAffinity 2.92985201
REMARK minimizedRMSD -1
REMARK  0 active torsions:
REMARK  status: ('A' for Active; 'I' for Inactive)
ROOT
ATOM      1  C   UNL d   1      -3.262   1.168   1.108  0.00  0.00     0.023 A 
ATOM      2  C1  UNL d   1      -2.511   0.287   0.329  0.00  0.00     0.003 A 
ATOM      3  C2  UNL d   1      -1.205  -0.038   0.703  0.00  0.00     0.048 A 
ATOM      4  C3  UNL d   1      -0.657   0.521   1.857  0.00  0.00     0.023 A 
ATOM      5  C4  UNL d   1      -1.405   1.402   2.640  0.00  0.00     0.048 A 
ATOM      6  C5  UNL d   1      -2.709   1.725   2.262  0.00  0.00     0.003 A 
ATOM      7  I   UNL d   1       1.286   0.038   2.415  0.00  0.00    -0.146 I 
ENDROOT
TORSDOF 0
ENDMDL
