MODEL 1
REMARK minimizedAffinity 1.16546011
REMARK minimizedRMSD -1
REMARK  0 active torsions:
REMARK  status: ('A' for Active; 'I' for Inactive)
ROOT
ATOM      1  C   UNL d   1      -3.509  -1.882   5.455  0.00  0.00     0.023 A 
ATOM      2  C1  UNL d   1      -4.156  -2.993   5.994  0.00  0.00     0.003 A 
ATOM      3  C2  UNL d   1      -4.778  -3.917   5.152  0.00  0.00     0.048 A 
ATOM      4  C3  UNL d   1      -4.748  -3.724   3.772  0.00  0.00     0.023 A 
ATOM      5  C4  UNL d   1      -4.101  -2.613   3.228  0.00  0.00     0.048 A 
ATOM      6  C5  UNL d   1      -3.481  -1.692   4.073  0.00  0.00     0.003 A 
ATOM      7  I   UNL d   1      -5.673  -5.098   2.516  0.00  0.00    -0.146 I 
ENDROOT
TORSDOF 0
ENDMDL
