MODEL 1
REMARK minimizedAffinity 13.3177271
REMARK minimizedRMSD -1
REMARK  0 active torsions:
REMARK  status: ('A' for Active; 'I' for Inactive)
ROOT
ATOM      1  C   UNL d   1       1.994   1.128   0.766  0.00  0.00     0.023 A 
ATOM      2  C1  UNL d   1       1.934   0.260   1.857  0.00  0.00     0.003 A 
ATOM      3  C2  UNL d   1       3.083  -0.003   2.606  0.00  0.00     0.048 A 
ATOM      4  C3  UNL d   1       4.289   0.606   2.259  0.00  0.00     0.023 A 
ATOM      5  C4  UNL d   1       4.353   1.477   1.170  0.00  0.00     0.048 A 
ATOM      6  C5  UNL d   1       3.202   1.736   0.423  0.00  0.00     0.003 A 
ATOM      7  I   UNL d   1       6.000   0.217   3.372  0.00  0.00    -0.146 I 
ENDROOT
TORSDOF 0
ENDMDL
