MODEL 1
REMARK minimizedAffinity -0.0925912336
REMARK minimizedRMSD -1
REMARK  0 active torsions:
REMARK  status: ('A' for Active; 'I' for Inactive)
ROOT
ATOM      1  C   UNL d   1      -5.973   0.752   4.059  0.00  0.00     0.023 A 
ATOM      2  C1  UNL d   1      -5.885   0.909   5.443  0.00  0.00     0.003 A 
ATOM      3  C2  UNL d   1      -5.767   2.185   5.996  0.00  0.00     0.048 A 
ATOM      4  C3  UNL d   1      -5.739   3.301   5.160  0.00  0.00     0.023 A 
ATOM      5  C4  UNL d   1      -5.828   3.149   3.775  0.00  0.00     0.048 A 
ATOM      6  C5  UNL d   1      -5.945   1.871   3.227  0.00  0.00     0.003 A 
ATOM      7  I   UNL d   1      -5.564   5.202   5.981  0.00  0.00    -0.146 I 
ENDROOT
TORSDOF 0
ENDMDL
