MODEL 1
REMARK minimizedAffinity 6.31041431
REMARK minimizedRMSD -1
REMARK  0 active torsions:
REMARK  status: ('A' for Active; 'I' for Inactive)
ROOT
ATOM      1  C   UNL d   1       3.354  -2.401  -3.341  0.00  0.00     0.023 A 
ATOM      2  C1  UNL d   1       2.408  -2.098  -4.321  0.00  0.00     0.003 A 
ATOM      3  C2  UNL d   1       2.333  -0.806  -4.846  0.00  0.00     0.048 A 
ATOM      4  C3  UNL d   1       3.207   0.178  -4.387  0.00  0.00     0.023 A 
ATOM      5  C4  UNL d   1       4.156  -0.120  -3.407  0.00  0.00     0.048 A 
ATOM      6  C5  UNL d   1       4.227  -1.413  -2.885  0.00  0.00     0.003 A 
ATOM      7  I   UNL d   1       3.097   2.102  -5.166  0.00  0.00    -0.146 I 
ENDROOT
TORSDOF 0
ENDMDL
