MODEL 1
REMARK minimizedAffinity 12.0486622
REMARK minimizedRMSD -1
REMARK  0 active torsions:
REMARK  status: ('A' for Active; 'I' for Inactive)
ROOT
ATOM      1  C   UNL d   1      -0.010   5.533  -3.729  0.00  0.00     0.023 A 
ATOM      2  C1  UNL d   1       0.246   4.250  -3.246  0.00  0.00     0.003 A 
ATOM      3  C2  UNL d   1       1.169   3.428  -3.896  0.00  0.00     0.048 A 
ATOM      4  C3  UNL d   1       1.833   3.897  -5.029  0.00  0.00     0.023 A 
ATOM      5  C4  UNL d   1       1.581   5.180  -5.517  0.00  0.00     0.048 A 
ATOM      6  C5  UNL d   1       0.656   5.997  -4.863  0.00  0.00     0.003 A 
ATOM      7  I   UNL d   1       3.207   2.676  -6.000  0.00  0.00    -0.146 I 
ENDROOT
TORSDOF 0
ENDMDL
