MODEL 1
REMARK minimizedAffinity 7.9000349
REMARK minimizedRMSD -1
REMARK  0 active torsions:
REMARK  status: ('A' for Active; 'I' for Inactive)
ROOT
ATOM      1  C   UNL d   1      -6.000   2.077   3.531  0.00  0.00     0.023 A 
ATOM      2  C1  UNL d   1      -5.999   1.510   2.256  0.00  0.00     0.003 A 
ATOM      3  C2  UNL d   1      -4.795   1.133   1.659  0.00  0.00     0.048 A 
ATOM      4  C3  UNL d   1      -3.595   1.325   2.342  0.00  0.00     0.023 A 
ATOM      5  C4  UNL d   1      -3.590   1.891   3.618  0.00  0.00     0.048 A 
ATOM      6  C5  UNL d   1      -4.797   2.267   4.211  0.00  0.00     0.003 A 
ATOM      7  I   UNL d   1      -1.801   0.764   1.455  0.00  0.00    -0.146 I 
ENDROOT
TORSDOF 0
ENDMDL
