MODEL 1
REMARK minimizedAffinity 5.82816029
REMARK minimizedRMSD -1
REMARK  0 active torsions:
REMARK  status: ('A' for Active; 'I' for Inactive)
ROOT
ATOM      1  C   UNL d   1      -3.018   1.718   2.416  0.00  0.00     0.023 A 
ATOM      2  C1  UNL d   1      -1.815   1.838   3.112  0.00  0.00     0.003 A 
ATOM      3  C2  UNL d   1      -0.633   1.342   2.557  0.00  0.00     0.048 A 
ATOM      4  C3  UNL d   1      -0.662   0.727   1.305  0.00  0.00     0.023 A 
ATOM      5  C4  UNL d   1      -1.863   0.605   0.605  0.00  0.00     0.048 A 
ATOM      6  C5  UNL d   1      -3.042   1.102   1.165  0.00  0.00     0.003 A 
ATOM      7  I   UNL d   1       1.095  -0.012   0.478  0.00  0.00    -0.146 I 
ENDROOT
TORSDOF 0
ENDMDL
