MODEL 1
REMARK minimizedAffinity 2.652704
REMARK minimizedRMSD -1
REMARK  0 active torsions:
REMARK  status: ('A' for Active; 'I' for Inactive)
ROOT
ATOM      1  C   UNL d   1      -1.954   0.971   2.184  0.00  0.00     0.023 A 
ATOM      2  C1  UNL d   1      -1.900   0.278   0.975  0.00  0.00     0.003 A 
ATOM      3  C2  UNL d   1      -0.666  -0.086   0.431  0.00  0.00     0.048 A 
ATOM      4  C3  UNL d   1       0.510   0.246   1.102  0.00  0.00     0.023 A 
ATOM      5  C4  UNL d   1       0.461   0.939   2.313  0.00  0.00     0.048 A 
ATOM      6  C5  UNL d   1      -0.774   1.301   2.852  0.00  0.00     0.003 A 
ATOM      7  I   UNL d   1       2.347  -0.293   0.294  0.00  0.00    -0.146 I 
ENDROOT
TORSDOF 0
ENDMDL
