MODEL 1
REMARK minimizedAffinity 1.48139858
REMARK minimizedRMSD -1
REMARK  0 active torsions:
REMARK  status: ('A' for Active; 'I' for Inactive)
ROOT
ATOM      1  C   UNL d   1      -0.594   2.202   3.511  0.00  0.00     0.023 A 
ATOM      2  C1  UNL d   1       0.065   1.161   2.856  0.00  0.00     0.003 A 
ATOM      3  C2  UNL d   1      -0.561   0.487   1.805  0.00  0.00     0.048 A 
ATOM      4  C3  UNL d   1      -1.847   0.860   1.414  0.00  0.00     0.023 A 
ATOM      5  C4  UNL d   1      -2.510   1.901   2.066  0.00  0.00     0.048 A 
ATOM      6  C5  UNL d   1      -1.880   2.571   3.116  0.00  0.00     0.003 A 
ATOM      7  I   UNL d   1      -2.782  -0.142  -0.149  0.00  0.00    -0.146 I 
ENDROOT
TORSDOF 0
ENDMDL
