MODEL 1
REMARK minimizedAffinity 6.11114979
REMARK minimizedRMSD -1
REMARK  0 active torsions:
REMARK  status: ('A' for Active; 'I' for Inactive)
ROOT
ATOM      1  C   UNL d   1      -0.571   2.393   3.946  0.00  0.00     0.023 A 
ATOM      2  C1  UNL d   1      -1.930   2.255   3.662  0.00  0.00     0.003 A 
ATOM      3  C2  UNL d   1      -2.342   1.468   2.584  0.00  0.00     0.048 A 
ATOM      4  C3  UNL d   1      -1.390   0.823   1.795  0.00  0.00     0.023 A 
ATOM      5  C4  UNL d   1      -0.030   0.958   2.076  0.00  0.00     0.048 A 
ATOM      6  C5  UNL d   1       0.378   1.745   3.155  0.00  0.00     0.003 A 
ATOM      7  I   UNL d   1      -2.002  -0.348   0.190  0.00  0.00    -0.146 I 
ENDROOT
TORSDOF 0
ENDMDL
