MODEL 1
REMARK minimizedAffinity 0.480797291
REMARK minimizedRMSD -1
REMARK  0 active torsions:
REMARK  status: ('A' for Active; 'I' for Inactive)
ROOT
ATOM      1  C   UNL d   1      -0.179   4.859  -5.997  0.00  0.00     0.023 A 
ATOM      2  C1  UNL d   1       0.123   6.000  -5.253  0.00  0.00     0.003 A 
ATOM      3  C2  UNL d   1       0.715   5.878  -3.994  0.00  0.00     0.048 A 
ATOM      4  C3  UNL d   1       1.002   4.612  -3.485  0.00  0.00     0.023 A 
ATOM      5  C4  UNL d   1       0.703   3.467  -4.226  0.00  0.00     0.048 A 
ATOM      6  C5  UNL d   1       0.111   3.594  -5.484  0.00  0.00     0.003 A 
ATOM      7  I   UNL d   1       1.883   4.427  -1.612  0.00  0.00    -0.146 I 
ENDROOT
TORSDOF 0
ENDMDL
