MODEL 1
REMARK minimizedAffinity 6.32676744
REMARK minimizedRMSD -1
REMARK  0 active torsions:
REMARK  status: ('A' for Active; 'I' for Inactive)
ROOT
ATOM      1  C   UNL d   1      -0.380   0.233   0.945  0.00  0.00     0.023 A 
ATOM      2  C1  UNL d   1      -1.499   0.057   0.130  0.00  0.00     0.003 A 
ATOM      3  C2  UNL d   1      -2.760   0.453   0.580  0.00  0.00     0.048 A 
ATOM      4  C3  UNL d   1      -2.896   1.027   1.844  0.00  0.00     0.023 A 
ATOM      5  C4  UNL d   1      -1.779   1.206   2.661  0.00  0.00     0.048 A 
ATOM      6  C5  UNL d   1      -0.520   0.807   2.208  0.00  0.00     0.003 A 
ATOM      7  I   UNL d   1      -4.772   1.618   2.514  0.00  0.00    -0.146 I 
ENDROOT
TORSDOF 0
ENDMDL
