MODEL 1
REMARK minimizedAffinity 8.42639446
REMARK minimizedRMSD -1
REMARK  0 active torsions:
REMARK  status: ('A' for Active; 'I' for Inactive)
ROOT
ATOM      1  C   UNL d   1       0.949   2.772  -5.834  0.00  0.00     0.023 A 
ATOM      2  C1  UNL d   1       1.378   4.094  -5.951  0.00  0.00     0.003 A 
ATOM      3  C2  UNL d   1       2.743   4.386  -5.997  0.00  0.00     0.048 A 
ATOM      4  C3  UNL d   1       3.674   3.349  -5.927  0.00  0.00     0.023 A 
ATOM      5  C4  UNL d   1       3.249   2.025  -5.812  0.00  0.00     0.048 A 
ATOM      6  C5  UNL d   1       1.883   1.739  -5.765  0.00  0.00     0.003 A 
ATOM      7  I   UNL d   1       5.706   3.780  -5.996  0.00  0.00    -0.146 I 
ENDROOT
TORSDOF 0
ENDMDL
