MODEL 1
REMARK minimizedAffinity -5.47972155
REMARK minimizedRMSD -1
REMARK  0 active torsions:
REMARK  status: ('A' for Active; 'I' for Inactive)
ROOT
ATOM      1  C   UNL d   1      -3.323  -0.774   0.089  0.00  0.00     0.078 C 
ATOM      2  C1  UNL d   1      -1.834  -0.752  -0.092  0.00  0.00    -0.077 A 
ATOM      3  C2  UNL d   1      -0.983  -1.315   0.866  0.00  0.00    -0.001 A 
ATOM      4  C3  UNL d   1       0.401  -1.278   0.689  0.00  0.00     0.003 A 
ATOM      5  C4  UNL d   1       0.946  -0.679  -0.445  0.00  0.00    -0.005 A 
ATOM      6  C5  UNL d   1       0.106  -0.114  -1.403  0.00  0.00     0.003 A 
ATOM      7  C6  UNL d   1      -1.278  -0.150  -1.228  0.00  0.00    -0.001 A 
ENDROOT
TORSDOF 0
ENDMDL
