MODEL 1
REMARK minimizedAffinity -4.96210337
REMARK minimizedRMSD -1
REMARK  0 active torsions:
REMARK  status: ('A' for Active; 'I' for Inactive)
ROOT
ATOM      1  C   UNL d   1       1.324   0.213  -0.162  0.00  0.00     0.078 C 
ATOM      2  C1  UNL d   1      -0.132  -0.120  -0.292  0.00  0.00    -0.077 A 
ATOM      3  C2  UNL d   1      -0.713  -0.334  -1.548  0.00  0.00    -0.001 A 
ATOM      4  C3  UNL d   1      -2.072  -0.634  -1.655  0.00  0.00     0.003 A 
ATOM      5  C4  UNL d   1      -2.862  -0.721  -0.510  0.00  0.00    -0.005 A 
ATOM      6  C5  UNL d   1      -2.293  -0.507   0.744  0.00  0.00     0.003 A 
ATOM      7  C6  UNL d   1      -0.934  -0.207   0.853  0.00  0.00    -0.001 A 
ENDROOT
TORSDOF 0
ENDMDL
