MODEL 1
REMARK minimizedAffinity -4.26586151
REMARK minimizedRMSD -1
REMARK  0 active torsions:
REMARK  status: ('A' for Active; 'I' for Inactive)
ROOT
ATOM      1  C   UNL d   1      -2.824  -0.636  -0.110  0.00  0.00     0.078 C 
ATOM      2  C1  UNL d   1      -1.330  -0.671  -0.236  0.00  0.00    -0.077 A 
ATOM      3  C2  UNL d   1      -0.530  -1.153   0.807  0.00  0.00    -0.001 A 
ATOM      4  C3  UNL d   1       0.860  -1.171   0.680  0.00  0.00     0.003 A 
ATOM      5  C4  UNL d   1       1.462  -0.706  -0.488  0.00  0.00    -0.005 A 
ATOM      6  C5  UNL d   1       0.674  -0.222  -1.530  0.00  0.00     0.003 A 
ATOM      7  C6  UNL d   1      -0.716  -0.204  -1.405  0.00  0.00    -0.001 A 
ENDROOT
TORSDOF 0
ENDMDL
