MODEL 1
REMARK minimizedAffinity -2.34948659
REMARK minimizedRMSD -1
REMARK  0 active torsions:
REMARK  status: ('A' for Active; 'I' for Inactive)
ROOT
ATOM      1  C   UNL d   1       0.939   0.332  -0.683  0.00  0.00     0.078 C 
ATOM      2  C1  UNL d   1      -0.468  -0.117  -0.422  0.00  0.00    -0.077 A 
ATOM      3  C2  UNL d   1      -1.353  -0.365  -1.478  0.00  0.00    -0.001 A 
ATOM      4  C3  UNL d   1      -2.663  -0.772  -1.220  0.00  0.00     0.003 A 
ATOM      5  C4  UNL d   1      -3.100  -0.934   0.093  0.00  0.00    -0.005 A 
ATOM      6  C5  UNL d   1      -2.227  -0.687   1.151  0.00  0.00     0.003 A 
ATOM      7  C6  UNL d   1      -0.916  -0.279   0.895  0.00  0.00    -0.001 A 
ENDROOT
TORSDOF 0
ENDMDL
