MODEL 1
REMARK minimizedAffinity -3.52529883
REMARK minimizedRMSD -1
REMARK  0 active torsions:
REMARK  status: ('A' for Active; 'I' for Inactive)
ROOT
ATOM      1  C   UNL d   1       4.433   3.253  -1.992  0.00  0.00     0.078 C 
ATOM      2  C1  UNL d   1       3.557   2.880  -0.833  0.00  0.00    -0.077 A 
ATOM      3  C2  UNL d   1       3.481   3.693   0.304  0.00  0.00    -0.001 A 
ATOM      4  C3  UNL d   1       2.669   3.328   1.380  0.00  0.00     0.003 A 
ATOM      5  C4  UNL d   1       1.929   2.149   1.329  0.00  0.00    -0.005 A 
ATOM      6  C5  UNL d   1       2.000   1.333   0.202  0.00  0.00     0.003 A 
ATOM      7  C6  UNL d   1       2.811   1.696  -0.874  0.00  0.00    -0.001 A 
ENDROOT
TORSDOF 0
ENDMDL
