MODEL 1
REMARK minimizedAffinity -5.67006111
REMARK minimizedRMSD -1
REMARK  0 active torsions:
REMARK  status: ('A' for Active; 'I' for Inactive)
ROOT
ATOM      1  C   UNL d   1       1.172  -0.734   0.245  0.00  0.00     0.078 C 
ATOM      2  C1  UNL d   1      -0.309  -0.726   0.015  0.00  0.00    -0.077 A 
ATOM      3  C2  UNL d   1      -0.860  -0.113  -1.117  0.00  0.00    -0.001 A 
ATOM      4  C3  UNL d   1      -2.242  -0.105  -1.314  0.00  0.00     0.003 A 
ATOM      5  C4  UNL d   1      -3.085  -0.707  -0.382  0.00  0.00    -0.005 A 
ATOM      6  C5  UNL d   1      -2.546  -1.318   0.749  0.00  0.00     0.003 A 
ATOM      7  C6  UNL d   1      -1.165  -1.327   0.947  0.00  0.00    -0.001 A 
ENDROOT
TORSDOF 0
ENDMDL
