MODEL 1
REMARK minimizedAffinity -5.07931805
REMARK minimizedRMSD -1
REMARK  0 active torsions:
REMARK  status: ('A' for Active; 'I' for Inactive)
ROOT
ATOM      1  C   UNL d   1      -3.607  -0.688   0.237  0.00  0.00     0.078 C 
ATOM      2  C1  UNL d   1      -2.230  -0.313  -0.224  0.00  0.00    -0.077 A 
ATOM      3  C2  UNL d   1      -1.128  -0.422   0.633  0.00  0.00    -0.001 A 
ATOM      4  C3  UNL d   1       0.146  -0.060   0.193  0.00  0.00     0.003 A 
ATOM      5  C4  UNL d   1       0.331   0.415  -1.104  0.00  0.00    -0.005 A 
ATOM      6  C5  UNL d   1      -0.760   0.528  -1.963  0.00  0.00     0.003 A 
ATOM      7  C6  UNL d   1      -2.035   0.167  -1.525  0.00  0.00    -0.001 A 
ENDROOT
TORSDOF 0
ENDMDL
