MODEL 1
REMARK minimizedAffinity -3.6879549
REMARK minimizedRMSD -1
REMARK  0 active torsions:
REMARK  status: ('A' for Active; 'I' for Inactive)
ROOT
ATOM      1  C   UNL d   1       1.642   0.308   0.287  0.00  0.00     0.078 C 
ATOM      2  C1  UNL d   1       0.251   0.076  -0.223  0.00  0.00    -0.077 A 
ATOM      3  C2  UNL d   1      -0.786  -0.282   0.647  0.00  0.00    -0.001 A 
ATOM      4  C3  UNL d   1      -2.074  -0.505   0.157  0.00  0.00     0.003 A 
ATOM      5  C4  UNL d   1      -2.336  -0.373  -1.205  0.00  0.00    -0.005 A 
ATOM      6  C5  UNL d   1      -1.310  -0.020  -2.079  0.00  0.00     0.003 A 
ATOM      7  C6  UNL d   1      -0.022   0.203  -1.591  0.00  0.00    -0.001 A 
ENDROOT
TORSDOF 0
ENDMDL
