MODEL 1
REMARK minimizedAffinity -4.13604879
REMARK minimizedRMSD -1
REMARK  0 active torsions:
REMARK  status: ('A' for Active; 'I' for Inactive)
ROOT
ATOM      1  C   UNL d   1       3.689   4.013  -1.024  0.00  0.00     0.078 C 
ATOM      2  C1  UNL d   1       3.244   3.059   0.044  0.00  0.00    -0.077 A 
ATOM      3  C2  UNL d   1       2.674   1.823  -0.285  0.00  0.00    -0.001 A 
ATOM      4  C3  UNL d   1       2.255   0.950   0.720  0.00  0.00     0.003 A 
ATOM      5  C4  UNL d   1       2.401   1.303   2.060  0.00  0.00    -0.005 A 
ATOM      6  C5  UNL d   1       2.965   2.531   2.397  0.00  0.00     0.003 A 
ATOM      7  C6  UNL d   1       3.384   3.406   1.394  0.00  0.00    -0.001 A 
ENDROOT
TORSDOF 0
ENDMDL
