MODEL 1
REMARK minimizedAffinity -2.48850012
REMARK minimizedRMSD -1
REMARK  0 active torsions:
REMARK  status: ('A' for Active; 'I' for Inactive)
ROOT
ATOM      1  C   UNL d   1       2.972   2.429   1.009  0.00  0.00     0.078 C 
ATOM      2  C1  UNL d   1       1.965   1.497   0.405  0.00  0.00    -0.077 A 
ATOM      3  C2  UNL d   1       0.805   1.987  -0.208  0.00  0.00    -0.001 A 
ATOM      4  C3  UNL d   1      -0.129   1.107  -0.757  0.00  0.00     0.003 A 
ATOM      5  C4  UNL d   1       0.087  -0.268  -0.699  0.00  0.00    -0.005 A 
ATOM      6  C5  UNL d   1       1.237  -0.765  -0.090  0.00  0.00     0.003 A 
ATOM      7  C6  UNL d   1       2.172   0.113   0.460  0.00  0.00    -0.001 A 
ENDROOT
TORSDOF 0
ENDMDL
