MODEL 1
REMARK minimizedAffinity -4.09174013
REMARK minimizedRMSD -1
REMARK  0 active torsions:
REMARK  status: ('A' for Active; 'I' for Inactive)
ROOT
ATOM      1  C   UNL d   1       1.729   0.385   0.297  0.00  0.00     0.078 C 
ATOM      2  C1  UNL d   1       0.315   0.121  -0.127  0.00  0.00    -0.077 A 
ATOM      3  C2  UNL d   1      -0.189   0.648  -1.323  0.00  0.00    -0.001 A 
ATOM      4  C3  UNL d   1      -1.511   0.403  -1.700  0.00  0.00     0.003 A 
ATOM      5  C4  UNL d   1      -2.339  -0.369  -0.887  0.00  0.00    -0.005 A 
ATOM      6  C5  UNL d   1      -1.847  -0.895   0.305  0.00  0.00     0.003 A 
ATOM      7  C6  UNL d   1      -0.526  -0.651   0.684  0.00  0.00    -0.001 A 
ENDROOT
TORSDOF 0
ENDMDL
