MODEL 1
REMARK minimizedAffinity -4.79035187
REMARK minimizedRMSD -1
REMARK  0 active torsions:
REMARK  status: ('A' for Active; 'I' for Inactive)
ROOT
ATOM      1  C   UNL d   1      -3.439  -0.847   0.012  0.00  0.00     0.078 C 
ATOM      2  C1  UNL d   1      -2.022  -0.409  -0.205  0.00  0.00    -0.077 A 
ATOM      3  C2  UNL d   1      -1.616   0.140  -1.428  0.00  0.00    -0.001 A 
ATOM      4  C3  UNL d   1      -0.291   0.535  -1.619  0.00  0.00     0.003 A 
ATOM      5  C4  UNL d   1       0.640   0.384  -0.593  0.00  0.00    -0.005 A 
ATOM      6  C5  UNL d   1       0.245  -0.163   0.627  0.00  0.00     0.003 A 
ATOM      7  C6  UNL d   1      -1.079  -0.558   0.820  0.00  0.00    -0.001 A 
ENDROOT
TORSDOF 0
ENDMDL
