MODEL 1
REMARK minimizedAffinity -4.02075624
REMARK minimizedRMSD -1
REMARK  0 active torsions:
REMARK  status: ('A' for Active; 'I' for Inactive)
ROOT
ATOM      1  C   UNL d   1      -3.117  -0.431  -0.041  0.00  0.00     0.078 C 
ATOM      2  C1  UNL d   1      -1.660  -0.190  -0.302  0.00  0.00    -0.077 A 
ATOM      3  C2  UNL d   1      -1.202   0.149  -1.581  0.00  0.00    -0.001 A 
ATOM      4  C3  UNL d   1       0.158   0.360  -1.811  0.00  0.00     0.003 A 
ATOM      5  C4  UNL d   1       1.072   0.235  -0.767  0.00  0.00    -0.005 A 
ATOM      6  C5  UNL d   1       0.627  -0.104   0.509  0.00  0.00     0.003 A 
ATOM      7  C6  UNL d   1      -0.733  -0.317   0.741  0.00  0.00    -0.001 A 
ENDROOT
TORSDOF 0
ENDMDL
