MODEL 1
REMARK minimizedAffinity -5.00324917
REMARK minimizedRMSD -1
REMARK  0 active torsions:
REMARK  status: ('A' for Active; 'I' for Inactive)
ROOT
ATOM      1  C   UNL d   1       1.457   0.485   0.470  0.00  0.00     0.078 C 
ATOM      2  C1  UNL d   1       0.082   0.079   0.030  0.00  0.00    -0.077 A 
ATOM      3  C2  UNL d   1      -0.352   0.307  -1.282  0.00  0.00    -0.001 A 
ATOM      4  C3  UNL d   1      -1.638  -0.068  -1.674  0.00  0.00     0.003 A 
ATOM      5  C4  UNL d   1      -2.501  -0.670  -0.761  0.00  0.00    -0.005 A 
ATOM      6  C5  UNL d   1      -2.078  -0.899   0.547  0.00  0.00     0.003 A 
ATOM      7  C6  UNL d   1      -0.793  -0.525   0.941  0.00  0.00    -0.001 A 
ENDROOT
TORSDOF 0
ENDMDL
