MODEL 1
REMARK minimizedAffinity -3.74546552
REMARK minimizedRMSD -1
REMARK  0 active torsions:
REMARK  status: ('A' for Active; 'I' for Inactive)
ROOT
ATOM      1  C   UNL d   1      -3.491  -0.914  -0.346  0.00  0.00     0.078 C 
ATOM      2  C1  UNL d   1      -2.058  -0.476  -0.392  0.00  0.00    -0.077 A 
ATOM      3  C2  UNL d   1      -1.245  -0.545   0.746  0.00  0.00    -0.001 A 
ATOM      4  C3  UNL d   1       0.085  -0.124   0.690  0.00  0.00     0.003 A 
ATOM      5  C4  UNL d   1       0.613   0.369  -0.501  0.00  0.00    -0.005 A 
ATOM      6  C5  UNL d   1      -0.188   0.443  -1.638  0.00  0.00     0.003 A 
ATOM      7  C6  UNL d   1      -1.518   0.023  -1.584  0.00  0.00    -0.001 A 
ENDROOT
TORSDOF 0
ENDMDL
