MODEL 1
REMARK minimizedAffinity -4.62320805
REMARK minimizedRMSD -1
REMARK  0 active torsions:
REMARK  status: ('A' for Active; 'I' for Inactive)
ROOT
ATOM      1  C   UNL d   1      -3.212  -0.492  -0.044  0.00  0.00     0.078 C 
ATOM      2  C1  UNL d   1      -1.733  -0.277  -0.166  0.00  0.00    -0.077 A 
ATOM      3  C2  UNL d   1      -0.876  -0.536   0.911  0.00  0.00    -0.001 A 
ATOM      4  C3  UNL d   1       0.498  -0.322   0.786  0.00  0.00     0.003 A 
ATOM      5  C4  UNL d   1       1.026   0.154  -0.412  0.00  0.00    -0.005 A 
ATOM      6  C5  UNL d   1       0.180   0.417  -1.488  0.00  0.00     0.003 A 
ATOM      7  C6  UNL d   1      -1.194   0.203  -1.366  0.00  0.00    -0.001 A 
ENDROOT
TORSDOF 0
ENDMDL
