MODEL 1
REMARK minimizedAffinity -4.21922779
REMARK minimizedRMSD -1
REMARK  0 active torsions:
REMARK  status: ('A' for Active; 'I' for Inactive)
ROOT
ATOM      1  C   UNL d   1      -3.110  -0.609  -0.681  0.00  0.00     0.078 C 
ATOM      2  C1  UNL d   1      -1.647  -0.355  -0.474  0.00  0.00    -0.077 A 
ATOM      3  C2  UNL d   1      -0.978  -0.860   0.648  0.00  0.00    -0.001 A 
ATOM      4  C3  UNL d   1       0.382  -0.608   0.832  0.00  0.00     0.003 A 
ATOM      5  C4  UNL d   1       1.085   0.153  -0.100  0.00  0.00    -0.005 A 
ATOM      6  C5  UNL d   1       0.428   0.662  -1.218  0.00  0.00     0.003 A 
ATOM      7  C6  UNL d   1      -0.932   0.410  -1.405  0.00  0.00    -0.001 A 
ENDROOT
TORSDOF 0
ENDMDL
