MODEL 1
REMARK minimizedAffinity -3.7307179
REMARK minimizedRMSD -1
REMARK  0 active torsions:
REMARK  status: ('A' for Active; 'I' for Inactive)
ROOT
ATOM      1  C   UNL d   1       1.160  -0.007  -1.110  0.00  0.00     0.078 C 
ATOM      2  C1  UNL d   1      -0.267  -0.210  -0.695  0.00  0.00    -0.077 A 
ATOM      3  C2  UNL d   1      -0.612  -0.351   0.654  0.00  0.00    -0.001 A 
ATOM      4  C3  UNL d   1      -1.943  -0.549   1.025  0.00  0.00     0.003 A 
ATOM      5  C4  UNL d   1      -2.939  -0.608   0.053  0.00  0.00    -0.005 A 
ATOM      6  C5  UNL d   1      -2.605  -0.471  -1.293  0.00  0.00     0.003 A 
ATOM      7  C6  UNL d   1      -1.275  -0.273  -1.666  0.00  0.00    -0.001 A 
ENDROOT
TORSDOF 0
ENDMDL
