MODEL 1
REMARK minimizedAffinity 0.845724583
REMARK minimizedRMSD -1
REMARK  3 active torsions:
REMARK  status: ('A' for Active; 'I' for Inactive)
REMARK    1  A    between atoms: C3'_2  and  C2'_3 
REMARK    2  A    between atoms: C2'_3  and  C1'_4 
REMARK    3  A    between atoms: C1'_4  and  C1_5 
ROOT
ATOM      1  C1  N4B d   1      -3.486  -0.902  -3.678  0.00  0.00    -0.075 A 
ATOM      2  C2  N4B d   1      -4.859  -0.799  -3.994  0.00  0.00     0.002 A 
ATOM      3  C3  N4B d   1      -5.252  -0.177  -5.153  0.00  0.00     0.002 A 
ATOM      4  C4  N4B d   1      -4.295   0.364  -6.000  0.00  0.00    -0.004 A 
ATOM      5  C5  N4B d   1      -2.970   0.238  -5.700  0.00  0.00     0.002 A 
ATOM      6  C6  N4B d   1      -2.561  -0.388  -4.540  0.00  0.00     0.002 A 
ENDROOT
BRANCH   1   7
ATOM      7  C1' N4B d   1      -3.012  -1.497  -2.380  0.00  0.00     0.057 C 
BRANCH   7   8
ATOM      8  C2' N4B d   1      -2.722  -0.373  -1.390  0.00  0.00     0.009 C 
BRANCH   8   9
ATOM      9  C3' N4B d   1      -3.752   0.740  -1.477  0.00  0.00     0.004 C 
ATOM     10  C4' N4B d   1      -3.155   2.054  -1.886  0.00  0.00     0.003 C 
ENDBRANCH   8   9
ENDBRANCH   7   8
ENDBRANCH   1   7
TORSDOF 3
ENDMDL
