MODEL 1
REMARK minimizedAffinity 13.133172
REMARK minimizedRMSD -1
REMARK  3 active torsions:
REMARK  status: ('A' for Active; 'I' for Inactive)
REMARK    1  A    between atoms: C3'_2  and  C2'_3 
REMARK    2  A    between atoms: C2'_3  and  C1'_4 
REMARK    3  A    between atoms: C1'_4  and  C1_5 
ROOT
ATOM      1  C1  N4B d   1       4.416   3.973  -5.585  0.00  0.00    -0.075 A 
ATOM      2  C2  N4B d   1       5.654   3.339  -5.830  0.00  0.00     0.002 A 
ATOM      3  C3  N4B d   1       5.856   2.045  -5.417  0.00  0.00     0.002 A 
ATOM      4  C4  N4B d   1       4.846   1.374  -4.744  0.00  0.00    -0.004 A 
ATOM      5  C5  N4B d   1       3.645   1.985  -4.534  0.00  0.00     0.002 A 
ATOM      6  C6  N4B d   1       3.426   3.283  -4.946  0.00  0.00     0.002 A 
ENDROOT
BRANCH   1   7
ATOM      7  C1' N4B d   1       4.178   5.415  -5.941  0.00  0.00     0.057 C 
BRANCH   7   8
ATOM      8  C2' N4B d   1       2.983   5.936  -5.148  0.00  0.00     0.009 C 
BRANCH   8   9
ATOM      9  C3' N4B d   1       1.723   5.998  -5.995  0.00  0.00     0.004 C 
ATOM     10  C4' N4B d   1       0.671   5.029  -5.543  0.00  0.00     0.003 C 
ENDBRANCH   8   9
ENDBRANCH   7   8
ENDBRANCH   1   7
TORSDOF 3
ENDMDL
