MODEL 1
REMARK minimizedAffinity 9.74678612
REMARK minimizedRMSD -1
REMARK  3 active torsions:
REMARK  status: ('A' for Active; 'I' for Inactive)
REMARK    1  A    between atoms: C3'_2  and  C2'_3 
REMARK    2  A    between atoms: C2'_3  and  C1'_4 
REMARK    3  A    between atoms: C1'_4  and  C1_5 
ROOT
ATOM      1  C1  N4B d   1       3.126  -2.768   0.470  0.00  0.00    -0.075 A 
ATOM      2  C2  N4B d   1       4.504  -2.973   0.238  0.00  0.00     0.002 A 
ATOM      3  C3  N4B d   1       5.083  -4.176   0.560  0.00  0.00     0.002 A 
ATOM      4  C4  N4B d   1       4.312  -5.178   1.129  0.00  0.00    -0.004 A 
ATOM      5  C5  N4B d   1       2.976  -4.981   1.327  0.00  0.00     0.002 A 
ATOM      6  C6  N4B d   1       2.380  -3.778   1.004  0.00  0.00     0.002 A 
ENDROOT
BRANCH   1   7
ATOM      7  C1' N4B d   1       2.467  -1.441   0.214  0.00  0.00     0.057 C 
BRANCH   7   8
ATOM      8  C2' N4B d   1       3.540  -0.398  -0.087  0.00  0.00     0.009 C 
BRANCH   8   9
ATOM      9  C3' N4B d   1       3.194   0.959   0.499  0.00  0.00     0.004 C 
ATOM     10  C4' N4B d   1       4.277   1.976   0.290  0.00  0.00     0.003 C 
ENDBRANCH   8   9
ENDBRANCH   7   8
ENDBRANCH   1   7
TORSDOF 3
ENDMDL
