MODEL 1
REMARK minimizedAffinity 13.330843
REMARK minimizedRMSD -1
REMARK  3 active torsions:
REMARK  status: ('A' for Active; 'I' for Inactive)
REMARK    1  A    between atoms: C3'_2  and  C2'_3 
REMARK    2  A    between atoms: C2'_3  and  C1'_4 
REMARK    3  A    between atoms: C1'_4  and  C1_5 
ROOT
ATOM      1  C1  N4B d   1       5.468  -5.312   3.537  0.00  0.00    -0.075 A 
ATOM      2  C2  N4B d   1       5.107  -5.999   4.717  0.00  0.00     0.002 A 
ATOM      3  C3  N4B d   1       5.202  -5.370   5.934  0.00  0.00     0.002 A 
ATOM      4  C4  N4B d   1       5.670  -4.066   5.998  0.00  0.00    -0.004 A 
ATOM      5  C5  N4B d   1       5.992  -3.401   4.851  0.00  0.00     0.002 A 
ATOM      6  C6  N4B d   1       5.899  -4.020   3.620  0.00  0.00     0.002 A 
ENDROOT
BRANCH   1   7
ATOM      7  C1' N4B d   1       5.464  -5.987   2.193  0.00  0.00     0.057 C 
BRANCH   7   8
ATOM      8  C2' N4B d   1       5.569  -4.927   1.100  0.00  0.00     0.009 C 
BRANCH   8   9
ATOM      9  C3' N4B d   1       5.422  -5.525  -0.288  0.00  0.00     0.004 C 
ATOM     10  C4' N4B d   1       5.246  -4.485  -1.353  0.00  0.00     0.003 C 
ENDBRANCH   8   9
ENDBRANCH   7   8
ENDBRANCH   1   7
TORSDOF 3
ENDMDL
