MODEL 1
REMARK minimizedAffinity 13.5574398
REMARK minimizedRMSD -1
REMARK  3 active torsions:
REMARK  status: ('A' for Active; 'I' for Inactive)
REMARK    1  A    between atoms: C3'_2  and  C2'_3 
REMARK    2  A    between atoms: C2'_3  and  C1'_4 
REMARK    3  A    between atoms: C1'_4  and  C1_5 
ROOT
ATOM      1  C1  N4B d   1       2.546  -0.111   1.436  0.00  0.00    -0.075 A 
ATOM      2  C2  N4B d   1       3.619   0.290   0.610  0.00  0.00     0.002 A 
ATOM      3  C3  N4B d   1       4.415   1.345   0.982  0.00  0.00     0.002 A 
ATOM      4  C4  N4B d   1       4.147   2.023   2.162  0.00  0.00    -0.004 A 
ATOM      5  C5  N4B d   1       3.125   1.613   2.967  0.00  0.00     0.002 A 
ATOM      6  C6  N4B d   1       2.319   0.552   2.607  0.00  0.00     0.002 A 
ENDROOT
BRANCH   1   7
ATOM      7  C1' N4B d   1       1.596  -1.204   1.029  0.00  0.00     0.057 C 
BRANCH   7   8
ATOM      8  C2' N4B d   1       2.188  -1.968  -0.152  0.00  0.00     0.009 C 
BRANCH   8   9
ATOM      9  C3' N4B d   1       2.786  -3.298   0.273  0.00  0.00     0.004 C 
ATOM     10  C4' N4B d   1       4.218  -3.451  -0.143  0.00  0.00     0.003 C 
ENDBRANCH   8   9
ENDBRANCH   7   8
ENDBRANCH   1   7
TORSDOF 3
ENDMDL
