MODEL 1
REMARK minimizedAffinity 8.81116009
REMARK minimizedRMSD -1
REMARK  3 active torsions:
REMARK  status: ('A' for Active; 'I' for Inactive)
REMARK    1  A    between atoms: C3'_2  and  C2'_3 
REMARK    2  A    between atoms: C2'_3  and  C1'_4 
REMARK    3  A    between atoms: C1'_4  and  C1_5 
ROOT
ATOM      1  C1  N4B d   1       4.538  -4.953   3.398  0.00  0.00    -0.075 A 
ATOM      2  C2  N4B d   1       4.522  -5.992   4.354  0.00  0.00     0.002 A 
ATOM      3  C3  N4B d   1       4.912  -5.742   5.647  0.00  0.00     0.002 A 
ATOM      4  C4  N4B d   1       5.339  -4.470   6.000  0.00  0.00    -0.004 A 
ATOM      5  C5  N4B d   1       5.328  -3.466   5.076  0.00  0.00     0.002 A 
ATOM      6  C6  N4B d   1       4.934  -3.703   3.775  0.00  0.00     0.002 A 
ENDROOT
BRANCH   1   7
ATOM      7  C1' N4B d   1       4.202  -5.199   1.952  0.00  0.00     0.057 C 
BRANCH   7   8
ATOM      8  C2' N4B d   1       5.417  -4.867   1.092  0.00  0.00     0.009 C 
BRANCH   8   9
ATOM      9  C3' N4B d   1       5.758  -5.993   0.130  0.00  0.00     0.004 C 
ATOM     10  C4' N4B d   1       5.132  -5.812  -1.221  0.00  0.00     0.003 C 
ENDBRANCH   8   9
ENDBRANCH   7   8
ENDBRANCH   1   7
TORSDOF 3
ENDMDL
