MODEL 1
REMARK minimizedAffinity 12.5930233
REMARK minimizedRMSD -1
REMARK  3 active torsions:
REMARK  status: ('A' for Active; 'I' for Inactive)
REMARK    1  A    between atoms: C3'_2  and  C2'_3 
REMARK    2  A    between atoms: C2'_3  and  C1'_4 
REMARK    3  A    between atoms: C1'_4  and  C1_5 
ROOT
ATOM      1  C1  N4B d   1       4.766   3.580  -5.650  0.00  0.00    -0.075 A 
ATOM      2  C2  N4B d   1       5.372   4.808  -5.996  0.00  0.00     0.002 A 
ATOM      3  C3  N4B d   1       4.700   5.988  -5.790  0.00  0.00     0.002 A 
ATOM      4  C4  N4B d   1       3.419   5.963  -5.259  0.00  0.00    -0.004 A 
ATOM      5  C5  N4B d   1       2.851   4.774  -4.904  0.00  0.00     0.002 A 
ATOM      6  C6  N4B d   1       3.517   3.582  -5.102  0.00  0.00     0.002 A 
ENDROOT
BRANCH   1   7
ATOM      7  C1' N4B d   1       5.428   2.260  -5.936  0.00  0.00     0.057 C 
BRANCH   7   8
ATOM      8  C2' N4B d   1       5.876   1.629  -4.621  0.00  0.00     0.009 C 
BRANCH   8   9
ATOM      9  C3' N4B d   1       4.704   1.355  -3.695  0.00  0.00     0.004 C 
ATOM     10  C4' N4B d   1       3.539   0.727  -4.401  0.00  0.00     0.003 C 
ENDBRANCH   8   9
ENDBRANCH   7   8
ENDBRANCH   1   7
TORSDOF 3
ENDMDL
