MODEL 1
REMARK minimizedAffinity 9.46743679
REMARK minimizedRMSD -1
REMARK  3 active torsions:
REMARK  status: ('A' for Active; 'I' for Inactive)
REMARK    1  A    between atoms: C3'_2  and  C2'_3 
REMARK    2  A    between atoms: C2'_3  and  C1'_4 
REMARK    3  A    between atoms: C1'_4  and  C1_5 
ROOT
ATOM      1  C1  N4B d   1       4.977  -4.767   3.569  0.00  0.00    -0.075 A 
ATOM      2  C2  N4B d   1       4.792  -5.515   4.753  0.00  0.00     0.002 A 
ATOM      3  C3  N4B d   1       5.219  -5.012   5.957  0.00  0.00     0.002 A 
ATOM      4  C4  N4B d   1       5.848  -3.776   6.000  0.00  0.00    -0.004 A 
ATOM      5  C5  N4B d   1       6.000  -3.049   4.856  0.00  0.00     0.002 A 
ATOM      6  C6  N4B d   1       5.571  -3.541   3.639  0.00  0.00     0.002 A 
ENDROOT
BRANCH   1   7
ATOM      7  C1' N4B d   1       4.604  -5.313   2.218  0.00  0.00     0.057 C 
BRANCH   7   8
ATOM      8  C2' N4B d   1       4.388  -4.153   1.251  0.00  0.00     0.009 C 
BRANCH   8   9
ATOM      9  C3' N4B d   1       2.956  -4.093   0.747  0.00  0.00     0.004 C 
ATOM     10  C4' N4B d   1       2.523  -2.701   0.394  0.00  0.00     0.003 C 
ENDBRANCH   8   9
ENDBRANCH   7   8
ENDBRANCH   1   7
TORSDOF 3
ENDMDL
