MODEL 1
REMARK minimizedAffinity 9.14254379
REMARK minimizedRMSD -1
REMARK  3 active torsions:
REMARK  status: ('A' for Active; 'I' for Inactive)
REMARK    1  A    between atoms: C3'_2  and  C2'_3 
REMARK    2  A    between atoms: C2'_3  and  C1'_4 
REMARK    3  A    between atoms: C1'_4  and  C1_5 
ROOT
ATOM      1  C1  N4B d   1       1.783   4.864  -4.959  0.00  0.00    -0.075 A 
ATOM      2  C2  N4B d   1       2.359   6.000  -5.570  0.00  0.00     0.002 A 
ATOM      3  C3  N4B d   1       3.662   5.962  -6.000  0.00  0.00     0.002 A 
ATOM      4  C4  N4B d   1       4.413   4.810  -5.813  0.00  0.00    -0.004 A 
ATOM      5  C5  N4B d   1       3.842   3.709  -5.245  0.00  0.00     0.002 A 
ATOM      6  C6  N4B d   1       2.531   3.732  -4.812  0.00  0.00     0.002 A 
ENDROOT
BRANCH   1   7
ATOM      7  C1' N4B d   1       0.389   4.886  -4.396  0.00  0.00     0.057 C 
BRANCH   7   8
ATOM      8  C2' N4B d   1      -0.065   3.455  -4.123  0.00  0.00     0.009 C 
BRANCH   8   9
ATOM      9  C3' N4B d   1      -1.009   3.374  -2.936  0.00  0.00     0.004 C 
ATOM     10  C4' N4B d   1      -2.217   2.530  -3.211  0.00  0.00     0.003 C 
ENDBRANCH   8   9
ENDBRANCH   7   8
ENDBRANCH   1   7
TORSDOF 3
ENDMDL
