MODEL 1
REMARK minimizedAffinity -5.17077827
REMARK minimizedRMSD -1
REMARK  1 active torsions:
REMARK  status: ('A' for Active; 'I' for Inactive)
REMARK    1  A    between atoms: C1_2  and  C2_3 
ROOT
ATOM      1  C2  UNL d   1       0.044  -0.247  -0.183  0.00  0.00    -0.073 A 
ATOM      2  C3  UNL d   1       0.413  -0.812   1.043  0.00  0.00    -0.002 A 
ATOM      3  C4  UNL d   1      -0.137  -0.335   2.233  0.00  0.00     0.004 A 
ATOM      4  C5  UNL d   1      -1.065   0.706   2.210  0.00  0.00    -0.004 A 
ATOM      5  C6  UNL d   1      -1.456   1.275   0.994  0.00  0.00    -0.075 A 
ATOM      6  C7  UNL d   1      -2.452   2.397   0.952  0.00  0.00     0.076 C 
ATOM      7  C8  UNL d   1      -0.897   0.792  -0.197  0.00  0.00     0.001 A 
ENDROOT
BRANCH   1   8
ATOM      8  C1  UNL d   1       0.630  -0.764  -1.471  0.00  0.00     0.053 C 
ATOM      9  C   UNL d   1       0.596  -2.282  -1.545  0.00  0.00     0.018 C 
ENDBRANCH   1   8
TORSDOF 1
ENDMDL
