MODEL 1
REMARK minimizedAffinity -2.50875092
REMARK minimizedRMSD -1
REMARK  1 active torsions:
REMARK  status: ('A' for Active; 'I' for Inactive)
REMARK    1  A    between atoms: C1_2  and  C2_3 
ROOT
ATOM      1  C2  UNL d   1       0.576  -0.703  -0.758  0.00  0.00    -0.073 A 
ATOM      2  C3  UNL d   1       1.109   0.321  -1.549  0.00  0.00    -0.002 A 
ATOM      3  C4  UNL d   1       0.759   1.651  -1.310  0.00  0.00     0.004 A 
ATOM      4  C5  UNL d   1      -0.119   1.970  -0.275  0.00  0.00    -0.004 A 
ATOM      5  C6  UNL d   1      -0.653   0.962   0.535  0.00  0.00    -0.075 A 
ATOM      6  C7  UNL d   1      -1.601   1.289   1.651  0.00  0.00     0.076 C 
ATOM      7  C8  UNL d   1      -0.299  -0.371   0.286  0.00  0.00     0.001 A 
ENDROOT
BRANCH   1   8
ATOM      8  C1  UNL d   1       0.956  -2.140  -1.008  0.00  0.00     0.053 C 
ATOM      9  C   UNL d   1       0.423  -2.646  -2.339  0.00  0.00     0.018 C 
ENDBRANCH   1   8
TORSDOF 1
ENDMDL
