MODEL 1
REMARK minimizedAffinity -2.06200409
REMARK minimizedRMSD -1
REMARK  1 active torsions:
REMARK  status: ('A' for Active; 'I' for Inactive)
REMARK    1  A    between atoms: C1_2  and  C2_3 
ROOT
ATOM      1  C2  UNL d   1       0.124  -1.123  -0.261  0.00  0.00    -0.073 A 
ATOM      2  C3  UNL d   1      -0.544  -1.090   0.968  0.00  0.00    -0.002 A 
ATOM      3  C4  UNL d   1      -0.958   0.126   1.512  0.00  0.00     0.004 A 
ATOM      4  C5  UNL d   1      -0.715   1.319   0.832  0.00  0.00    -0.004 A 
ATOM      5  C6  UNL d   1      -0.059   1.306  -0.403  0.00  0.00    -0.075 A 
ATOM      6  C7  UNL d   1       0.212   2.581  -1.147  0.00  0.00     0.076 C 
ATOM      7  C8  UNL d   1       0.356   0.081  -0.942  0.00  0.00     0.001 A 
ENDROOT
BRANCH   1   8
ATOM      8  C1  UNL d   1       0.568  -2.434  -0.857  0.00  0.00     0.053 C 
ATOM      9  C   UNL d   1      -0.297  -2.846  -2.038  0.00  0.00     0.018 C 
ENDBRANCH   1   8
TORSDOF 1
ENDMDL
