MODEL 1
REMARK minimizedAffinity 0.0608713143
REMARK minimizedRMSD -1
REMARK  1 active torsions:
REMARK  status: ('A' for Active; 'I' for Inactive)
REMARK    1  A    between atoms: C1_2  and  C2_3 
ROOT
ATOM      1  C2  UNL d   1      -0.091  -0.707  -0.817  0.00  0.00    -0.073 A 
ATOM      2  C3  UNL d   1       1.247  -0.935  -0.475  0.00  0.00    -0.002 A 
ATOM      3  C4  UNL d   1       1.946  -2.003  -1.039  0.00  0.00     0.004 A 
ATOM      4  C5  UNL d   1       1.319  -2.848  -1.953  0.00  0.00    -0.004 A 
ATOM      5  C6  UNL d   1      -0.014  -2.630  -2.316  0.00  0.00    -0.075 A 
ATOM      6  C7  UNL d   1      -0.704  -3.532  -3.297  0.00  0.00     0.076 C 
ATOM      7  C8  UNL d   1      -0.711  -1.557  -1.744  0.00  0.00     0.001 A 
ENDROOT
BRANCH   1   8
ATOM      8  C1  UNL d   1      -0.849   0.448  -0.216  0.00  0.00     0.053 C 
ATOM      9  C   UNL d   1      -0.403   1.783  -0.791  0.00  0.00     0.018 C 
ENDBRANCH   1   8
TORSDOF 1
ENDMDL
