MODEL 1
REMARK minimizedAffinity -4.59863758
REMARK minimizedRMSD -1
REMARK  1 active torsions:
REMARK  status: ('A' for Active; 'I' for Inactive)
REMARK    1  A    between atoms: C1_2  and  C2_3 
ROOT
ATOM      1  C2  UNL d   1      -0.161   0.265  -0.073  0.00  0.00    -0.073 A 
ATOM      2  C3  UNL d   1      -0.156  -0.546   1.068  0.00  0.00    -0.002 A 
ATOM      3  C4  UNL d   1      -0.787  -0.120   2.237  0.00  0.00     0.004 A 
ATOM      4  C5  UNL d   1      -1.433   1.115   2.277  0.00  0.00    -0.004 A 
ATOM      5  C6  UNL d   1      -1.458   1.935   1.144  0.00  0.00    -0.075 A 
ATOM      6  C7  UNL d   1      -2.147   3.268   1.171  0.00  0.00     0.076 C 
ATOM      7  C8  UNL d   1      -0.820   1.502  -0.026  0.00  0.00     0.001 A 
ENDROOT
BRANCH   1   8
ATOM      8  C1  UNL d   1       0.513  -0.193  -1.341  0.00  0.00     0.053 C 
ATOM      9  C   UNL d   1       0.571  -1.709  -1.440  0.00  0.00     0.018 C 
ENDBRANCH   1   8
TORSDOF 1
ENDMDL
