MODEL 1
REMARK minimizedAffinity -5.55639172
REMARK minimizedRMSD -1
REMARK  1 active torsions:
REMARK  status: ('A' for Active; 'I' for Inactive)
REMARK    1  A    between atoms: C1_2  and  C2_3 
ROOT
ATOM      1  C2  UNL d   1      -0.094   0.592  -0.042  0.00  0.00    -0.073 A 
ATOM      2  C3  UNL d   1       0.396   1.354  -1.108  0.00  0.00    -0.002 A 
ATOM      3  C4  UNL d   1      -0.091   2.642  -1.336  0.00  0.00     0.004 A 
ATOM      4  C5  UNL d   1      -1.065   3.183  -0.497  0.00  0.00    -0.004 A 
ATOM      5  C6  UNL d   1      -1.559   2.441   0.581  0.00  0.00    -0.075 A 
ATOM      6  C7  UNL d   1      -2.609   3.007   1.491  0.00  0.00     0.076 C 
ATOM      7  C8  UNL d   1      -1.067   1.147   0.801  0.00  0.00     0.001 A 
ENDROOT
BRANCH   1   8
ATOM      8  C1  UNL d   1       0.433  -0.797   0.212  0.00  0.00     0.053 C 
ATOM      9  C   UNL d   1       1.172  -1.355  -0.994  0.00  0.00     0.018 C 
ENDBRANCH   1   8
TORSDOF 1
ENDMDL
