MODEL 1
REMARK minimizedAffinity -6.25123072
REMARK minimizedRMSD -1
REMARK  1 active torsions:
REMARK  status: ('A' for Active; 'I' for Inactive)
REMARK    1  A    between atoms: C1_2  and  C2_3 
ROOT
ATOM      1  C2  UNL d   1      -0.945   1.989   0.454  0.00  0.00    -0.073 A 
ATOM      2  C3  UNL d   1      -1.356   1.535   1.713  0.00  0.00    -0.002 A 
ATOM      3  C4  UNL d   1      -0.973   0.272   2.166  0.00  0.00     0.004 A 
ATOM      4  C5  UNL d   1      -0.170  -0.545   1.370  0.00  0.00    -0.004 A 
ATOM      5  C6  UNL d   1       0.261  -0.104   0.115  0.00  0.00    -0.075 A 
ATOM      6  C7  UNL d   1       1.123  -0.972  -0.754  0.00  0.00     0.076 C 
ATOM      7  C8  UNL d   1      -0.131   1.164  -0.334  0.00  0.00     0.001 A 
ENDROOT
BRANCH   1   8
ATOM      8  C1  UNL d   1      -1.351   3.355  -0.037  0.00  0.00     0.053 C 
ATOM      9  C   UNL d   1      -0.484   3.826  -1.193  0.00  0.00     0.018 C 
ENDBRANCH   1   8
TORSDOF 1
ENDMDL
