MODEL 1
REMARK minimizedAffinity -4.15959787
REMARK minimizedRMSD -1
REMARK  1 active torsions:
REMARK  status: ('A' for Active; 'I' for Inactive)
REMARK    1  A    between atoms: C1_2  and  C2_3 
ROOT
ATOM      1  C2  UNL d   1       0.417  -0.134  -0.406  0.00  0.00    -0.073 A 
ATOM      2  C3  UNL d   1       0.545  -0.908   0.754  0.00  0.00    -0.002 A 
ATOM      3  C4  UNL d   1      -0.264  -0.656   1.862  0.00  0.00     0.004 A 
ATOM      4  C5  UNL d   1      -1.212   0.366   1.821  0.00  0.00    -0.004 A 
ATOM      5  C6  UNL d   1      -1.364   1.142   0.668  0.00  0.00    -0.075 A 
ATOM      6  C7  UNL d   1      -2.378   2.246   0.608  0.00  0.00     0.076 C 
ATOM      7  C8  UNL d   1      -0.546   0.885  -0.440  0.00  0.00     0.001 A 
ENDROOT
BRANCH   1   8
ATOM      8  C1  UNL d   1       1.284  -0.407  -1.607  0.00  0.00     0.053 C 
ATOM      9  C   UNL d   1       1.273  -1.877  -1.997  0.00  0.00     0.018 C 
ENDBRANCH   1   8
TORSDOF 1
ENDMDL
