MODEL 1
REMARK minimizedAffinity -3.14365816
REMARK minimizedRMSD -1
REMARK  1 active torsions:
REMARK  status: ('A' for Active; 'I' for Inactive)
REMARK    1  A    between atoms: C1_2  and  C2_3 
ROOT
ATOM      1  C2  UNL d   1       0.540  -0.580  -0.686  0.00  0.00    -0.073 A 
ATOM      2  C3  UNL d   1       1.384   0.322  -1.344  0.00  0.00    -0.002 A 
ATOM      3  C4  UNL d   1       1.141   1.694  -1.273  0.00  0.00     0.004 A 
ATOM      4  C5  UNL d   1       0.058   2.179  -0.539  0.00  0.00    -0.004 A 
ATOM      5  C6  UNL d   1      -0.789   1.294   0.135  0.00  0.00    -0.075 A 
ATOM      6  C7  UNL d   1      -1.959   1.799   0.927  0.00  0.00     0.076 C 
ATOM      7  C8  UNL d   1      -0.541  -0.083   0.057  0.00  0.00     0.001 A 
ENDROOT
BRANCH   1   8
ATOM      8  C1  UNL d   1       0.802  -2.063  -0.754  0.00  0.00     0.053 C 
ATOM      9  C   UNL d   1       0.603  -2.613  -2.158  0.00  0.00     0.018 C 
ENDBRANCH   1   8
TORSDOF 1
ENDMDL
