MODEL 1
REMARK minimizedAffinity -4.60766029
REMARK minimizedRMSD -1
REMARK  0 active torsions:
REMARK  status: ('A' for Active; 'I' for Inactive)
ROOT
ATOM      1  C1  BNZ d   1       0.515  -1.403  -3.241  0.00  0.00     0.000 A 
ATOM      2  C2  BNZ d   1      -0.720  -1.696  -2.728  0.00  0.00     0.000 A 
ATOM      3  C3  BNZ d   1      -1.241  -0.967  -1.696  0.00  0.00     0.000 A 
ATOM      4  C4  BNZ d   1      -0.510   0.028  -1.152  0.00  0.00     0.000 A 
ATOM      5  C5  BNZ d   1       0.741   0.329  -1.652  0.00  0.00     0.000 A 
ATOM      6  C6  BNZ d   1       1.246  -0.382  -2.717  0.00  0.00     0.000 A 
ENDROOT
TORSDOF 0
ENDMDL
