MODEL 1
REMARK minimizedAffinity -0.147368908
REMARK minimizedRMSD -1
REMARK  0 active torsions:
REMARK  status: ('A' for Active; 'I' for Inactive)
ROOT
ATOM      1  C1  BNZ d   1      -1.132   1.019  -0.399  0.00  0.00     0.000 A 
ATOM      2  C2  BNZ d   1      -2.401   0.551  -0.613  0.00  0.00     0.000 A 
ATOM      3  C3  BNZ d   1      -2.614  -0.584  -1.345  0.00  0.00     0.000 A 
ATOM      4  C4  BNZ d   1      -1.563  -1.226  -1.894  0.00  0.00     0.000 A 
ATOM      5  C5  BNZ d   1      -0.278  -0.761  -1.695  0.00  0.00     0.000 A 
ATOM      6  C6  BNZ d   1      -0.065   0.359  -0.925  0.00  0.00     0.000 A 
ENDROOT
TORSDOF 0
ENDMDL
