MODEL 1
REMARK minimizedAffinity -4.54613018
REMARK minimizedRMSD -1
REMARK  0 active torsions:
REMARK  status: ('A' for Active; 'I' for Inactive)
ROOT
ATOM      1  C1  BNZ d   1       0.997   0.399   1.228  0.00  0.00     0.000 A 
ATOM      2  C2  BNZ d   1       0.112   0.167   0.209  0.00  0.00     0.000 A 
ATOM      3  C3  BNZ d   1      -1.067  -0.486   0.441  0.00  0.00     0.000 A 
ATOM      4  C4  BNZ d   1      -1.340  -0.941   1.681  0.00  0.00     0.000 A 
ATOM      5  C5  BNZ d   1      -0.454  -0.723   2.717  0.00  0.00     0.000 A 
ATOM      6  C6  BNZ d   1       0.713  -0.031   2.488  0.00  0.00     0.000 A 
ENDROOT
TORSDOF 0
ENDMDL
