MODEL 1
REMARK minimizedAffinity -4.98564911
REMARK minimizedRMSD -1
REMARK  0 active torsions:
REMARK  status: ('A' for Active; 'I' for Inactive)
ROOT
ATOM      1  C1  BNZ d   1      -2.513   0.093  -0.968  0.00  0.00     0.000 A 
ATOM      2  C2  BNZ d   1      -1.432   0.616  -1.626  0.00  0.00     0.000 A 
ATOM      3  C3  BNZ d   1      -0.180   0.543  -1.083  0.00  0.00     0.000 A 
ATOM      4  C4  BNZ d   1      -0.016  -0.016   0.133  0.00  0.00     0.000 A 
ATOM      5  C5  BNZ d   1      -1.098  -0.540   0.813  0.00  0.00     0.000 A 
ATOM      6  C6  BNZ d   1      -2.351  -0.499   0.246  0.00  0.00     0.000 A 
ENDROOT
TORSDOF 0
ENDMDL
