MODEL 1
REMARK minimizedAffinity -5.19429541
REMARK minimizedRMSD -1
REMARK  0 active torsions:
REMARK  status: ('A' for Active; 'I' for Inactive)
ROOT
ATOM      1  C1  BNZ d   1      -0.747  -0.150   0.691  0.00  0.00     0.000 A 
ATOM      2  C2  BNZ d   1       0.211  -0.103   1.668  0.00  0.00     0.000 A 
ATOM      3  C3  BNZ d   1      -0.131  -0.194   2.989  0.00  0.00     0.000 A 
ATOM      4  C4  BNZ d   1      -1.431  -0.292   3.332  0.00  0.00     0.000 A 
ATOM      5  C5  BNZ d   1      -2.410  -0.331   2.359  0.00  0.00     0.000 A 
ATOM      6  C6  BNZ d   1      -2.059  -0.278   1.029  0.00  0.00     0.000 A 
ENDROOT
TORSDOF 0
ENDMDL
