MODEL 1
REMARK minimizedAffinity -5.25240231
REMARK minimizedRMSD -1
REMARK  0 active torsions:
REMARK  status: ('A' for Active; 'I' for Inactive)
ROOT
ATOM      1  C1  BNZ d   1      -0.657   0.152   0.279  0.00  0.00     0.000 A 
ATOM      2  C2  BNZ d   1       0.222  -0.007   1.317  0.00  0.00     0.000 A 
ATOM      3  C3  BNZ d   1      -0.230  -0.212   2.591  0.00  0.00     0.000 A 
ATOM      4  C4  BNZ d   1      -1.557  -0.218   2.832  0.00  0.00     0.000 A 
ATOM      5  C5  BNZ d   1      -2.455  -0.050   1.797  0.00  0.00     0.000 A 
ATOM      6  C6  BNZ d   1      -1.998   0.118   0.510  0.00  0.00     0.000 A 
ENDROOT
TORSDOF 0
ENDMDL
