MODEL 1
REMARK minimizedAffinity -4.81595945
REMARK minimizedRMSD -1
REMARK  0 active torsions:
REMARK  status: ('A' for Active; 'I' for Inactive)
ROOT
ATOM      1  C1  BNZ d   1      -1.940  -0.157  -0.665  0.00  0.00     0.000 A 
ATOM      2  C2  BNZ d   1      -0.862  -0.408   0.142  0.00  0.00     0.000 A 
ATOM      3  C3  BNZ d   1      -0.971  -0.328   1.502  0.00  0.00     0.000 A 
ATOM      4  C4  BNZ d   1      -2.145   0.043   2.052  0.00  0.00     0.000 A 
ATOM      5  C5  BNZ d   1      -3.239   0.310   1.252  0.00  0.00     0.000 A 
ATOM      6  C6  BNZ d   1      -3.136   0.189  -0.115  0.00  0.00     0.000 A 
ENDROOT
TORSDOF 0
ENDMDL
