MODEL 1
REMARK minimizedAffinity -5.20314837
REMARK minimizedRMSD -1
REMARK  0 active torsions:
REMARK  status: ('A' for Active; 'I' for Inactive)
ROOT
ATOM      1  C1  BNZ d   1      -2.899   0.329   1.799  0.00  0.00     0.000 A 
ATOM      2  C2  BNZ d   1      -1.996   0.244   2.825  0.00  0.00     0.000 A 
ATOM      3  C3  BNZ d   1      -0.686  -0.062   2.581  0.00  0.00     0.000 A 
ATOM      4  C4  BNZ d   1      -0.290  -0.321   1.319  0.00  0.00     0.000 A 
ATOM      5  C5  BNZ d   1      -1.190  -0.249   0.274  0.00  0.00     0.000 A 
ATOM      6  C6  BNZ d   1      -2.499   0.098   0.519  0.00  0.00     0.000 A 
ENDROOT
TORSDOF 0
ENDMDL
