MODEL 1
REMARK minimizedAffinity -5.10305786
REMARK minimizedRMSD -1
REMARK  0 active torsions:
REMARK  status: ('A' for Active; 'I' for Inactive)
ROOT
ATOM      1  C1  BNZ d   1      -1.622  -0.230   2.552  0.00  0.00     0.000 A 
ATOM      2  C2  BNZ d   1      -0.412  -0.349   1.921  0.00  0.00     0.000 A 
ATOM      3  C3  BNZ d   1      -0.312  -0.200   0.566  0.00  0.00     0.000 A 
ATOM      4  C4  BNZ d   1      -1.426   0.027  -0.160  0.00  0.00     0.000 A 
ATOM      5  C5  BNZ d   1      -2.654   0.140   0.461  0.00  0.00     0.000 A 
ATOM      6  C6  BNZ d   1      -2.745   0.028   1.829  0.00  0.00     0.000 A 
ENDROOT
TORSDOF 0
ENDMDL
