MODEL 1
REMARK minimizedAffinity -4.87473536
REMARK minimizedRMSD -1
REMARK  0 active torsions:
REMARK  status: ('A' for Active; 'I' for Inactive)
ROOT
ATOM      1  C1  BNZ d   1      -1.400  -0.314   2.604  0.00  0.00     0.000 A 
ATOM      2  C2  BNZ d   1      -0.032  -0.364   2.643  0.00  0.00     0.000 A 
ATOM      3  C3  BNZ d   1       0.702  -0.352   1.489  0.00  0.00     0.000 A 
ATOM      4  C4  BNZ d   1       0.067  -0.331   0.300  0.00  0.00     0.000 A 
ATOM      5  C5  BNZ d   1      -1.312  -0.290   0.244  0.00  0.00     0.000 A 
ATOM      6  C6  BNZ d   1      -2.046  -0.262   1.407  0.00  0.00     0.000 A 
ENDROOT
TORSDOF 0
ENDMDL
