MODEL 1
REMARK minimizedAffinity -2.96255469
REMARK minimizedRMSD -1
REMARK  0 active torsions:
REMARK  status: ('A' for Active; 'I' for Inactive)
ROOT
ATOM      1  C1  BNZ d   1      -0.412   0.234   1.393  0.00  0.00     0.000 A 
ATOM      2  C2  BNZ d   1      -1.282   0.173   0.337  0.00  0.00     0.000 A 
ATOM      3  C3  BNZ d   1      -0.821   0.177  -0.950  0.00  0.00     0.000 A 
ATOM      4  C4  BNZ d   1       0.503   0.283  -1.180  0.00  0.00     0.000 A 
ATOM      5  C5  BNZ d   1       1.392   0.355  -0.127  0.00  0.00     0.000 A 
ATOM      6  C6  BNZ d   1       0.928   0.311   1.168  0.00  0.00     0.000 A 
ENDROOT
TORSDOF 0
ENDMDL
