MODEL 1
REMARK minimizedAffinity -3.19113231
REMARK minimizedRMSD -1
REMARK  0 active torsions:
REMARK  status: ('A' for Active; 'I' for Inactive)
ROOT
ATOM      1  C1  BNZ d   1      -1.448   0.793  -0.366  0.00  0.00     0.000 A 
ATOM      2  C2  BNZ d   1      -0.080   0.864  -0.373  0.00  0.00     0.000 A 
ATOM      3  C3  BNZ d   1       0.663  -0.016  -1.109  0.00  0.00     0.000 A 
ATOM      4  C4  BNZ d   1       0.040  -0.989  -1.805  0.00  0.00     0.000 A 
ATOM      5  C5  BNZ d   1      -1.338  -1.080  -1.801  0.00  0.00     0.000 A 
ATOM      6  C6  BNZ d   1      -2.084  -0.168  -1.090  0.00  0.00     0.000 A 
ENDROOT
TORSDOF 0
ENDMDL
