MODEL 1
REMARK minimizedAffinity -4.15607595
REMARK minimizedRMSD -1
REMARK  0 active torsions:
REMARK  status: ('A' for Active; 'I' for Inactive)
ROOT
ATOM      1  C1  BNZ d   1       0.300   0.996  -1.007  0.00  0.00     0.000 A 
ATOM      2  C2  BNZ d   1       1.081   1.072   0.115  0.00  0.00     0.000 A 
ATOM      3  C3  BNZ d   1       1.195   0.004   0.962  0.00  0.00     0.000 A 
ATOM      4  C4  BNZ d   1       0.498  -1.122   0.707  0.00  0.00     0.000 A 
ATOM      5  C5  BNZ d   1      -0.301  -1.210  -0.415  0.00  0.00     0.000 A 
ATOM      6  C6  BNZ d   1      -0.384  -0.147  -1.286  0.00  0.00     0.000 A 
ENDROOT
TORSDOF 0
ENDMDL
