MODEL 1
REMARK minimizedAffinity -3.7907989
REMARK minimizedRMSD -1
REMARK  0 active torsions:
REMARK  status: ('A' for Active; 'I' for Inactive)
ROOT
ATOM      1  C1  BNZ d   1       0.913   0.075   2.955  0.00  0.00     0.000 A 
ATOM      2  C2  BNZ d   1       1.476  -0.071   1.716  0.00  0.00     0.000 A 
ATOM      3  C3  BNZ d   1       0.698  -0.105   0.593  0.00  0.00     0.000 A 
ATOM      4  C4  BNZ d   1      -0.644  -0.032   0.714  0.00  0.00     0.000 A 
ATOM      5  C5  BNZ d   1      -1.227   0.106   1.957  0.00  0.00     0.000 A 
ATOM      6  C6  BNZ d   1      -0.438   0.179   3.082  0.00  0.00     0.000 A 
ENDROOT
TORSDOF 0
ENDMDL
