MODEL 1
REMARK minimizedAffinity -4.56660318
REMARK minimizedRMSD -1
REMARK  0 active torsions:
REMARK  status: ('A' for Active; 'I' for Inactive)
ROOT
ATOM      1  C   UNL d   1       2.646  -0.074  -2.489  0.00  0.00    -0.002 A 
ATOM      2  C1  UNL d   1       1.949   1.108  -2.695  0.00  0.00     0.010 A 
ATOM      3  C2  UNL d   1       0.751   1.353  -2.021  0.00  0.00     0.041 A 
ATOM      4  C3  UNL d   1       0.262   0.381  -1.126  0.00  0.00    -0.075 A 
ATOM      5  S   UNL d   1      -1.183   0.465  -0.189  0.00  0.00     0.015 SA
ATOM      6  C4  UNL d   1      -0.908  -1.066   0.508  0.00  0.00     0.022 A 
ATOM      7  C5  UNL d   1       0.253  -1.641   0.048  0.00  0.00     0.026 A 
ATOM      8  C6  UNL d   1       0.947  -0.816  -0.901  0.00  0.00    -0.082 A 
ATOM      9  C7  UNL d   1       2.158  -1.035  -1.600  0.00  0.00     0.045 A 
ENDROOT
TORSDOF 0
ENDMDL
