MODEL 1
REMARK minimizedAffinity 1.61452079
REMARK minimizedRMSD -1
REMARK  0 active torsions:
REMARK  status: ('A' for Active; 'I' for Inactive)
ROOT
ATOM      1  C   UNL d   1       0.790  -2.116  -0.137  0.00  0.00    -0.002 A 
ATOM      2  C1  UNL d   1       1.949  -1.762  -0.813  0.00  0.00     0.010 A 
ATOM      3  C2  UNL d   1       2.070  -0.503  -1.405  0.00  0.00     0.041 A 
ATOM      4  C3  UNL d   1       0.996   0.404  -1.303  0.00  0.00    -0.075 A 
ATOM      5  S   UNL d   1       0.920   2.001  -1.948  0.00  0.00     0.015 SA
ATOM      6  C4  UNL d   1      -0.653   2.251  -1.340  0.00  0.00     0.022 A 
ATOM      7  C5  UNL d   1      -1.123   1.153  -0.659  0.00  0.00     0.026 A 
ATOM      8  C6  UNL d   1      -0.181   0.070  -0.626  0.00  0.00    -0.082 A 
ATOM      9  C7  UNL d   1      -0.272  -1.214  -0.038  0.00  0.00     0.045 A 
ENDROOT
TORSDOF 0
ENDMDL
