MODEL 1
REMARK minimizedAffinity -4.40915108
REMARK minimizedRMSD -1
REMARK  0 active torsions:
REMARK  status: ('A' for Active; 'I' for Inactive)
ROOT
ATOM      1  C   UNL d   1       2.490  -0.386  -2.554  0.00  0.00    -0.002 A 
ATOM      2  C1  UNL d   1       1.948   0.870  -2.787  0.00  0.00     0.010 A 
ATOM      3  C2  UNL d   1       0.843   1.314  -2.056  0.00  0.00     0.041 A 
ATOM      4  C3  UNL d   1       0.290   0.466  -1.077  0.00  0.00    -0.075 A 
ATOM      5  S   UNL d   1      -1.062   0.798  -0.059  0.00  0.00     0.015 SA
ATOM      6  C4  UNL d   1      -0.951  -0.719   0.709  0.00  0.00     0.022 A 
ATOM      7  C5  UNL d   1       0.087  -1.473   0.214  0.00  0.00     0.026 A 
ATOM      8  C6  UNL d   1       0.819  -0.802  -0.823  0.00  0.00    -0.082 A 
ATOM      9  C7  UNL d   1       1.938  -1.223  -1.581  0.00  0.00     0.045 A 
ENDROOT
TORSDOF 0
ENDMDL
