MODEL 1
REMARK minimizedAffinity -0.550745189
REMARK minimizedRMSD -1
REMARK  0 active torsions:
REMARK  status: ('A' for Active; 'I' for Inactive)
ROOT
ATOM      1  C   UNL d   1      -1.053  -1.150   1.235  0.00  0.00    -0.002 A 
ATOM      2  C1  UNL d   1      -1.416   0.143   0.886  0.00  0.00     0.010 A 
ATOM      3  C2  UNL d   1      -0.727   0.828  -0.117  0.00  0.00     0.041 A 
ATOM      4  C3  UNL d   1       0.343   0.185  -0.770  0.00  0.00    -0.075 A 
ATOM      5  S   UNL d   1       1.330   0.828  -2.029  0.00  0.00     0.015 SA
ATOM      6  C4  UNL d   1       2.256  -0.599  -2.133  0.00  0.00     0.022 A 
ATOM      7  C5  UNL d   1       1.836  -1.553  -1.237  0.00  0.00     0.026 A 
ATOM      8  C6  UNL d   1       0.726  -1.118  -0.437  0.00  0.00    -0.082 A 
ATOM      9  C7  UNL d   1       0.008  -1.785   0.584  0.00  0.00     0.045 A 
ENDROOT
TORSDOF 0
ENDMDL
