MODEL 1
REMARK minimizedAffinity 2.31677818
REMARK minimizedRMSD -1
REMARK  0 active torsions:
REMARK  status: ('A' for Active; 'I' for Inactive)
ROOT
ATOM      1  C2' OXE d   1      -2.589  -0.813  -2.844  0.00  0.00     0.078 C 
ATOM      2  C1' OXE d   1      -3.756   1.641  -3.550  0.00  0.00     0.078 C 
ATOM      3  C1  OXE d   1      -3.300   1.463  -2.123  0.00  0.00    -0.078 A 
ATOM      4  C2  OXE d   1      -2.773   0.243  -1.775  0.00  0.00    -0.078 A 
ATOM      5  C3  OXE d   1      -2.286   0.044  -0.487  0.00  0.00     0.003 A 
ATOM      6  C4  OXE d   1      -2.469   1.022   0.499  0.00  0.00    -0.002 A 
ATOM      7  C5  OXE d   1      -3.039   2.258   0.175  0.00  0.00    -0.002 A 
ATOM      8  C6  OXE d   1      -3.420   2.509  -1.138  0.00  0.00     0.003 A 
ENDROOT
TORSDOF 0
ENDMDL
