MODEL 1
REMARK minimizedAffinity 2.83639884
REMARK minimizedRMSD -1
REMARK  0 active torsions:
REMARK  status: ('A' for Active; 'I' for Inactive)
ROOT
ATOM      1  C2' OXE d   1       2.758  -6.000  -5.086  0.00  0.00     0.078 C 
ATOM      2  C1' OXE d   1       5.565  -5.992  -5.129  0.00  0.00     0.078 C 
ATOM      3  C1  OXE d   1       4.882  -5.985  -3.784  0.00  0.00    -0.078 A 
ATOM      4  C2  OXE d   1       3.508  -5.941  -3.773  0.00  0.00    -0.078 A 
ATOM      5  C3  OXE d   1       2.827  -5.988  -2.560  0.00  0.00     0.003 A 
ATOM      6  C4  OXE d   1       3.529  -5.923  -1.350  0.00  0.00    -0.002 A 
ATOM      7  C5  OXE d   1       4.928  -5.927  -1.339  0.00  0.00    -0.002 A 
ATOM      8  C6  OXE d   1       5.618  -6.000  -2.544  0.00  0.00     0.003 A 
ENDROOT
TORSDOF 0
ENDMDL
