MODEL 1
REMARK minimizedAffinity 8.66520023
REMARK minimizedRMSD -1
REMARK  0 active torsions:
REMARK  status: ('A' for Active; 'I' for Inactive)
ROOT
ATOM      1  C2' OXE d   1       1.132  -2.127   3.741  0.00  0.00     0.078 C 
ATOM      2  C1' OXE d   1       3.020  -4.088   3.055  0.00  0.00     0.078 C 
ATOM      3  C1  OXE d   1       1.974  -4.447   4.081  0.00  0.00    -0.078 A 
ATOM      4  C2  OXE d   1       1.083  -3.466   4.445  0.00  0.00    -0.078 A 
ATOM      5  C3  OXE d   1       0.064  -3.761   5.346  0.00  0.00     0.003 A 
ATOM      6  C4  OXE d   1       0.032  -4.999   6.000  0.00  0.00    -0.002 A 
ATOM      7  C5  OXE d   1       0.954  -5.999   5.673  0.00  0.00    -0.002 A 
ATOM      8  C6  OXE d   1       1.903  -5.754   4.687  0.00  0.00     0.003 A 
ENDROOT
TORSDOF 0
ENDMDL
