MODEL 1
REMARK minimizedAffinity 3.47729325
REMARK minimizedRMSD -1
REMARK  0 active torsions:
REMARK  status: ('A' for Active; 'I' for Inactive)
ROOT
ATOM      1  C2' OXE d   1       4.327  -5.954  -1.774  0.00  0.00     0.078 C 
ATOM      2  C1' OXE d   1       1.638  -6.000  -2.576  0.00  0.00     0.078 C 
ATOM      3  C1  OXE d   1       2.693  -5.975  -3.654  0.00  0.00    -0.078 A 
ATOM      4  C2  OXE d   1       4.005  -5.905  -3.252  0.00  0.00    -0.078 A 
ATOM      5  C3  OXE d   1       5.020  -5.935  -4.204  0.00  0.00     0.003 A 
ATOM      6  C4  OXE d   1       4.714  -5.880  -5.569  0.00  0.00    -0.002 A 
ATOM      7  C5  OXE d   1       3.383  -5.909  -5.999  0.00  0.00    -0.002 A 
ATOM      8  C6  OXE d   1       2.364  -6.000  -5.058  0.00  0.00     0.003 A 
ENDROOT
TORSDOF 0
ENDMDL
