MODEL 1
REMARK minimizedAffinity 0.891248524
REMARK minimizedRMSD -1
REMARK  0 active torsions:
REMARK  status: ('A' for Active; 'I' for Inactive)
ROOT
ATOM      1  C2' OXE d   1       5.025  -5.904  -5.782  0.00  0.00     0.078 C 
ATOM      2  C1' OXE d   1       2.239  -5.999  -5.456  0.00  0.00     0.078 C 
ATOM      3  C1  OXE d   1       3.092  -5.970  -4.213  0.00  0.00    -0.078 A 
ATOM      4  C2  OXE d   1       4.456  -5.971  -4.382  0.00  0.00    -0.078 A 
ATOM      5  C3  OXE d   1       5.288  -5.889  -3.269  0.00  0.00     0.003 A 
ATOM      6  C4  OXE d   1       4.754  -5.960  -1.977  0.00  0.00    -0.002 A 
ATOM      7  C5  OXE d   1       3.369  -6.000  -1.783  0.00  0.00    -0.002 A 
ATOM      8  C6  OXE d   1       2.525  -5.962  -2.887  0.00  0.00     0.003 A 
ENDROOT
TORSDOF 0
ENDMDL
