MODEL 1
REMARK minimizedAffinity 7.26576042
REMARK minimizedRMSD -1
REMARK  0 active torsions:
REMARK  status: ('A' for Active; 'I' for Inactive)
ROOT
ATOM      1  C2' OXE d   1       1.381  -0.072   2.394  0.00  0.00     0.078 C 
ATOM      2  C1' OXE d   1      -0.167  -1.393   0.461  0.00  0.00     0.078 C 
ATOM      3  C1  OXE d   1       0.710  -2.233   1.355  0.00  0.00    -0.078 A 
ATOM      4  C2  OXE d   1       1.499  -1.575   2.267  0.00  0.00    -0.078 A 
ATOM      5  C3  OXE d   1       2.285  -2.306   3.153  0.00  0.00     0.003 A 
ATOM      6  C4  OXE d   1       2.396  -3.696   3.022  0.00  0.00    -0.002 A 
ATOM      7  C5  OXE d   1       1.631  -4.382   2.073  0.00  0.00    -0.002 A 
ATOM      8  C6  OXE d   1       0.753  -3.672   1.262  0.00  0.00     0.003 A 
ENDROOT
TORSDOF 0
ENDMDL
