MODEL 1
REMARK minimizedAffinity -1.5543083
REMARK minimizedRMSD -1
REMARK  0 active torsions:
REMARK  status: ('A' for Active; 'I' for Inactive)
ROOT
ATOM      1  C2' OXE d   1       1.672  -5.999  -5.290  0.00  0.00     0.078 C 
ATOM      2  C1' OXE d   1       4.388  -5.999  -6.000  0.00  0.00     0.078 C 
ATOM      3  C1  OXE d   1       4.045  -5.986  -4.531  0.00  0.00    -0.078 A 
ATOM      4  C2  OXE d   1       2.714  -5.939  -4.193  0.00  0.00    -0.078 A 
ATOM      5  C3  OXE d   1       2.341  -5.981  -2.853  0.00  0.00     0.003 A 
ATOM      6  C4  OXE d   1       3.311  -5.915  -1.845  0.00  0.00    -0.002 A 
ATOM      7  C5  OXE d   1       4.672  -5.922  -2.168  0.00  0.00    -0.002 A 
ATOM      8  C6  OXE d   1       5.055  -6.000  -3.502  0.00  0.00     0.003 A 
ENDROOT
TORSDOF 0
ENDMDL
