MODEL 1
REMARK minimizedAffinity 8.2548418
REMARK minimizedRMSD -1
REMARK  0 active torsions:
REMARK  status: ('A' for Active; 'I' for Inactive)
ROOT
ATOM      1  C2' OXE d   1      -2.718  -0.671  -3.639  0.00  0.00     0.078 C 
ATOM      2  C1' OXE d   1      -4.126   1.753  -3.493  0.00  0.00     0.078 C 
ATOM      3  C1  OXE d   1      -3.126   1.454  -2.405  0.00  0.00    -0.078 A 
ATOM      4  C2  OXE d   1      -2.475   0.245  -2.459  0.00  0.00    -0.078 A 
ATOM      5  C3  OXE d   1      -1.502  -0.058  -1.510  0.00  0.00     0.003 A 
ATOM      6  C4  OXE d   1      -1.291   0.790  -0.416  0.00  0.00    -0.002 A 
ATOM      7  C5  OXE d   1      -1.972   2.008  -0.320  0.00  0.00    -0.002 A 
ATOM      8  C6  OXE d   1      -2.860   2.374  -1.327  0.00  0.00     0.003 A 
ENDROOT
TORSDOF 0
ENDMDL
