MODEL 1
REMARK minimizedAffinity 6.05990314
REMARK minimizedRMSD -1
REMARK  0 active torsions:
REMARK  status: ('A' for Active; 'I' for Inactive)
ROOT
ATOM      1  C2' OXE d   1       4.982  -2.944   4.714  0.00  0.00     0.078 C 
ATOM      2  C1' OXE d   1       2.967  -4.791   5.353  0.00  0.00     0.078 C 
ATOM      3  C1  OXE d   1       2.632  -3.696   4.371  0.00  0.00    -0.078 A 
ATOM      4  C2  OXE d   1       3.610  -2.769   4.100  0.00  0.00    -0.078 A 
ATOM      5  C3  OXE d   1       3.372  -1.771   3.160  0.00  0.00     0.003 A 
ATOM      6  C4  OXE d   1       2.097  -1.610   2.604  0.00  0.00    -0.002 A 
ATOM      7  C5  OXE d   1       1.075  -2.519   2.897  0.00  0.00    -0.002 A 
ATOM      8  C6  OXE d   1       1.338  -3.590   3.744  0.00  0.00     0.003 A 
ENDROOT
TORSDOF 0
ENDMDL
