MODEL 1
REMARK minimizedAffinity 9.34414673
REMARK minimizedRMSD -1
REMARK  0 active torsions:
REMARK  status: ('A' for Active; 'I' for Inactive)
ROOT
ATOM      1  C2' OXE d   1      -3.297  -4.314  -1.251  0.00  0.00     0.078 C 
ATOM      2  C1' OXE d   1      -1.643  -2.373  -0.077  0.00  0.00     0.078 C 
ATOM      3  C1  OXE d   1      -2.388  -1.996  -1.333  0.00  0.00    -0.078 A 
ATOM      4  C2  OXE d   1      -3.159  -2.966  -1.926  0.00  0.00    -0.078 A 
ATOM      5  C3  OXE d   1      -3.910  -2.655  -3.056  0.00  0.00     0.003 A 
ATOM      6  C4  OXE d   1      -3.769  -1.410  -3.680  0.00  0.00    -0.002 A 
ATOM      7  C5  OXE d   1      -2.959  -0.420  -3.114  0.00  0.00    -0.002 A 
ATOM      8  C6  OXE d   1      -2.296  -0.682  -1.920  0.00  0.00     0.003 A 
ENDROOT
TORSDOF 0
ENDMDL
