MODEL 1
REMARK minimizedAffinity 4.85331059
REMARK minimizedRMSD -1
REMARK  0 active torsions:
REMARK  status: ('A' for Active; 'I' for Inactive)
ROOT
ATOM      1  C2' OXE d   1      -5.618  -5.998  -1.856  0.00  0.00     0.078 C 
ATOM      2  C1' OXE d   1      -4.989  -3.262  -1.858  0.00  0.00     0.078 C 
ATOM      3  C1  OXE d   1      -5.076  -3.965  -3.190  0.00  0.00    -0.078 A 
ATOM      4  C2  OXE d   1      -5.338  -5.314  -3.177  0.00  0.00    -0.078 A 
ATOM      5  C3  OXE d   1      -5.484  -5.999  -4.379  0.00  0.00     0.003 A 
ATOM      6  C4  OXE d   1      -5.214  -5.361  -5.596  0.00  0.00    -0.002 A 
ATOM      7  C5  OXE d   1      -4.906  -3.997  -5.629  0.00  0.00    -0.002 A 
ATOM      8  C6  OXE d   1      -4.875  -3.276  -4.441  0.00  0.00     0.003 A 
ENDROOT
TORSDOF 0
ENDMDL
