MODEL 1
REMARK minimizedAffinity 0.663310111
REMARK minimizedRMSD -1
REMARK  0 active torsions:
REMARK  status: ('A' for Active; 'I' for Inactive)
ROOT
ATOM      1  C2' OXE d   1      -5.133  -3.005  -5.825  0.00  0.00     0.078 C 
ATOM      2  C1' OXE d   1      -4.471  -5.722  -5.580  0.00  0.00     0.078 C 
ATOM      3  C1  OXE d   1      -5.021  -5.020  -4.364  0.00  0.00    -0.078 A 
ATOM      4  C2  OXE d   1      -5.298  -3.679  -4.479  0.00  0.00    -0.078 A 
ATOM      5  C3  OXE d   1      -5.858  -2.995  -3.404  0.00  0.00     0.003 A 
ATOM      6  C4  OXE d   1      -5.998  -3.623  -2.160  0.00  0.00    -0.002 A 
ATOM      7  C5  OXE d   1      -5.685  -4.978  -2.010  0.00  0.00    -0.002 A 
ATOM      8  C6  OXE d   1      -5.236  -5.700  -3.110  0.00  0.00     0.003 A 
ENDROOT
TORSDOF 0
ENDMDL
