MODEL 1
REMARK minimizedAffinity 6.22547531
REMARK minimizedRMSD -1
REMARK  0 active torsions:
REMARK  status: ('A' for Active; 'I' for Inactive)
ROOT
ATOM      1  C2' OXE d   1       1.697  -2.963   3.409  0.00  0.00     0.078 C 
ATOM      2  C1' OXE d   1       3.050  -3.213   5.856  0.00  0.00     0.078 C 
ATOM      3  C1  OXE d   1       3.872  -3.239   4.591  0.00  0.00    -0.078 A 
ATOM      4  C2  OXE d   1       3.197  -3.163   3.397  0.00  0.00    -0.078 A 
ATOM      5  C3  OXE d   1       3.911  -3.128   2.202  0.00  0.00     0.003 A 
ATOM      6  C4  OXE d   1       5.297  -3.324   2.199  0.00  0.00    -0.002 A 
ATOM      7  C5  OXE d   1       6.000  -3.444   3.403  0.00  0.00    -0.002 A 
ATOM      8  C6  OXE d   1       5.309  -3.361   4.607  0.00  0.00     0.003 A 
ENDROOT
TORSDOF 0
ENDMDL
