MODEL 1
REMARK minimizedAffinity -0.915091634
REMARK minimizedRMSD -1
REMARK  0 active torsions:
REMARK  status: ('A' for Active; 'I' for Inactive)
ROOT
ATOM      1  C2' OXE d   1      -4.972  -3.277  -2.265  0.00  0.00     0.078 C 
ATOM      2  C1' OXE d   1      -5.999  -5.889  -2.208  0.00  0.00     0.078 C 
ATOM      3  C1  OXE d   1      -5.706  -5.277  -3.555  0.00  0.00    -0.078 A 
ATOM      4  C2  OXE d   1      -5.247  -3.982  -3.575  0.00  0.00    -0.078 A 
ATOM      5  C3  OXE d   1      -4.910  -3.389  -4.788  0.00  0.00     0.003 A 
ATOM      6  C4  OXE d   1      -5.177  -4.044  -5.996  0.00  0.00    -0.002 A 
ATOM      7  C5  OXE d   1      -5.681  -5.349  -6.000  0.00  0.00    -0.002 A 
ATOM      8  C6  OXE d   1      -5.910  -5.994  -4.789  0.00  0.00     0.003 A 
ENDROOT
TORSDOF 0
ENDMDL
