MODEL 1
REMARK minimizedAffinity -0.999143004
REMARK minimizedRMSD -1
REMARK  0 active torsions:
REMARK  status: ('A' for Active; 'I' for Inactive)
ROOT
ATOM      1  C2' OXE d   1      -4.119  -3.002  -5.999  0.00  0.00     0.078 C 
ATOM      2  C1' OXE d   1      -5.103  -5.630  -5.998  0.00  0.00     0.078 C 
ATOM      3  C1  OXE d   1      -5.271  -4.816  -4.740  0.00  0.00    -0.078 A 
ATOM      4  C2  OXE d   1      -4.745  -3.547  -4.733  0.00  0.00    -0.078 A 
ATOM      5  C3  OXE d   1      -4.920  -2.733  -3.618  0.00  0.00     0.003 A 
ATOM      6  C4  OXE d   1      -5.492  -3.248  -2.448  0.00  0.00    -0.002 A 
ATOM      7  C5  OXE d   1      -5.999  -4.552  -2.420  0.00  0.00    -0.002 A 
ATOM      8  C6  OXE d   1      -5.935  -5.333  -3.568  0.00  0.00     0.003 A 
ENDROOT
TORSDOF 0
ENDMDL
