MODEL 1
REMARK minimizedAffinity -2.23831248
REMARK minimizedRMSD -1
REMARK  0 active torsions:
REMARK  status: ('A' for Active; 'I' for Inactive)
ROOT
ATOM      1  C2' OXE d   1      -5.656  -3.745  -2.342  0.00  0.00     0.078 C 
ATOM      2  C1' OXE d   1      -3.499  -5.543  -2.319  0.00  0.00     0.078 C 
ATOM      3  C1  OXE d   1      -4.223  -5.328  -3.625  0.00  0.00    -0.078 A 
ATOM      4  C2  OXE d   1      -5.306  -4.483  -3.616  0.00  0.00    -0.078 A 
ATOM      5  C3  OXE d   1      -5.976  -4.208  -4.805  0.00  0.00     0.003 A 
ATOM      6  C4  OXE d   1      -5.652  -4.902  -5.978  0.00  0.00    -0.002 A 
ATOM      7  C5  OXE d   1      -4.578  -5.797  -5.999  0.00  0.00    -0.002 A 
ATOM      8  C6  OXE d   1      -3.828  -5.989  -4.844  0.00  0.00     0.003 A 
ENDROOT
TORSDOF 0
ENDMDL
