MODEL 1
REMARK minimizedAffinity 1.66337597
REMARK minimizedRMSD -1
REMARK  0 active torsions:
REMARK  status: ('A' for Active; 'I' for Inactive)
ROOT
ATOM      1  C2' OXE d   1      -3.282  -5.626  -2.499  0.00  0.00     0.078 C 
ATOM      2  C1' OXE d   1      -5.242  -3.632  -2.246  0.00  0.00     0.078 C 
ATOM      3  C1  OXE d   1      -5.124  -4.338  -3.573  0.00  0.00    -0.078 A 
ATOM      4  C2  OXE d   1      -4.132  -5.280  -3.703  0.00  0.00    -0.078 A 
ATOM      5  C3  OXE d   1      -4.015  -6.000  -4.888  0.00  0.00     0.003 A 
ATOM      6  C4  OXE d   1      -4.799  -5.667  -6.000  0.00  0.00    -0.002 A 
ATOM      7  C5  OXE d   1      -5.789  -4.683  -5.902  0.00  0.00    -0.002 A 
ATOM      8  C6  OXE d   1      -5.993  -4.041  -4.686  0.00  0.00     0.003 A 
ENDROOT
TORSDOF 0
ENDMDL
