MODEL 1
REMARK minimizedAffinity 1.97263348
REMARK minimizedRMSD -1
REMARK  0 active torsions:
REMARK  status: ('A' for Active; 'I' for Inactive)
ROOT
ATOM      1  C2' OXE d   1      -5.252  -2.947  -2.387  0.00  0.00     0.078 C 
ATOM      2  C1' OXE d   1      -4.497  -5.627  -2.032  0.00  0.00     0.078 C 
ATOM      3  C1  OXE d   1      -4.737  -5.145  -3.440  0.00  0.00    -0.078 A 
ATOM      4  C2  OXE d   1      -5.152  -3.844  -3.601  0.00  0.00    -0.078 A 
ATOM      5  C3  OXE d   1      -5.335  -3.333  -4.883  0.00  0.00     0.003 A 
ATOM      6  C4  OXE d   1      -5.250  -4.173  -6.000  0.00  0.00    -0.002 A 
ATOM      7  C5  OXE d   1      -4.867  -5.511  -5.855  0.00  0.00    -0.002 A 
ATOM      8  C6  OXE d   1      -4.567  -6.000  -4.589  0.00  0.00     0.003 A 
ENDROOT
TORSDOF 0
ENDMDL
