MODEL 1
REMARK minimizedAffinity 7.4939847
REMARK minimizedRMSD -1
REMARK  0 active torsions:
REMARK  status: ('A' for Active; 'I' for Inactive)
ROOT
ATOM      1  C2' OXE d   1      -5.346  -5.899  -5.790  0.00  0.00     0.078 C 
ATOM      2  C1' OXE d   1      -5.997  -3.176  -5.990  0.00  0.00     0.078 C 
ATOM      3  C1  OXE d   1      -5.816  -3.756  -4.610  0.00  0.00    -0.078 A 
ATOM      4  C2  OXE d   1      -5.544  -5.100  -4.520  0.00  0.00    -0.078 A 
ATOM      5  C3  OXE d   1      -5.314  -5.675  -3.273  0.00  0.00     0.003 A 
ATOM      6  C4  OXE d   1      -5.509  -4.931  -2.103  0.00  0.00    -0.002 A 
ATOM      7  C5  OXE d   1      -5.825  -3.570  -2.171  0.00  0.00    -0.002 A 
ATOM      8  C6  OXE d   1      -5.941  -2.959  -3.415  0.00  0.00     0.003 A 
ENDROOT
TORSDOF 0
ENDMDL
