MODEL 1
REMARK minimizedAffinity -0.734472632
REMARK minimizedRMSD -1
REMARK  0 active torsions:
REMARK  status: ('A' for Active; 'I' for Inactive)
ROOT
ATOM      1  C2' OXE d   1      -5.993  -3.270  -5.980  0.00  0.00     0.078 C 
ATOM      2  C1' OXE d   1      -5.336  -6.000  -5.994  0.00  0.00     0.078 C 
ATOM      3  C1  OXE d   1      -5.333  -5.282  -4.667  0.00  0.00    -0.078 A 
ATOM      4  C2  OXE d   1      -5.610  -3.936  -4.676  0.00  0.00    -0.078 A 
ATOM      5  C3  OXE d   1      -5.673  -3.238  -3.474  0.00  0.00     0.003 A 
ATOM      6  C4  OXE d   1      -5.308  -3.858  -2.273  0.00  0.00    -0.002 A 
ATOM      7  C5  OXE d   1      -4.984  -5.219  -2.247  0.00  0.00    -0.002 A 
ATOM      8  C6  OXE d   1      -5.033  -5.954  -3.427  0.00  0.00     0.003 A 
ENDROOT
TORSDOF 0
ENDMDL
