MODEL 1
REMARK minimizedAffinity 2.78909087
REMARK minimizedRMSD -1
REMARK  1 active torsions:
REMARK  status: ('A' for Active; 'I' for Inactive)
REMARK    1  A    between atoms: C1_2  and  C2_3 
ROOT
ATOM      1  C2  UNL d   1       1.884   0.565   1.117  0.00  0.00    -0.077 A 
ATOM      2  C3  UNL d   1       0.822   1.472   0.990  0.00  0.00     0.002 A 
ATOM      3  C4  UNL d   1       0.990   2.661   0.278  0.00  0.00     0.002 A 
ATOM      4  C5  UNL d   1       2.216   2.952  -0.317  0.00  0.00    -0.004 A 
ATOM      5  C6  UNL d   1       3.278   2.057  -0.195  0.00  0.00     0.002 A 
ATOM      6  C7  UNL d   1       3.113   0.869   0.517  0.00  0.00     0.002 A 
ENDROOT
BRANCH   1   7
ATOM      7  C1  UNL d   1       1.690  -0.740   1.843  0.00  0.00     0.055 C 
ATOM      8  C   UNL d   1       0.562  -1.554   1.226  0.00  0.00     0.019 C 
ENDBRANCH   1   7
TORSDOF 1
ENDMDL
