MODEL 1
REMARK minimizedAffinity -3.40282321
REMARK minimizedRMSD -1
REMARK  1 active torsions:
REMARK  status: ('A' for Active; 'I' for Inactive)
REMARK    1  A    between atoms: C1_2  and  C2_3 
ROOT
ATOM      1  C2  UNL d   1       1.311  -1.373   3.557  0.00  0.00    -0.077 A 
ATOM      2  C3  UNL d   1       1.977  -0.215   3.132  0.00  0.00     0.002 A 
ATOM      3  C4  UNL d   1       1.761   0.294   1.850  0.00  0.00     0.002 A 
ATOM      4  C5  UNL d   1       0.877  -0.346   0.985  0.00  0.00    -0.004 A 
ATOM      5  C6  UNL d   1       0.211  -1.500   1.397  0.00  0.00     0.002 A 
ATOM      6  C7  UNL d   1       0.427  -2.011   2.677  0.00  0.00     0.002 A 
ENDROOT
BRANCH   1   7
ATOM      7  C1  UNL d   1       1.505  -1.896   4.956  0.00  0.00     0.055 C 
ATOM      8  C   UNL d   1       1.142  -3.371   5.052  0.00  0.00     0.019 C 
ENDBRANCH   1   7
TORSDOF 1
ENDMDL
