MODEL 1
REMARK minimizedAffinity 0.285549521
REMARK minimizedRMSD -1
REMARK  1 active torsions:
REMARK  status: ('A' for Active; 'I' for Inactive)
REMARK    1  A    between atoms: C1_2  and  C2_3 
ROOT
ATOM      1  C2  UNL d   1       2.074  -2.091   3.140  0.00  0.00    -0.077 A 
ATOM      2  C3  UNL d   1       3.428  -2.146   2.781  0.00  0.00     0.002 A 
ATOM      3  C4  UNL d   1       4.340  -2.849   3.570  0.00  0.00     0.002 A 
ATOM      4  C5  UNL d   1       3.908  -3.507   4.719  0.00  0.00    -0.004 A 
ATOM      5  C6  UNL d   1       2.564  -3.457   5.086  0.00  0.00     0.002 A 
ATOM      6  C7  UNL d   1       1.651  -2.753   4.299  0.00  0.00     0.002 A 
ENDROOT
BRANCH   1   7
ATOM      7  C1  UNL d   1       1.080  -1.374   2.264  0.00  0.00     0.055 C 
ATOM      8  C   UNL d   1       1.769  -0.365   1.357  0.00  0.00     0.019 C 
ENDBRANCH   1   7
TORSDOF 1
ENDMDL
