MODEL 1
REMARK minimizedAffinity -4.58067179
REMARK minimizedRMSD -1
REMARK  1 active torsions:
REMARK  status: ('A' for Active; 'I' for Inactive)
REMARK    1  A    between atoms: C1_2  and  C2_3 
ROOT
ATOM      1  C2  UNL d   1      -0.827   0.225   0.088  0.00  0.00    -0.081 A 
ATOM      2  C3  UNL d   1      -0.495  -1.104  -0.202  0.00  0.00     0.006 A 
ATOM      3  C4  UNL d   1       0.780  -1.595   0.088  0.00  0.00     0.002 A 
ATOM      4  C5  UNL d   1       1.742  -0.768   0.678  0.00  0.00    -0.080 A 
ATOM      5  C6  UNL d   1       3.105  -1.291   1.021  0.00  0.00     0.076 C 
ATOM      6  C7  UNL d   1       1.416   0.565   0.951  0.00  0.00     0.002 A 
ATOM      7  C8  UNL d   1       0.142   1.056   0.661  0.00  0.00     0.006 A 
ENDROOT
BRANCH   1   8
ATOM      8  C1  UNL d   1      -2.221   0.739  -0.163  0.00  0.00     0.054 C 
ATOM      9  C   UNL d   1      -3.032   0.791   1.124  0.00  0.00     0.018 C 
ENDBRANCH   1   8
TORSDOF 1
ENDMDL
