MODEL 1
REMARK minimizedAffinity -0.0667932555
REMARK minimizedRMSD -1
REMARK  1 active torsions:
REMARK  status: ('A' for Active; 'I' for Inactive)
REMARK    1  A    between atoms: C1_2  and  C2_3 
ROOT
ATOM      1  C2  UNL d   1      -0.833   0.925  -0.157  0.00  0.00    -0.081 A 
ATOM      2  C3  UNL d   1       0.305   1.708   0.067  0.00  0.00     0.006 A 
ATOM      3  C4  UNL d   1       1.578   1.132   0.041  0.00  0.00     0.002 A 
ATOM      4  C5  UNL d   1       1.733  -0.235  -0.216  0.00  0.00    -0.080 A 
ATOM      5  C6  UNL d   1       3.095  -0.860  -0.276  0.00  0.00     0.076 C 
ATOM      6  C7  UNL d   1       0.594  -1.021  -0.422  0.00  0.00     0.002 A 
ATOM      7  C8  UNL d   1      -0.678  -0.445  -0.396  0.00  0.00     0.006 A 
ENDROOT
BRANCH   1   8
ATOM      8  C1  UNL d   1      -2.202   1.555  -0.195  0.00  0.00     0.054 C 
ATOM      9  C   UNL d   1      -2.995   1.232   1.063  0.00  0.00     0.018 C 
ENDBRANCH   1   8
TORSDOF 1
ENDMDL
