MODEL 1
REMARK minimizedAffinity -5.29692698
REMARK minimizedRMSD -1
REMARK  1 active torsions:
REMARK  status: ('A' for Active; 'I' for Inactive)
REMARK    1  A    between atoms: C1_2  and  C2_3 
ROOT
ATOM      1  C2  UNL d   1      -1.645   0.479  -0.373  0.00  0.00    -0.081 A 
ATOM      2  C3  UNL d   1      -1.479  -0.869  -0.714  0.00  0.00     0.006 A 
ATOM      3  C4  UNL d   1      -0.211  -1.454  -0.693  0.00  0.00     0.002 A 
ATOM      4  C5  UNL d   1       0.911  -0.703  -0.324  0.00  0.00    -0.080 A 
ATOM      5  C6  UNL d   1       2.274  -1.327  -0.268  0.00  0.00     0.076 C 
ATOM      6  C7  UNL d   1       0.747   0.648   0.000  0.00  0.00     0.002 A 
ATOM      7  C8  UNL d   1      -0.521   1.233  -0.021  0.00  0.00     0.006 A 
ENDROOT
BRANCH   1   8
ATOM      8  C1  UNL d   1      -3.020   1.095  -0.331  0.00  0.00     0.054 C 
ATOM      9  C   UNL d   1      -3.397   1.513   1.083  0.00  0.00     0.018 C 
ENDBRANCH   1   8
TORSDOF 1
ENDMDL
