MODEL 1
REMARK minimizedAffinity -3.66152263
REMARK minimizedRMSD -1
REMARK  1 active torsions:
REMARK  status: ('A' for Active; 'I' for Inactive)
REMARK    1  A    between atoms: C1_2  and  C2_3 
ROOT
ATOM      1  C2  UNL d   1       0.079  -1.525  -0.578  0.00  0.00    -0.081 A 
ATOM      2  C3  UNL d   1      -0.577  -0.297  -0.725  0.00  0.00     0.006 A 
ATOM      3  C4  UNL d   1      -0.064   0.856  -0.126  0.00  0.00     0.002 A 
ATOM      4  C5  UNL d   1       1.116   0.802   0.623  0.00  0.00    -0.080 A 
ATOM      5  C6  UNL d   1       1.693   2.038   1.247  0.00  0.00     0.076 C 
ATOM      6  C7  UNL d   1       1.762  -0.428   0.785  0.00  0.00     0.002 A 
ATOM      7  C8  UNL d   1       1.250  -1.581   0.187  0.00  0.00     0.006 A 
ENDROOT
BRANCH   1   8
ATOM      8  C1  UNL d   1      -0.435  -2.758  -1.276  0.00  0.00     0.054 C 
ATOM      9  C   UNL d   1      -1.014  -2.419  -2.642  0.00  0.00     0.018 C 
ENDBRANCH   1   8
TORSDOF 1
ENDMDL
