MODEL 1
REMARK minimizedAffinity 13.0602522
REMARK minimizedRMSD -1
REMARK  0 active torsions:
REMARK  status: ('A' for Active; 'I' for Inactive)
ROOT
ATOM      1  O1  BZF d   1      -1.002   2.339   3.225  0.00  0.00    -0.204 OA
ATOM      2  C2  BZF d   1      -2.221   2.905   2.906  0.00  0.00     0.174 A 
ATOM      3  C3  BZF d   1      -2.453   2.825   1.579  0.00  0.00    -0.012 A 
ATOM      4  C3A BZF d   1      -1.350   2.085   1.049  0.00  0.00    -0.107 A 
ATOM      5  C4  BZF d   1      -1.018   1.665  -0.208  0.00  0.00     0.055 A 
ATOM      6  C5  BZF d   1       0.166   1.026  -0.400  0.00  0.00    -0.016 A 
ATOM      7  C6  BZF d   1       1.043   0.795   0.639  0.00  0.00     0.022 A 
ATOM      8  C7  BZF d   1       0.756   1.188   1.904  0.00  0.00     0.029 A 
ATOM      9  C7A BZF d   1      -0.455   1.805   2.107  0.00  0.00     0.058 A 
ENDROOT
TORSDOF 0
ENDMDL
