MODEL 1
REMARK minimizedAffinity 12.1576853
REMARK minimizedRMSD -1
REMARK  0 active torsions:
REMARK  status: ('A' for Active; 'I' for Inactive)
ROOT
ATOM      1  O1  BZF d   1       0.422   2.843  -1.963  0.00  0.00    -0.204 OA
ATOM      2  C2  BZF d   1      -0.702   3.117  -2.719  0.00  0.00     0.174 A 
ATOM      3  C3  BZF d   1      -1.814   3.059  -1.959  0.00  0.00    -0.012 A 
ATOM      4  C3A BZF d   1      -1.349   2.819  -0.627  0.00  0.00    -0.107 A 
ATOM      5  C4  BZF d   1      -1.978   2.677   0.576  0.00  0.00     0.055 A 
ATOM      6  C5  BZF d   1      -1.240   2.378   1.677  0.00  0.00    -0.016 A 
ATOM      7  C6  BZF d   1       0.128   2.209   1.610  0.00  0.00     0.022 A 
ATOM      8  C7  BZF d   1       0.797   2.345   0.439  0.00  0.00     0.029 A 
ATOM      9  C7A BZF d   1       0.058   2.679  -0.669  0.00  0.00     0.058 A 
ENDROOT
TORSDOF 0
ENDMDL
