MODEL 1
REMARK minimizedAffinity 14.346734
REMARK minimizedRMSD -1
REMARK  0 active torsions:
REMARK  status: ('A' for Active; 'I' for Inactive)
ROOT
ATOM      1  O1  BZF d   1      -2.019   4.184  -4.006  0.00  0.00    -0.204 OA
ATOM      2  C2  BZF d   1      -3.322   3.743  -4.134  0.00  0.00     0.174 A 
ATOM      3  C3  BZF d   1      -3.566   2.719  -3.292  0.00  0.00    -0.012 A 
ATOM      4  C3A BZF d   1      -2.366   2.566  -2.527  0.00  0.00    -0.107 A 
ATOM      5  C4  BZF d   1      -1.996   1.724  -1.518  0.00  0.00     0.055 A 
ATOM      6  C5  BZF d   1      -0.727   1.786  -1.037  0.00  0.00    -0.016 A 
ATOM      7  C6  BZF d   1       0.199   2.673  -1.545  0.00  0.00     0.022 A 
ATOM      8  C7  BZF d   1      -0.122   3.532  -2.543  0.00  0.00     0.029 A 
ATOM      9  C7A BZF d   1      -1.414   3.494  -3.009  0.00  0.00     0.058 A 
ENDROOT
TORSDOF 0
ENDMDL
