MODEL 1
REMARK minimizedAffinity 7.20017576
REMARK minimizedRMSD -1
REMARK  0 active torsions:
REMARK  status: ('A' for Active; 'I' for Inactive)
ROOT
ATOM      1  O1  BZF d   1       0.385   4.005  -0.056  0.00  0.00    -0.204 OA
ATOM      2  C2  BZF d   1      -0.368   3.157  -0.845  0.00  0.00     0.174 A 
ATOM      3  C3  BZF d   1      -0.666   2.023  -0.180  0.00  0.00    -0.012 A 
ATOM      4  C3A BZF d   1      -0.140   2.209   1.137  0.00  0.00    -0.107 A 
ATOM      5  C4  BZF d   1      -0.134   1.438   2.264  0.00  0.00     0.055 A 
ATOM      6  C5  BZF d   1       0.529   1.881   3.364  0.00  0.00    -0.016 A 
ATOM      7  C6  BZF d   1       1.199   3.086   3.372  0.00  0.00     0.022 A 
ATOM      8  C7  BZF d   1       1.217   3.889   2.280  0.00  0.00     0.029 A 
ATOM      9  C7A BZF d   1       0.521   3.459   1.177  0.00  0.00     0.058 A 
ENDROOT
TORSDOF 0
ENDMDL
