MODEL 1
REMARK minimizedAffinity 7.14801311
REMARK minimizedRMSD -1
REMARK  0 active torsions:
REMARK  status: ('A' for Active; 'I' for Inactive)
ROOT
ATOM      1  O1  BZF d   1      -3.742  -5.686  -2.185  0.00  0.00    -0.204 OA
ATOM      2  C2  BZF d   1      -4.935  -5.852  -1.508  0.00  0.00     0.174 A 
ATOM      3  C3  BZF d   1      -5.969  -5.921  -2.370  0.00  0.00    -0.012 A 
ATOM      4  C3A BZF d   1      -5.376  -5.882  -3.672  0.00  0.00    -0.107 A 
ATOM      5  C4  BZF d   1      -5.886  -5.932  -4.938  0.00  0.00     0.055 A 
ATOM      6  C5  BZF d   1      -5.044  -5.797  -5.995  0.00  0.00    -0.016 A 
ATOM      7  C6  BZF d   1      -3.688  -5.606  -5.824  0.00  0.00     0.022 A 
ATOM      8  C7  BZF d   1      -3.135  -5.555  -4.588  0.00  0.00     0.029 A 
ATOM      9  C7A BZF d   1      -3.980  -5.724  -3.518  0.00  0.00     0.058 A 
ENDROOT
TORSDOF 0
ENDMDL
