MODEL 1
REMARK minimizedAffinity 4.30078459
REMARK minimizedRMSD -1
REMARK  0 active torsions:
REMARK  status: ('A' for Active; 'I' for Inactive)
ROOT
ATOM      1  O1  BZF d   1       0.446   3.739  -0.700  0.00  0.00    -0.204 OA
ATOM      2  C2  BZF d   1      -0.649   2.988  -1.082  0.00  0.00     0.174 A 
ATOM      3  C3  BZF d   1      -1.214   2.389  -0.014  0.00  0.00    -0.012 A 
ATOM      4  C3A BZF d   1      -0.479   2.866   1.117  0.00  0.00    -0.107 A 
ATOM      5  C4  BZF d   1      -0.576   2.644   2.461  0.00  0.00     0.055 A 
ATOM      6  C5  BZF d   1       0.342   3.205   3.291  0.00  0.00    -0.016 A 
ATOM      7  C6  BZF d   1       1.372   3.988   2.812  0.00  0.00     0.022 A 
ATOM      8  C7  BZF d   1       1.506   4.241   1.487  0.00  0.00     0.029 A 
ATOM      9  C7A BZF d   1       0.561   3.702   0.649  0.00  0.00     0.058 A 
ENDROOT
TORSDOF 0
ENDMDL
