MODEL 1
REMARK minimizedAffinity -2.62374711
REMARK minimizedRMSD -1
REMARK  0 active torsions:
REMARK  status: ('A' for Active; 'I' for Inactive)
ROOT
ATOM      1  O1  BZF d   1       4.021  -1.431  -0.180  0.00  0.00    -0.204 OA
ATOM      2  C2  BZF d   1       5.164  -1.501   0.593  0.00  0.00     0.174 A 
ATOM      3  C3  BZF d   1       5.819  -2.660   0.375  0.00  0.00    -0.012 A 
ATOM      4  C3A BZF d   1       5.085  -3.317  -0.663  0.00  0.00    -0.107 A 
ATOM      5  C4  BZF d   1       5.250  -4.500  -1.325  0.00  0.00     0.055 A 
ATOM      6  C5  BZF d   1       4.316  -4.884  -2.234  0.00  0.00    -0.016 A 
ATOM      7  C6  BZF d   1       3.204  -4.113  -2.502  0.00  0.00     0.022 A 
ATOM      8  C7  BZF d   1       3.000  -2.929  -1.875  0.00  0.00     0.029 A 
ATOM      9  C7A BZF d   1       3.959  -2.522  -0.980  0.00  0.00     0.058 A 
ENDROOT
TORSDOF 0
ENDMDL
