MODEL 1
REMARK minimizedAffinity 12.6977224
REMARK minimizedRMSD -1
REMARK  0 active torsions:
REMARK  status: ('A' for Active; 'I' for Inactive)
ROOT
ATOM      1  O1  BZF d   1       4.575  -3.244  -4.456  0.00  0.00    -0.204 OA
ATOM      2  C2  BZF d   1       4.608  -4.510  -5.008  0.00  0.00     0.174 A 
ATOM      3  C3  BZF d   1       4.784  -5.445  -4.052  0.00  0.00    -0.012 A 
ATOM      4  C3A BZF d   1       4.775  -4.725  -2.815  0.00  0.00    -0.107 A 
ATOM      5  C4  BZF d   1       4.890  -5.102  -1.508  0.00  0.00     0.055 A 
ATOM      6  C5  BZF d   1       4.914  -4.145  -0.544  0.00  0.00    -0.016 A 
ATOM      7  C6  BZF d   1       4.831  -2.803  -0.851  0.00  0.00     0.022 A 
ATOM      8  C7  BZF d   1       4.710  -2.380  -2.133  0.00  0.00     0.029 A 
ATOM      9  C7A BZF d   1       4.652  -3.346  -3.107  0.00  0.00     0.058 A 
ENDROOT
TORSDOF 0
ENDMDL
