MODEL 1
REMARK minimizedAffinity -3.38692522
REMARK minimizedRMSD -1
REMARK  0 active torsions:
REMARK  status: ('A' for Active; 'I' for Inactive)
ROOT
ATOM      1  C1  DEN d   1      -0.819   0.931  -1.182  0.00  0.00     0.130 A 
ATOM      2  C2  DEN d   1       0.431   1.645  -1.430  0.00  0.00    -0.031 A 
ATOM      3  C3  DEN d   1       1.494   0.991  -0.641  0.00  0.00     0.027 A 
ATOM      4  C4  DEN d   1       1.329  -1.050   0.927  0.00  0.00     0.027 A 
ATOM      5  C5  DEN d   1       0.474  -1.986   1.465  0.00  0.00    -0.003 A 
ATOM      6  C6  DEN d   1      -0.868  -1.994   1.187  0.00  0.00     0.001 A 
ATOM      7  C7  DEN d   1      -1.385  -1.075   0.313  0.00  0.00     0.017 A 
ATOM      8  C8  DEN d   1      -0.530  -0.124  -0.228  0.00  0.00    -0.094 A 
ATOM      9  C9  DEN d   1       0.825  -0.140   0.056  0.00  0.00    -0.072 A 
ENDROOT
TORSDOF 0
ENDMDL
