MODEL 1
REMARK minimizedAffinity -3.38305902
REMARK minimizedRMSD -1
REMARK  0 active torsions:
REMARK  status: ('A' for Active; 'I' for Inactive)
ROOT
ATOM      1  C1  DEN d   1       1.263  -0.233  -0.095  0.00  0.00     0.130 A 
ATOM      2  C2  DEN d   1       0.967   1.050  -0.726  0.00  0.00    -0.031 A 
ATOM      3  C3  DEN d   1      -0.498   1.239  -0.711  0.00  0.00     0.027 A 
ATOM      4  C4  DEN d   1      -2.326  -0.320   0.227  0.00  0.00     0.027 A 
ATOM      5  C5  DEN d   1      -2.562  -1.527   0.848  0.00  0.00    -0.003 A 
ATOM      6  C6  DEN d   1      -1.551  -2.395   1.164  0.00  0.00     0.001 A 
ATOM      7  C7  DEN d   1      -0.251  -2.048   0.902  0.00  0.00     0.017 A 
ATOM      8  C8  DEN d   1      -0.006  -0.837   0.270  0.00  0.00    -0.094 A 
ATOM      9  C9  DEN d   1      -1.041   0.033  -0.031  0.00  0.00    -0.072 A 
ENDROOT
TORSDOF 0
ENDMDL
