MODEL 1
REMARK minimizedAffinity -3.3907342
REMARK minimizedRMSD -1
REMARK  0 active torsions:
REMARK  status: ('A' for Active; 'I' for Inactive)
ROOT
ATOM      1  C1  DEN d   1      -0.973   0.533  -1.323  0.00  0.00     0.130 A 
ATOM      2  C2  DEN d   1       0.199   1.397  -1.208  0.00  0.00    -0.031 A 
ATOM      3  C3  DEN d   1       1.164   0.740  -0.304  0.00  0.00     0.027 A 
ATOM      4  C4  DEN d   1       0.960  -1.522   0.919  0.00  0.00     0.027 A 
ATOM      5  C5  DEN d   1       0.144  -2.609   1.140  0.00  0.00    -0.003 A 
ATOM      6  C6  DEN d   1      -1.105  -2.708   0.587  0.00  0.00     0.001 A 
ATOM      7  C7  DEN d   1      -1.557  -1.724  -0.251  0.00  0.00     0.017 A 
ATOM      8  C8  DEN d   1      -0.742  -0.621  -0.473  0.00  0.00    -0.094 A 
ATOM      9  C9  DEN d   1       0.522  -0.544   0.086  0.00  0.00    -0.072 A 
ENDROOT
TORSDOF 0
ENDMDL
