MODEL 1
REMARK minimizedAffinity -3.59788227
REMARK minimizedRMSD -1
REMARK  0 active torsions:
REMARK  status: ('A' for Active; 'I' for Inactive)
ROOT
ATOM      1  C1  DEN d   1      -1.787  -1.824   0.408  0.00  0.00     0.130 A 
ATOM      2  C2  DEN d   1      -1.047  -2.935   1.002  0.00  0.00    -0.031 A 
ATOM      3  C3  DEN d   1       0.367  -2.528   1.125  0.00  0.00     0.027 A 
ATOM      4  C4  DEN d   1       1.477  -0.296   0.462  0.00  0.00     0.027 A 
ATOM      5  C5  DEN d   1       1.257   0.946  -0.091  0.00  0.00    -0.003 A 
ATOM      6  C6  DEN d   1       0.025   1.336  -0.545  0.00  0.00     0.001 A 
ATOM      7  C7  DEN d   1      -1.046   0.491  -0.411  0.00  0.00     0.017 A 
ATOM      8  C8  DEN d   1      -0.831  -0.765   0.139  0.00  0.00    -0.094 A 
ATOM      9  C9  DEN d   1       0.420  -1.136   0.603  0.00  0.00    -0.072 A 
ENDROOT
TORSDOF 0
ENDMDL
