MODEL 1
REMARK minimizedAffinity -5.926754
REMARK minimizedRMSD -1
REMARK  0 active torsions:
REMARK  status: ('A' for Active; 'I' for Inactive)
ROOT
ATOM      1  C1  DEN d   1      -0.375   0.936   0.120  0.00  0.00     0.130 A 
ATOM      2  C2  DEN d   1       0.746   0.379  -0.631  0.00  0.00    -0.031 A 
ATOM      3  C3  DEN d   1       0.695  -1.092  -0.504  0.00  0.00     0.027 A 
ATOM      4  C4  DEN d   1      -1.004  -2.551   0.775  0.00  0.00     0.027 A 
ATOM      5  C5  DEN d   1      -2.126  -2.529   1.574  0.00  0.00    -0.003 A 
ATOM      6  C6  DEN d   1      -2.718  -1.359   1.969  0.00  0.00     0.001 A 
ATOM      7  C7  DEN d   1      -2.217  -0.162   1.529  0.00  0.00     0.017 A 
ATOM      8  C8  DEN d   1      -1.082  -0.176   0.729  0.00  0.00    -0.094 A 
ATOM      9  C9  DEN d   1      -0.505  -1.370   0.330  0.00  0.00    -0.072 A 
ENDROOT
TORSDOF 0
ENDMDL
