MODEL 1
REMARK minimizedAffinity -2.14144897
REMARK minimizedRMSD -1
REMARK  0 active torsions:
REMARK  status: ('A' for Active; 'I' for Inactive)
ROOT
ATOM      1  C1  DEN d   1       0.440  -2.265   0.039  0.00  0.00     0.130 A 
ATOM      2  C2  DEN d   1      -0.656  -2.973   0.694  0.00  0.00    -0.031 A 
ATOM      3  C3  DEN d   1      -1.619  -1.967   1.185  0.00  0.00     0.027 A 
ATOM      4  C4  DEN d   1      -1.523   0.603   0.990  0.00  0.00     0.027 A 
ATOM      5  C5  DEN d   1      -0.780   1.667   0.528  0.00  0.00    -0.003 A 
ATOM      6  C6  DEN d   1       0.428   1.497  -0.095  0.00  0.00     0.001 A 
ATOM      7  C7  DEN d   1       0.909   0.233  -0.312  0.00  0.00     0.017 A 
ATOM      8  C8  DEN d   1       0.169  -0.844   0.158  0.00  0.00    -0.094 A 
ATOM      9  C9  DEN d   1      -1.056  -0.653   0.774  0.00  0.00    -0.072 A 
ENDROOT
TORSDOF 0
ENDMDL
