MODEL 1
REMARK minimizedAffinity -2.00416183
REMARK minimizedRMSD -1
REMARK  0 active torsions:
REMARK  status: ('A' for Active; 'I' for Inactive)
ROOT
ATOM      1  C1  DEN d   1       1.443  -0.052  -0.165  0.00  0.00     0.130 A 
ATOM      2  C2  DEN d   1       0.069  -0.384   0.201  0.00  0.00    -0.031 A 
ATOM      3  C3  DEN d   1      -0.833   0.501  -0.562  0.00  0.00     0.027 A 
ATOM      4  C4  DEN d   1      -0.240   2.342  -2.268  0.00  0.00     0.027 A 
ATOM      5  C5  DEN d   1       0.795   2.998  -2.897  0.00  0.00    -0.003 A 
ATOM      6  C6  DEN d   1       2.109   2.709  -2.637  0.00  0.00     0.001 A 
ATOM      7  C7  DEN d   1       2.421   1.707  -1.756  0.00  0.00     0.017 A 
ATOM      8  C8  DEN d   1       1.383   1.047  -1.113  0.00  0.00    -0.094 A 
ATOM      9  C9  DEN d   1       0.062   1.345  -1.399  0.00  0.00    -0.072 A 
ENDROOT
TORSDOF 0
ENDMDL
