MODEL 1
REMARK minimizedAffinity -3.10087037
REMARK minimizedRMSD -1
REMARK  0 active torsions:
REMARK  status: ('A' for Active; 'I' for Inactive)
ROOT
ATOM      1  C1  DEN d   1       1.676   1.777  -1.848  0.00  0.00     0.130 A 
ATOM      2  C2  DEN d   1       0.586   2.542  -2.447  0.00  0.00    -0.031 A 
ATOM      3  C3  DEN d   1      -0.689   1.986  -1.950  0.00  0.00     0.027 A 
ATOM      4  C4  DEN d   1      -1.078   0.029  -0.316  0.00  0.00     0.027 A 
ATOM      5  C5  DEN d   1      -0.459  -0.936   0.447  0.00  0.00    -0.003 A 
ATOM      6  C6  DEN d   1       0.903  -1.085   0.473  0.00  0.00     0.001 A 
ATOM      7  C7  DEN d   1       1.693  -0.226  -0.245  0.00  0.00     0.017 A 
ATOM      8  C8  DEN d   1       1.075   0.744  -1.023  0.00  0.00    -0.094 A 
ATOM      9  C9  DEN d   1      -0.302   0.886  -1.026  0.00  0.00    -0.072 A 
ENDROOT
TORSDOF 0
ENDMDL
