MODEL 1
REMARK minimizedAffinity -3.36949396
REMARK minimizedRMSD -1
REMARK  0 active torsions:
REMARK  status: ('A' for Active; 'I' for Inactive)
ROOT
ATOM      1  C1  DEN d   1       1.387   0.300   0.054  0.00  0.00     0.130 A 
ATOM      2  C2  DEN d   1       0.768   1.390  -0.695  0.00  0.00    -0.031 A 
ATOM      3  C3  DEN d   1      -0.678   1.107  -0.802  0.00  0.00     0.027 A 
ATOM      4  C4  DEN d   1      -2.010  -0.901   0.118  0.00  0.00     0.027 A 
ATOM      5  C5  DEN d   1      -1.916  -2.088   0.811  0.00  0.00    -0.003 A 
ATOM      6  C6  DEN d   1      -0.720  -2.574   1.267  0.00  0.00     0.001 A 
ATOM      7  C7  DEN d   1       0.426  -1.848   1.075  0.00  0.00     0.017 A 
ATOM      8  C8  DEN d   1       0.341  -0.655   0.370  0.00  0.00    -0.094 A 
ATOM      9  C9  DEN d   1      -0.880  -0.174  -0.072  0.00  0.00    -0.072 A 
ENDROOT
TORSDOF 0
ENDMDL
