MODEL 1
REMARK minimizedAffinity -2.9472785
REMARK minimizedRMSD -1
REMARK  0 active torsions:
REMARK  status: ('A' for Active; 'I' for Inactive)
ROOT
ATOM      1  C1  DEN d   1       1.274  -0.011   0.313  0.00  0.00     0.130 A 
ATOM      2  C2  DEN d   1       2.241  -1.104   0.369  0.00  0.00    -0.031 A 
ATOM      3  C3  DEN d   1       1.491  -2.374   0.445  0.00  0.00     0.027 A 
ATOM      4  C4  DEN d   1      -1.060  -2.752   0.478  0.00  0.00     0.027 A 
ATOM      5  C5  DEN d   1      -2.288  -2.127   0.462  0.00  0.00    -0.003 A 
ATOM      6  C6  DEN d   1      -2.413  -0.764   0.430  0.00  0.00     0.001 A 
ATOM      7  C7  DEN d   1      -1.291   0.019   0.367  0.00  0.00     0.017 A 
ATOM      8  C8  DEN d   1      -0.050  -0.603   0.390  0.00  0.00    -0.094 A 
ATOM      9  C9  DEN d   1       0.056  -1.983   0.411  0.00  0.00    -0.072 A 
ENDROOT
TORSDOF 0
ENDMDL
