MODEL 1
REMARK minimizedAffinity -3.68650007
REMARK minimizedRMSD -1
REMARK  0 active torsions:
REMARK  status: ('A' for Active; 'I' for Inactive)
ROOT
ATOM      1  C1  DEN d   1      -0.303  -2.124   1.888  0.00  0.00     0.130 A 
ATOM      2  C2  DEN d   1      -1.294  -2.964   1.220  0.00  0.00    -0.031 A 
ATOM      3  C3  DEN d   1      -1.574  -2.374  -0.104  0.00  0.00     0.027 A 
ATOM      4  C4  DEN d   1      -0.573  -0.254  -1.181  0.00  0.00     0.027 A 
ATOM      5  C5  DEN d   1       0.298   0.796  -0.993  0.00  0.00    -0.003 A 
ATOM      6  C6  DEN d   1       0.998   0.964   0.172  0.00  0.00     0.001 A 
ATOM      7  C7  DEN d   1       0.874   0.042   1.178  0.00  0.00     0.017 A 
ATOM      8  C8  DEN d   1      -0.008  -1.015   0.999  0.00  0.00    -0.094 A 
ATOM      9  C9  DEN d   1      -0.698  -1.175  -0.191  0.00  0.00    -0.072 A 
ENDROOT
TORSDOF 0
ENDMDL
