MODEL 1
REMARK minimizedAffinity -5.43863583
REMARK minimizedRMSD -1
REMARK  0 active torsions:
REMARK  status: ('A' for Active; 'I' for Inactive)
ROOT
ATOM      1  C1  DEN d   1       0.487  -2.180   0.125  0.00  0.00     0.130 A 
ATOM      2  C2  DEN d   1      -0.678  -2.959   0.534  0.00  0.00    -0.031 A 
ATOM      3  C3  DEN d   1      -1.759  -2.016   0.884  0.00  0.00     0.027 A 
ATOM      4  C4  DEN d   1      -1.744   0.563   0.828  0.00  0.00     0.027 A 
ATOM      5  C5  DEN d   1      -0.977   1.675   0.559  0.00  0.00    -0.003 A 
ATOM      6  C6  DEN d   1       0.331   1.582   0.163  0.00  0.00     0.001 A 
ATOM      7  C7  DEN d   1       0.899   0.349  -0.020  0.00  0.00     0.017 A 
ATOM      8  C8  DEN d   1       0.134  -0.777   0.256  0.00  0.00    -0.094 A 
ATOM      9  C9  DEN d   1      -1.190  -0.663   0.644  0.00  0.00    -0.072 A 
ENDROOT
TORSDOF 0
ENDMDL
