MODEL 1
REMARK minimizedAffinity -6.19253922
REMARK minimizedRMSD -1
REMARK  0 active torsions:
REMARK  status: ('A' for Active; 'I' for Inactive)
ROOT
ATOM      1  C1  DEN d   1      -2.551   0.313   1.469  0.00  0.00     0.130 A 
ATOM      2  C2  DEN d   1      -3.373  -0.846   1.808  0.00  0.00    -0.031 A 
ATOM      3  C3  DEN d   1      -2.619  -2.062   1.443  0.00  0.00     0.027 A 
ATOM      4  C4  DEN d   1      -0.271  -2.263   0.394  0.00  0.00     0.027 A 
ATOM      5  C5  DEN d   1       0.809  -1.554  -0.084  0.00  0.00    -0.003 A 
ATOM      6  C6  DEN d   1       0.831  -0.185  -0.109  0.00  0.00     0.001 A 
ATOM      7  C7  DEN d   1      -0.230   0.520   0.394  0.00  0.00     0.017 A 
ATOM      8  C8  DEN d   1      -1.326  -0.187   0.871  0.00  0.00    -0.094 A 
ATOM      9  C9  DEN d   1      -1.324  -1.571   0.899  0.00  0.00    -0.072 A 
ENDROOT
TORSDOF 0
ENDMDL
