MODEL 1
REMARK minimizedAffinity -3.17424917
REMARK minimizedRMSD -1
REMARK  0 active torsions:
REMARK  status: ('A' for Active; 'I' for Inactive)
ROOT
ATOM      1  C1  DEN d   1      -0.447   1.020  -0.977  0.00  0.00     0.130 A 
ATOM      2  C2  DEN d   1       0.944   1.446  -1.102  0.00  0.00    -0.031 A 
ATOM      3  C3  DEN d   1       1.788   0.464  -0.390  0.00  0.00     0.027 A 
ATOM      4  C4  DEN d   1       1.079  -1.665   0.882  0.00  0.00     0.027 A 
ATOM      5  C5  DEN d   1       0.006  -2.434   1.271  0.00  0.00    -0.003 A 
ATOM      6  C6  DEN d   1      -1.286  -2.091   0.970  0.00  0.00     0.001 A 
ATOM      7  C7  DEN d   1      -1.534  -0.972   0.220  0.00  0.00     0.017 A 
ATOM      8  C8  DEN d   1      -0.457  -0.187  -0.170  0.00  0.00    -0.094 A 
ATOM      9  C9  DEN d   1       0.842  -0.557   0.134  0.00  0.00    -0.072 A 
ENDROOT
TORSDOF 0
ENDMDL
