MODEL 1
REMARK minimizedAffinity -6.19685459
REMARK minimizedRMSD -1
REMARK  0 active torsions:
REMARK  status: ('A' for Active; 'I' for Inactive)
ROOT
ATOM      1  C1  DEN d   1      -0.539   1.160   0.103  0.00  0.00     0.130 A 
ATOM      2  C2  DEN d   1       0.913   1.001   0.083  0.00  0.00    -0.031 A 
ATOM      3  C3  DEN d   1       1.226  -0.385   0.486  0.00  0.00     0.027 A 
ATOM      4  C4  DEN d   1      -0.388  -2.291   1.130  0.00  0.00     0.027 A 
ATOM      5  C5  DEN d   1      -1.712  -2.630   1.305  0.00  0.00    -0.003 A 
ATOM      6  C6  DEN d   1      -2.727  -1.728   1.127  0.00  0.00     0.001 A 
ATOM      7  C7  DEN d   1      -2.437  -0.453   0.717  0.00  0.00     0.017 A 
ATOM      8  C8  DEN d   1      -1.105  -0.102   0.546  0.00  0.00    -0.094 A 
ATOM      9  C9  DEN d   1      -0.094  -1.032   0.719  0.00  0.00    -0.072 A 
ENDROOT
TORSDOF 0
ENDMDL
