MODEL 1
REMARK minimizedAffinity -5.27239943
REMARK minimizedRMSD -1
REMARK  0 active torsions:
REMARK  status: ('A' for Active; 'I' for Inactive)
ROOT
ATOM      1  C1  DEN d   1       0.347  -1.844   0.610  0.00  0.00     0.130 A 
ATOM      2  C2  DEN d   1      -0.804  -2.642   1.026  0.00  0.00    -0.031 A 
ATOM      3  C3  DEN d   1      -1.908  -1.716   1.348  0.00  0.00     0.027 A 
ATOM      4  C4  DEN d   1      -1.950   0.861   1.239  0.00  0.00     0.027 A 
ATOM      5  C5  DEN d   1      -1.206   1.984   0.953  0.00  0.00    -0.003 A 
ATOM      6  C6  DEN d   1       0.107   1.913   0.570  0.00  0.00     0.001 A 
ATOM      7  C7  DEN d   1       0.704   0.689   0.417  0.00  0.00     0.017 A 
ATOM      8  C8  DEN d   1      -0.038  -0.448   0.710  0.00  0.00    -0.094 A 
ATOM      9  C9  DEN d   1      -1.368  -0.355   1.085  0.00  0.00    -0.072 A 
ENDROOT
TORSDOF 0
ENDMDL
