MODEL 1
REMARK minimizedAffinity -3.01581359
REMARK minimizedRMSD -1
REMARK  0 active torsions:
REMARK  status: ('A' for Active; 'I' for Inactive)
ROOT
ATOM      1  C   UNL d   1      -0.962  -2.264   0.662  0.00  0.00     0.172 C 
ATOM      2  N   UNL d   1      -0.469  -0.950   0.320  0.00  0.00    -0.070 N 
ATOM      3  C1  UNL d   1       0.123  -0.069   1.185  0.00  0.00    -0.004 A 
ATOM      4  C2  UNL d   1       0.449   1.065   0.475  0.00  0.00    -0.047 A 
ATOM      5  C3  UNL d   1       0.037   0.860  -0.864  0.00  0.00    -0.047 A 
ATOM      6  C4  UNL d   1      -0.528  -0.395  -0.931  0.00  0.00    -0.004 A 
ENDROOT
TORSDOF 0
ENDMDL
