MODEL 1
REMARK minimizedAffinity -1.80967796
REMARK minimizedRMSD -1
REMARK  0 active torsions:
REMARK  status: ('A' for Active; 'I' for Inactive)
ROOT
ATOM      1  C   UNL d   1       0.078   1.428  -0.142  0.00  0.00     0.172 C 
ATOM      2  N   UNL d   1      -0.254   0.042   0.090  0.00  0.00    -0.070 N 
ATOM      3  C1  UNL d   1      -0.133  -0.972  -0.822  0.00  0.00    -0.004 A 
ATOM      4  C2  UNL d   1      -0.549  -2.137  -0.216  0.00  0.00    -0.047 A 
ATOM      5  C3  UNL d   1      -0.935  -1.813   1.106  0.00  0.00    -0.047 A 
ATOM      6  C4  UNL d   1      -0.742  -0.457   1.269  0.00  0.00    -0.004 A 
ENDROOT
TORSDOF 0
ENDMDL
