MODEL 1
REMARK minimizedAffinity -3.47925329
REMARK minimizedRMSD -1
REMARK  0 active torsions:
REMARK  status: ('A' for Active; 'I' for Inactive)
ROOT
ATOM      1  C   UNL d   1       0.400   0.990   0.386  0.00  0.00     0.172 C 
ATOM      2  N   UNL d   1      -0.207  -0.270   0.746  0.00  0.00    -0.070 N 
ATOM      3  C1  UNL d   1      -0.690  -0.599   1.984  0.00  0.00    -0.004 A 
ATOM      4  C2  UNL d   1      -1.186  -1.883   1.916  0.00  0.00    -0.047 A 
ATOM      5  C3  UNL d   1      -0.994  -2.342   0.591  0.00  0.00    -0.047 A 
ATOM      6  C4  UNL d   1      -0.386  -1.323  -0.112  0.00  0.00    -0.004 A 
ENDROOT
TORSDOF 0
ENDMDL
