MODEL 1
REMARK minimizedAffinity -2.04934692
REMARK minimizedRMSD -1
REMARK  0 active torsions:
REMARK  status: ('A' for Active; 'I' for Inactive)
ROOT
ATOM      1  C   UNL d   1      -0.022   1.094  -0.428  0.00  0.00     0.172 C 
ATOM      2  N   UNL d   1       0.555   2.277   0.166  0.00  0.00    -0.070 N 
ATOM      3  C1  UNL d   1       1.894   2.549   0.263  0.00  0.00    -0.004 A 
ATOM      4  C2  UNL d   1       2.032   3.769   0.889  0.00  0.00    -0.047 A 
ATOM      5  C3  UNL d   1       0.732   4.246   1.179  0.00  0.00    -0.047 A 
ATOM      6  C4  UNL d   1      -0.163   3.303   0.721  0.00  0.00    -0.004 A 
ENDROOT
TORSDOF 0
ENDMDL
