MODEL 1
REMARK minimizedAffinity -2.83837748
REMARK minimizedRMSD -1
REMARK  0 active torsions:
REMARK  status: ('A' for Active; 'I' for Inactive)
ROOT
ATOM      1  C   UNL d   1       0.111  -1.505  -2.313  0.00  0.00     0.172 C 
ATOM      2  N   UNL d   1      -0.110  -0.592  -1.216  0.00  0.00    -0.070 N 
ATOM      3  C1  UNL d   1      -0.373  -0.948   0.080  0.00  0.00    -0.004 A 
ATOM      4  C2  UNL d   1      -0.520   0.208   0.814  0.00  0.00    -0.047 A 
ATOM      5  C3  UNL d   1      -0.340   1.298  -0.071  0.00  0.00    -0.047 A 
ATOM      6  C4  UNL d   1      -0.088   0.774  -1.321  0.00  0.00    -0.004 A 
ENDROOT
TORSDOF 0
ENDMDL
