MODEL 1
REMARK minimizedAffinity -1.49738371
REMARK minimizedRMSD -1
REMARK  0 active torsions:
REMARK  status: ('A' for Active; 'I' for Inactive)
ROOT
ATOM      1  C   UNL d   1       0.462   1.984  -0.250  0.00  0.00     0.172 C 
ATOM      2  N   UNL d   1       1.071   3.162   0.323  0.00  0.00    -0.070 N 
ATOM      3  C1  UNL d   1       0.454   4.370   0.509  0.00  0.00    -0.004 A 
ATOM      4  C2  UNL d   1       1.369   5.228   1.079  0.00  0.00    -0.047 A 
ATOM      5  C3  UNL d   1       2.578   4.512   1.241  0.00  0.00    -0.047 A 
ATOM      6  C4  UNL d   1       2.366   3.235   0.764  0.00  0.00    -0.004 A 
ENDROOT
TORSDOF 0
ENDMDL
