MODEL 1
REMARK minimizedAffinity -3.81478834
REMARK minimizedRMSD -1
REMARK  0 active torsions:
REMARK  status: ('A' for Active; 'I' for Inactive)
ROOT
ATOM      1  C   UNL d   1       0.383  -0.143   0.557  0.00  0.00     0.172 C 
ATOM      2  N   UNL d   1       0.241  -1.444  -0.054  0.00  0.00    -0.070 N 
ATOM      3  C1  UNL d   1       0.092  -2.629   0.617  0.00  0.00    -0.004 A 
ATOM      4  C2  UNL d   1      -0.010  -3.634  -0.320  0.00  0.00    -0.047 A 
ATOM      5  C3  UNL d   1       0.081  -3.033  -1.598  0.00  0.00    -0.047 A 
ATOM      6  C4  UNL d   1       0.236  -1.677  -1.404  0.00  0.00    -0.004 A 
ENDROOT
TORSDOF 0
ENDMDL
