MODEL 1
REMARK minimizedAffinity -3.3753078
REMARK minimizedRMSD -1
REMARK  0 active torsions:
REMARK  status: ('A' for Active; 'I' for Inactive)
ROOT
ATOM      1  C   UNL d   1       0.419  -3.439   0.561  0.00  0.00     0.172 C 
ATOM      2  N   UNL d   1      -0.048  -2.083   0.734  0.00  0.00    -0.070 N 
ATOM      3  C1  UNL d   1       0.619  -0.953   0.343  0.00  0.00    -0.004 A 
ATOM      4  C2  UNL d   1      -0.157   0.134   0.684  0.00  0.00    -0.047 A 
ATOM      5  C3  UNL d   1      -1.329  -0.360   1.303  0.00  0.00    -0.047 A 
ATOM      6  C4  UNL d   1      -1.236  -1.735   1.321  0.00  0.00    -0.004 A 
ENDROOT
TORSDOF 0
ENDMDL
