MODEL 1
REMARK minimizedAffinity -3.92219877
REMARK minimizedRMSD -1
REMARK  0 active torsions:
REMARK  status: ('A' for Active; 'I' for Inactive)
ROOT
ATOM      1  C   UNL d   1      -1.392   0.372   0.777  0.00  0.00     0.172 C 
ATOM      2  N   UNL d   1      -0.664  -0.848   0.520  0.00  0.00    -0.070 N 
ATOM      3  C1  UNL d   1      -1.125  -2.117   0.750  0.00  0.00    -0.004 A 
ATOM      4  C2  UNL d   1      -0.136  -3.000   0.375  0.00  0.00    -0.047 A 
ATOM      5  C3  UNL d   1       0.958  -2.235  -0.095  0.00  0.00    -0.047 A 
ATOM      6  C4  UNL d   1       0.604  -0.907   0.006  0.00  0.00    -0.004 A 
ENDROOT
TORSDOF 0
ENDMDL
