MODEL 1
REMARK minimizedAffinity -2.10643625
REMARK minimizedRMSD -1
REMARK  0 active torsions:
REMARK  status: ('A' for Active; 'I' for Inactive)
ROOT
ATOM      1  C   UNL d   1       0.082   0.742   0.363  0.00  0.00     0.172 C 
ATOM      2  N   UNL d   1       0.150  -0.698   0.455  0.00  0.00    -0.070 N 
ATOM      3  C1  UNL d   1       1.294  -1.449   0.392  0.00  0.00    -0.004 A 
ATOM      4  C2  UNL d   1       0.936  -2.774   0.519  0.00  0.00    -0.047 A 
ATOM      5  C3  UNL d   1      -0.471  -2.821   0.662  0.00  0.00    -0.047 A 
ATOM      6  C4  UNL d   1      -0.932  -1.522   0.619  0.00  0.00    -0.004 A 
ENDROOT
TORSDOF 0
ENDMDL
