MODEL 1
REMARK minimizedAffinity -3.67818022
REMARK minimizedRMSD -1
REMARK  0 active torsions:
REMARK  status: ('A' for Active; 'I' for Inactive)
ROOT
ATOM      1  C   UNL d   1       0.044   0.403  -0.031  0.00  0.00     0.172 C 
ATOM      2  N   UNL d   1      -0.002  -1.015  -0.301  0.00  0.00    -0.070 N 
ATOM      3  C1  UNL d   1       0.074  -1.596  -1.539  0.00  0.00    -0.004 A 
ATOM      4  C2  UNL d   1      -0.006  -2.961  -1.370  0.00  0.00    -0.047 A 
ATOM      5  C3  UNL d   1      -0.136  -3.210   0.017  0.00  0.00    -0.047 A 
ATOM      6  C4  UNL d   1      -0.131  -1.988   0.655  0.00  0.00    -0.004 A 
ENDROOT
TORSDOF 0
ENDMDL
