MODEL 1
REMARK minimizedAffinity -3.62745214
REMARK minimizedRMSD -1
REMARK  0 active torsions:
REMARK  status: ('A' for Active; 'I' for Inactive)
ROOT
ATOM      1  C   UNL d   1      -0.019   0.167   0.109  0.00  0.00     0.172 C 
ATOM      2  N   UNL d   1      -0.169  -1.263  -0.019  0.00  0.00    -0.070 N 
ATOM      3  C1  UNL d   1      -0.566  -2.116   0.976  0.00  0.00    -0.004 A 
ATOM      4  C2  UNL d   1      -0.584  -3.393   0.456  0.00  0.00    -0.047 A 
ATOM      5  C3  UNL d   1      -0.182  -3.304  -0.898  0.00  0.00    -0.047 A 
ATOM      6  C4  UNL d   1       0.069  -1.974  -1.166  0.00  0.00    -0.004 A 
ENDROOT
TORSDOF 0
ENDMDL
