MODEL 1
REMARK minimizedAffinity -3.22627282
REMARK minimizedRMSD -1
REMARK  0 active torsions:
REMARK  status: ('A' for Active; 'I' for Inactive)
ROOT
ATOM      1  C   UNL d   1       0.335  -2.550  -2.671  0.00  0.00     0.172 C 
ATOM      2  N   UNL d   1       0.099  -2.193  -1.292  0.00  0.00    -0.070 N 
ATOM      3  C1  UNL d   1       0.297  -0.954  -0.743  0.00  0.00    -0.004 A 
ATOM      4  C2  UNL d   1      -0.042  -1.025   0.591  0.00  0.00    -0.047 A 
ATOM      5  C3  UNL d   1      -0.456  -2.352   0.853  0.00  0.00    -0.047 A 
ATOM      6  C4  UNL d   1      -0.359  -3.054  -0.330  0.00  0.00    -0.004 A 
ENDROOT
TORSDOF 0
ENDMDL
