MODEL 1
REMARK minimizedAffinity -3.71931028
REMARK minimizedRMSD -1
REMARK  0 active torsions:
REMARK  status: ('A' for Active; 'I' for Inactive)
ROOT
ATOM      1  C   UNL d   1       0.086  -0.166   0.135  0.00  0.00     0.172 C 
ATOM      2  N   UNL d   1       0.036  -1.375  -0.654  0.00  0.00    -0.070 N 
ATOM      3  C1  UNL d   1      -0.354  -2.608  -0.202  0.00  0.00    -0.004 A 
ATOM      4  C2  UNL d   1      -0.263  -3.492  -1.255  0.00  0.00    -0.047 A 
ATOM      5  C3  UNL d   1       0.199  -2.766  -2.379  0.00  0.00    -0.047 A 
ATOM      6  C4  UNL d   1       0.376  -1.458  -1.978  0.00  0.00    -0.004 A 
ENDROOT
TORSDOF 0
ENDMDL
