MODEL 1
REMARK minimizedAffinity -2.7869575
REMARK minimizedRMSD -1
REMARK  0 active torsions:
REMARK  status: ('A' for Active; 'I' for Inactive)
ROOT
ATOM      1  C   UNL d   1       1.413   2.555   0.072  0.00  0.00     0.172 C 
ATOM      2  N   UNL d   1       0.703   1.319   0.302  0.00  0.00    -0.070 N 
ATOM      3  C1  UNL d   1      -0.179   0.732  -0.566  0.00  0.00    -0.004 A 
ATOM      4  C2  UNL d   1      -0.639  -0.427   0.020  0.00  0.00    -0.047 A 
ATOM      5  C3  UNL d   1      -0.013  -0.540   1.284  0.00  0.00    -0.047 A 
ATOM      6  C4  UNL d   1       0.812   0.554   1.433  0.00  0.00    -0.004 A 
ENDROOT
TORSDOF 0
ENDMDL
