MODEL 1
REMARK minimizedAffinity -2.86518192
REMARK minimizedRMSD -1
REMARK  0 active torsions:
REMARK  status: ('A' for Active; 'I' for Inactive)
ROOT
ATOM      1  C   UNL d   1      -0.032   0.949  -0.024  0.00  0.00     0.172 C 
ATOM      2  N   UNL d   1       0.570   2.250   0.148  0.00  0.00    -0.070 N 
ATOM      3  C1  UNL d   1       0.298   3.127   1.164  0.00  0.00    -0.004 A 
ATOM      4  C2  UNL d   1       1.075   4.249   0.973  0.00  0.00    -0.047 A 
ATOM      5  C3  UNL d   1       1.839   4.039  -0.200  0.00  0.00    -0.047 A 
ATOM      6  C4  UNL d   1       1.507   2.794  -0.690  0.00  0.00    -0.004 A 
ENDROOT
TORSDOF 0
ENDMDL
