MODEL 1
REMARK minimizedAffinity 6.50832558
REMARK minimizedRMSD -1
REMARK  0 active torsions:
REMARK  status: ('A' for Active; 'I' for Inactive)
ROOT
ATOM      1  C   UNL d   1       4.877   5.194  -5.141  0.00  0.00     0.020 A 
ATOM      2  C1  UNL d   1       5.992   5.770  -4.533  0.00  0.00     0.020 A 
ATOM      3  C2  UNL d   1       5.999   5.989  -3.154  0.00  0.00     0.034 A 
ATOM      4  C3  UNL d   1       4.891   5.631  -2.378  0.00  0.00     0.017 A 
ATOM      5  C4  UNL d   1       3.773   5.052  -2.990  0.00  0.00     0.017 A 
ATOM      6  C5  UNL d   1       3.770   4.835  -4.371  0.00  0.00     0.034 A 
ATOM      7 Cl   UNL d   1       2.367   4.584  -2.099  0.00  0.00    -0.070 Cl
ATOM      8 Cl1  UNL d   1       4.969   5.930  -0.678  0.00  0.00    -0.070 Cl
ENDROOT
TORSDOF 0
ENDMDL
