MODEL 1
REMARK minimizedAffinity 4.4329381
REMARK minimizedRMSD -1
REMARK  0 active torsions:
REMARK  status: ('A' for Active; 'I' for Inactive)
ROOT
ATOM      1  C   UNL d   1      -5.639  -3.360  -5.999  0.00  0.00     0.020 A 
ATOM      2  C1  UNL d   1      -5.265  -4.703  -5.997  0.00  0.00     0.020 A 
ATOM      3  C2  UNL d   1      -4.887  -5.321  -4.803  0.00  0.00     0.034 A 
ATOM      4  C3  UNL d   1      -4.882  -4.595  -3.606  0.00  0.00     0.017 A 
ATOM      5  C4  UNL d   1      -5.258  -3.247  -3.609  0.00  0.00     0.017 A 
ATOM      6  C5  UNL d   1      -5.635  -2.634  -4.807  0.00  0.00     0.034 A 
ATOM      7 Cl   UNL d   1      -5.277  -2.287  -2.172  0.00  0.00    -0.070 Cl
ATOM      8 Cl1  UNL d   1      -4.403  -5.423  -2.167  0.00  0.00    -0.070 Cl
ENDROOT
TORSDOF 0
ENDMDL
