MODEL 1
REMARK minimizedAffinity 5.62430477
REMARK minimizedRMSD -1
REMARK  0 active torsions:
REMARK  status: ('A' for Active; 'I' for Inactive)
ROOT
ATOM      1  C   UNL d   1       4.002  -0.877   0.803  0.00  0.00     0.020 A 
ATOM      2  C1  UNL d   1       2.944  -1.374   1.563  0.00  0.00     0.020 A 
ATOM      3  C2  UNL d   1       1.918  -0.521   1.973  0.00  0.00     0.034 A 
ATOM      4  C3  UNL d   1       1.947   0.835   1.624  0.00  0.00     0.017 A 
ATOM      5  C4  UNL d   1       3.010   1.333   0.862  0.00  0.00     0.017 A 
ATOM      6  C5  UNL d   1       4.035   0.474   0.454  0.00  0.00     0.034 A 
ATOM      7 Cl   UNL d   1       3.116   2.993   0.393  0.00  0.00    -0.070 Cl
ATOM      8 Cl1  UNL d   1       0.645   1.832   2.166  0.00  0.00    -0.070 Cl
ENDROOT
TORSDOF 0
ENDMDL
