MODEL 1
REMARK minimizedAffinity 2.03860807
REMARK minimizedRMSD -1
REMARK  0 active torsions:
REMARK  status: ('A' for Active; 'I' for Inactive)
ROOT
ATOM      1  C   UNL d   1       1.349   1.487   0.487  0.00  0.00     0.020 A 
ATOM      2  C1  UNL d   1       2.586   1.086   0.990  0.00  0.00     0.020 A 
ATOM      3  C2  UNL d   1       2.710  -0.145   1.638  0.00  0.00     0.034 A 
ATOM      4  C3  UNL d   1       1.596  -0.979   1.785  0.00  0.00     0.017 A 
ATOM      5  C4  UNL d   1       0.355  -0.575   1.280  0.00  0.00     0.017 A 
ATOM      6  C5  UNL d   1       0.236   0.658   0.632  0.00  0.00     0.034 A 
ATOM      7 Cl   UNL d   1      -1.066  -1.550   1.423  0.00  0.00    -0.070 Cl
ATOM      8 Cl1  UNL d   1       1.823  -2.487   2.596  0.00  0.00    -0.070 Cl
ENDROOT
TORSDOF 0
ENDMDL
