MODEL 1
REMARK minimizedAffinity -0.478152424
REMARK minimizedRMSD -1
REMARK  0 active torsions:
REMARK  status: ('A' for Active; 'I' for Inactive)
ROOT
ATOM      1  C   UNL d   1       1.168   1.004   4.109  0.00  0.00     0.020 A 
ATOM      2  C1  UNL d   1       1.625   0.818   2.805  0.00  0.00     0.020 A 
ATOM      3  C2  UNL d   1       1.988  -0.458   2.368  0.00  0.00     0.034 A 
ATOM      4  C3  UNL d   1       1.893  -1.552   3.235  0.00  0.00     0.017 A 
ATOM      5  C4  UNL d   1       1.433  -1.364   4.543  0.00  0.00     0.017 A 
ATOM      6  C5  UNL d   1       1.072  -0.085   4.976  0.00  0.00     0.034 A 
ATOM      7 Cl   UNL d   1       1.289  -2.666   5.671  0.00  0.00    -0.070 Cl
ATOM      8 Cl1  UNL d   1       2.357  -3.101   2.627  0.00  0.00    -0.070 Cl
ENDROOT
TORSDOF 0
ENDMDL
