MODEL 1
REMARK minimizedAffinity 2.41159868
REMARK minimizedRMSD -1
REMARK  0 active torsions:
REMARK  status: ('A' for Active; 'I' for Inactive)
ROOT
ATOM      1  C   UNL d   1      -5.768  -5.375  -5.490  0.00  0.00     0.020 A 
ATOM      2  C1  UNL d   1      -5.752  -3.985  -5.598  0.00  0.00     0.020 A 
ATOM      3  C2  UNL d   1      -5.811  -3.195  -4.449  0.00  0.00     0.034 A 
ATOM      4  C3  UNL d   1      -5.886  -3.793  -3.186  0.00  0.00     0.017 A 
ATOM      5  C4  UNL d   1      -5.902  -5.189  -3.078  0.00  0.00     0.017 A 
ATOM      6  C5  UNL d   1      -5.843  -5.976  -4.233  0.00  0.00     0.034 A 
ATOM      7 Cl   UNL d   1      -5.993  -6.000  -1.555  0.00  0.00    -0.070 Cl
ATOM      8 Cl1  UNL d   1      -5.955  -2.755  -1.807  0.00  0.00    -0.070 Cl
ENDROOT
TORSDOF 0
ENDMDL
