MODEL 1
REMARK minimizedAffinity 2.15130067
REMARK minimizedRMSD -1
REMARK  0 active torsions:
REMARK  status: ('A' for Active; 'I' for Inactive)
ROOT
ATOM      1  C   UNL d   1      -5.603   0.000  -6.000  0.00  0.00     0.020 A 
ATOM      2  C1  UNL d   1      -5.964  -0.595  -4.792  0.00  0.00     0.020 A 
ATOM      3  C2  UNL d   1      -5.584  -0.009  -3.583  0.00  0.00     0.034 A 
ATOM      4  C3  UNL d   1      -4.840   1.177  -3.579  0.00  0.00     0.017 A 
ATOM      5  C4  UNL d   1      -4.479   1.774  -4.792  0.00  0.00     0.017 A 
ATOM      6  C5  UNL d   1      -4.862   1.183  -6.000  0.00  0.00     0.034 A 
ATOM      7 Cl   UNL d   1      -3.562   3.238  -4.868  0.00  0.00    -0.070 Cl
ATOM      8 Cl1  UNL d   1      -4.404   1.847  -2.048  0.00  0.00    -0.070 Cl
ENDROOT
TORSDOF 0
ENDMDL
