MODEL 1
REMARK minimizedAffinity -2.51413059
REMARK minimizedRMSD -1
REMARK  2 active torsions:
REMARK  status: ('A' for Active; 'I' for Inactive)
REMARK    1  A    between atoms: C2'_3  and  C1'_4 
REMARK    2  A    between atoms: C1'_4  and  C1_5 
ROOT
ATOM      1  C1  I4B d   1       1.208   1.486   0.727  0.00  0.00    -0.075 A 
ATOM      2  C2  I4B d   1       1.987   1.233   1.828  0.00  0.00     0.003 A 
ATOM      3  C3  I4B d   1       3.086   2.073   2.132  0.00  0.00     0.002 A 
ATOM      4  C4  I4B d   1       3.398   3.116   1.285  0.00  0.00    -0.004 A 
ATOM      5  C5  I4B d   1       2.593   3.385   0.182  0.00  0.00     0.002 A 
ATOM      6  C6  I4B d   1       1.483   2.572  -0.093  0.00  0.00     0.003 A 
ENDROOT
BRANCH   1   7
ATOM      7  C1' I4B d   1       0.075   0.559   0.418  0.00  0.00     0.060 C 
BRANCH   7   8
ATOM      8  C2' I4B d   1      -0.176   0.611  -1.075  0.00  0.00    -0.013 C 
ATOM      9  C4' I4B d   1      -0.043  -0.754  -1.698  0.00  0.00     0.013 C 
ATOM     10  C3' I4B d   1      -1.548   1.175  -1.295  0.00  0.00     0.013 C 
ENDBRANCH   7   8
ENDBRANCH   1   7
TORSDOF 2
ENDMDL
