MODEL 1
REMARK minimizedAffinity -4.47019005
REMARK minimizedRMSD -1
REMARK  2 active torsions:
REMARK  status: ('A' for Active; 'I' for Inactive)
REMARK    1  A    between atoms: C2'_3  and  C1'_4 
REMARK    2  A    between atoms: C1'_4  and  C1_5 
ROOT
ATOM      1  C1  I4B d   1       0.515   0.376  -0.172  0.00  0.00    -0.075 A 
ATOM      2  C2  I4B d   1       0.233  -0.760   0.545  0.00  0.00     0.003 A 
ATOM      3  C3  I4B d   1      -0.998  -1.434   0.358  0.00  0.00     0.002 A 
ATOM      4  C4  I4B d   1      -1.932  -0.913  -0.513  0.00  0.00    -0.004 A 
ATOM      5  C5  I4B d   1      -1.636   0.226  -1.256  0.00  0.00     0.002 A 
ATOM      6  C6  I4B d   1      -0.400   0.868  -1.094  0.00  0.00     0.003 A 
ENDROOT
BRANCH   1   7
ATOM      7  C1' I4B d   1       1.810   1.082   0.074  0.00  0.00     0.060 C 
BRANCH   7   8
ATOM      8  C2' I4B d   1       1.549   2.209   1.052  0.00  0.00    -0.013 C 
ATOM      9  C4' I4B d   1       2.048   1.861   2.430  0.00  0.00     0.013 C 
ATOM     10  C3' I4B d   1       2.223   3.442   0.528  0.00  0.00     0.013 C 
ENDBRANCH   7   8
ENDBRANCH   1   7
TORSDOF 2
ENDMDL
