MODEL 1
REMARK minimizedAffinity -4.30002069
REMARK minimizedRMSD -1
REMARK  2 active torsions:
REMARK  status: ('A' for Active; 'I' for Inactive)
REMARK    1  A    between atoms: C2'_3  and  C1'_4 
REMARK    2  A    between atoms: C1'_4  and  C1_5 
ROOT
ATOM      1  C1  I4B d   1       0.402  -0.157  -0.056  0.00  0.00    -0.075 A 
ATOM      2  C2  I4B d   1      -0.462  -1.158   0.312  0.00  0.00     0.003 A 
ATOM      3  C3  I4B d   1      -1.691  -1.325  -0.371  0.00  0.00     0.002 A 
ATOM      4  C4  I4B d   1      -2.037  -0.442  -1.374  0.00  0.00    -0.004 A 
ATOM      5  C5  I4B d   1      -1.149   0.558  -1.761  0.00  0.00     0.002 A 
ATOM      6  C6  I4B d   1       0.083   0.694  -1.106  0.00  0.00     0.003 A 
ENDROOT
BRANCH   1   7
ATOM      7  C1' I4B d   1       1.677   0.011   0.708  0.00  0.00     0.060 C 
BRANCH   7   8
ATOM      8  C2' I4B d   1       1.895   1.494   0.932  0.00  0.00    -0.013 C 
ATOM      9  C4' I4B d   1       1.792   1.845   2.393  0.00  0.00     0.013 C 
ATOM     10  C3' I4B d   1       3.244   1.851   0.383  0.00  0.00     0.013 C 
ENDBRANCH   7   8
ENDBRANCH   1   7
TORSDOF 2
ENDMDL
