MODEL 1
REMARK minimizedAffinity 1.75391734
REMARK minimizedRMSD -1
REMARK  2 active torsions:
REMARK  status: ('A' for Active; 'I' for Inactive)
REMARK    1  A    between atoms: C2'_3  and  C1'_4 
REMARK    2  A    between atoms: C1'_4  and  C1_5 
ROOT
ATOM      1  C1  I4B d   1      -1.047  -0.813  -1.045  0.00  0.00    -0.075 A 
ATOM      2  C2  I4B d   1      -1.441  -1.651  -0.032  0.00  0.00     0.003 A 
ATOM      3  C3  I4B d   1      -0.684  -1.730   1.163  0.00  0.00     0.002 A 
ATOM      4  C4  I4B d   1       0.479  -0.997   1.280  0.00  0.00    -0.004 A 
ATOM      5  C5  I4B d   1       0.864  -0.130   0.261  0.00  0.00     0.002 A 
ATOM      6  C6  I4B d   1       0.091  -0.028  -0.904  0.00  0.00     0.003 A 
ENDROOT
BRANCH   1   7
ATOM      7  C1' I4B d   1      -1.851  -0.779  -2.306  0.00  0.00     0.060 C 
BRANCH   7   8
ATOM      8  C2' I4B d   1      -1.344  -1.881  -3.213  0.00  0.00    -0.013 C 
ATOM      9  C4' I4B d   1      -2.418  -2.343  -4.162  0.00  0.00     0.013 C 
ATOM     10  C3' I4B d   1      -0.152  -1.358  -3.956  0.00  0.00     0.013 C 
ENDBRANCH   7   8
ENDBRANCH   1   7
TORSDOF 2
ENDMDL
