MODEL 1
REMARK minimizedAffinity -2.73377109
REMARK minimizedRMSD -1
REMARK  2 active torsions:
REMARK  status: ('A' for Active; 'I' for Inactive)
REMARK    1  A    between atoms: C2'_3  and  C1'_4 
REMARK    2  A    between atoms: C1'_4  and  C1_5 
ROOT
ATOM      1  C1  I4B d   1       1.296   1.189   0.480  0.00  0.00    -0.075 A 
ATOM      2  C2  I4B d   1       2.531   1.390  -0.087  0.00  0.00     0.003 A 
ATOM      3  C3  I4B d   1       3.334   2.482   0.322  0.00  0.00     0.002 A 
ATOM      4  C4  I4B d   1       2.846   3.371   1.258  0.00  0.00    -0.004 A 
ATOM      5  C5  I4B d   1       1.604   3.154   1.848  0.00  0.00     0.002 A 
ATOM      6  C6  I4B d   1       0.829   2.049   1.466  0.00  0.00     0.003 A 
ENDROOT
BRANCH   1   7
ATOM      7  C1' I4B d   1       0.461   0.045   0.001  0.00  0.00     0.060 C 
BRANCH   7   8
ATOM      8  C2' I4B d   1      -0.014   0.368  -1.401  0.00  0.00    -0.013 C 
ATOM      9  C4' I4B d   1       0.523  -0.622  -2.401  0.00  0.00     0.013 C 
ATOM     10  C3' I4B d   1      -1.514   0.369  -1.393  0.00  0.00     0.013 C 
ENDBRANCH   7   8
ENDBRANCH   1   7
TORSDOF 2
ENDMDL
