MODEL 1
REMARK minimizedAffinity -2.83050251
REMARK minimizedRMSD -1
REMARK  2 active torsions:
REMARK  status: ('A' for Active; 'I' for Inactive)
REMARK    1  A    between atoms: C2'_3  and  C1'_4 
REMARK    2  A    between atoms: C1'_4  and  C1_5 
ROOT
ATOM      1  C1  I4B d   1       0.997   1.119   0.200  0.00  0.00    -0.075 A 
ATOM      2  C2  I4B d   1       2.344   1.257   0.422  0.00  0.00     0.003 A 
ATOM      3  C3  I4B d   1       2.827   2.308   1.239  0.00  0.00     0.002 A 
ATOM      4  C4  I4B d   1       1.938   3.221   1.768  0.00  0.00    -0.004 A 
ATOM      5  C5  I4B d   1       0.571   3.066   1.560  0.00  0.00     0.002 A 
ATOM      6  C6  I4B d   1       0.096   2.001   0.781  0.00  0.00     0.003 A 
ENDROOT
BRANCH   1   7
ATOM      7  C1' I4B d   1       0.524   0.017  -0.695  0.00  0.00     0.060 C 
BRANCH   7   8
ATOM      8  C2' I4B d   1      -0.964  -0.157  -0.474  0.00  0.00    -0.013 C 
ATOM      9  C4' I4B d   1      -1.756   0.392  -1.631  0.00  0.00     0.013 C 
ATOM     10  C3' I4B d   1      -1.235  -1.619  -0.278  0.00  0.00     0.013 C 
ENDBRANCH   7   8
ENDBRANCH   1   7
TORSDOF 2
ENDMDL
