MODEL 1
REMARK minimizedAffinity 7.43193293
REMARK minimizedRMSD -1
REMARK  2 active torsions:
REMARK  status: ('A' for Active; 'I' for Inactive)
REMARK    1  A    between atoms: C2'_3  and  C1'_4 
REMARK    2  A    between atoms: C1'_4  and  C1_5 
ROOT
ATOM      1  C1  I4B d   1      -1.350  -1.609   0.186  0.00  0.00    -0.075 A 
ATOM      2  C2  I4B d   1      -2.711  -1.436   0.178  0.00  0.00     0.003 A 
ATOM      3  C3  I4B d   1      -3.306  -0.499  -0.701  0.00  0.00     0.002 A 
ATOM      4  C4  I4B d   1      -2.502   0.274  -1.515  0.00  0.00    -0.004 A 
ATOM      5  C5  I4B d   1      -1.124   0.081  -1.522  0.00  0.00     0.002 A 
ATOM      6  C6  I4B d   1      -0.545  -0.876  -0.675  0.00  0.00     0.003 A 
ENDROOT
BRANCH   1   7
ATOM      7  C1' I4B d   1      -0.753  -2.584   1.151  0.00  0.00     0.060 C 
BRANCH   7   8
ATOM      8  C2' I4B d   1      -1.784  -3.658   1.428  0.00  0.00    -0.013 C 
ATOM      9  C4' I4B d   1      -1.380  -4.973   0.815  0.00  0.00     0.013 C 
ATOM     10  C3' I4B d   1      -1.940  -3.779   2.915  0.00  0.00     0.013 C 
ENDBRANCH   7   8
ENDBRANCH   1   7
TORSDOF 2
ENDMDL
