MODEL 1
REMARK minimizedAffinity -3.44661522
REMARK minimizedRMSD -1
REMARK  2 active torsions:
REMARK  status: ('A' for Active; 'I' for Inactive)
REMARK    1  A    between atoms: C2'_3  and  C1'_4 
REMARK    2  A    between atoms: C1'_4  and  C1_5 
ROOT
ATOM      1  C1  I4B d   1       0.753   0.729   0.463  0.00  0.00    -0.075 A 
ATOM      2  C2  I4B d   1       1.840   0.718  -0.376  0.00  0.00     0.003 A 
ATOM      3  C3  I4B d   1       2.937   1.579  -0.131  0.00  0.00     0.002 A 
ATOM      4  C4  I4B d   1       2.885   2.463   0.927  0.00  0.00    -0.004 A 
ATOM      5  C5  I4B d   1       1.793   2.456   1.790  0.00  0.00     0.002 A 
ATOM      6  C6  I4B d   1       0.725   1.575   1.563  0.00  0.00     0.003 A 
ENDROOT
BRANCH   1   7
ATOM      7  C1' I4B d   1      -0.403  -0.169   0.156  0.00  0.00     0.060 C 
BRANCH   7   8
ATOM      8  C2' I4B d   1      -0.864   0.130  -1.256  0.00  0.00    -0.013 C 
ATOM      9  C4' I4B d   1      -2.013  -0.759  -1.655  0.00  0.00     0.013 C 
ATOM     10  C3' I4B d   1      -1.253   1.577  -1.320  0.00  0.00     0.013 C 
ENDBRANCH   7   8
ENDBRANCH   1   7
TORSDOF 2
ENDMDL
