MODEL 1
REMARK minimizedAffinity -3.1589241
REMARK minimizedRMSD -1
REMARK  2 active torsions:
REMARK  status: ('A' for Active; 'I' for Inactive)
REMARK    1  A    between atoms: C2'_3  and  C1'_4 
REMARK    2  A    between atoms: C1'_4  and  C1_5 
ROOT
ATOM      1  C1  I4B d   1      -0.713  -0.782  -0.091  0.00  0.00    -0.075 A 
ATOM      2  C2  I4B d   1      -1.839  -1.056  -0.827  0.00  0.00     0.003 A 
ATOM      3  C3  I4B d   1      -2.584  -2.234  -0.578  0.00  0.00     0.002 A 
ATOM      4  C4  I4B d   1      -2.142  -3.129   0.375  0.00  0.00    -0.004 A 
ATOM      5  C5  I4B d   1      -1.014  -2.839   1.136  0.00  0.00     0.002 A 
ATOM      6  C6  I4B d   1      -0.301  -1.652   0.911  0.00  0.00     0.003 A 
ENDROOT
BRANCH   1   7
ATOM      7  C1' I4B d   1       0.068   0.455  -0.402  0.00  0.00     0.060 C 
BRANCH   7   8
ATOM      8  C2' I4B d   1       0.844   0.842   0.841  0.00  0.00    -0.013 C 
ATOM      9  C4' I4B d   1       2.142   1.518   0.484  0.00  0.00     0.013 C 
ATOM     10  C3' I4B d   1      -0.026   1.742   1.667  0.00  0.00     0.013 C 
ENDBRANCH   7   8
ENDBRANCH   1   7
TORSDOF 2
ENDMDL
