MODEL 1
REMARK minimizedAffinity -3.12722349
REMARK minimizedRMSD -1
REMARK  2 active torsions:
REMARK  status: ('A' for Active; 'I' for Inactive)
REMARK    1  A    between atoms: C2'_3  and  C1'_4 
REMARK    2  A    between atoms: C1'_4  and  C1_5 
ROOT
ATOM      1  C1  I4B d   1       0.475  -0.023  -0.194  0.00  0.00    -0.075 A 
ATOM      2  C2  I4B d   1       0.195   0.451  -1.451  0.00  0.00     0.003 A 
ATOM      3  C3  I4B d   1      -1.113   0.338  -1.981  0.00  0.00     0.002 A 
ATOM      4  C4  I4B d   1      -2.092  -0.297  -1.243  0.00  0.00    -0.004 A 
ATOM      5  C5  I4B d   1      -1.812  -0.756   0.040  0.00  0.00     0.002 A 
ATOM      6  C6  I4B d   1      -0.524  -0.607   0.574  0.00  0.00     0.003 A 
ENDROOT
BRANCH   1   7
ATOM      7  C1' I4B d   1       1.876   0.084   0.321  0.00  0.00     0.060 C 
BRANCH   7   8
ATOM      8  C2' I4B d   1       2.071   1.488   0.855  0.00  0.00    -0.013 C 
ATOM      9  C4' I4B d   1       2.228   1.485   2.353  0.00  0.00     0.013 C 
ATOM     10  C3' I4B d   1       3.279   2.074   0.186  0.00  0.00     0.013 C 
ENDBRANCH   7   8
ENDBRANCH   1   7
TORSDOF 2
ENDMDL
