MODEL 1
REMARK minimizedAffinity -2.14254045
REMARK minimizedRMSD -1
REMARK  1 active torsions:
REMARK  status: ('A' for Active; 'I' for Inactive)
REMARK    1  A    between atoms: C1_2  and  C2_3 
ROOT
ATOM      1  C2  UNL d   1       0.499   0.006  -1.472  0.00  0.00    -0.081 A 
ATOM      2  C3  UNL d   1      -0.553   0.814  -1.023  0.00  0.00     0.006 A 
ATOM      3  C4  UNL d   1      -0.827   0.927   0.342  0.00  0.00     0.002 A 
ATOM      4  C5  UNL d   1      -0.050   0.241   1.281  0.00  0.00    -0.080 A 
ATOM      5  C6  UNL d   1      -0.314   0.378   2.751  0.00  0.00     0.076 C 
ATOM      6  C7  UNL d   1       0.990  -0.580   0.832  0.00  0.00     0.002 A 
ATOM      7  C8  UNL d   1       1.264  -0.694  -0.533  0.00  0.00     0.006 A 
ENDROOT
BRANCH   1   8
ATOM      8  C1  UNL d   1       0.837  -0.067  -2.939  0.00  0.00     0.054 C 
ATOM      9  C   UNL d   1       0.679  -1.484  -3.473  0.00  0.00     0.018 C 
ENDBRANCH   1   8
TORSDOF 1
ENDMDL
