MODEL 1
REMARK minimizedAffinity -5.33453321
REMARK minimizedRMSD -1
REMARK  1 active torsions:
REMARK  status: ('A' for Active; 'I' for Inactive)
REMARK    1  A    between atoms: C1_2  and  C2_3 
ROOT
ATOM      1  C2  UNL d   1       0.130   0.311   1.360  0.00  0.00    -0.081 A 
ATOM      2  C3  UNL d   1      -0.564   0.916   0.305  0.00  0.00     0.006 A 
ATOM      3  C4  UNL d   1      -0.127   0.760  -1.013  0.00  0.00     0.002 A 
ATOM      4  C5  UNL d   1       1.006  -0.010  -1.298  0.00  0.00    -0.080 A 
ATOM      5  C6  UNL d   1       1.468  -0.211  -2.711  0.00  0.00     0.076 C 
ATOM      6  C7  UNL d   1       1.709  -0.600  -0.243  0.00  0.00     0.002 A 
ATOM      7  C8  UNL d   1       1.273  -0.444   1.075  0.00  0.00     0.006 A 
ENDROOT
BRANCH   1   8
ATOM      8  C1  UNL d   1      -0.376   0.424   2.775  0.00  0.00     0.054 C 
ATOM      9  C   UNL d   1      -1.880   0.655   2.808  0.00  0.00     0.018 C 
ENDBRANCH   1   8
TORSDOF 1
ENDMDL
