MODEL 1
REMARK minimizedAffinity -3.29783583
REMARK minimizedRMSD -1
REMARK  1 active torsions:
REMARK  status: ('A' for Active; 'I' for Inactive)
REMARK    1  A    between atoms: C1_2  and  C2_3 
ROOT
ATOM      1  C2  UNL d   1       0.438  -0.113  -1.248  0.00  0.00    -0.081 A 
ATOM      2  C3  UNL d   1      -0.715   0.521  -0.770  0.00  0.00     0.006 A 
ATOM      3  C4  UNL d   1      -0.937   0.647   0.604  0.00  0.00     0.002 A 
ATOM      4  C5  UNL d   1      -0.006   0.148   1.521  0.00  0.00    -0.080 A 
ATOM      5  C6  UNL d   1      -0.218   0.303   2.998  0.00  0.00     0.076 C 
ATOM      6  C7  UNL d   1       1.138  -0.501   1.044  0.00  0.00     0.002 A 
ATOM      7  C8  UNL d   1       1.360  -0.628  -0.329  0.00  0.00     0.006 A 
ENDROOT
BRANCH   1   8
ATOM      8  C1  UNL d   1       0.712  -0.193  -2.728  0.00  0.00     0.054 C 
ATOM      9  C   UNL d   1       0.575  -1.620  -3.240  0.00  0.00     0.018 C 
ENDBRANCH   1   8
TORSDOF 1
ENDMDL
