MODEL 1
REMARK minimizedAffinity 0.909860671
REMARK minimizedRMSD -1
REMARK  1 active torsions:
REMARK  status: ('A' for Active; 'I' for Inactive)
REMARK    1  A    between atoms: C1_2  and  C2_3 
ROOT
ATOM      1  C2  UNL d   1       0.024  -0.097  -1.068  0.00  0.00    -0.081 A 
ATOM      2  C3  UNL d   1       1.090  -0.069  -0.160  0.00  0.00     0.006 A 
ATOM      3  C4  UNL d   1       0.865   0.228   1.186  0.00  0.00     0.002 A 
ATOM      4  C5  UNL d   1      -0.428   0.495   1.648  0.00  0.00    -0.080 A 
ATOM      5  C6  UNL d   1      -0.687   0.786   3.096  0.00  0.00     0.076 C 
ATOM      6  C7  UNL d   1      -1.490   0.484   0.737  0.00  0.00     0.002 A 
ATOM      7  C8  UNL d   1      -1.266   0.187  -0.609  0.00  0.00     0.006 A 
ENDROOT
BRANCH   1   8
ATOM      8  C1  UNL d   1       0.254  -0.482  -2.508  0.00  0.00     0.054 C 
ATOM      9  C   UNL d   1       1.730  -0.413  -2.870  0.00  0.00     0.018 C 
ENDBRANCH   1   8
TORSDOF 1
ENDMDL
