MODEL 1
REMARK minimizedAffinity -2.85411978
REMARK minimizedRMSD -1
REMARK  1 active torsions:
REMARK  status: ('A' for Active; 'I' for Inactive)
REMARK    1  A    between atoms: C1_2  and  C2_3 
ROOT
ATOM      1  C2  UNL d   1       0.732  -0.592  -1.608  0.00  0.00    -0.081 A 
ATOM      2  C3  UNL d   1       0.751  -1.655  -0.696  0.00  0.00     0.006 A 
ATOM      3  C4  UNL d   1       0.549  -1.422   0.666  0.00  0.00     0.002 A 
ATOM      4  C5  UNL d   1       0.318  -0.126   1.139  0.00  0.00    -0.080 A 
ATOM      5  C6  UNL d   1       0.070   0.134   2.595  0.00  0.00     0.076 C 
ATOM      6  C7  UNL d   1       0.316   0.938   0.230  0.00  0.00     0.002 A 
ATOM      7  C8  UNL d   1       0.519   0.706  -1.132  0.00  0.00     0.006 A 
ENDROOT
BRANCH   1   8
ATOM      8  C1  UNL d   1       0.885  -0.848  -3.086  0.00  0.00     0.054 C 
ATOM      9  C   UNL d   1       2.034  -1.805  -3.366  0.00  0.00     0.018 C 
ENDBRANCH   1   8
TORSDOF 1
ENDMDL
