MODEL 1
REMARK minimizedAffinity -1.49331319
REMARK minimizedRMSD -1
REMARK  1 active torsions:
REMARK  status: ('A' for Active; 'I' for Inactive)
REMARK    1  A    between atoms: C1_2  and  C2_3 
ROOT
ATOM      1  C2  UNL d   1       0.645  -0.058  -1.472  0.00  0.00    -0.081 A 
ATOM      2  C3  UNL d   1      -0.625   0.172  -0.930  0.00  0.00     0.006 A 
ATOM      3  C4  UNL d   1      -0.782   0.391   0.440  0.00  0.00     0.002 A 
ATOM      4  C5  UNL d   1       0.329   0.391   1.291  0.00  0.00    -0.080 A 
ATOM      5  C6  UNL d   1       0.178   0.655   2.759  0.00  0.00     0.076 C 
ATOM      6  C7  UNL d   1       1.596   0.143   0.752  0.00  0.00     0.002 A 
ATOM      7  C8  UNL d   1       1.753  -0.076  -0.618  0.00  0.00     0.006 A 
ENDROOT
BRANCH   1   8
ATOM      8  C1  UNL d   1       0.825  -0.231  -2.959  0.00  0.00     0.054 C 
ATOM      9  C   UNL d   1      -0.427  -0.807  -3.604  0.00  0.00     0.018 C 
ENDBRANCH   1   8
TORSDOF 1
ENDMDL
