MODEL 1
REMARK minimizedAffinity -3.35981321
REMARK minimizedRMSD -1
REMARK  1 active torsions:
REMARK  status: ('A' for Active; 'I' for Inactive)
REMARK    1  A    between atoms: C1_2  and  C2_3 
ROOT
ATOM      1  C2  UNL d   1       0.040   0.124   0.617  0.00  0.00    -0.081 A 
ATOM      2  C3  UNL d   1      -1.150   0.362  -0.083  0.00  0.00     0.006 A 
ATOM      3  C4  UNL d   1      -2.299   0.777   0.595  0.00  0.00     0.002 A 
ATOM      4  C5  UNL d   1      -2.275   0.968   1.981  0.00  0.00    -0.080 A 
ATOM      5  C6  UNL d   1      -3.493   1.442   2.717  0.00  0.00     0.076 C 
ATOM      6  C7  UNL d   1      -1.092   0.713   2.682  0.00  0.00     0.002 A 
ATOM      7  C8  UNL d   1       0.057   0.297   2.005  0.00  0.00     0.006 A 
ENDROOT
BRANCH   1   8
ATOM      8  C1  UNL d   1       1.298  -0.261  -0.120  0.00  0.00     0.054 C 
ATOM      9  C   UNL d   1       1.172   0.015  -1.611  0.00  0.00     0.018 C 
ENDBRANCH   1   8
TORSDOF 1
ENDMDL
