MODEL 1
REMARK minimizedAffinity -2.76601768
REMARK minimizedRMSD -1
REMARK  1 active torsions:
REMARK  status: ('A' for Active; 'I' for Inactive)
REMARK    1  A    between atoms: C1_2  and  C2_3 
ROOT
ATOM      1  C2  UNL d   1       0.085   0.287  -0.454  0.00  0.00    -0.081 A 
ATOM      2  C3  UNL d   1      -1.277   0.452  -0.733  0.00  0.00     0.006 A 
ATOM      3  C4  UNL d   1      -2.183   0.722   0.296  0.00  0.00     0.002 A 
ATOM      4  C5  UNL d   1      -1.742   0.839   1.618  0.00  0.00    -0.080 A 
ATOM      5  C6  UNL d   1      -2.699   1.158   2.727  0.00  0.00     0.076 C 
ATOM      6  C7  UNL d   1      -0.384   0.656   1.899  0.00  0.00     0.002 A 
ATOM      7  C8  UNL d   1       0.523   0.385   0.872  0.00  0.00     0.006 A 
ENDROOT
BRANCH   1   8
ATOM      8  C1  UNL d   1       1.074   0.059  -1.568  0.00  0.00     0.054 C 
ATOM      9  C   UNL d   1       0.710  -1.170  -2.389  0.00  0.00     0.018 C 
ENDBRANCH   1   8
TORSDOF 1
ENDMDL
