MODEL 1
REMARK minimizedAffinity -5.31548977
REMARK minimizedRMSD -1
REMARK  1 active torsions:
REMARK  status: ('A' for Active; 'I' for Inactive)
REMARK    1  A    between atoms: C1_2  and  C2_3 
ROOT
ATOM      1  C2  UNL d   1       1.332  -0.842  -1.757  0.00  0.00    -0.081 A 
ATOM      2  C3  UNL d   1       0.267   0.014  -1.454  0.00  0.00     0.006 A 
ATOM      3  C4  UNL d   1       0.021   0.398  -0.134  0.00  0.00     0.002 A 
ATOM      4  C5  UNL d   1       0.839  -0.061   0.903  0.00  0.00    -0.080 A 
ATOM      5  C6  UNL d   1       0.604   0.368   2.321  0.00  0.00     0.076 C 
ATOM      6  C7  UNL d   1       1.893  -0.931   0.603  0.00  0.00     0.002 A 
ATOM      7  C8  UNL d   1       2.139  -1.316  -0.717  0.00  0.00     0.006 A 
ENDROOT
BRANCH   1   8
ATOM      8  C1  UNL d   1       1.640  -1.207  -3.187  0.00  0.00     0.054 C 
ATOM      9  C   UNL d   1       0.373  -1.261  -4.029  0.00  0.00     0.018 C 
ENDBRANCH   1   8
TORSDOF 1
ENDMDL
