MODEL 1
REMARK minimizedAffinity -1.02289057
REMARK minimizedRMSD -1
REMARK  1 active torsions:
REMARK  status: ('A' for Active; 'I' for Inactive)
REMARK    1  A    between atoms: C1_2  and  C2_3 
ROOT
ATOM      1  C2  UNL d   1       0.428  -0.027  -1.238  0.00  0.00    -0.081 A 
ATOM      2  C3  UNL d   1       1.556  -0.061  -0.408  0.00  0.00     0.006 A 
ATOM      3  C4  UNL d   1       1.425   0.114   0.972  0.00  0.00     0.002 A 
ATOM      4  C5  UNL d   1       0.166   0.318   1.545  0.00  0.00    -0.080 A 
ATOM      5  C6  UNL d   1       0.009   0.478   3.028  0.00  0.00     0.076 C 
ATOM      6  C7  UNL d   1      -0.958   0.370   0.715  0.00  0.00     0.002 A 
ATOM      7  C8  UNL d   1      -0.829   0.196  -0.665  0.00  0.00     0.006 A 
ENDROOT
BRANCH   1   8
ATOM      8  C1  UNL d   1       0.558  -0.280  -2.718  0.00  0.00     0.054 C 
ATOM      9  C   UNL d   1       2.018  -0.352  -3.141  0.00  0.00     0.018 C 
ENDBRANCH   1   8
TORSDOF 1
ENDMDL
