MODEL 1
REMARK minimizedAffinity -4.69771147
REMARK minimizedRMSD -1
REMARK  1 active torsions:
REMARK  status: ('A' for Active; 'I' for Inactive)
REMARK    1  A    between atoms: C1_2  and  C2_3 
ROOT
ATOM      1  C2  UNL d   1       0.660  -0.678  -1.726  0.00  0.00    -0.081 A 
ATOM      2  C3  UNL d   1       1.074  -1.679  -0.839  0.00  0.00     0.006 A 
ATOM      3  C4  UNL d   1       1.195  -1.410   0.526  0.00  0.00     0.002 A 
ATOM      4  C5  UNL d   1       0.896  -0.139   1.029  0.00  0.00    -0.080 A 
ATOM      5  C6  UNL d   1       0.993   0.154   2.496  0.00  0.00     0.076 C 
ATOM      6  C7  UNL d   1       0.499   0.866   0.141  0.00  0.00     0.002 A 
ATOM      7  C8  UNL d   1       0.379   0.598  -1.225  0.00  0.00     0.006 A 
ENDROOT
BRANCH   1   8
ATOM      8  C1  UNL d   1       0.466  -0.983  -3.189  0.00  0.00     0.054 C 
ATOM      9  C   UNL d   1       1.722  -0.671  -3.990  0.00  0.00     0.018 C 
ENDBRANCH   1   8
TORSDOF 1
ENDMDL
