MODEL 1
REMARK minimizedAffinity -4.60310793
REMARK minimizedRMSD -1
REMARK  1 active torsions:
REMARK  status: ('A' for Active; 'I' for Inactive)
REMARK    1  A    between atoms: C1_2  and  C2_3 
ROOT
ATOM      1  C2  UNL d   1       0.404  -1.003  -1.563  0.00  0.00    -0.081 A 
ATOM      2  C3  UNL d   1       0.808  -1.865  -0.536  0.00  0.00     0.006 A 
ATOM      3  C4  UNL d   1       0.867  -1.415   0.785  0.00  0.00     0.002 A 
ATOM      4  C5  UNL d   1       0.516  -0.098   1.102  0.00  0.00    -0.080 A 
ATOM      5  C6  UNL d   1       0.546   0.389   2.520  0.00  0.00     0.076 C 
ATOM      6  C7  UNL d   1       0.129   0.768   0.074  0.00  0.00     0.002 A 
ATOM      7  C8  UNL d   1       0.071   0.319  -1.247  0.00  0.00     0.006 A 
ENDROOT
BRANCH   1   8
ATOM      8  C1  UNL d   1       0.277  -1.504  -2.979  0.00  0.00     0.054 C 
ATOM      9  C   UNL d   1       1.469  -1.081  -3.824  0.00  0.00     0.018 C 
ENDBRANCH   1   8
TORSDOF 1
ENDMDL
