MODEL 1
REMARK minimizedAffinity -2.95625305
REMARK minimizedRMSD -1
REMARK  1 active torsions:
REMARK  status: ('A' for Active; 'I' for Inactive)
REMARK    1  A    between atoms: C1_2  and  C2_3 
ROOT
ATOM      1  C2  UNL d   1       0.288  -0.117  -0.920  0.00  0.00    -0.081 A 
ATOM      2  C3  UNL d   1      -0.947   0.324  -0.427  0.00  0.00     0.006 A 
ATOM      3  C4  UNL d   1      -1.111   0.589   0.934  0.00  0.00     0.002 A 
ATOM      4  C5  UNL d   1      -0.043   0.426   1.823  0.00  0.00    -0.080 A 
ATOM      5  C6  UNL d   1      -0.198   0.736   3.283  0.00  0.00     0.076 C 
ATOM      6  C7  UNL d   1       1.185  -0.031   1.333  0.00  0.00     0.002 A 
ATOM      7  C8  UNL d   1       1.350  -0.297  -0.028  0.00  0.00     0.006 A 
ENDROOT
BRANCH   1   8
ATOM      8  C1  UNL d   1       0.486  -0.342  -2.398  0.00  0.00     0.054 C 
ATOM      9  C   UNL d   1       1.396  -1.534  -2.658  0.00  0.00     0.018 C 
ENDBRANCH   1   8
TORSDOF 1
ENDMDL
