MODEL 1
REMARK minimizedAffinity -2.52540612
REMARK minimizedRMSD -1
REMARK  1 active torsions:
REMARK  status: ('A' for Active; 'I' for Inactive)
REMARK    1  A    between atoms: C1_2  and  C2_3 
ROOT
ATOM      1  C2  UNL d   1       1.030  -0.494  -1.799  0.00  0.00    -0.081 A 
ATOM      2  C3  UNL d   1       0.656   0.793  -1.392  0.00  0.00     0.006 A 
ATOM      3  C4  UNL d   1       0.382   1.059  -0.048  0.00  0.00     0.002 A 
ATOM      4  C5  UNL d   1       0.485   0.047   0.911  0.00  0.00    -0.080 A 
ATOM      5  C6  UNL d   1       0.224   0.327   2.361  0.00  0.00     0.076 C 
ATOM      6  C7  UNL d   1       0.841  -1.243   0.503  0.00  0.00     0.002 A 
ATOM      7  C8  UNL d   1       1.114  -1.510  -0.841  0.00  0.00     0.006 A 
ENDROOT
BRANCH   1   8
ATOM      8  C1  UNL d   1       1.388  -0.770  -3.237  0.00  0.00     0.054 C 
ATOM      9  C   UNL d   1       0.884  -2.136  -3.681  0.00  0.00     0.018 C 
ENDBRANCH   1   8
TORSDOF 1
ENDMDL
