MODEL 1
REMARK minimizedAffinity -2.47972274
REMARK minimizedRMSD -1
REMARK  1 active torsions:
REMARK  status: ('A' for Active; 'I' for Inactive)
REMARK    1  A    between atoms: C1_2  and  C2_3 
ROOT
ATOM      1  C2  UNL d   1       1.053  -0.871  -1.464  0.00  0.00    -0.081 A 
ATOM      2  C3  UNL d   1       1.250  -1.736  -0.381  0.00  0.00     0.006 A 
ATOM      3  C4  UNL d   1       1.096  -1.278   0.929  0.00  0.00     0.002 A 
ATOM      4  C5  UNL d   1       0.735   0.051   1.178  0.00  0.00    -0.080 A 
ATOM      5  C6  UNL d   1       0.537   0.548   2.579  0.00  0.00     0.076 C 
ATOM      6  C7  UNL d   1       0.556   0.920   0.097  0.00  0.00     0.002 A 
ATOM      7  C8  UNL d   1       0.710   0.462  -1.213  0.00  0.00     0.006 A 
ENDROOT
BRANCH   1   8
ATOM      8  C1  UNL d   1       1.155  -1.379  -2.880  0.00  0.00     0.054 C 
ATOM      9  C   UNL d   1       0.432  -0.458  -3.852  0.00  0.00     0.018 C 
ENDBRANCH   1   8
TORSDOF 1
ENDMDL
