MODEL 1
REMARK minimizedAffinity 5.39451647
REMARK minimizedRMSD -1
REMARK  0 active torsions:
REMARK  status: ('A' for Active; 'I' for Inactive)
ROOT
ATOM      1  C   UNL d   1      -1.821  -1.003  -4.900  0.00  0.00    -0.002 A 
ATOM      2  C1  UNL d   1      -2.372  -1.502  -3.728  0.00  0.00     0.010 A 
ATOM      3  C2  UNL d   1      -3.663  -1.139  -3.340  0.00  0.00     0.041 A 
ATOM      4  C3  UNL d   1      -4.400  -0.260  -4.158  0.00  0.00    -0.075 A 
ATOM      5  S   UNL d   1      -5.999   0.321  -3.884  0.00  0.00     0.015 SA
ATOM      6  C4  UNL d   1      -5.989   1.245  -5.316  0.00  0.00     0.022 A 
ATOM      7  C5  UNL d   1      -4.802   1.124  -5.999  0.00  0.00     0.026 A 
ATOM      8  C6  UNL d   1      -3.867   0.255  -5.343  0.00  0.00    -0.082 A 
ATOM      9  C7  UNL d   1      -2.555  -0.131  -5.709  0.00  0.00     0.045 A 
ENDROOT
TORSDOF 0
ENDMDL
