MODEL 1
REMARK minimizedAffinity 0.461794436
REMARK minimizedRMSD -1
REMARK  0 active torsions:
REMARK  status: ('A' for Active; 'I' for Inactive)
ROOT
ATOM      1  C   UNL d   1      -3.015   0.638  -1.256  0.00  0.00    -0.002 A 
ATOM      2  C1  UNL d   1      -3.055  -0.747  -1.338  0.00  0.00     0.010 A 
ATOM      3  C2  UNL d   1      -3.132  -1.383  -2.579  0.00  0.00     0.041 A 
ATOM      4  C3  UNL d   1      -3.166  -0.596  -3.747  0.00  0.00    -0.075 A 
ATOM      5  S   UNL d   1      -3.258  -1.156  -5.375  0.00  0.00     0.015 SA
ATOM      6  C4  UNL d   1      -3.245   0.430  -6.000  0.00  0.00     0.022 A 
ATOM      7  C5  UNL d   1      -3.173   1.376  -5.005  0.00  0.00     0.026 A 
ATOM      8  C6  UNL d   1      -3.125   0.800  -3.690  0.00  0.00    -0.082 A 
ATOM      9  C7  UNL d   1      -3.048   1.415  -2.417  0.00  0.00     0.045 A 
ENDROOT
TORSDOF 0
ENDMDL
