MODEL 1
REMARK minimizedAffinity 1.35974085
REMARK minimizedRMSD -1
REMARK  0 active torsions:
REMARK  status: ('A' for Active; 'I' for Inactive)
ROOT
ATOM      1  C   UNL d   1      -3.681  -0.753  -3.220  0.00  0.00    -0.002 A 
ATOM      2  C1  UNL d   1      -3.384  -0.986  -4.556  0.00  0.00     0.010 A 
ATOM      3  C2  UNL d   1      -3.225   0.080  -5.443  0.00  0.00     0.041 A 
ATOM      4  C3  UNL d   1      -3.368   1.396  -4.961  0.00  0.00    -0.075 A 
ATOM      5  S   UNL d   1      -3.215   2.857  -5.865  0.00  0.00     0.015 SA
ATOM      6  C4  UNL d   1      -3.539   3.823  -4.499  0.00  0.00     0.022 A 
ATOM      7  C5  UNL d   1      -3.760   3.067  -3.372  0.00  0.00     0.026 A 
ATOM      8  C6  UNL d   1      -3.665   1.655  -3.620  0.00  0.00    -0.082 A 
ATOM      9  C7  UNL d   1      -3.821   0.553  -2.745  0.00  0.00     0.045 A 
ENDROOT
TORSDOF 0
ENDMDL
