MODEL 1
REMARK minimizedAffinity 0.600339174
REMARK minimizedRMSD -1
REMARK  0 active torsions:
REMARK  status: ('A' for Active; 'I' for Inactive)
ROOT
ATOM      1  C   UNL d   1      -5.008   1.467  -5.844  0.00  0.00    -0.002 A 
ATOM      2  C1  UNL d   1      -5.898   1.251  -4.801  0.00  0.00     0.010 A 
ATOM      3  C2  UNL d   1      -5.549   0.429  -3.729  0.00  0.00     0.041 A 
ATOM      4  C3  UNL d   1      -4.277  -0.178  -3.721  0.00  0.00    -0.075 A 
ATOM      5  S   UNL d   1      -3.631  -1.223  -2.511  0.00  0.00     0.015 SA
ATOM      6  C4  UNL d   1      -2.159  -1.407  -3.350  0.00  0.00     0.022 A 
ATOM      7  C5  UNL d   1      -2.144  -0.696  -4.526  0.00  0.00     0.026 A 
ATOM      8  C6  UNL d   1      -3.364   0.025  -4.759  0.00  0.00    -0.082 A 
ATOM      9  C7  UNL d   1      -3.748   0.864  -5.833  0.00  0.00     0.045 A 
ENDROOT
TORSDOF 0
ENDMDL
