MODEL 1
REMARK minimizedAffinity 7.32299852
REMARK minimizedRMSD -1
REMARK  0 active torsions:
REMARK  status: ('A' for Active; 'I' for Inactive)
ROOT
ATOM      1  C   UNL d   1      -3.376  -2.413  -4.077  0.00  0.00    -0.002 A 
ATOM      2  C1  UNL d   1      -4.497  -1.826  -3.507  0.00  0.00     0.010 A 
ATOM      3  C2  UNL d   1      -4.800  -0.486  -3.754  0.00  0.00     0.041 A 
ATOM      4  C3  UNL d   1      -3.951   0.262  -4.593  0.00  0.00    -0.075 A 
ATOM      5  S   UNL d   1      -4.125   1.918  -5.038  0.00  0.00     0.015 SA
ATOM      6  C4  UNL d   1      -2.715   1.886  -5.996  0.00  0.00     0.022 A 
ATOM      7  C5  UNL d   1      -2.114   0.650  -5.987  0.00  0.00     0.026 A 
ATOM      8  C6  UNL d   1      -2.817  -0.307  -5.179  0.00  0.00    -0.082 A 
ATOM      9  C7  UNL d   1      -2.535  -1.668  -4.908  0.00  0.00     0.045 A 
ENDROOT
TORSDOF 0
ENDMDL
