MODEL 1
REMARK minimizedAffinity 10.9262161
REMARK minimizedRMSD -1
REMARK  0 active torsions:
REMARK  status: ('A' for Active; 'I' for Inactive)
ROOT
ATOM      1  C1  DEN d   1      -0.071   3.044   1.670  0.00  0.00     0.130 A 
ATOM      2  C2  DEN d   1       1.375   2.953   1.855  0.00  0.00    -0.031 A 
ATOM      3  C3  DEN d   1       1.676   1.640   2.460  0.00  0.00     0.027 A 
ATOM      4  C4  DEN d   1       0.054  -0.253   3.121  0.00  0.00     0.027 A 
ATOM      5  C5  DEN d   1      -1.270  -0.632   3.166  0.00  0.00    -0.003 A 
ATOM      6  C6  DEN d   1      -2.281   0.193   2.751  0.00  0.00     0.001 A 
ATOM      7  C7  DEN d   1      -1.981   1.424   2.230  0.00  0.00     0.017 A 
ATOM      8  C8  DEN d   1      -0.649   1.817   2.188  0.00  0.00    -0.094 A 
ATOM      9  C9  DEN d   1       0.359   0.963   2.601  0.00  0.00    -0.072 A 
ENDROOT
TORSDOF 0
ENDMDL
