MODEL 1
REMARK minimizedAffinity 2.31656909
REMARK minimizedRMSD -1
REMARK  0 active torsions:
REMARK  status: ('A' for Active; 'I' for Inactive)
ROOT
ATOM      1  C1  DEN d   1       1.899  -0.850  -3.450  0.00  0.00     0.130 A 
ATOM      2  C2  DEN d   1       1.731   0.565  -3.769  0.00  0.00    -0.031 A 
ATOM      3  C3  DEN d   1       2.275   1.354  -2.646  0.00  0.00     0.027 A 
ATOM      4  C4  DEN d   1       3.359   0.526  -0.457  0.00  0.00     0.027 A 
ATOM      5  C5  DEN d   1       3.711  -0.590   0.270  0.00  0.00    -0.003 A 
ATOM      6  C6  DEN d   1       3.455  -1.860  -0.174  0.00  0.00     0.001 A 
ATOM      7  C7  DEN d   1       2.870  -2.047  -1.398  0.00  0.00     0.017 A 
ATOM      8  C8  DEN d   1       2.505  -0.926  -2.133  0.00  0.00    -0.094 A 
ATOM      9  C9  DEN d   1       2.783   0.350  -1.673  0.00  0.00    -0.072 A 
ENDROOT
TORSDOF 0
ENDMDL
