MODEL 1
REMARK minimizedAffinity 18.1666222
REMARK minimizedRMSD -1
REMARK  0 active torsions:
REMARK  status: ('A' for Active; 'I' for Inactive)
ROOT
ATOM      1  C1  DEN d   1       1.741   2.869  -1.432  0.00  0.00     0.130 A 
ATOM      2  C2  DEN d   1       1.170   2.995  -2.770  0.00  0.00    -0.031 A 
ATOM      3  C3  DEN d   1       0.992   1.636  -3.320  0.00  0.00     0.027 A 
ATOM      4  C4  DEN d   1       1.536  -0.639  -2.233  0.00  0.00     0.027 A 
ATOM      5  C5  DEN d   1       2.046  -1.253  -1.110  0.00  0.00    -0.003 A 
ATOM      6  C6  DEN d   1       2.517  -0.542  -0.039  0.00  0.00     0.001 A 
ATOM      7  C7  DEN d   1       2.447   0.827  -0.049  0.00  0.00     0.017 A 
ATOM      8  C8  DEN d   1       1.941   1.453  -1.180  0.00  0.00    -0.094 A 
ATOM      9  C9  DEN d   1       1.458   0.716  -2.248  0.00  0.00    -0.072 A 
ENDROOT
TORSDOF 0
ENDMDL
