MODEL 1
REMARK minimizedAffinity 15.8269567
REMARK minimizedRMSD -1
REMARK  0 active torsions:
REMARK  status: ('A' for Active; 'I' for Inactive)
ROOT
ATOM      1  C1  DEN d   1      -5.720  -4.996   4.682  0.00  0.00     0.130 A 
ATOM      2  C2  DEN d   1      -5.735  -5.976   3.600  0.00  0.00    -0.031 A 
ATOM      3  C3  DEN d   1      -5.836  -5.243   2.322  0.00  0.00     0.027 A 
ATOM      4  C4  DEN d   1      -5.965  -2.699   1.916  0.00  0.00     0.027 A 
ATOM      5  C5  DEN d   1      -5.997  -1.465   2.527  0.00  0.00    -0.003 A 
ATOM      6  C6  DEN d   1      -5.974  -1.324   3.889  0.00  0.00     0.001 A 
ATOM      7  C7  DEN d   1      -5.871  -2.435   4.685  0.00  0.00     0.017 A 
ATOM      8  C8  DEN d   1      -5.845  -3.683   4.076  0.00  0.00    -0.094 A 
ATOM      9  C9  DEN d   1      -5.857  -3.804   2.697  0.00  0.00    -0.072 A 
ENDROOT
TORSDOF 0
ENDMDL
