MODEL 1
REMARK minimizedAffinity 12.609148
REMARK minimizedRMSD -1
REMARK  0 active torsions:
REMARK  status: ('A' for Active; 'I' for Inactive)
ROOT
ATOM      1  C1  DEN d   1       3.476   4.610   2.482  0.00  0.00     0.130 A 
ATOM      2  C2  DEN d   1       4.815   4.862   1.957  0.00  0.00    -0.031 A 
ATOM      3  C3  DEN d   1       5.234   3.675   1.185  0.00  0.00     0.027 A 
ATOM      4  C4  DEN d   1       3.944   1.484   0.751  0.00  0.00     0.027 A 
ATOM      5  C5  DEN d   1       2.774   0.802   1.002  0.00  0.00    -0.003 A 
ATOM      6  C6  DEN d   1       1.778   1.322   1.785  0.00  0.00     0.001 A 
ATOM      7  C7  DEN d   1       1.915   2.581   2.309  0.00  0.00     0.017 A 
ATOM      8  C8  DEN d   1       3.095   3.272   2.067  0.00  0.00    -0.094 A 
ATOM      9  C9  DEN d   1       4.085   2.733   1.262  0.00  0.00    -0.072 A 
ENDROOT
TORSDOF 0
ENDMDL
