MODEL 1
REMARK minimizedAffinity 7.21290922
REMARK minimizedRMSD -1
REMARK  0 active torsions:
REMARK  status: ('A' for Active; 'I' for Inactive)
ROOT
ATOM      1  C1  DEN d   1       3.318  -4.516  -3.814  0.00  0.00     0.130 A 
ATOM      2  C2  DEN d   1       2.291  -3.490  -3.978  0.00  0.00    -0.031 A 
ATOM      3  C3  DEN d   1       2.048  -2.873  -2.658  0.00  0.00     0.027 A 
ATOM      4  C4  DEN d   1       3.160  -3.399  -0.391  0.00  0.00     0.027 A 
ATOM      5  C5  DEN d   1       4.081  -4.199   0.248  0.00  0.00    -0.003 A 
ATOM      6  C6  DEN d   1       4.782  -5.175  -0.409  0.00  0.00     0.001 A 
ATOM      7  C7  DEN d   1       4.606  -5.347  -1.757  0.00  0.00     0.017 A 
ATOM      8  C8  DEN d   1       3.673  -4.549  -2.407  0.00  0.00    -0.094 A 
ATOM      9  C9  DEN d   1       2.983  -3.559  -1.727  0.00  0.00    -0.072 A 
ENDROOT
TORSDOF 0
ENDMDL
