MODEL 1
REMARK minimizedAffinity 14.6581612
REMARK minimizedRMSD -1
REMARK  0 active torsions:
REMARK  status: ('A' for Active; 'I' for Inactive)
ROOT
ATOM      1  C1  DEN d   1       0.738  -0.699  -1.608  0.00  0.00     0.130 A 
ATOM      2  C2  DEN d   1       1.765  -1.659  -1.214  0.00  0.00    -0.031 A 
ATOM      3  C3  DEN d   1       1.191  -3.015  -1.332  0.00  0.00     0.027 A 
ATOM      4  C4  DEN d   1      -1.173  -3.716  -2.086  0.00  0.00     0.027 A 
ATOM      5  C5  DEN d   1      -2.400  -3.254  -2.509  0.00  0.00    -0.003 A 
ATOM      6  C6  DEN d   1      -2.676  -1.917  -2.627  0.00  0.00     0.001 A 
ATOM      7  C7  DEN d   1      -1.696  -0.997  -2.362  0.00  0.00     0.017 A 
ATOM      8  C8  DEN d   1      -0.459  -1.455  -1.929  0.00  0.00    -0.094 A 
ATOM      9  C9  DEN d   1      -0.196  -2.811  -1.828  0.00  0.00    -0.072 A 
ENDROOT
TORSDOF 0
ENDMDL
