MODEL 1
REMARK minimizedAffinity 13.8698397
REMARK minimizedRMSD -1
REMARK  0 active torsions:
REMARK  status: ('A' for Active; 'I' for Inactive)
ROOT
ATOM      1  C1  DEN d   1       1.281  -0.184   5.911  0.00  0.00     0.130 A 
ATOM      2  C2  DEN d   1       0.698  -0.940   4.806  0.00  0.00    -0.031 A 
ATOM      3  C3  DEN d   1       0.915  -0.173   3.563  0.00  0.00     0.027 A 
ATOM      4  C4  DEN d   1       2.097   2.097   3.242  0.00  0.00     0.027 A 
ATOM      5  C5  DEN d   1       2.744   3.127   3.889  0.00  0.00    -0.003 A 
ATOM      6  C6  DEN d   1       2.917   3.141   5.248  0.00  0.00     0.001 A 
ATOM      7  C7  DEN d   1       2.478   2.084   5.999  0.00  0.00     0.017 A 
ATOM      8  C8  DEN d   1       1.818   1.045   5.356  0.00  0.00    -0.094 A 
ATOM      9  C9  DEN d   1       1.663   1.043   3.980  0.00  0.00    -0.072 A 
ENDROOT
TORSDOF 0
ENDMDL
