MODEL 1
REMARK minimizedAffinity 21.5004807
REMARK minimizedRMSD -1
REMARK  0 active torsions:
REMARK  status: ('A' for Active; 'I' for Inactive)
ROOT
ATOM      1  C1  DEN d   1       3.576   0.334   0.235  0.00  0.00     0.130 A 
ATOM      2  C2  DEN d   1       4.299   1.153  -0.735  0.00  0.00    -0.031 A 
ATOM      3  C3  DEN d   1       4.314   2.543  -0.237  0.00  0.00     0.027 A 
ATOM      4  C4  DEN d   1       3.299   3.502   1.932  0.00  0.00     0.027 A 
ATOM      5  C5  DEN d   1       2.580   3.195   3.066  0.00  0.00    -0.003 A 
ATOM      6  C6  DEN d   1       2.117   1.930   3.317  0.00  0.00     0.001 A 
ATOM      7  C7  DEN d   1       2.407   0.915   2.444  0.00  0.00     0.017 A 
ATOM      8  C8  DEN d   1       3.125   1.218   1.294  0.00  0.00    -0.094 A 
ATOM      9  C9  DEN d   1       3.595   2.500   1.065  0.00  0.00    -0.072 A 
ENDROOT
TORSDOF 0
ENDMDL
