MODEL 1
REMARK minimizedAffinity 12.3312426
REMARK minimizedRMSD -1
REMARK  0 active torsions:
REMARK  status: ('A' for Active; 'I' for Inactive)
ROOT
ATOM      1  C1  DEN d   1      -1.259  -2.750  -1.725  0.00  0.00     0.130 A 
ATOM      2  C2  DEN d   1      -2.384  -1.995  -2.270  0.00  0.00    -0.031 A 
ATOM      3  C3  DEN d   1      -2.919  -2.743  -3.426  0.00  0.00     0.027 A 
ATOM      4  C4  DEN d   1      -2.123  -4.988  -4.415  0.00  0.00     0.027 A 
ATOM      5  C5  DEN d   1      -1.196  -6.000  -4.299  0.00  0.00    -0.003 A 
ATOM      6  C6  DEN d   1      -0.212  -5.983  -3.347  0.00  0.00     0.001 A 
ATOM      7  C7  DEN d   1      -0.160  -4.955  -2.443  0.00  0.00     0.017 A 
ATOM      8  C8  DEN d   1      -1.086  -3.927  -2.558  0.00  0.00    -0.094 A 
ATOM      9  C9  DEN d   1      -2.081  -3.968  -3.520  0.00  0.00    -0.072 A 
ENDROOT
TORSDOF 0
ENDMDL
