MODEL 1
REMARK minimizedAffinity 11.8615971
REMARK minimizedRMSD -1
REMARK  0 active torsions:
REMARK  status: ('A' for Active; 'I' for Inactive)
ROOT
ATOM      1  C1  DEN d   1       1.843   3.680  -0.398  0.00  0.00     0.130 A 
ATOM      2  C2  DEN d   1       1.540   4.717  -1.380  0.00  0.00    -0.031 A 
ATOM      3  C3  DEN d   1       1.370   4.066  -2.694  0.00  0.00     0.027 A 
ATOM      4  C4  DEN d   1       1.543   1.564  -3.299  0.00  0.00     0.027 A 
ATOM      5  C5  DEN d   1       1.793   0.304  -2.803  0.00  0.00    -0.003 A 
ATOM      6  C6  DEN d   1       2.108   0.086  -1.488  0.00  0.00     0.001 A 
ATOM      7  C7  DEN d   1       2.137   1.140  -0.614  0.00  0.00     0.017 A 
ATOM      8  C8  DEN d   1       1.894   2.415  -1.108  0.00  0.00    -0.094 A 
ATOM      9  C9  DEN d   1       1.564   2.613  -2.438  0.00  0.00    -0.072 A 
ENDROOT
TORSDOF 0
ENDMDL
