MODEL 1
REMARK minimizedAffinity 9.65095425
REMARK minimizedRMSD -1
REMARK  0 active torsions:
REMARK  status: ('A' for Active; 'I' for Inactive)
ROOT
ATOM      1  C1  DEN d   1       1.588  -1.606  -1.398  0.00  0.00     0.130 A 
ATOM      2  C2  DEN d   1       2.150  -2.496  -0.385  0.00  0.00    -0.031 A 
ATOM      3  C3  DEN d   1       1.309  -3.709  -0.327  0.00  0.00     0.027 A 
ATOM      4  C4  DEN d   1      -0.793  -4.294  -1.701  0.00  0.00     0.027 A 
ATOM      5  C5  DEN d   1      -1.659  -3.846  -2.674  0.00  0.00    -0.003 A 
ATOM      6  C6  DEN d   1      -1.524  -2.615  -3.261  0.00  0.00     0.001 A 
ATOM      7  C7  DEN d   1      -0.473  -1.809  -2.912  0.00  0.00     0.017 A 
ATOM      8  C8  DEN d   1       0.399  -2.251  -1.926  0.00  0.00    -0.094 A 
ATOM      9  C9  DEN d   1       0.253  -3.503  -1.354  0.00  0.00    -0.072 A 
ENDROOT
TORSDOF 0
ENDMDL
