MODEL 1
REMARK minimizedAffinity 17.298624
REMARK minimizedRMSD -1
REMARK  0 active torsions:
REMARK  status: ('A' for Active; 'I' for Inactive)
ROOT
ATOM      1  C1  DEN d   1      -5.936  -3.652   1.794  0.00  0.00     0.130 A 
ATOM      2  C2  DEN d   1      -5.966  -2.445   0.973  0.00  0.00    -0.031 A 
ATOM      3  C3  DEN d   1      -5.999  -1.278   1.877  0.00  0.00     0.027 A 
ATOM      4  C4  DEN d   1      -5.999  -1.224   4.456  0.00  0.00     0.027 A 
ATOM      5  C5  DEN d   1      -5.992  -1.998   5.595  0.00  0.00    -0.003 A 
ATOM      6  C6  DEN d   1      -5.999  -3.367   5.548  0.00  0.00     0.001 A 
ATOM      7  C7  DEN d   1      -5.969  -4.004   4.335  0.00  0.00     0.017 A 
ATOM      8  C8  DEN d   1      -5.984  -3.230   3.182  0.00  0.00    -0.094 A 
ATOM      9  C9  DEN d   1      -5.964  -1.847   3.252  0.00  0.00    -0.072 A 
ENDROOT
TORSDOF 0
ENDMDL
