MODEL 1
REMARK minimizedAffinity 2.86819553
REMARK minimizedRMSD -1
REMARK  0 active torsions:
REMARK  status: ('A' for Active; 'I' for Inactive)
ROOT
ATOM      1  C1  DEN d   1       1.576  -0.198  -2.773  0.00  0.00     0.130 A 
ATOM      2  C2  DEN d   1       2.505   0.286  -1.756  0.00  0.00    -0.031 A 
ATOM      3  C3  DEN d   1       2.564  -0.719  -0.676  0.00  0.00     0.027 A 
ATOM      4  C4  DEN d   1       1.319  -2.970  -0.484  0.00  0.00     0.027 A 
ATOM      5  C5  DEN d   1       0.412  -3.807  -1.097  0.00  0.00    -0.003 A 
ATOM      6  C6  DEN d   1      -0.191  -3.487  -2.284  0.00  0.00     0.001 A 
ATOM      7  C7  DEN d   1       0.140  -2.319  -2.920  0.00  0.00     0.017 A 
ATOM      8  C8  DEN d   1       1.047  -1.467  -2.305  0.00  0.00    -0.094 A 
ATOM      9  C9  DEN d   1       1.655  -1.814  -1.111  0.00  0.00    -0.072 A 
ENDROOT
TORSDOF 0
ENDMDL
