MODEL 1
REMARK minimizedAffinity 18.7472897
REMARK minimizedRMSD -1
REMARK  0 active torsions:
REMARK  status: ('A' for Active; 'I' for Inactive)
ROOT
ATOM      1  C1  DEN d   1       3.063   1.865  -0.069  0.00  0.00     0.130 A 
ATOM      2  C2  DEN d   1       3.416   0.470   0.180  0.00  0.00    -0.031 A 
ATOM      3  C3  DEN d   1       2.847  -0.347  -0.910  0.00  0.00     0.027 A 
ATOM      4  C4  DEN d   1       1.463   0.409  -2.952  0.00  0.00     0.027 A 
ATOM      5  C5  DEN d   1       0.899   1.494  -3.585  0.00  0.00    -0.003 A 
ATOM      6  C6  DEN d   1       0.986   2.763  -3.078  0.00  0.00     0.001 A 
ATOM      7  C7  DEN d   1       1.692   2.986  -1.925  0.00  0.00     0.017 A 
ATOM      8  C8  DEN d   1       2.258   1.897  -1.277  0.00  0.00    -0.094 A 
ATOM      9  C9  DEN d   1       2.169   0.623  -1.812  0.00  0.00    -0.072 A 
ENDROOT
TORSDOF 0
ENDMDL
