MODEL 1
REMARK minimizedAffinity 3.82815313
REMARK minimizedRMSD -1
REMARK  1 active torsions:
REMARK  status: ('A' for Active; 'I' for Inactive)
REMARK    1  A    between atoms: C1_2  and  C2_3 
ROOT
ATOM      1  C2  UNL d   1       0.105  -0.576  -1.020  0.00  0.00    -0.073 A 
ATOM      2  C3  UNL d   1      -0.413  -0.436  -2.313  0.00  0.00    -0.002 A 
ATOM      3  C4  UNL d   1      -1.612  -1.058  -2.663  0.00  0.00     0.004 A 
ATOM      4  C5  UNL d   1      -2.307  -1.820  -1.724  0.00  0.00    -0.004 A 
ATOM      5  C6  UNL d   1      -1.812  -1.962  -0.424  0.00  0.00    -0.075 A 
ATOM      6  C7  UNL d   1      -2.547  -2.779   0.597  0.00  0.00     0.076 C 
ATOM      7  C8  UNL d   1      -0.606  -1.336  -0.081  0.00  0.00     0.001 A 
ENDROOT
BRANCH   1   8
ATOM      8  C1  UNL d   1       1.396   0.100  -0.636  0.00  0.00     0.053 C 
ATOM      9  C   UNL d   1       2.530  -0.256  -1.584  0.00  0.00     0.018 C 
ENDBRANCH   1   8
TORSDOF 1
ENDMDL
