MODEL 1
REMARK minimizedAffinity -4.41476917
REMARK minimizedRMSD -1
REMARK  1 active torsions:
REMARK  status: ('A' for Active; 'I' for Inactive)
REMARK    1  A    between atoms: C1_2  and  C2_3 
ROOT
ATOM      1  C2  UNL d   1      -5.186   4.603   3.210  0.00  0.00    -0.073 A 
ATOM      2  C3  UNL d   1      -5.682   5.712   3.904  0.00  0.00    -0.002 A 
ATOM      3  C4  UNL d   1      -5.974   5.619   5.265  0.00  0.00     0.004 A 
ATOM      4  C5  UNL d   1      -5.767   4.420   5.947  0.00  0.00    -0.004 A 
ATOM      5  C6  UNL d   1      -5.261   3.304   5.274  0.00  0.00    -0.075 A 
ATOM      6  C7  UNL d   1      -5.034   2.006   5.993  0.00  0.00     0.076 C 
ATOM      7  C8  UNL d   1      -4.972   3.404   3.906  0.00  0.00     0.001 A 
ENDROOT
BRANCH   1   8
ATOM      8  C1  UNL d   1      -4.863   4.700   1.741  0.00  0.00     0.053 C 
ATOM      9  C   UNL d   1      -6.000   5.324   0.948  0.00  0.00     0.018 C 
ENDBRANCH   1   8
TORSDOF 1
ENDMDL
