MODEL 1
REMARK minimizedAffinity 1.50260389
REMARK minimizedRMSD -1
REMARK  1 active torsions:
REMARK  status: ('A' for Active; 'I' for Inactive)
REMARK    1  A    between atoms: C1_2  and  C2_3 
ROOT
ATOM      1  C2  UNL d   1      -0.837  -0.574  -0.770  0.00  0.00    -0.073 A 
ATOM      2  C3  UNL d   1      -1.768  -0.121   0.171  0.00  0.00    -0.002 A 
ATOM      3  C4  UNL d   1      -2.902  -0.881   0.463  0.00  0.00     0.004 A 
ATOM      4  C5  UNL d   1      -3.113  -2.102  -0.178  0.00  0.00    -0.004 A 
ATOM      5  C6  UNL d   1      -2.187  -2.577  -1.113  0.00  0.00    -0.075 A 
ATOM      6  C7  UNL d   1      -2.401  -3.887  -1.813  0.00  0.00     0.076 C 
ATOM      7  C8  UNL d   1      -1.053  -1.807  -1.402  0.00  0.00     0.001 A 
ENDROOT
BRANCH   1   8
ATOM      8  C1  UNL d   1       0.393   0.239  -1.083  0.00  0.00     0.053 C 
ATOM      9  C   UNL d   1       0.044   1.651  -1.529  0.00  0.00     0.018 C 
ENDBRANCH   1   8
TORSDOF 1
ENDMDL
