MODEL 1
REMARK minimizedAffinity -4.23949194
REMARK minimizedRMSD -1
REMARK  1 active torsions:
REMARK  status: ('A' for Active; 'I' for Inactive)
REMARK    1  A    between atoms: C1_2  and  C2_3 
ROOT
ATOM      1  C2  UNL d   1      -5.394   3.954   3.534  0.00  0.00    -0.073 A 
ATOM      2  C3  UNL d   1      -4.301   4.597   4.127  0.00  0.00    -0.002 A 
ATOM      3  C4  UNL d   1      -3.767   4.119   5.325  0.00  0.00     0.004 A 
ATOM      4  C5  UNL d   1      -4.314   2.991   5.937  0.00  0.00    -0.004 A 
ATOM      5  C6  UNL d   1      -5.398   2.328   5.353  0.00  0.00    -0.075 A 
ATOM      6  C7  UNL d   1      -5.999   1.115   6.000  0.00  0.00     0.076 C 
ATOM      7  C8  UNL d   1      -5.931   2.815   4.152  0.00  0.00     0.001 A 
ENDROOT
BRANCH   1   8
ATOM      8  C1  UNL d   1      -5.970   4.462   2.238  0.00  0.00     0.053 C 
ATOM      9  C   UNL d   1      -5.375   5.803   1.837  0.00  0.00     0.018 C 
ENDBRANCH   1   8
TORSDOF 1
ENDMDL
