MODEL 1
REMARK minimizedAffinity 4.22661257
REMARK minimizedRMSD -1
REMARK  1 active torsions:
REMARK  status: ('A' for Active; 'I' for Inactive)
REMARK    1  A    between atoms: C1_2  and  C2_3 
ROOT
ATOM      1  C2  UNL d   1      -1.549  -2.119  -1.090  0.00  0.00    -0.073 A 
ATOM      2  C3  UNL d   1      -0.876  -1.484  -0.039  0.00  0.00    -0.002 A 
ATOM      3  C4  UNL d   1      -0.107  -0.345  -0.281  0.00  0.00     0.004 A 
ATOM      4  C5  UNL d   1      -0.007   0.174  -1.571  0.00  0.00    -0.004 A 
ATOM      5  C6  UNL d   1      -0.681  -0.440  -2.632  0.00  0.00    -0.075 A 
ATOM      6  C7  UNL d   1      -0.582   0.105  -4.027  0.00  0.00     0.076 C 
ATOM      7  C8  UNL d   1      -1.450  -1.584  -2.382  0.00  0.00     0.001 A 
ENDROOT
BRANCH   1   8
ATOM      8  C1  UNL d   1      -2.386  -3.345  -0.833  0.00  0.00     0.053 C 
ATOM      9  C   UNL d   1      -3.513  -3.069   0.151  0.00  0.00     0.018 C 
ENDBRANCH   1   8
TORSDOF 1
ENDMDL
