MODEL 1
REMARK minimizedAffinity -1.19040895
REMARK minimizedRMSD -1
REMARK  1 active torsions:
REMARK  status: ('A' for Active; 'I' for Inactive)
REMARK    1  A    between atoms: C1_2  and  C2_3 
ROOT
ATOM      1  C2  UNL d   1      -5.270   4.036   3.184  0.00  0.00    -0.073 A 
ATOM      2  C3  UNL d   1      -5.640   5.012   4.115  0.00  0.00    -0.002 A 
ATOM      3  C4  UNL d   1      -5.999   4.648   5.414  0.00  0.00     0.004 A 
ATOM      4  C5  UNL d   1      -5.987   3.307   5.795  0.00  0.00    -0.004 A 
ATOM      5  C6  UNL d   1      -5.609   2.317   4.882  0.00  0.00    -0.075 A 
ATOM      6  C7  UNL d   1      -5.592   0.869   5.276  0.00  0.00     0.076 C 
ATOM      7  C8  UNL d   1      -5.252   2.690   3.580  0.00  0.00     0.001 A 
ENDROOT
BRANCH   1   8
ATOM      8  C1  UNL d   1      -4.875   4.425   1.783  0.00  0.00     0.053 C 
ATOM      9  C   UNL d   1      -5.450   5.774   1.382  0.00  0.00     0.018 C 
ENDBRANCH   1   8
TORSDOF 1
ENDMDL
