MODEL 1
REMARK minimizedAffinity -2.89020419
REMARK minimizedRMSD -1
REMARK  1 active torsions:
REMARK  status: ('A' for Active; 'I' for Inactive)
REMARK    1  A    between atoms: C1_2  and  C2_3 
ROOT
ATOM      1  C2  UNL d   1      -5.204   5.063   3.172  0.00  0.00    -0.073 A 
ATOM      2  C3  UNL d   1      -3.807   4.980   3.131  0.00  0.00    -0.002 A 
ATOM      3  C4  UNL d   1      -3.125   4.149   4.020  0.00  0.00     0.004 A 
ATOM      4  C5  UNL d   1      -3.830   3.388   4.953  0.00  0.00    -0.004 A 
ATOM      5  C6  UNL d   1      -5.226   3.449   5.001  0.00  0.00    -0.075 A 
ATOM      6  C7  UNL d   1      -6.000   2.639   6.000  0.00  0.00     0.076 C 
ATOM      7  C8  UNL d   1      -5.905   4.288   4.107  0.00  0.00     0.001 A 
ENDROOT
BRANCH   1   8
ATOM      8  C1  UNL d   1      -5.946   5.954   2.209  0.00  0.00     0.053 C 
ATOM      9  C   UNL d   1      -5.288   5.986   0.839  0.00  0.00     0.018 C 
ENDBRANCH   1   8
TORSDOF 1
ENDMDL
