MODEL 1
REMARK minimizedAffinity -2.57480168
REMARK minimizedRMSD -1
REMARK  1 active torsions:
REMARK  status: ('A' for Active; 'I' for Inactive)
REMARK    1  A    between atoms: C1_2  and  C2_3 
ROOT
ATOM      1  C2  UNL d   1      -5.165   3.738   5.098  0.00  0.00    -0.073 A 
ATOM      2  C3  UNL d   1      -5.642   4.929   5.657  0.00  0.00    -0.002 A 
ATOM      3  C4  UNL d   1      -6.000   5.999   4.836  0.00  0.00     0.004 A 
ATOM      4  C5  UNL d   1      -5.890   5.888   3.450  0.00  0.00    -0.004 A 
ATOM      5  C6  UNL d   1      -5.426   4.702   2.872  0.00  0.00    -0.075 A 
ATOM      6  C7  UNL d   1      -5.300   4.566   1.383  0.00  0.00     0.076 C 
ATOM      7  C8  UNL d   1      -5.067   3.632   3.704  0.00  0.00     0.001 A 
ENDROOT
BRANCH   1   8
ATOM      8  C1  UNL d   1      -4.784   2.577   5.981  0.00  0.00     0.053 C 
ATOM      9  C   UNL d   1      -5.856   1.500   6.000  0.00  0.00     0.018 C 
ENDBRANCH   1   8
TORSDOF 1
ENDMDL
