MODEL 1
REMARK minimizedAffinity -0.700575054
REMARK minimizedRMSD -1
REMARK  1 active torsions:
REMARK  status: ('A' for Active; 'I' for Inactive)
REMARK    1  A    between atoms: C1_2  and  C2_3 
ROOT
ATOM      1  C2  UNL d   1      -5.889   4.388   2.656  0.00  0.00    -0.073 A 
ATOM      2  C3  UNL d   1      -5.944   5.714   3.099  0.00  0.00    -0.002 A 
ATOM      3  C4  UNL d   1      -6.000   6.000   4.464  0.00  0.00     0.004 A 
ATOM      4  C5  UNL d   1      -5.995   4.964   5.398  0.00  0.00    -0.004 A 
ATOM      5  C6  UNL d   1      -5.928   3.633   4.976  0.00  0.00    -0.075 A 
ATOM      6  C7  UNL d   1      -5.924   2.508   5.969  0.00  0.00     0.076 C 
ATOM      7  C8  UNL d   1      -5.875   3.354   3.604  0.00  0.00     0.001 A 
ENDROOT
BRANCH   1   8
ATOM      8  C1  UNL d   1      -5.821   4.074   1.184  0.00  0.00     0.053 C 
ATOM      9  C   UNL d   1      -5.304   5.253   0.373  0.00  0.00     0.018 C 
ENDBRANCH   1   8
TORSDOF 1
ENDMDL
