MODEL 1
REMARK minimizedAffinity -2.76364756
REMARK minimizedRMSD -1
REMARK  1 active torsions:
REMARK  status: ('A' for Active; 'I' for Inactive)
REMARK    1  A    between atoms: C1_2  and  C2_3 
ROOT
ATOM      1  C2  UNL d   1      -4.749   3.793   3.889  0.00  0.00    -0.073 A 
ATOM      2  C3  UNL d   1      -5.380   4.763   4.676  0.00  0.00    -0.002 A 
ATOM      3  C4  UNL d   1      -5.999   5.862   4.079  0.00  0.00     0.004 A 
ATOM      4  C5  UNL d   1      -5.999   5.999   2.691  0.00  0.00    -0.004 A 
ATOM      5  C6  UNL d   1      -5.384   5.035   1.887  0.00  0.00    -0.075 A 
ATOM      6  C7  UNL d   1      -5.374   5.169   0.392  0.00  0.00     0.076 C 
ATOM      7  C8  UNL d   1      -4.763   3.935   2.494  0.00  0.00     0.001 A 
ENDROOT
BRANCH   1   8
ATOM      8  C1  UNL d   1      -4.085   2.601   4.528  0.00  0.00     0.053 C 
ATOM      9  C   UNL d   1      -4.447   2.468   5.999  0.00  0.00     0.018 C 
ENDBRANCH   1   8
TORSDOF 1
ENDMDL
