MODEL 1
REMARK minimizedAffinity -3.37146711
REMARK minimizedRMSD -1
REMARK  1 active torsions:
REMARK  status: ('A' for Active; 'I' for Inactive)
REMARK    1  A    between atoms: C1_2  and  C2_3 
ROOT
ATOM      1  C2  UNL d   1      -5.720   4.577   3.085  0.00  0.00    -0.073 A 
ATOM      2  C3  UNL d   1      -5.883   5.794   3.757  0.00  0.00    -0.002 A 
ATOM      3  C4  UNL d   1      -6.000   5.821   5.147  0.00  0.00     0.004 A 
ATOM      4  C5  UNL d   1      -5.948   4.635   5.879  0.00  0.00    -0.004 A 
ATOM      5  C6  UNL d   1      -5.774   3.411   5.227  0.00  0.00    -0.075 A 
ATOM      6  C7  UNL d   1      -5.719   2.126   6.000  0.00  0.00     0.076 C 
ATOM      7  C8  UNL d   1      -5.661   3.391   3.830  0.00  0.00     0.001 A 
ENDROOT
BRANCH   1   8
ATOM      8  C1  UNL d   1      -5.587   4.544   1.584  0.00  0.00     0.053 C 
ATOM      9  C   UNL d   1      -4.874   5.774   1.047  0.00  0.00     0.018 C 
ENDBRANCH   1   8
TORSDOF 1
ENDMDL
