MODEL 1
REMARK minimizedAffinity -5.86140776
REMARK minimizedRMSD -1
REMARK  0 active torsions:
REMARK  status: ('A' for Active; 'I' for Inactive)
ROOT
ATOM      1  C4' PXY d   1       0.758  -2.831   0.102  0.00  0.00     0.077 C 
ATOM      2  C1' PXY d   1       0.816   2.937   0.487  0.00  0.00     0.077 C 
ATOM      3  C1  PXY d   1       0.812   1.424   0.380  0.00  0.00    -0.082 A 
ATOM      4  C2  PXY d   1      -0.335   0.767   0.441  0.00  0.00     0.003 A 
ATOM      5  C3  PXY d   1      -0.353  -0.603   0.377  0.00  0.00     0.003 A 
ATOM      6  C4  PXY d   1       0.809  -1.303   0.197  0.00  0.00    -0.082 A 
ATOM      7  C5  PXY d   1       1.982  -0.639   0.123  0.00  0.00     0.003 A 
ATOM      8  C6  PXY d   1       1.983   0.748   0.231  0.00  0.00     0.003 A 
ENDROOT
TORSDOF 0
ENDMDL
