MODEL 1
REMARK minimizedAffinity 2.40529299
REMARK minimizedRMSD -1
REMARK  0 active torsions:
REMARK  status: ('A' for Active; 'I' for Inactive)
ROOT
ATOM      1  C4' PXY d   1      -2.322  -2.354   2.876  0.00  0.00     0.077 C 
ATOM      2  C1' PXY d   1       0.177   1.496  -0.638  0.00  0.00     0.077 C 
ATOM      3  C1  PXY d   1      -0.476   0.476   0.275  0.00  0.00    -0.082 A 
ATOM      4  C2  PXY d   1      -1.395   0.869   1.141  0.00  0.00     0.003 A 
ATOM      5  C3  PXY d   1      -1.972  -0.034   1.997  0.00  0.00     0.003 A 
ATOM      6  C4  PXY d   1      -1.643  -1.362   1.928  0.00  0.00    -0.082 A 
ATOM      7  C5  PXY d   1      -0.714  -1.771   1.039  0.00  0.00     0.003 A 
ATOM      8  C6  PXY d   1      -0.110  -0.832   0.208  0.00  0.00     0.003 A 
ENDROOT
TORSDOF 0
ENDMDL
