MODEL 1
REMARK minimizedAffinity -2.06958437
REMARK minimizedRMSD -1
REMARK  0 active torsions:
REMARK  status: ('A' for Active; 'I' for Inactive)
ROOT
ATOM      1  C4' PXY d   1      -1.040   0.182   0.047  0.00  0.00     0.077 C 
ATOM      2  C1' PXY d   1       3.593   3.619  -0.320  0.00  0.00     0.077 C 
ATOM      3  C1  PXY d   1       2.384   2.709  -0.231  0.00  0.00    -0.082 A 
ATOM      4  C2  PXY d   1       1.187   3.230  -0.017  0.00  0.00     0.003 A 
ATOM      5  C3  PXY d   1       0.088   2.419   0.099  0.00  0.00     0.003 A 
ATOM      6  C4  PXY d   1       0.207   1.064  -0.060  0.00  0.00    -0.082 A 
ATOM      7  C5  PXY d   1       1.423   0.525  -0.289  0.00  0.00     0.003 A 
ATOM      8  C6  PXY d   1       2.533   1.363  -0.362  0.00  0.00     0.003 A 
ENDROOT
TORSDOF 0
ENDMDL
