MODEL 1
REMARK minimizedAffinity -1.73841858
REMARK minimizedRMSD -1
REMARK  0 active torsions:
REMARK  status: ('A' for Active; 'I' for Inactive)
ROOT
ATOM      1  C4' PXY d   1      -0.549   0.260  -0.098  0.00  0.00     0.077 C 
ATOM      2  C1' PXY d   1       3.969   3.866  -0.110  0.00  0.00     0.077 C 
ATOM      3  C1  PXY d   1       2.791   2.912  -0.114  0.00  0.00    -0.082 A 
ATOM      4  C2  PXY d   1       1.567   3.383   0.057  0.00  0.00     0.003 A 
ATOM      5  C3  PXY d   1       0.493   2.531   0.088  0.00  0.00     0.003 A 
ATOM      6  C4  PXY d   1       0.669   1.188  -0.111  0.00  0.00    -0.082 A 
ATOM      7  C5  PXY d   1       1.914   0.700  -0.296  0.00  0.00     0.003 A 
ATOM      8  C6  PXY d   1       2.995   1.577  -0.283  0.00  0.00     0.003 A 
ENDROOT
TORSDOF 0
ENDMDL
