MODEL 1
REMARK minimizedAffinity -2.38922167
REMARK minimizedRMSD -1
REMARK  0 active torsions:
REMARK  status: ('A' for Active; 'I' for Inactive)
ROOT
ATOM      1  C4' PXY d   1      -0.217   2.350  -0.365  0.00  0.00     0.077 C 
ATOM      2  C1' PXY d   1       1.598  -2.985   0.925  0.00  0.00     0.077 C 
ATOM      3  C1  PXY d   1       1.109  -1.590   0.587  0.00  0.00    -0.082 A 
ATOM      4  C2  PXY d   1       1.911  -0.753  -0.050  0.00  0.00     0.003 A 
ATOM      5  C3  PXY d   1       1.497   0.523  -0.335  0.00  0.00     0.003 A 
ATOM      6  C4  PXY d   1       0.230   0.929  -0.012  0.00  0.00    -0.082 A 
ATOM      7  C5  PXY d   1      -0.598   0.077   0.630  0.00  0.00     0.003 A 
ATOM      8  C6  PXY d   1      -0.144  -1.200   0.947  0.00  0.00     0.003 A 
ENDROOT
TORSDOF 0
ENDMDL
