MODEL 1
REMARK minimizedAffinity -1.6906265
REMARK minimizedRMSD -1
REMARK  0 active torsions:
REMARK  status: ('A' for Active; 'I' for Inactive)
ROOT
ATOM      1  C4' PXY d   1      -0.263  -0.895   1.204  0.00  0.00     0.077 C 
ATOM      2  C1' PXY d   1      -2.024   2.726  -2.944  0.00  0.00     0.077 C 
ATOM      3  C1  PXY d   1      -1.550   1.782  -1.856  0.00  0.00    -0.082 A 
ATOM      4  C2  PXY d   1      -2.166   0.624  -1.681  0.00  0.00     0.003 A 
ATOM      5  C3  PXY d   1      -1.771  -0.228  -0.682  0.00  0.00     0.003 A 
ATOM      6  C4  PXY d   1      -0.701   0.086   0.112  0.00  0.00    -0.082 A 
ATOM      7  C5  PXY d   1      -0.060   1.260  -0.067  0.00  0.00     0.003 A 
ATOM      8  C6  PXY d   1      -0.503   2.129  -1.060  0.00  0.00     0.003 A 
ENDROOT
TORSDOF 0
ENDMDL
