MODEL 1
REMARK minimizedAffinity -2.13259649
REMARK minimizedRMSD -1
REMARK  0 active torsions:
REMARK  status: ('A' for Active; 'I' for Inactive)
ROOT
ATOM      1  C4' PXY d   1       0.263   3.738  -0.145  0.00  0.00     0.077 C 
ATOM      2  C1' PXY d   1       1.330  -1.919   0.370  0.00  0.00     0.077 C 
ATOM      3  C1  PXY d   1       1.038  -0.438   0.231  0.00  0.00    -0.082 A 
ATOM      4  C2  PXY d   1       2.035   0.409   0.034  0.00  0.00     0.003 A 
ATOM      5  C3  PXY d   1       1.792   1.755  -0.062  0.00  0.00     0.003 A 
ATOM      6  C4  PXY d   1       0.510   2.233  -0.009  0.00  0.00    -0.082 A 
ATOM      7  C5  PXY d   1      -0.514   1.374   0.182  0.00  0.00     0.003 A 
ATOM      8  C6  PXY d   1      -0.242   0.016   0.318  0.00  0.00     0.003 A 
ENDROOT
TORSDOF 0
ENDMDL
