MODEL 1
REMARK minimizedAffinity -4.64200163
REMARK minimizedRMSD -1
REMARK  0 active torsions:
REMARK  status: ('A' for Active; 'I' for Inactive)
ROOT
ATOM      1  C4' PXY d   1       1.541   3.291   0.484  0.00  0.00     0.077 C 
ATOM      2  C1' PXY d   1      -2.753   1.414  -2.900  0.00  0.00     0.077 C 
ATOM      3  C1  PXY d   1      -1.633   1.901  -2.002  0.00  0.00    -0.082 A 
ATOM      4  C2  PXY d   1      -0.904   2.942  -2.371  0.00  0.00     0.003 A 
ATOM      5  C3  PXY d   1       0.133   3.376  -1.586  0.00  0.00     0.003 A 
ATOM      6  C4  PXY d   1       0.394   2.771  -0.386  0.00  0.00    -0.082 A 
ATOM      7  C5  PXY d   1      -0.351   1.714   0.002  0.00  0.00     0.003 A 
ATOM      8  C6  PXY d   1      -1.373   1.263  -0.828  0.00  0.00     0.003 A 
ENDROOT
TORSDOF 0
ENDMDL
