MODEL 1
REMARK minimizedAffinity -0.307369918
REMARK minimizedRMSD -1
REMARK  0 active torsions:
REMARK  status: ('A' for Active; 'I' for Inactive)
ROOT
ATOM      1  C4' PXY d   1       3.460   4.520   0.686  0.00  0.00     0.077 C 
ATOM      2  C1' PXY d   1      -0.675   0.823  -0.942  0.00  0.00     0.077 C 
ATOM      3  C1  PXY d   1       0.402   1.803  -0.518  0.00  0.00    -0.082 A 
ATOM      4  C2  PXY d   1       1.673   1.442  -0.575  0.00  0.00     0.003 A 
ATOM      5  C3  PXY d   1       2.658   2.304  -0.164  0.00  0.00     0.003 A 
ATOM      6  C4  PXY d   1       2.341   3.567   0.259  0.00  0.00    -0.082 A 
ATOM      7  C5  PXY d   1       1.046   3.946   0.309  0.00  0.00     0.003 A 
ATOM      8  C6  PXY d   1       0.059   3.042  -0.073  0.00  0.00     0.003 A 
ENDROOT
TORSDOF 0
ENDMDL
