MODEL 1
REMARK minimizedAffinity -3.7803061
REMARK minimizedRMSD -1
REMARK  0 active torsions:
REMARK  status: ('A' for Active; 'I' for Inactive)
ROOT
ATOM      1  C4' PXY d   1       1.932   3.127   0.020  0.00  0.00     0.077 C 
ATOM      2  C1' PXY d   1       1.444  -2.632   0.104  0.00  0.00     0.077 C 
ATOM      3  C1  PXY d   1       1.585  -1.123   0.086  0.00  0.00    -0.082 A 
ATOM      4  C2  PXY d   1       0.506  -0.364   0.199  0.00  0.00     0.003 A 
ATOM      5  C3  PXY d   1       0.611   1.002   0.152  0.00  0.00     0.003 A 
ATOM      6  C4  PXY d   1       1.839   1.599   0.042  0.00  0.00    -0.082 A 
ATOM      7  C5  PXY d   1       2.945   0.832  -0.062  0.00  0.00     0.003 A 
ATOM      8  C6  PXY d   1       2.812  -0.553  -0.055  0.00  0.00     0.003 A 
ENDROOT
TORSDOF 0
ENDMDL
