MODEL 1
REMARK minimizedAffinity -3.77061343
REMARK minimizedRMSD -1
REMARK  0 active torsions:
REMARK  status: ('A' for Active; 'I' for Inactive)
ROOT
ATOM      1  C4' PXY d   1       2.808   3.192   0.229  0.00  0.00     0.077 C 
ATOM      2  C1' PXY d   1       0.837  -2.242   0.240  0.00  0.00     0.077 C 
ATOM      3  C1  PXY d   1       1.344  -0.813   0.230  0.00  0.00    -0.082 A 
ATOM      4  C2  PXY d   1       2.632  -0.574   0.416  0.00  0.00     0.003 A 
ATOM      5  C3  PXY d   1       3.102   0.713   0.441  0.00  0.00     0.003 A 
ATOM      6  C4  PXY d   1       2.253   1.765   0.222  0.00  0.00    -0.082 A 
ATOM      7  C5  PXY d   1       0.939   1.529   0.021  0.00  0.00     0.003 A 
ATOM      8  C6  PXY d   1       0.476   0.217   0.040  0.00  0.00     0.003 A 
ENDROOT
TORSDOF 0
ENDMDL
