MODEL 1
REMARK minimizedAffinity 2.69894075
REMARK minimizedRMSD -1
REMARK  0 active torsions:
REMARK  status: ('A' for Active; 'I' for Inactive)
ROOT
ATOM      1  C4' PXY d   1      -0.314  -0.308   0.473  0.00  0.00     0.077 C 
ATOM      2  C1' PXY d   1      -2.943   1.430  -4.373  0.00  0.00     0.077 C 
ATOM      3  C1  PXY d   1      -2.248   0.964  -3.109  0.00  0.00    -0.082 A 
ATOM      4  C2  PXY d   1      -2.768   1.262  -1.929  0.00  0.00     0.003 A 
ATOM      5  C3  PXY d   1      -2.136   0.876  -0.776  0.00  0.00     0.003 A 
ATOM      6  C4  PXY d   1      -0.987   0.133  -0.830  0.00  0.00    -0.082 A 
ATOM      7  C5  PXY d   1      -0.456  -0.183  -2.030  0.00  0.00     0.003 A 
ATOM      8  C6  PXY d   1      -1.091   0.253  -3.189  0.00  0.00     0.003 A 
ENDROOT
TORSDOF 0
ENDMDL
