MODEL 1
REMARK minimizedAffinity -2.98299956
REMARK minimizedRMSD -1
REMARK  0 active torsions:
REMARK  status: ('A' for Active; 'I' for Inactive)
ROOT
ATOM      1  C4' PXY d   1      -1.144  -0.093   1.475  0.00  0.00     0.077 C 
ATOM      2  C1' PXY d   1      -2.446   2.342  -3.604  0.00  0.00     0.077 C 
ATOM      3  C1  PXY d   1      -2.092   1.704  -2.275  0.00  0.00    -0.082 A 
ATOM      4  C2  PXY d   1      -2.973   0.927  -1.667  0.00  0.00     0.003 A 
ATOM      5  C3  PXY d   1      -2.682   0.369  -0.449  0.00  0.00     0.003 A 
ATOM      6  C4  PXY d   1      -1.455   0.564   0.127  0.00  0.00    -0.082 A 
ATOM      7  C5  PXY d   1      -0.546   1.347  -0.492  0.00  0.00     0.003 A 
ATOM      8  C6  PXY d   1      -0.877   1.938  -1.708  0.00  0.00     0.003 A 
ENDROOT
TORSDOF 0
ENDMDL
