MODEL 1
REMARK minimizedAffinity -5.11881304
REMARK minimizedRMSD -1
REMARK  0 active torsions:
REMARK  status: ('A' for Active; 'I' for Inactive)
ROOT
ATOM      1  C4' PXY d   1      -1.720   0.868  -1.737  0.00  0.00     0.077 C 
ATOM      2  C1' PXY d   1       1.600  -2.718   1.350  0.00  0.00     0.077 C 
ATOM      3  C1  PXY d   1       0.721  -1.776   0.551  0.00  0.00    -0.082 A 
ATOM      4  C2  PXY d   1       0.725  -1.841  -0.771  0.00  0.00     0.003 A 
ATOM      5  C3  PXY d   1      -0.039  -0.976  -1.510  0.00  0.00     0.003 A 
ATOM      6  C4  PXY d   1      -0.856  -0.070  -0.889  0.00  0.00    -0.082 A 
ATOM      7  C5  PXY d   1      -0.874  -0.004   0.459  0.00  0.00     0.003 A 
ATOM      8  C6  PXY d   1      -0.060  -0.864   1.191  0.00  0.00     0.003 A 
ENDROOT
TORSDOF 0
ENDMDL
