MODEL 1
REMARK minimizedAffinity -3.52064037
REMARK minimizedRMSD -1
REMARK  0 active torsions:
REMARK  status: ('A' for Active; 'I' for Inactive)
ROOT
ATOM      1  C4' PXY d   1      -2.552   1.660  -2.573  0.00  0.00     0.077 C 
ATOM      2  C1' PXY d   1       1.849   3.880   0.446  0.00  0.00     0.077 C 
ATOM      3  C1  PXY d   1       0.699   3.286  -0.343  0.00  0.00    -0.082 A 
ATOM      4  C2  PXY d   1       0.149   3.983  -1.324  0.00  0.00     0.003 A 
ATOM      5  C3  PXY d   1      -0.913   3.474  -2.026  0.00  0.00     0.003 A 
ATOM      6  C4  PXY d   1      -1.383   2.216  -1.757  0.00  0.00    -0.082 A 
ATOM      7  C5  PXY d   1      -0.820   1.494  -0.764  0.00  0.00     0.003 A 
ATOM      8  C6  PXY d   1       0.230   2.046  -0.036  0.00  0.00     0.003 A 
ENDROOT
TORSDOF 0
ENDMDL
