MODEL 1
REMARK minimizedAffinity -4.49906874
REMARK minimizedRMSD -1
REMARK  0 active torsions:
REMARK  status: ('A' for Active; 'I' for Inactive)
ROOT
ATOM      1  C4' PXY d   1      -0.614   3.777  -4.374  0.00  0.00     0.077 C 
ATOM      2  C1' PXY d   1      -2.306   1.436   0.633  0.00  0.00     0.077 C 
ATOM      3  C1  PXY d   1      -1.865   2.039  -0.686  0.00  0.00    -0.082 A 
ATOM      4  C2  PXY d   1      -1.048   3.079  -0.689  0.00  0.00     0.003 A 
ATOM      5  C3  PXY d   1      -0.664   3.657  -1.872  0.00  0.00     0.003 A 
ATOM      6  C4  PXY d   1      -1.078   3.130  -3.066  0.00  0.00    -0.082 A 
ATOM      7  C5  PXY d   1      -1.903   2.062  -3.072  0.00  0.00     0.003 A 
ATOM      8  C6  PXY d   1      -2.314   1.516  -1.859  0.00  0.00     0.003 A 
ENDROOT
TORSDOF 0
ENDMDL
