MODEL 1
REMARK minimizedAffinity -1.32911623
REMARK minimizedRMSD -1
REMARK  0 active torsions:
REMARK  status: ('A' for Active; 'I' for Inactive)
ROOT
ATOM      1  C4' PXY d   1      -1.091   1.150  -1.200  0.00  0.00     0.077 C 
ATOM      2  C1' PXY d   1       2.334  -2.261   1.970  0.00  0.00     0.077 C 
ATOM      3  C1  PXY d   1       1.426  -1.375   1.140  0.00  0.00    -0.082 A 
ATOM      4  C2  PXY d   1       1.956  -0.491   0.310  0.00  0.00     0.003 A 
ATOM      5  C3  PXY d   1       1.150   0.340  -0.424  0.00  0.00     0.003 A 
ATOM      6  C4  PXY d   1      -0.213   0.229  -0.349  0.00  0.00    -0.082 A 
ATOM      7  C5  PXY d   1      -0.761  -0.678   0.487  0.00  0.00     0.003 A 
ATOM      8  C6  PXY d   1       0.075  -1.484   1.255  0.00  0.00     0.003 A 
ENDROOT
TORSDOF 0
ENDMDL
