MODEL 1
REMARK minimizedAffinity -2.96480346
REMARK minimizedRMSD -1
REMARK  0 active torsions:
REMARK  status: ('A' for Active; 'I' for Inactive)
ROOT
ATOM      1  C4' PXY d   1       3.349   2.338  -0.257  0.00  0.00     0.077 C 
ATOM      2  C1' PXY d   1       0.807  -2.743   0.807  0.00  0.00     0.077 C 
ATOM      3  C1  PXY d   1       1.479  -1.411   0.539  0.00  0.00    -0.082 A 
ATOM      4  C2  PXY d   1       0.941  -0.568  -0.327  0.00  0.00     0.003 A 
ATOM      5  C3  PXY d   1       1.553   0.627  -0.604  0.00  0.00     0.003 A 
ATOM      6  C4  PXY d   1       2.700   0.986   0.051  0.00  0.00    -0.082 A 
ATOM      7  C5  PXY d   1       3.250   0.136   0.944  0.00  0.00     0.003 A 
ATOM      8  C6  PXY d   1       2.635  -1.090   1.181  0.00  0.00     0.003 A 
ENDROOT
TORSDOF 0
ENDMDL
