MODEL 1
REMARK minimizedAffinity -1.5265305
REMARK minimizedRMSD -1
REMARK  0 active torsions:
REMARK  status: ('A' for Active; 'I' for Inactive)
ROOT
ATOM      1  C4' PXY d   1      -0.744  -0.826   0.959  0.00  0.00     0.077 C 
ATOM      2  C1' PXY d   1      -2.333   2.065  -3.788  0.00  0.00     0.077 C 
ATOM      3  C1  PXY d   1      -1.907   1.301  -2.549  0.00  0.00    -0.082 A 
ATOM      4  C2  PXY d   1      -2.775   1.105  -1.571  0.00  0.00     0.003 A 
ATOM      5  C3  PXY d   1      -2.398   0.444  -0.430  0.00  0.00     0.003 A 
ATOM      6  C4  PXY d   1      -1.133  -0.069  -0.313  0.00  0.00    -0.082 A 
ATOM      7  C5  PXY d   1      -0.245   0.118  -1.312  0.00  0.00     0.003 A 
ATOM      8  C6  PXY d   1      -0.635   0.827  -2.444  0.00  0.00     0.003 A 
ENDROOT
TORSDOF 0
ENDMDL
