MODEL 1
REMARK minimizedAffinity 17.2874126
REMARK minimizedRMSD -1
REMARK  1 active torsions:
REMARK  status: ('A' for Active; 'I' for Inactive)
REMARK    1  A    between atoms: C1_2  and  C2_3 
ROOT
ATOM      1  C2  UNL d   1      -0.700   1.709  -0.842  0.00  0.00    -0.081 A 
ATOM      2  C3  UNL d   1      -0.938   2.505  -1.969  0.00  0.00     0.006 A 
ATOM      3  C4  UNL d   1      -0.821   3.895  -1.891  0.00  0.00     0.002 A 
ATOM      4  C5  UNL d   1      -0.458   4.511  -0.689  0.00  0.00    -0.080 A 
ATOM      5  C6  UNL d   1      -0.300   6.000  -0.599  0.00  0.00     0.076 C 
ATOM      6  C7  UNL d   1      -0.237   3.716   0.442  0.00  0.00     0.002 A 
ATOM      7  C8  UNL d   1      -0.354   2.327   0.364  0.00  0.00     0.006 A 
ENDROOT
BRANCH   1   8
ATOM      8  C1  UNL d   1      -0.761   0.206  -0.939  0.00  0.00     0.054 C 
ATOM      9  C   UNL d   1       0.425  -0.347  -1.716  0.00  0.00     0.018 C 
ENDBRANCH   1   8
TORSDOF 1
ENDMDL
