MODEL 1
REMARK minimizedAffinity 10.7826643
REMARK minimizedRMSD -1
REMARK  1 active torsions:
REMARK  status: ('A' for Active; 'I' for Inactive)
REMARK    1  A    between atoms: C1_2  and  C2_3 
ROOT
ATOM      1  C2  UNL d   1       0.089   1.121   3.203  0.00  0.00    -0.081 A 
ATOM      2  C3  UNL d   1      -1.051   1.266   2.402  0.00  0.00     0.006 A 
ATOM      3  C4  UNL d   1      -1.157   2.334   1.509  0.00  0.00     0.002 A 
ATOM      4  C5  UNL d   1      -0.124   3.270   1.395  0.00  0.00    -0.080 A 
ATOM      5  C6  UNL d   1      -0.212   4.405   0.418  0.00  0.00     0.076 C 
ATOM      6  C7  UNL d   1       1.007   3.135   2.207  0.00  0.00     0.002 A 
ATOM      7  C8  UNL d   1       1.114   2.067   3.101  0.00  0.00     0.006 A 
ENDROOT
BRANCH   1   8
ATOM      8  C1  UNL d   1       0.235  -0.066   4.120  0.00  0.00     0.054 C 
ATOM      9  C   UNL d   1       1.282  -1.042   3.601  0.00  0.00     0.018 C 
ENDBRANCH   1   8
TORSDOF 1
ENDMDL
