MODEL 1
REMARK minimizedAffinity 6.68646193
REMARK minimizedRMSD -1
REMARK  1 active torsions:
REMARK  status: ('A' for Active; 'I' for Inactive)
REMARK    1  A    between atoms: C1_2  and  C2_3 
ROOT
ATOM      1  C2  UNL d   1      -0.428   2.697   0.353  0.00  0.00    -0.081 A 
ATOM      2  C3  UNL d   1       0.781   2.093   0.721  0.00  0.00     0.006 A 
ATOM      3  C4  UNL d   1       0.917   1.485   1.971  0.00  0.00     0.002 A 
ATOM      4  C5  UNL d   1      -0.154   1.463   2.870  0.00  0.00    -0.080 A 
ATOM      5  C6  UNL d   1      -0.031   0.787   4.203  0.00  0.00     0.076 C 
ATOM      6  C7  UNL d   1      -1.356   2.082   2.510  0.00  0.00     0.002 A 
ATOM      7  C8  UNL d   1      -1.493   2.691   1.261  0.00  0.00     0.006 A 
ENDROOT
BRANCH   1   8
ATOM      8  C1  UNL d   1      -0.598   3.298  -1.019  0.00  0.00     0.054 C 
ATOM      9  C   UNL d   1      -0.440   4.811  -0.984  0.00  0.00     0.018 C 
ENDBRANCH   1   8
TORSDOF 1
ENDMDL
