MODEL 1
REMARK minimizedAffinity 9.46039391
REMARK minimizedRMSD -1
REMARK  1 active torsions:
REMARK  status: ('A' for Active; 'I' for Inactive)
REMARK    1  A    between atoms: C1_2  and  C2_3 
ROOT
ATOM      1  C2  UNL d   1      -0.253   3.268   1.704  0.00  0.00    -0.081 A 
ATOM      2  C3  UNL d   1       0.929   3.108   2.437  0.00  0.00     0.006 A 
ATOM      3  C4  UNL d   1       1.094   2.010   3.285  0.00  0.00     0.002 A 
ATOM      4  C5  UNL d   1       0.084   1.050   3.408  0.00  0.00    -0.080 A 
ATOM      5  C6  UNL d   1       0.260  -0.149   4.291  0.00  0.00     0.076 C 
ATOM      6  C7  UNL d   1      -1.105   1.219   2.689  0.00  0.00     0.002 A 
ATOM      7  C8  UNL d   1      -1.270   2.317   1.842  0.00  0.00     0.006 A 
ENDROOT
BRANCH   1   8
ATOM      8  C1  UNL d   1      -0.408   4.416   0.740  0.00  0.00     0.054 C 
ATOM      9  C   UNL d   1      -0.826   3.928  -0.639  0.00  0.00     0.018 C 
ENDBRANCH   1   8
TORSDOF 1
ENDMDL
