MODEL 1
REMARK minimizedAffinity 8.77776623
REMARK minimizedRMSD -1
REMARK  1 active torsions:
REMARK  status: ('A' for Active; 'I' for Inactive)
REMARK    1  A    between atoms: C1_2  and  C2_3 
ROOT
ATOM      1  C2  UNL d   1       4.992  -2.864  -2.643  0.00  0.00    -0.081 A 
ATOM      2  C3  UNL d   1       4.266  -4.030  -2.373  0.00  0.00     0.006 A 
ATOM      3  C4  UNL d   1       3.653  -4.211  -1.131  0.00  0.00     0.002 A 
ATOM      4  C5  UNL d   1       3.748  -3.226  -0.142  0.00  0.00    -0.080 A 
ATOM      5  C6  UNL d   1       3.068  -3.394   1.184  0.00  0.00     0.076 C 
ATOM      6  C7  UNL d   1       4.487  -2.068  -0.406  0.00  0.00     0.002 A 
ATOM      7  C8  UNL d   1       5.102  -1.887  -1.647  0.00  0.00     0.006 A 
ENDROOT
BRANCH   1   8
ATOM      8  C1  UNL d   1       5.601  -2.637  -4.003  0.00  0.00     0.054 C 
ATOM      9  C   UNL d   1       5.107  -3.668  -5.009  0.00  0.00     0.018 C 
ENDBRANCH   1   8
TORSDOF 1
ENDMDL
