MODEL 1
REMARK minimizedAffinity 10.8777103
REMARK minimizedRMSD -1
REMARK  1 active torsions:
REMARK  status: ('A' for Active; 'I' for Inactive)
REMARK    1  A    between atoms: C1_2  and  C2_3 
ROOT
ATOM      1  C2  UNL d   1      -0.500   2.103  -0.885  0.00  0.00    -0.081 A 
ATOM      2  C3  UNL d   1      -1.885   2.163  -1.083  0.00  0.00     0.006 A 
ATOM      3  C4  UNL d   1      -2.619   0.996  -1.307  0.00  0.00     0.002 A 
ATOM      4  C5  UNL d   1      -1.983  -0.250  -1.329  0.00  0.00    -0.080 A 
ATOM      5  C6  UNL d   1      -2.764  -1.513  -1.539  0.00  0.00     0.076 C 
ATOM      6  C7  UNL d   1      -0.597  -0.308  -1.149  0.00  0.00     0.002 A 
ATOM      7  C8  UNL d   1       0.138   0.859  -0.925  0.00  0.00     0.006 A 
ENDROOT
BRANCH   1   8
ATOM      8  C1  UNL d   1       0.285   3.353  -0.578  0.00  0.00     0.054 C 
ATOM      9  C   UNL d   1      -0.221   4.537  -1.390  0.00  0.00     0.018 C 
ENDBRANCH   1   8
TORSDOF 1
ENDMDL
