MODEL 1
REMARK minimizedAffinity -2.92666769
REMARK minimizedRMSD -1
REMARK  0 active torsions:
REMARK  status: ('A' for Active; 'I' for Inactive)
ROOT
ATOM      1  C   UNL d   1       3.394  -1.545   0.393  0.00  0.00     0.077 C 
ATOM      2  C1  UNL d   1       1.982  -1.251  -0.017  0.00  0.00    -0.074 A 
ATOM      3  C2  UNL d   1       1.552  -1.475  -1.329  0.00  0.00    -0.005 A 
ATOM      4  C3  UNL d   1       0.233  -1.206  -1.692  0.00  0.00     0.006 A 
ATOM      5  C4  UNL d   1      -0.669  -0.709  -0.750  0.00  0.00    -0.005 A 
ATOM      6  C5  UNL d   1      -0.257  -0.479   0.567  0.00  0.00    -0.074 A 
ATOM      7  C6  UNL d   1      -1.216   0.045   1.595  0.00  0.00     0.077 C 
ATOM      8  C7  UNL d   1       1.068  -0.759   0.926  0.00  0.00    -0.001 A 
ENDROOT
TORSDOF 0
ENDMDL
