MODEL 1
REMARK minimizedAffinity -4.46579409
REMARK minimizedRMSD -1
REMARK  0 active torsions:
REMARK  status: ('A' for Active; 'I' for Inactive)
ROOT
ATOM      1  C   UNL d   1      -2.787  -0.393   1.947  0.00  0.00     0.077 C 
ATOM      2  C1  UNL d   1      -1.430  -0.206   1.336  0.00  0.00    -0.074 A 
ATOM      3  C2  UNL d   1      -0.288  -0.734   1.946  0.00  0.00    -0.005 A 
ATOM      4  C3  UNL d   1       0.966  -0.560   1.360  0.00  0.00     0.006 A 
ATOM      5  C4  UNL d   1       1.091   0.142   0.161  0.00  0.00    -0.005 A 
ATOM      6  C5  UNL d   1      -0.041   0.676  -0.464  0.00  0.00    -0.074 A 
ATOM      7  C6  UNL d   1       0.074   1.425  -1.759  0.00  0.00     0.077 C 
ATOM      8  C7  UNL d   1      -1.298   0.491   0.127  0.00  0.00    -0.001 A 
ENDROOT
TORSDOF 0
ENDMDL
