MODEL 1
REMARK minimizedAffinity 1.56442332
REMARK minimizedRMSD -1
REMARK  0 active torsions:
REMARK  status: ('A' for Active; 'I' for Inactive)
ROOT
ATOM      1  C   UNL d   1       1.828  -2.840   1.914  0.00  0.00     0.077 C 
ATOM      2  C1  UNL d   1       0.837  -1.845   1.387  0.00  0.00    -0.074 A 
ATOM      3  C2  UNL d   1       1.039  -1.212   0.156  0.00  0.00    -0.005 A 
ATOM      4  C3  UNL d   1       0.104  -0.296  -0.325  0.00  0.00     0.006 A 
ATOM      5  C4  UNL d   1      -1.040  -0.004   0.418  0.00  0.00    -0.005 A 
ATOM      6  C5  UNL d   1      -1.259  -0.627   1.650  0.00  0.00    -0.074 A 
ATOM      7  C6  UNL d   1      -2.489  -0.332   2.457  0.00  0.00     0.077 C 
ATOM      8  C7  UNL d   1      -0.319  -1.552   2.124  0.00  0.00    -0.001 A 
ENDROOT
TORSDOF 0
ENDMDL
