MODEL 1
REMARK minimizedAffinity 3.17555761
REMARK minimizedRMSD -1
REMARK  0 active torsions:
REMARK  status: ('A' for Active; 'I' for Inactive)
ROOT
ATOM      1  C   UNL d   1       2.844  -1.477   0.961  0.00  0.00     0.077 C 
ATOM      2  C1  UNL d   1       1.405  -1.131   0.720  0.00  0.00    -0.074 A 
ATOM      3  C2  UNL d   1       0.929  -0.897  -0.574  0.00  0.00    -0.005 A 
ATOM      4  C3  UNL d   1      -0.414  -0.585  -0.784  0.00  0.00     0.006 A 
ATOM      5  C4  UNL d   1      -1.294  -0.503   0.296  0.00  0.00    -0.005 A 
ATOM      6  C5  UNL d   1      -0.836  -0.735   1.597  0.00  0.00    -0.074 A 
ATOM      7  C6  UNL d   1      -1.770  -0.662   2.769  0.00  0.00     0.077 C 
ATOM      8  C7  UNL d   1       0.514  -1.055   1.799  0.00  0.00    -0.001 A 
ENDROOT
TORSDOF 0
ENDMDL
