MODEL 1
REMARK minimizedAffinity 8.5762825
REMARK minimizedRMSD -1
REMARK  0 active torsions:
REMARK  status: ('A' for Active; 'I' for Inactive)
ROOT
ATOM      1  C   UNL d   1       1.550  -0.365  -1.191  0.00  0.00     0.077 C 
ATOM      2  C1  UNL d   1       0.510  -0.492  -0.117  0.00  0.00    -0.074 A 
ATOM      3  C2  UNL d   1       0.876  -0.723   1.213  0.00  0.00    -0.005 A 
ATOM      4  C3  UNL d   1      -0.101  -0.830   2.202  0.00  0.00     0.006 A 
ATOM      5  C4  UNL d   1      -1.452  -0.708   1.872  0.00  0.00    -0.005 A 
ATOM      6  C5  UNL d   1      -1.836  -0.477   0.548  0.00  0.00    -0.074 A 
ATOM      7  C6  UNL d   1      -3.282  -0.334   0.177  0.00  0.00     0.077 C 
ATOM      8  C7  UNL d   1      -0.848  -0.364  -0.440  0.00  0.00    -0.001 A 
ENDROOT
TORSDOF 0
ENDMDL
