MODEL 1
REMARK minimizedAffinity -1.74608564
REMARK minimizedRMSD -1
REMARK  0 active torsions:
REMARK  status: ('A' for Active; 'I' for Inactive)
ROOT
ATOM      1  C   UNL d   1       0.162   5.475   4.894  0.00  0.00     0.077 C 
ATOM      2  C1  UNL d   1       1.648   5.665   4.826  0.00  0.00    -0.074 A 
ATOM      3  C2  UNL d   1       2.415   5.755   5.992  0.00  0.00    -0.005 A 
ATOM      4  C3  UNL d   1       3.798   5.922   5.913  0.00  0.00     0.006 A 
ATOM      5  C4  UNL d   1       4.426   6.000   4.670  0.00  0.00    -0.005 A 
ATOM      6  C5  UNL d   1       3.676   5.911   3.493  0.00  0.00    -0.074 A 
ATOM      7  C6  UNL d   1       4.337   5.983   2.149  0.00  0.00     0.077 C 
ATOM      8  C7  UNL d   1       2.288   5.736   3.581  0.00  0.00    -0.001 A 
ENDROOT
TORSDOF 0
ENDMDL
