MODEL 1
REMARK minimizedAffinity 1.46335196
REMARK minimizedRMSD -1
REMARK  0 active torsions:
REMARK  status: ('A' for Active; 'I' for Inactive)
ROOT
ATOM      1  C   UNL d   1      -0.527   5.999   4.505  0.00  0.00     0.077 C 
ATOM      2  C1  UNL d   1       0.967   5.873   4.558  0.00  0.00    -0.074 A 
ATOM      3  C2  UNL d   1       1.657   5.997   5.768  0.00  0.00    -0.005 A 
ATOM      4  C3  UNL d   1       3.045   5.868   5.803  0.00  0.00     0.006 A 
ATOM      5  C4  UNL d   1       3.757   5.615   4.630  0.00  0.00    -0.005 A 
ATOM      6  C5  UNL d   1       3.084   5.487   3.410  0.00  0.00    -0.074 A 
ATOM      7  C6  UNL d   1       3.833   5.204   2.142  0.00  0.00     0.077 C 
ATOM      8  C7  UNL d   1       1.689   5.611   3.385  0.00  0.00    -0.001 A 
ENDROOT
TORSDOF 0
ENDMDL
