MODEL 1
REMARK minimizedAffinity 1.61470258
REMARK minimizedRMSD -1
REMARK  0 active torsions:
REMARK  status: ('A' for Active; 'I' for Inactive)
ROOT
ATOM      1  C   UNL d   1       3.718   5.984   2.005  0.00  0.00     0.077 C 
ATOM      2  C1  UNL d   1       3.131   5.982   3.385  0.00  0.00    -0.074 A 
ATOM      3  C2  UNL d   1       3.953   5.992   4.516  0.00  0.00    -0.005 A 
ATOM      4  C3  UNL d   1       3.393   6.000   5.793  0.00  0.00     0.006 A 
ATOM      5  C4  UNL d   1       2.006   5.997   5.952  0.00  0.00    -0.005 A 
ATOM      6  C5  UNL d   1       1.168   5.987   4.833  0.00  0.00    -0.074 A 
ATOM      7  C6  UNL d   1      -0.324   5.994   4.986  0.00  0.00     0.077 C 
ATOM      8  C7  UNL d   1       1.739   5.987   3.553  0.00  0.00    -0.001 A 
ENDROOT
TORSDOF 0
ENDMDL
