MODEL 1
REMARK minimizedAffinity 10.9145041
REMARK minimizedRMSD -1
REMARK  3 active torsions:
REMARK  status: ('A' for Active; 'I' for Inactive)
REMARK    1  A    between atoms: C3'_2  and  C2'_3 
REMARK    2  A    between atoms: C2'_3  and  C1'_4 
REMARK    3  A    between atoms: C1'_4  and  C1_5 
ROOT
ATOM      1  C1  N4B d   1      -2.254   1.576   2.489  0.00  0.00    -0.075 A 
ATOM      2  C2  N4B d   1      -1.103   2.253   2.948  0.00  0.00     0.002 A 
ATOM      3  C3  N4B d   1      -0.079   2.535   2.078  0.00  0.00     0.002 A 
ATOM      4  C4  N4B d   1      -0.175   2.135   0.753  0.00  0.00    -0.004 A 
ATOM      5  C5  N4B d   1      -1.301   1.505   0.312  0.00  0.00     0.002 A 
ATOM      6  C6  N4B d   1      -2.340   1.218   1.174  0.00  0.00     0.002 A 
ENDROOT
BRANCH   1   7
ATOM      7  C1' N4B d   1      -3.362   1.170   3.422  0.00  0.00     0.057 C 
BRANCH   7   8
ATOM      8  C2' N4B d   1      -4.146   0.019   2.798  0.00  0.00     0.009 C 
BRANCH   8   9
ATOM      9  C3' N4B d   1      -4.911  -0.778   3.840  0.00  0.00     0.004 C 
ATOM     10  C4' N4B d   1      -4.176  -2.007   4.286  0.00  0.00     0.003 C 
ENDBRANCH   8   9
ENDBRANCH   7   8
ENDBRANCH   1   7
TORSDOF 3
ENDMDL
