MODEL 1
REMARK minimizedAffinity 11.6502714
REMARK minimizedRMSD -1
REMARK  3 active torsions:
REMARK  status: ('A' for Active; 'I' for Inactive)
REMARK    1  A    between atoms: C3'_2  and  C2'_3 
REMARK    2  A    between atoms: C2'_3  and  C1'_4 
REMARK    3  A    between atoms: C1'_4  and  C1_5 
ROOT
ATOM      1  C1  N4B d   1      -1.553   2.645   0.057  0.00  0.00    -0.075 A 
ATOM      2  C2  N4B d   1      -2.025   2.699  -1.273  0.00  0.00     0.002 A 
ATOM      3  C3  N4B d   1      -1.154   2.964  -2.301  0.00  0.00     0.002 A 
ATOM      4  C4  N4B d   1       0.184   3.197  -2.023  0.00  0.00    -0.004 A 
ATOM      5  C5  N4B d   1       0.638   3.118  -0.738  0.00  0.00     0.002 A 
ATOM      6  C6  N4B d   1      -0.226   2.848   0.304  0.00  0.00     0.002 A 
ENDROOT
BRANCH   1   7
ATOM      7  C1' N4B d   1      -2.482   2.444   1.223  0.00  0.00     0.057 C 
BRANCH   7   8
ATOM      8  C2' N4B d   1      -2.720   3.784   1.911  0.00  0.00     0.009 C 
BRANCH   8   9
ATOM      9  C3' N4B d   1      -3.728   4.637   1.161  0.00  0.00     0.004 C 
ATOM     10  C4' N4B d   1      -3.902   5.998   1.767  0.00  0.00     0.003 C 
ENDBRANCH   8   9
ENDBRANCH   7   8
ENDBRANCH   1   7
TORSDOF 3
ENDMDL
