MODEL 1
REMARK minimizedAffinity 12.5777502
REMARK minimizedRMSD -1
REMARK  3 active torsions:
REMARK  status: ('A' for Active; 'I' for Inactive)
REMARK    1  A    between atoms: C3'_2  and  C2'_3 
REMARK    2  A    between atoms: C2'_3  and  C1'_4 
REMARK    3  A    between atoms: C1'_4  and  C1_5 
ROOT
ATOM      1  C1  N4B d   1      -1.598   1.640  -1.936  0.00  0.00    -0.075 A 
ATOM      2  C2  N4B d   1      -2.406   2.040  -3.023  0.00  0.00     0.002 A 
ATOM      3  C3  N4B d   1      -3.722   1.653  -3.079  0.00  0.00     0.002 A 
ATOM      4  C4  N4B d   1      -4.246   0.854  -2.073  0.00  0.00    -0.004 A 
ATOM      5  C5  N4B d   1      -3.465   0.494  -1.014  0.00  0.00     0.002 A 
ATOM      6  C6  N4B d   1      -2.142   0.878  -0.943  0.00  0.00     0.002 A 
ENDROOT
BRANCH   1   7
ATOM      7  C1' N4B d   1      -0.131   1.966  -1.875  0.00  0.00     0.057 C 
BRANCH   7   8
ATOM      8  C2' N4B d   1       0.082   3.405  -2.338  0.00  0.00     0.009 C 
BRANCH   8   9
ATOM      9  C3' N4B d   1       0.839   4.226  -1.308  0.00  0.00     0.004 C 
ATOM     10  C4' N4B d   1       0.909   3.557   0.032  0.00  0.00     0.003 C 
ENDBRANCH   8   9
ENDBRANCH   7   8
ENDBRANCH   1   7
TORSDOF 3
ENDMDL
