MODEL 1
REMARK minimizedAffinity 7.43990326
REMARK minimizedRMSD -1
REMARK  3 active torsions:
REMARK  status: ('A' for Active; 'I' for Inactive)
REMARK    1  A    between atoms: C3'_2  and  C2'_3 
REMARK    2  A    between atoms: C2'_3  and  C1'_4 
REMARK    3  A    between atoms: C1'_4  and  C1_5 
ROOT
ATOM      1  C1  N4B d   1       0.035   3.505   0.628  0.00  0.00    -0.075 A 
ATOM      2  C2  N4B d   1      -0.724   2.864   1.631  0.00  0.00     0.002 A 
ATOM      3  C3  N4B d   1      -0.289   2.876   2.934  0.00  0.00     0.002 A 
ATOM      4  C4  N4B d   1       0.907   3.503   3.252  0.00  0.00    -0.004 A 
ATOM      5  C5  N4B d   1       1.621   4.142   2.281  0.00  0.00     0.002 A 
ATOM      6  C6  N4B d   1       1.193   4.141   0.968  0.00  0.00     0.002 A 
ENDROOT
BRANCH   1   7
ATOM      7  C1' N4B d   1      -0.356   3.445  -0.824  0.00  0.00     0.057 C 
BRANCH   7   8
ATOM      8  C2' N4B d   1      -1.056   2.118  -1.099  0.00  0.00     0.009 C 
BRANCH   8   9
ATOM      9  C3' N4B d   1      -2.437   2.317  -1.701  0.00  0.00     0.004 C 
ATOM     10  C4' N4B d   1      -3.319   1.115  -1.541  0.00  0.00     0.003 C 
ENDBRANCH   8   9
ENDBRANCH   7   8
ENDBRANCH   1   7
TORSDOF 3
ENDMDL
