MODEL 1
REMARK minimizedAffinity 13.4377794
REMARK minimizedRMSD -1
REMARK  3 active torsions:
REMARK  status: ('A' for Active; 'I' for Inactive)
REMARK    1  A    between atoms: C3'_2  and  C2'_3 
REMARK    2  A    between atoms: C2'_3  and  C1'_4 
REMARK    3  A    between atoms: C1'_4  and  C1_5 
ROOT
ATOM      1  C1  N4B d   1       4.677  -3.084  -0.428  0.00  0.00    -0.075 A 
ATOM      2  C2  N4B d   1       4.867  -1.704  -0.657  0.00  0.00     0.002 A 
ATOM      3  C3  N4B d   1       3.840  -0.821  -0.429  0.00  0.00     0.002 A 
ATOM      4  C4  N4B d   1       2.613  -1.296   0.009  0.00  0.00    -0.004 A 
ATOM      5  C5  N4B d   1       2.444  -2.628   0.252  0.00  0.00     0.002 A 
ATOM      6  C6  N4B d   1       3.469  -3.526   0.031  0.00  0.00     0.002 A 
ENDROOT
BRANCH   1   7
ATOM      7  C1' N4B d   1       5.743  -4.097  -0.745  0.00  0.00     0.057 C 
BRANCH   7   8
ATOM      8  C2' N4B d   1       5.165  -5.500  -0.586  0.00  0.00     0.009 C 
BRANCH   8   9
ATOM      9  C3' N4B d   1       4.526  -6.000  -1.870  0.00  0.00     0.004 C 
ATOM     10  C4' N4B d   1       3.027  -5.999  -1.812  0.00  0.00     0.003 C 
ENDBRANCH   8   9
ENDBRANCH   7   8
ENDBRANCH   1   7
TORSDOF 3
ENDMDL
