MODEL 1
REMARK minimizedAffinity 14.3918095
REMARK minimizedRMSD -1
REMARK  3 active torsions:
REMARK  status: ('A' for Active; 'I' for Inactive)
REMARK    1  A    between atoms: C3'_2  and  C2'_3 
REMARK    2  A    between atoms: C2'_3  and  C1'_4 
REMARK    3  A    between atoms: C1'_4  and  C1_5 
ROOT
ATOM      1  C1  N4B d   1      -2.940  -4.863  -4.287  0.00  0.00    -0.075 A 
ATOM      2  C2  N4B d   1      -3.363  -4.801  -5.633  0.00  0.00     0.002 A 
ATOM      3  C3  N4B d   1      -4.572  -5.340  -5.998  0.00  0.00     0.002 A 
ATOM      4  C4  N4B d   1      -5.363  -5.960  -5.043  0.00  0.00    -0.004 A 
ATOM      5  C5  N4B d   1      -4.960  -5.993  -3.740  0.00  0.00     0.002 A 
ATOM      6  C6  N4B d   1      -3.749  -5.452  -3.358  0.00  0.00     0.002 A 
ENDROOT
BRANCH   1   7
ATOM      7  C1' N4B d   1      -1.588  -4.364  -3.855  0.00  0.00     0.057 C 
BRANCH   7   8
ATOM      8  C2' N4B d   1      -0.591  -4.576  -4.990  0.00  0.00     0.009 C 
BRANCH   8   9
ATOM      9  C3' N4B d   1       0.719  -3.848  -4.739  0.00  0.00     0.004 C 
ATOM     10  C4' N4B d   1       1.915  -4.743  -4.868  0.00  0.00     0.003 C 
ENDBRANCH   8   9
ENDBRANCH   7   8
ENDBRANCH   1   7
TORSDOF 3
ENDMDL
