MODEL 1
REMARK minimizedAffinity 6.18659544
REMARK minimizedRMSD -1
REMARK  3 active torsions:
REMARK  status: ('A' for Active; 'I' for Inactive)
REMARK    1  A    between atoms: C3'_2  and  C2'_3 
REMARK    2  A    between atoms: C2'_3  and  C1'_4 
REMARK    3  A    between atoms: C1'_4  and  C1_5 
ROOT
ATOM      1  C1  N4B d   1      -0.128   2.097   1.617  0.00  0.00    -0.075 A 
ATOM      2  C2  N4B d   1      -0.528   1.509   0.397  0.00  0.00     0.002 A 
ATOM      3  C3  N4B d   1      -0.536   2.255  -0.755  0.00  0.00     0.002 A 
ATOM      4  C4  N4B d   1      -0.168   3.592  -0.709  0.00  0.00    -0.004 A 
ATOM      5  C5  N4B d   1       0.241   4.146   0.468  0.00  0.00     0.002 A 
ATOM      6  C6  N4B d   1       0.258   3.406   1.634  0.00  0.00     0.002 A 
ENDROOT
BRANCH   1   7
ATOM      7  C1' N4B d   1      -0.185   1.345   2.918  0.00  0.00     0.057 C 
BRANCH   7   8
ATOM      8  C2' N4B d   1       0.836   0.211   2.886  0.00  0.00     0.009 C 
BRANCH   8   9
ATOM      9  C3' N4B d   1       0.601  -0.797   3.998  0.00  0.00     0.004 C 
ATOM     10  C4' N4B d   1       1.499  -1.994   3.896  0.00  0.00     0.003 C 
ENDBRANCH   8   9
ENDBRANCH   7   8
ENDBRANCH   1   7
TORSDOF 3
ENDMDL
