MODEL 1
REMARK minimizedAffinity 7.37604856
REMARK minimizedRMSD -1
REMARK  1 active torsions:
REMARK  status: ('A' for Active; 'I' for Inactive)
REMARK    1  A    between atoms: C1_2  and  C2_3 
ROOT
ATOM      1  C2  UNL d   1       3.843  -0.080   1.478  0.00  0.00    -0.077 A 
ATOM      2  C3  UNL d   1       4.328  -0.584   2.693  0.00  0.00     0.002 A 
ATOM      3  C4  UNL d   1       3.508  -0.613   3.823  0.00  0.00     0.002 A 
ATOM      4  C5  UNL d   1       2.199  -0.143   3.748  0.00  0.00    -0.004 A 
ATOM      5  C6  UNL d   1       1.708   0.362   2.545  0.00  0.00     0.002 A 
ATOM      6  C7  UNL d   1       2.526   0.392   1.414  0.00  0.00     0.002 A 
ENDROOT
BRANCH   1   7
ATOM      7  C1  UNL d   1       4.710  -0.094   0.246  0.00  0.00     0.055 C 
ATOM      8  C   UNL d   1       5.999  -0.865   0.484  0.00  0.00     0.019 C 
ENDBRANCH   1   7
TORSDOF 1
ENDMDL
