MODEL 1
REMARK minimizedAffinity 1.21802998
REMARK minimizedRMSD -1
REMARK  1 active torsions:
REMARK  status: ('A' for Active; 'I' for Inactive)
REMARK    1  A    between atoms: C1_2  and  C2_3 
ROOT
ATOM      1  C2  UNL d   1       3.539   1.398  -0.949  0.00  0.00    -0.077 A 
ATOM      2  C3  UNL d   1       4.348   0.282  -0.692  0.00  0.00     0.002 A 
ATOM      3  C4  UNL d   1       4.212  -0.428   0.502  0.00  0.00     0.002 A 
ATOM      4  C5  UNL d   1       3.267  -0.033   1.446  0.00  0.00    -0.004 A 
ATOM      5  C6  UNL d   1       2.459   1.076   1.201  0.00  0.00     0.002 A 
ATOM      6  C7  UNL d   1       2.594   1.789   0.008  0.00  0.00     0.002 A 
ENDROOT
BRANCH   1   7
ATOM      7  C1  UNL d   1       3.650   2.137  -2.258  0.00  0.00     0.055 C 
ATOM      8  C   UNL d   1       4.010   1.194  -3.396  0.00  0.00     0.019 C 
ENDBRANCH   1   7
TORSDOF 1
ENDMDL
