MODEL 1
REMARK minimizedAffinity 9.51308823
REMARK minimizedRMSD -1
REMARK  1 active torsions:
REMARK  status: ('A' for Active; 'I' for Inactive)
REMARK    1  A    between atoms: C1_2  and  C2_3 
ROOT
ATOM      1  C2  UNL d   1       4.854  -1.029   3.578  0.00  0.00    -0.077 A 
ATOM      2  C3  UNL d   1       5.756  -0.999   2.505  0.00  0.00     0.002 A 
ATOM      3  C4  UNL d   1       5.289  -0.920   1.192  0.00  0.00     0.002 A 
ATOM      4  C5  UNL d   1       3.920  -0.867   0.939  0.00  0.00    -0.004 A 
ATOM      5  C6  UNL d   1       3.015  -0.899   1.999  0.00  0.00     0.002 A 
ATOM      6  C7  UNL d   1       3.480  -0.978   3.313  0.00  0.00     0.002 A 
ENDROOT
BRANCH   1   7
ATOM      7  C1  UNL d   1       5.357  -1.064   4.997  0.00  0.00     0.055 C 
ATOM      8  C   UNL d   1       5.997   0.260   5.390  0.00  0.00     0.019 C 
ENDBRANCH   1   7
TORSDOF 1
ENDMDL
