MODEL 1
REMARK minimizedAffinity 8.73286438
REMARK minimizedRMSD -1
REMARK  1 active torsions:
REMARK  status: ('A' for Active; 'I' for Inactive)
REMARK    1  A    between atoms: C1_2  and  C2_3 
ROOT
ATOM      1  C2  UNL d   1      -5.291   0.765   5.090  0.00  0.00    -0.077 A 
ATOM      2  C3  UNL d   1      -4.741   0.373   3.862  0.00  0.00     0.002 A 
ATOM      3  C4  UNL d   1      -4.044   1.292   3.074  0.00  0.00     0.002 A 
ATOM      4  C5  UNL d   1      -3.888   2.606   3.508  0.00  0.00    -0.004 A 
ATOM      5  C6  UNL d   1      -4.433   3.007   4.727  0.00  0.00     0.002 A 
ATOM      6  C7  UNL d   1      -5.130   2.090   5.515  0.00  0.00     0.002 A 
ENDROOT
BRANCH   1   7
ATOM      7  C1  UNL d   1      -6.000  -0.236   5.964  0.00  0.00     0.055 C 
ATOM      8  C   UNL d   1      -5.997  -1.621   5.333  0.00  0.00     0.019 C 
ENDBRANCH   1   7
TORSDOF 1
ENDMDL
