MODEL 1
REMARK minimizedAffinity 10.8073997
REMARK minimizedRMSD -1
REMARK  1 active torsions:
REMARK  status: ('A' for Active; 'I' for Inactive)
REMARK    1  A    between atoms: C1_2  and  C2_3 
ROOT
ATOM      1  C2  UNL d   1       2.664  -0.010   2.616  0.00  0.00    -0.077 A 
ATOM      2  C3  UNL d   1       2.462   0.955   1.620  0.00  0.00     0.002 A 
ATOM      3  C4  UNL d   1       1.259   1.660   1.553  0.00  0.00     0.002 A 
ATOM      4  C5  UNL d   1       0.251   1.410   2.482  0.00  0.00    -0.004 A 
ATOM      5  C6  UNL d   1       0.441   0.451   3.475  0.00  0.00     0.002 A 
ATOM      6  C7  UNL d   1       1.643  -0.255   3.543  0.00  0.00     0.002 A 
ENDROOT
BRANCH   1   7
ATOM      7  C1  UNL d   1       3.980  -0.736   2.720  0.00  0.00     0.055 C 
ATOM      8  C   UNL d   1       4.522  -0.699   4.142  0.00  0.00     0.019 C 
ENDBRANCH   1   7
TORSDOF 1
ENDMDL
