MODEL 1
REMARK minimizedAffinity 19.0775166
REMARK minimizedRMSD -1
REMARK  1 active torsions:
REMARK  status: ('A' for Active; 'I' for Inactive)
REMARK    1  A    between atoms: C1_2  and  C2_3 
ROOT
ATOM      1  C2  UNL d   1       3.858  -0.695   3.187  0.00  0.00    -0.077 A 
ATOM      2  C3  UNL d   1       3.738  -0.289   1.851  0.00  0.00     0.002 A 
ATOM      3  C4  UNL d   1       2.506   0.135   1.349  0.00  0.00     0.002 A 
ATOM      4  C5  UNL d   1       1.386   0.162   2.178  0.00  0.00    -0.004 A 
ATOM      5  C6  UNL d   1       1.495  -0.241   3.508  0.00  0.00     0.002 A 
ATOM      6  C7  UNL d   1       2.725  -0.667   4.011  0.00  0.00     0.002 A 
ENDROOT
BRANCH   1   7
ATOM      7  C1  UNL d   1       5.196  -1.106   3.743  0.00  0.00     0.055 C 
ATOM      8  C   UNL d   1       5.493  -0.393   5.055  0.00  0.00     0.019 C 
ENDBRANCH   1   7
TORSDOF 1
ENDMDL
