MODEL 1
REMARK minimizedAffinity 10.6135845
REMARK minimizedRMSD -1
REMARK  1 active torsions:
REMARK  status: ('A' for Active; 'I' for Inactive)
REMARK    1  A    between atoms: C1_2  and  C2_3 
ROOT
ATOM      1  C2  UNL d   1      -3.697   2.160   4.250  0.00  0.00    -0.077 A 
ATOM      2  C3  UNL d   1      -4.344   2.757   5.341  0.00  0.00     0.002 A 
ATOM      3  C4  UNL d   1      -5.386   2.094   5.994  0.00  0.00     0.002 A 
ATOM      4  C5  UNL d   1      -5.786   0.830   5.566  0.00  0.00    -0.004 A 
ATOM      5  C6  UNL d   1      -5.150   0.229   4.480  0.00  0.00     0.002 A 
ATOM      6  C7  UNL d   1      -4.110   0.891   3.826  0.00  0.00     0.002 A 
ENDROOT
BRANCH   1   7
ATOM      7  C1  UNL d   1      -2.541   2.852   3.576  0.00  0.00     0.055 C 
ATOM      8  C   UNL d   1      -1.211   2.246   3.998  0.00  0.00     0.019 C 
ENDBRANCH   1   7
TORSDOF 1
ENDMDL
