MODEL 1
REMARK minimizedAffinity 5.30234623
REMARK minimizedRMSD -1
REMARK  1 active torsions:
REMARK  status: ('A' for Active; 'I' for Inactive)
REMARK    1  A    between atoms: C1_2  and  C2_3 
ROOT
ATOM      1  C2  UNL d   1       2.928   3.792  -4.830  0.00  0.00    -0.077 A 
ATOM      2  C3  UNL d   1       2.871   4.220  -3.496  0.00  0.00     0.002 A 
ATOM      3  C4  UNL d   1       3.534   3.506  -2.496  0.00  0.00     0.002 A 
ATOM      4  C5  UNL d   1       4.262   2.363  -2.820  0.00  0.00    -0.004 A 
ATOM      5  C6  UNL d   1       4.323   1.928  -4.143  0.00  0.00     0.002 A 
ATOM      6  C7  UNL d   1       3.660   2.639  -5.144  0.00  0.00     0.002 A 
ENDROOT
BRANCH   1   7
ATOM      7  C1  UNL d   1       2.255   4.588  -5.916  0.00  0.00     0.055 C 
ATOM      8  C   UNL d   1       2.818   6.000  -5.998  0.00  0.00     0.019 C 
ENDBRANCH   1   7
TORSDOF 1
ENDMDL
