MODEL 1
REMARK minimizedAffinity -2.18094826
REMARK minimizedRMSD -1
REMARK  0 active torsions:
REMARK  status: ('A' for Active; 'I' for Inactive)
ROOT
ATOM      1  C   UNL d   1       1.543   4.873  -5.403  0.00  0.00     0.172 C 
ATOM      2  N   UNL d   1       2.845   4.266  -5.549  0.00  0.00    -0.070 N 
ATOM      3  C1  UNL d   1       3.155   2.964  -5.262  0.00  0.00    -0.004 A 
ATOM      4  C2  UNL d   1       4.494   2.779  -5.534  0.00  0.00    -0.047 A 
ATOM      5  C3  UNL d   1       5.006   4.014  -5.999  0.00  0.00    -0.047 A 
ATOM      6  C4  UNL d   1       3.964   4.917  -5.998  0.00  0.00    -0.004 A 
ENDROOT
TORSDOF 0
ENDMDL
