MODEL 1
REMARK minimizedAffinity -1.71882606
REMARK minimizedRMSD -1
REMARK  0 active torsions:
REMARK  status: ('A' for Active; 'I' for Inactive)
ROOT
ATOM      1  C   UNL d   1       5.954   4.743  -6.000  0.00  0.00     0.172 C 
ATOM      2  N   UNL d   1       4.867   3.925  -5.517  0.00  0.00    -0.070 N 
ATOM      3  C1  UNL d   1       3.586   3.933  -6.000  0.00  0.00    -0.004 A 
ATOM      4  C2  UNL d   1       2.856   3.014  -5.277  0.00  0.00    -0.047 A 
ATOM      5  C3  UNL d   1       3.728   2.435  -4.325  0.00  0.00    -0.047 A 
ATOM      6  C4  UNL d   1       4.967   3.017  -4.496  0.00  0.00    -0.004 A 
ENDROOT
TORSDOF 0
ENDMDL
