MODEL 1
REMARK minimizedAffinity -1.3698765
REMARK minimizedRMSD -1
REMARK  0 active torsions:
REMARK  status: ('A' for Active; 'I' for Inactive)
ROOT
ATOM      1  C   UNL d   1       3.797   1.018  -5.247  0.00  0.00     0.172 C 
ATOM      2  N   UNL d   1       3.822   2.451  -5.431  0.00  0.00    -0.070 N 
ATOM      3  C1  UNL d   1       2.827   3.319  -5.069  0.00  0.00    -0.004 A 
ATOM      4  C2  UNL d   1       3.233   4.591  -5.411  0.00  0.00    -0.047 A 
ATOM      5  C3  UNL d   1       4.515   4.483  -6.000  0.00  0.00    -0.047 A 
ATOM      6  C4  UNL d   1       4.856   3.147  -5.999  0.00  0.00    -0.004 A 
ENDROOT
TORSDOF 0
ENDMDL
