MODEL 1
REMARK minimizedAffinity -2.77241874
REMARK minimizedRMSD -1
REMARK  0 active torsions:
REMARK  status: ('A' for Active; 'I' for Inactive)
ROOT
ATOM      1  C   UNL d   1       1.216   4.887  -5.557  0.00  0.00     0.172 C 
ATOM      2  N   UNL d   1       2.579   4.433  -5.697  0.00  0.00    -0.070 N 
ATOM      3  C1  UNL d   1       2.999   3.131  -5.624  0.00  0.00    -0.004 A 
ATOM      4  C2  UNL d   1       4.364   3.117  -5.809  0.00  0.00    -0.047 A 
ATOM      5  C3  UNL d   1       4.780   4.456  -6.000  0.00  0.00    -0.047 A 
ATOM      6  C4  UNL d   1       3.655   5.250  -5.926  0.00  0.00    -0.004 A 
ENDROOT
TORSDOF 0
ENDMDL
