MODEL 1
REMARK minimizedAffinity -2.19014549
REMARK minimizedRMSD -1
REMARK  0 active torsions:
REMARK  status: ('A' for Active; 'I' for Inactive)
ROOT
ATOM      1  C   UNL d   1       1.333   4.227  -5.996  0.00  0.00     0.172 C 
ATOM      2  N   UNL d   1       2.703   3.838  -5.759  0.00  0.00    -0.070 N 
ATOM      3  C1  UNL d   1       3.807   4.612  -6.000  0.00  0.00    -0.004 A 
ATOM      4  C2  UNL d   1       4.920   3.883  -5.643  0.00  0.00    -0.047 A 
ATOM      5  C3  UNL d   1       4.471   2.627  -5.172  0.00  0.00    -0.047 A 
ATOM      6  C4  UNL d   1       3.094   2.626  -5.254  0.00  0.00    -0.004 A 
ENDROOT
TORSDOF 0
ENDMDL
