MODEL 1
REMARK minimizedAffinity -2.55359817
REMARK minimizedRMSD -1
REMARK  0 active torsions:
REMARK  status: ('A' for Active; 'I' for Inactive)
ROOT
ATOM      1  C   UNL d   1       2.180   5.634  -5.909  0.00  0.00     0.172 C 
ATOM      2  N   UNL d   1       3.384   4.841  -5.828  0.00  0.00    -0.070 N 
ATOM      3  C1  UNL d   1       4.661   5.309  -5.984  0.00  0.00    -0.004 A 
ATOM      4  C2  UNL d   1       5.522   4.244  -5.833  0.00  0.00    -0.047 A 
ATOM      5  C3  UNL d   1       4.736   3.096  -5.578  0.00  0.00    -0.047 A 
ATOM      6  C4  UNL d   1       3.416   3.494  -5.580  0.00  0.00    -0.004 A 
ENDROOT
TORSDOF 0
ENDMDL
