MODEL 1
REMARK minimizedAffinity -0.220601395
REMARK minimizedRMSD -1
REMARK  0 active torsions:
REMARK  status: ('A' for Active; 'I' for Inactive)
ROOT
ATOM      1  C   UNL d   1       3.750   1.931  -5.997  0.00  0.00     0.172 C 
ATOM      2  N   UNL d   1       2.968   3.087  -5.625  0.00  0.00    -0.070 N 
ATOM      3  C1  UNL d   1       3.403   4.129  -4.849  0.00  0.00    -0.004 A 
ATOM      4  C2  UNL d   1       2.364   5.026  -4.728  0.00  0.00    -0.047 A 
ATOM      5  C3  UNL d   1       1.267   4.506  -5.454  0.00  0.00    -0.047 A 
ATOM      6  C4  UNL d   1       1.669   3.305  -6.000  0.00  0.00    -0.004 A 
ENDROOT
TORSDOF 0
ENDMDL
