MODEL 1
REMARK minimizedAffinity -2.06540871
REMARK minimizedRMSD -1
REMARK  0 active torsions:
REMARK  status: ('A' for Active; 'I' for Inactive)
ROOT
ATOM      1  C   UNL d   1       1.036   4.128  -5.665  0.00  0.00     0.172 C 
ATOM      2  N   UNL d   1       2.448   3.841  -5.753  0.00  0.00    -0.070 N 
ATOM      3  C1  UNL d   1       3.436   4.759  -5.991  0.00  0.00    -0.004 A 
ATOM      4  C2  UNL d   1       4.641   4.091  -5.999  0.00  0.00    -0.047 A 
ATOM      5  C3  UNL d   1       4.368   2.723  -5.759  0.00  0.00    -0.047 A 
ATOM      6  C4  UNL d   1       3.003   2.597  -5.611  0.00  0.00    -0.004 A 
ENDROOT
TORSDOF 0
ENDMDL
