MODEL 1
REMARK minimizedAffinity -2.55149889
REMARK minimizedRMSD -1
REMARK  0 active torsions:
REMARK  status: ('A' for Active; 'I' for Inactive)
ROOT
ATOM      1  C   UNL d   1       1.549   5.476  -5.996  0.00  0.00     0.172 C 
ATOM      2  N   UNL d   1       2.737   4.676  -5.805  0.00  0.00    -0.070 N 
ATOM      3  C1  UNL d   1       4.024   5.101  -5.996  0.00  0.00    -0.004 A 
ATOM      4  C2  UNL d   1       4.864   4.046  -5.709  0.00  0.00    -0.047 A 
ATOM      5  C3  UNL d   1       4.052   2.949  -5.333  0.00  0.00    -0.047 A 
ATOM      6  C4  UNL d   1       2.740   3.367  -5.401  0.00  0.00    -0.004 A 
ENDROOT
TORSDOF 0
ENDMDL
