MODEL 1
REMARK minimizedAffinity -2.45179653
REMARK minimizedRMSD -1
REMARK  0 active torsions:
REMARK  status: ('A' for Active; 'I' for Inactive)
ROOT
ATOM      1  C   UNL d   1       1.353   4.504  -5.214  0.00  0.00     0.172 C 
ATOM      2  N   UNL d   1       2.741   4.133  -5.367  0.00  0.00    -0.070 N 
ATOM      3  C1  UNL d   1       3.314   2.977  -4.907  0.00  0.00    -0.004 A 
ATOM      4  C2  UNL d   1       4.647   3.001  -5.253  0.00  0.00    -0.047 A 
ATOM      5  C3  UNL d   1       4.885   4.213  -5.943  0.00  0.00    -0.047 A 
ATOM      6  C4  UNL d   1       3.687   4.895  -6.000  0.00  0.00    -0.004 A 
ENDROOT
TORSDOF 0
ENDMDL
