MODEL 1
REMARK minimizedAffinity -2.95115471
REMARK minimizedRMSD -1
REMARK  0 active torsions:
REMARK  status: ('A' for Active; 'I' for Inactive)
ROOT
ATOM      1  C   UNL d   1       1.132   4.319  -5.403  0.00  0.00     0.172 C 
ATOM      2  N   UNL d   1       2.545   4.058  -5.547  0.00  0.00    -0.070 N 
ATOM      3  C1  UNL d   1       3.480   4.950  -5.999  0.00  0.00    -0.004 A 
ATOM      4  C2  UNL d   1       4.705   4.319  -5.988  0.00  0.00    -0.047 A 
ATOM      5  C3  UNL d   1       4.499   3.002  -5.514  0.00  0.00    -0.047 A 
ATOM      6  C4  UNL d   1       3.153   2.867  -5.249  0.00  0.00    -0.004 A 
ENDROOT
TORSDOF 0
ENDMDL
