MODEL 1
REMARK minimizedAffinity -2.98956084
REMARK minimizedRMSD -1
REMARK  0 active torsions:
REMARK  status: ('A' for Active; 'I' for Inactive)
ROOT
ATOM      1  C   UNL d   1       5.953   5.792  -5.998  0.00  0.00     0.172 C 
ATOM      2  N   UNL d   1       4.942   4.832  -5.621  0.00  0.00    -0.070 N 
ATOM      3  C1  UNL d   1       4.910   3.516  -6.000  0.00  0.00    -0.004 A 
ATOM      4  C2  UNL d   1       3.792   2.942  -5.434  0.00  0.00    -0.047 A 
ATOM      5  C3  UNL d   1       3.129   3.947  -4.690  0.00  0.00    -0.047 A 
ATOM      6  C4  UNL d   1       3.863   5.107  -4.823  0.00  0.00    -0.004 A 
ENDROOT
TORSDOF 0
ENDMDL
