MODEL 1
REMARK minimizedAffinity -2.60069251
REMARK minimizedRMSD -1
REMARK  0 active torsions:
REMARK  status: ('A' for Active; 'I' for Inactive)
ROOT
ATOM      1  C   UNL d   1       1.263   4.049  -6.000  0.00  0.00     0.172 C 
ATOM      2  N   UNL d   1       2.652   4.190  -5.630  0.00  0.00    -0.070 N 
ATOM      3  C1  UNL d   1       3.233   5.324  -5.128  0.00  0.00    -0.004 A 
ATOM      4  C2  UNL d   1       4.566   5.051  -4.904  0.00  0.00    -0.047 A 
ATOM      5  C3  UNL d   1       4.793   3.707  -5.285  0.00  0.00    -0.047 A 
ATOM      6  C4  UNL d   1       3.591   3.198  -5.731  0.00  0.00    -0.004 A 
ENDROOT
TORSDOF 0
ENDMDL
