MODEL 1
REMARK minimizedAffinity 1.57870924
REMARK minimizedRMSD -1
REMARK  0 active torsions:
REMARK  status: ('A' for Active; 'I' for Inactive)
ROOT
ATOM      1  C   UNL d   1       2.437   2.544  -5.991  0.00  0.00     0.172 C 
ATOM      2  N   UNL d   1       2.293   3.949  -5.691  0.00  0.00    -0.070 N 
ATOM      3  C1  UNL d   1       1.201   4.721  -5.984  0.00  0.00    -0.004 A 
ATOM      4  C2  UNL d   1       1.455   6.000  -5.537  0.00  0.00    -0.047 A 
ATOM      5  C3  UNL d   1       2.745   5.997  -4.957  0.00  0.00    -0.047 A 
ATOM      6  C4  UNL d   1       3.242   4.715  -5.066  0.00  0.00    -0.004 A 
ENDROOT
TORSDOF 0
ENDMDL
