MODEL 1
REMARK minimizedAffinity -2.39566684
REMARK minimizedRMSD -1
REMARK  0 active torsions:
REMARK  status: ('A' for Active; 'I' for Inactive)
ROOT
ATOM      1  C   UNL d   1       3.750   2.388  -5.625  0.00  0.00     0.172 C 
ATOM      2  N   UNL d   1       3.383   3.780  -5.512  0.00  0.00    -0.070 N 
ATOM      3  C1  UNL d   1       2.252   4.260  -4.906  0.00  0.00    -0.004 A 
ATOM      4  C2  UNL d   1       2.270   5.634  -5.009  0.00  0.00    -0.047 A 
ATOM      5  C3  UNL d   1       3.452   5.992  -5.700  0.00  0.00    -0.047 A 
ATOM      6  C4  UNL d   1       4.122   4.825  -6.000  0.00  0.00    -0.004 A 
ENDROOT
TORSDOF 0
ENDMDL
