MODEL 1
REMARK minimizedAffinity -1.39329982
REMARK minimizedRMSD -1
REMARK  0 active torsions:
REMARK  status: ('A' for Active; 'I' for Inactive)
ROOT
ATOM      1  C   UNL d   1       4.059   2.155  -5.988  0.00  0.00     0.172 C 
ATOM      2  N   UNL d   1       3.871   3.587  -5.992  0.00  0.00    -0.070 N 
ATOM      3  C1  UNL d   1       4.870   4.523  -5.997  0.00  0.00    -0.004 A 
ATOM      4  C2  UNL d   1       4.281   5.769  -6.000  0.00  0.00    -0.047 A 
ATOM      5  C3  UNL d   1       2.879   5.575  -5.995  0.00  0.00    -0.047 A 
ATOM      6  C4  UNL d   1       2.653   4.215  -5.990  0.00  0.00    -0.004 A 
ENDROOT
TORSDOF 0
ENDMDL
