MODEL 1
REMARK minimizedAffinity -2.81459403
REMARK minimizedRMSD -1
REMARK  0 active torsions:
REMARK  status: ('A' for Active; 'I' for Inactive)
ROOT
ATOM      1  C   UNL d   1       1.345   4.566  -5.781  0.00  0.00     0.172 C 
ATOM      2  N   UNL d   1       2.612   3.986  -5.403  0.00  0.00    -0.070 N 
ATOM      3  C1  UNL d   1       3.200   2.899  -5.994  0.00  0.00    -0.004 A 
ATOM      4  C2  UNL d   1       4.395   2.663  -5.348  0.00  0.00    -0.047 A 
ATOM      5  C3  UNL d   1       4.529   3.642  -4.334  0.00  0.00    -0.047 A 
ATOM      6  C4  UNL d   1       3.411   4.447  -4.391  0.00  0.00    -0.004 A 
ENDROOT
TORSDOF 0
ENDMDL
