MODEL 1
REMARK minimizedAffinity -3.246737
REMARK minimizedRMSD -1
REMARK  0 active torsions:
REMARK  status: ('A' for Active; 'I' for Inactive)
ROOT
ATOM      1  C2' OXE d   1       0.696   1.801  -0.053  0.00  0.00     0.078 C 
ATOM      2  C1' OXE d   1      -0.342   0.464  -2.292  0.00  0.00     0.078 C 
ATOM      3  C1  OXE d   1      -0.384  -0.250  -0.964  0.00  0.00    -0.078 A 
ATOM      4  C2  OXE d   1       0.168   0.393   0.117  0.00  0.00    -0.078 A 
ATOM      5  C3  OXE d   1       0.106  -0.198   1.376  0.00  0.00     0.003 A 
ATOM      6  C4  OXE d   1      -0.375  -1.504   1.523  0.00  0.00    -0.002 A 
ATOM      7  C5  OXE d   1      -0.906  -2.193   0.427  0.00  0.00    -0.002 A 
ATOM      8  C6  OXE d   1      -0.957  -1.565  -0.813  0.00  0.00     0.003 A 
ENDROOT
TORSDOF 0
ENDMDL
