MODEL 1
REMARK minimizedAffinity -1.78418779
REMARK minimizedRMSD -1
REMARK  0 active torsions:
REMARK  status: ('A' for Active; 'I' for Inactive)
ROOT
ATOM      1  C2' OXE d   1       0.176  -0.020  -2.437  0.00  0.00     0.078 C 
ATOM      2  C1' OXE d   1      -0.045   1.767  -0.283  0.00  0.00     0.078 C 
ATOM      3  C1  OXE d   1      -0.282   0.303  -0.009  0.00  0.00    -0.078 A 
ATOM      4  C2  OXE d   1      -0.218  -0.559  -1.078  0.00  0.00    -0.078 A 
ATOM      5  C3  OXE d   1      -0.376  -1.926  -0.871  0.00  0.00     0.003 A 
ATOM      6  C4  OXE d   1      -0.750  -2.415   0.386  0.00  0.00    -0.002 A 
ATOM      7  C5  OXE d   1      -0.859  -1.549   1.480  0.00  0.00    -0.002 A 
ATOM      8  C6  OXE d   1      -0.588  -0.196   1.308  0.00  0.00     0.003 A 
ENDROOT
TORSDOF 0
ENDMDL
