MODEL 1
REMARK minimizedAffinity -1.69669557
REMARK minimizedRMSD -1
REMARK  0 active torsions:
REMARK  status: ('A' for Active; 'I' for Inactive)
ROOT
ATOM      1  C2' OXE d   1       0.011   2.536  -0.032  0.00  0.00     0.078 C 
ATOM      2  C1' OXE d   1       2.306   3.782   0.996  0.00  0.00     0.078 C 
ATOM      3  C1  OXE d   1       0.965   4.264   1.488  0.00  0.00    -0.078 A 
ATOM      4  C2  OXE d   1      -0.155   3.680   0.945  0.00  0.00    -0.078 A 
ATOM      5  C3  OXE d   1      -1.416   4.049   1.403  0.00  0.00     0.003 A 
ATOM      6  C4  OXE d   1      -1.560   5.115   2.300  0.00  0.00    -0.002 A 
ATOM      7  C5  OXE d   1      -0.435   5.750   2.835  0.00  0.00    -0.002 A 
ATOM      8  C6  OXE d   1       0.833   5.309   2.473  0.00  0.00     0.003 A 
ENDROOT
TORSDOF 0
ENDMDL
