MODEL 1
REMARK minimizedAffinity -3.99371624
REMARK minimizedRMSD -1
REMARK  0 active torsions:
REMARK  status: ('A' for Active; 'I' for Inactive)
ROOT
ATOM      1  C2' OXE d   1       0.102  -1.461  -1.000  0.00  0.00     0.078 C 
ATOM      2  C1' OXE d   1       0.065   1.183  -0.058  0.00  0.00     0.078 C 
ATOM      3  C1  OXE d   1      -0.479   0.107   0.847  0.00  0.00    -0.078 A 
ATOM      4  C2  OXE d   1      -0.500  -1.178   0.360  0.00  0.00    -0.078 A 
ATOM      5  C3  OXE d   1      -0.941  -2.217   1.175  0.00  0.00     0.003 A 
ATOM      6  C4  OXE d   1      -1.505  -1.945   2.427  0.00  0.00    -0.002 A 
ATOM      7  C5  OXE d   1      -1.530  -0.639   2.926  0.00  0.00    -0.002 A 
ATOM      8  C6  OXE d   1      -0.983   0.391   2.168  0.00  0.00     0.003 A 
ENDROOT
TORSDOF 0
ENDMDL
