MODEL 1
REMARK minimizedAffinity -4.33171844
REMARK minimizedRMSD -1
REMARK  0 active torsions:
REMARK  status: ('A' for Active; 'I' for Inactive)
ROOT
ATOM      1  C2' OXE d   1      -0.172  -2.249  -2.351  0.00  0.00     0.078 C 
ATOM      2  C1' OXE d   1      -0.876  -2.640   0.338  0.00  0.00     0.078 C 
ATOM      3  C1  OXE d   1      -0.561  -1.235  -0.109  0.00  0.00    -0.078 A 
ATOM      4  C2  OXE d   1      -0.172  -1.060  -1.415  0.00  0.00    -0.078 A 
ATOM      5  C3  OXE d   1       0.078   0.223  -1.894  0.00  0.00     0.003 A 
ATOM      6  C4  OXE d   1       0.086   1.317  -1.020  0.00  0.00    -0.002 A 
ATOM      7  C5  OXE d   1      -0.269   1.154   0.324  0.00  0.00    -0.002 A 
ATOM      8  C6  OXE d   1      -0.635  -0.105   0.784  0.00  0.00     0.003 A 
ENDROOT
TORSDOF 0
ENDMDL
