MODEL 1
REMARK minimizedAffinity -1.45280612
REMARK minimizedRMSD -1
REMARK  0 active torsions:
REMARK  status: ('A' for Active; 'I' for Inactive)
ROOT
ATOM      1  C2' OXE d   1      -1.007   0.747   1.816  0.00  0.00     0.078 C 
ATOM      2  C1' OXE d   1       0.278   2.090  -0.288  0.00  0.00     0.078 C 
ATOM      3  C1  OXE d   1       0.274   0.582  -0.314  0.00  0.00    -0.078 A 
ATOM      4  C2  OXE d   1      -0.317  -0.067   0.744  0.00  0.00    -0.078 A 
ATOM      5  C3  OXE d   1      -0.396  -1.457   0.742  0.00  0.00     0.003 A 
ATOM      6  C4  OXE d   1       0.254  -2.203  -0.248  0.00  0.00    -0.002 A 
ATOM      7  C5  OXE d   1       0.896  -1.562  -1.313  0.00  0.00    -0.002 A 
ATOM      8  C6  OXE d   1       0.878  -0.174  -1.383  0.00  0.00     0.003 A 
ENDROOT
TORSDOF 0
ENDMDL
