MODEL 1
REMARK minimizedAffinity -1.49281359
REMARK minimizedRMSD -1
REMARK  0 active torsions:
REMARK  status: ('A' for Active; 'I' for Inactive)
ROOT
ATOM      1  C2' OXE d   1       0.007   3.725   0.507  0.00  0.00     0.078 C 
ATOM      2  C1' OXE d   1       2.407   2.719  -0.546  0.00  0.00     0.078 C 
ATOM      3  C1  OXE d   1       1.325   1.729  -0.191  0.00  0.00    -0.078 A 
ATOM      4  C2  OXE d   1       0.172   2.227   0.367  0.00  0.00    -0.078 A 
ATOM      5  C3  OXE d   1      -0.879   1.363   0.663  0.00  0.00     0.003 A 
ATOM      6  C4  OXE d   1      -0.714  -0.022   0.540  0.00  0.00    -0.002 A 
ATOM      7  C5  OXE d   1       0.467  -0.552   0.010  0.00  0.00    -0.002 A 
ATOM      8  C6  OXE d   1       1.478   0.311  -0.399  0.00  0.00     0.003 A 
ENDROOT
TORSDOF 0
ENDMDL
