MODEL 1
REMARK minimizedAffinity -3.77611065
REMARK minimizedRMSD -1
REMARK  0 active torsions:
REMARK  status: ('A' for Active; 'I' for Inactive)
ROOT
ATOM      1  C2' OXE d   1      -2.192  -0.185   1.606  0.00  0.00     0.078 C 
ATOM      2  C1' OXE d   1      -0.007   1.111   0.410  0.00  0.00     0.078 C 
ATOM      3  C1  OXE d   1       0.033  -0.394   0.505  0.00  0.00    -0.078 A 
ATOM      4  C2  OXE d   1      -1.019  -1.016   1.133  0.00  0.00    -0.078 A 
ATOM      5  C3  OXE d   1      -1.059  -2.406   1.199  0.00  0.00     0.003 A 
ATOM      6  C4  OXE d   1       0.035  -3.167   0.768  0.00  0.00    -0.002 A 
ATOM      7  C5  OXE d   1       1.134  -2.551   0.161  0.00  0.00    -0.002 A 
ATOM      8  C6  OXE d   1       1.130  -1.172  -0.016  0.00  0.00     0.003 A 
ENDROOT
TORSDOF 0
ENDMDL
