MODEL 1
REMARK minimizedAffinity -4.58737135
REMARK minimizedRMSD -1
REMARK  0 active torsions:
REMARK  status: ('A' for Active; 'I' for Inactive)
ROOT
ATOM      1  C2' OXE d   1       0.017   0.466  -1.154  0.00  0.00     0.078 C 
ATOM      2  C1' OXE d   1       0.428  -0.398   1.485  0.00  0.00     0.078 C 
ATOM      3  C1  OXE d   1       0.290  -1.451   0.414  0.00  0.00    -0.078 A 
ATOM      4  C2  OXE d   1       0.042  -1.020  -0.867  0.00  0.00    -0.078 A 
ATOM      5  C3  OXE d   1      -0.039  -1.947  -1.902  0.00  0.00     0.003 A 
ATOM      6  C4  OXE d   1      -0.025  -3.320  -1.627  0.00  0.00    -0.002 A 
ATOM      7  C5  OXE d   1       0.186  -3.781  -0.323  0.00  0.00    -0.002 A 
ATOM      8  C6  OXE d   1       0.387  -2.861   0.700  0.00  0.00     0.003 A 
ENDROOT
TORSDOF 0
ENDMDL
