MODEL 1
REMARK minimizedAffinity -4.9313097
REMARK minimizedRMSD -1
REMARK  0 active torsions:
REMARK  status: ('A' for Active; 'I' for Inactive)
ROOT
ATOM      1  C2' OXE d   1      -1.951   0.413   1.327  0.00  0.00     0.078 C 
ATOM      2  C1' OXE d   1       0.221   1.272  -0.230  0.00  0.00     0.078 C 
ATOM      3  C1  OXE d   1       0.051  -0.211  -0.017  0.00  0.00    -0.078 A 
ATOM      4  C2  OXE d   1      -0.987  -0.620   0.785  0.00  0.00    -0.078 A 
ATOM      5  C3  OXE d   1      -1.221  -1.979   0.970  0.00  0.00     0.003 A 
ATOM      6  C4  OXE d   1      -0.319  -2.928   0.474  0.00  0.00    -0.002 A 
ATOM      7  C5  OXE d   1       0.768  -2.531  -0.312  0.00  0.00    -0.002 A 
ATOM      8  C6  OXE d   1       0.943  -1.182  -0.601  0.00  0.00     0.003 A 
ENDROOT
TORSDOF 0
ENDMDL
