MODEL 1
REMARK minimizedAffinity -4.71494961
REMARK minimizedRMSD -1
REMARK  0 active torsions:
REMARK  status: ('A' for Active; 'I' for Inactive)
ROOT
ATOM      1  C2' OXE d   1       0.025   0.621  -0.257  0.00  0.00     0.078 C 
ATOM      2  C1' OXE d   1      -0.769  -0.708   2.085  0.00  0.00     0.078 C 
ATOM      3  C1  OXE d   1      -0.485  -1.545   0.863  0.00  0.00    -0.078 A 
ATOM      4  C2  OXE d   1      -0.142  -0.883  -0.291  0.00  0.00    -0.078 A 
ATOM      5  C3  OXE d   1       0.184  -1.611  -1.432  0.00  0.00     0.003 A 
ATOM      6  C4  OXE d   1       0.017  -3.001  -1.458  0.00  0.00    -0.002 A 
ATOM      7  C5  OXE d   1      -0.370  -3.691  -0.304  0.00  0.00    -0.002 A 
ATOM      8  C6  OXE d   1      -0.583  -2.984   0.874  0.00  0.00     0.003 A 
ENDROOT
TORSDOF 0
ENDMDL
