MODEL 1
REMARK minimizedAffinity -5.06855726
REMARK minimizedRMSD -1
REMARK  0 active torsions:
REMARK  status: ('A' for Active; 'I' for Inactive)
ROOT
ATOM      1  C2' OXE d   1       0.292   0.870  -0.387  0.00  0.00     0.078 C 
ATOM      2  C1' OXE d   1      -1.113  -0.177   1.806  0.00  0.00     0.078 C 
ATOM      3  C1  OXE d   1      -0.692  -1.134   0.719  0.00  0.00    -0.078 A 
ATOM      4  C2  OXE d   1      -0.046  -0.605  -0.373  0.00  0.00    -0.078 A 
ATOM      5  C3  OXE d   1       0.413  -1.452  -1.378  0.00  0.00     0.003 A 
ATOM      6  C4  OXE d   1       0.088  -2.813  -1.362  0.00  0.00    -0.002 A 
ATOM      7  C5  OXE d   1      -0.604  -3.365  -0.279  0.00  0.00    -0.002 A 
ATOM      8  C6  OXE d   1      -0.963  -2.548   0.788  0.00  0.00     0.003 A 
ENDROOT
TORSDOF 0
ENDMDL
