MODEL 1
REMARK minimizedAffinity -4.68428278
REMARK minimizedRMSD -1
REMARK  0 active torsions:
REMARK  status: ('A' for Active; 'I' for Inactive)
ROOT
ATOM      1  C2' OXE d   1      -0.699  -1.849   1.394  0.00  0.00     0.078 C 
ATOM      2  C1' OXE d   1       0.208   0.358  -0.085  0.00  0.00     0.078 C 
ATOM      3  C1  OXE d   1       0.139  -0.977  -0.784  0.00  0.00    -0.078 A 
ATOM      4  C2  OXE d   1      -0.261  -2.060  -0.039  0.00  0.00    -0.078 A 
ATOM      5  C3  OXE d   1      -0.395  -3.304  -0.649  0.00  0.00     0.003 A 
ATOM      6  C4  OXE d   1       0.021  -3.493  -1.972  0.00  0.00    -0.002 A 
ATOM      7  C5  OXE d   1       0.470  -2.411  -2.737  0.00  0.00    -0.002 A 
ATOM      8  C6  OXE d   1       0.494  -1.141  -2.172  0.00  0.00     0.003 A 
ENDROOT
TORSDOF 0
ENDMDL
