MODEL 1
REMARK minimizedAffinity -3.43054342
REMARK minimizedRMSD -1
REMARK  0 active torsions:
REMARK  status: ('A' for Active; 'I' for Inactive)
ROOT
ATOM      1  C2' OXE d   1       0.009   1.524  -0.705  0.00  0.00     0.078 C 
ATOM      2  C1' OXE d   1       0.415  -0.777  -2.260  0.00  0.00     0.078 C 
ATOM      3  C1  OXE d   1      -0.097  -0.960  -0.853  0.00  0.00    -0.078 A 
ATOM      4  C2  OXE d   1      -0.248   0.168  -0.084  0.00  0.00    -0.078 A 
ATOM      5  C3  OXE d   1      -0.770   0.061   1.202  0.00  0.00     0.003 A 
ATOM      6  C4  OXE d   1      -0.996  -1.198   1.773  0.00  0.00    -0.002 A 
ATOM      7  C5  OXE d   1      -0.810  -2.362   1.020  0.00  0.00    -0.002 A 
ATOM      8  C6  OXE d   1      -0.403  -2.259  -0.306  0.00  0.00     0.003 A 
ENDROOT
TORSDOF 0
ENDMDL
