MODEL 1
REMARK minimizedAffinity -2.98896718
REMARK minimizedRMSD -1
REMARK  0 active torsions:
REMARK  status: ('A' for Active; 'I' for Inactive)
ROOT
ATOM      1  C2' OXE d   1      -0.964  -1.288   1.636  0.00  0.00     0.078 C 
ATOM      2  C1' OXE d   1      -0.047   0.645  -0.182  0.00  0.00     0.078 C 
ATOM      3  C1  OXE d   1      -0.308  -0.746  -0.705  0.00  0.00    -0.078 A 
ATOM      4  C2  OXE d   1      -0.712  -1.697   0.200  0.00  0.00    -0.078 A 
ATOM      5  C3  OXE d   1      -1.019  -2.981  -0.239  0.00  0.00     0.003 A 
ATOM      6  C4  OXE d   1      -0.773  -3.354  -1.566  0.00  0.00    -0.002 A 
ATOM      7  C5  OXE d   1      -0.324  -2.411  -2.497  0.00  0.00    -0.002 A 
ATOM      8  C6  OXE d   1      -0.128  -1.095  -2.093  0.00  0.00     0.003 A 
ENDROOT
TORSDOF 0
ENDMDL
