MODEL 1
REMARK minimizedAffinity -3.105685
REMARK minimizedRMSD -1
REMARK  0 active torsions:
REMARK  status: ('A' for Active; 'I' for Inactive)
ROOT
ATOM      1  C2' OXE d   1       1.492   2.609  -0.002  0.00  0.00     0.078 C 
ATOM      2  C1' OXE d   1      -0.238   1.432  -1.873  0.00  0.00     0.078 C 
ATOM      3  C1  OXE d   1      -0.070   0.745  -0.541  0.00  0.00    -0.078 A 
ATOM      4  C2  OXE d   1       0.815   1.303   0.351  0.00  0.00    -0.078 A 
ATOM      5  C3  OXE d   1       0.966   0.740   1.615  0.00  0.00     0.003 A 
ATOM      6  C4  OXE d   1       0.343  -0.474   1.929  0.00  0.00    -0.002 A 
ATOM      7  C5  OXE d   1      -0.531  -1.080   1.020  0.00  0.00    -0.002 A 
ATOM      8  C6  OXE d   1      -0.781  -0.462  -0.200  0.00  0.00     0.003 A 
ENDROOT
TORSDOF 0
ENDMDL
