MODEL 1
REMARK minimizedAffinity 8.24760151
REMARK minimizedRMSD -1
REMARK  1 active torsions:
REMARK  status: ('A' for Active; 'I' for Inactive)
REMARK    1  A    between atoms: C1_2  and  C2_3 
ROOT
ATOM      1  C2  UNL d   1      -0.169   0.203   2.148  0.00  0.00    -0.076 A 
ATOM      2  C3  UNL d   1      -1.570   0.231   2.267  0.00  0.00     0.004 A 
ATOM      3  C4  UNL d   1      -2.232  -0.623   3.147  0.00  0.00    -0.003 A 
ATOM      4  C5  UNL d   1      -1.505  -1.518   3.924  0.00  0.00     0.000 A 
ATOM      5  C6  UNL d   1      -0.114  -1.547   3.832  0.00  0.00     0.000 A 
ATOM      6  C7  UNL d   1       0.571  -0.682   2.962  0.00  0.00    -0.073 A 
ATOM      7  C8  UNL d   1       2.072  -0.761   2.899  0.00  0.00     0.078 C 
ENDROOT
BRANCH   1   8
ATOM      8  C1  UNL d   1       0.493   1.134   1.157  0.00  0.00     0.053 C 
ATOM      9  C   UNL d   1      -0.160   1.082  -0.216  0.00  0.00     0.018 C 
ENDBRANCH   1   8
TORSDOF 1
ENDMDL
