MODEL 1
REMARK minimizedAffinity 5.41209984
REMARK minimizedRMSD -1
REMARK  1 active torsions:
REMARK  status: ('A' for Active; 'I' for Inactive)
REMARK    1  A    between atoms: C1_2  and  C2_3 
ROOT
ATOM      1  C2  UNL d   1      -1.258   0.826   2.379  0.00  0.00    -0.076 A 
ATOM      2  C3  UNL d   1      -2.330   1.611   1.918  0.00  0.00     0.004 A 
ATOM      3  C4  UNL d   1      -3.645   1.161   2.021  0.00  0.00    -0.003 A 
ATOM      4  C5  UNL d   1      -3.911  -0.081   2.587  0.00  0.00     0.000 A 
ATOM      5  C6  UNL d   1      -2.862  -0.865   3.066  0.00  0.00     0.000 A 
ATOM      6  C7  UNL d   1      -1.531  -0.420   2.985  0.00  0.00    -0.073 A 
ATOM      7  C8  UNL d   1      -0.438  -1.309   3.511  0.00  0.00     0.078 C 
ENDROOT
BRANCH   1   8
ATOM      8  C1  UNL d   1       0.149   1.354   2.216  0.00  0.00     0.053 C 
ATOM      9  C   UNL d   1       0.408   2.592   3.061  0.00  0.00     0.018 C 
ENDBRANCH   1   8
TORSDOF 1
ENDMDL
