MODEL 1
REMARK minimizedAffinity 7.64795399
REMARK minimizedRMSD -1
REMARK  1 active torsions:
REMARK  status: ('A' for Active; 'I' for Inactive)
REMARK    1  A    between atoms: C1_2  and  C2_3 
ROOT
ATOM      1  C2  UNL d   1      -2.034   0.212   1.811  0.00  0.00    -0.076 A 
ATOM      2  C3  UNL d   1      -3.174  -0.031   2.597  0.00  0.00     0.004 A 
ATOM      3  C4  UNL d   1      -4.455   0.142   2.076  0.00  0.00    -0.003 A 
ATOM      4  C5  UNL d   1      -4.618   0.560   0.760  0.00  0.00     0.000 A 
ATOM      5  C6  UNL d   1      -3.499   0.788  -0.040  0.00  0.00     0.000 A 
ATOM      6  C7  UNL d   1      -2.200   0.603   0.465  0.00  0.00    -0.073 A 
ATOM      7  C8  UNL d   1      -1.029   0.869  -0.441  0.00  0.00     0.078 C 
ENDROOT
BRANCH   1   8
ATOM      8  C1  UNL d   1      -0.670   0.033   2.438  0.00  0.00     0.053 C 
ATOM      9  C   UNL d   1       0.021   1.359   2.716  0.00  0.00     0.018 C 
ENDBRANCH   1   8
TORSDOF 1
ENDMDL
