MODEL 1
REMARK minimizedAffinity 2.85815191
REMARK minimizedRMSD -1
REMARK  1 active torsions:
REMARK  status: ('A' for Active; 'I' for Inactive)
REMARK    1  A    between atoms: C1_2  and  C2_3 
ROOT
ATOM      1  C2  UNL d   1      -1.537  -0.145   2.148  0.00  0.00    -0.076 A 
ATOM      2  C3  UNL d   1      -2.446   0.093   3.194  0.00  0.00     0.004 A 
ATOM      3  C4  UNL d   1      -3.792   0.346   2.931  0.00  0.00    -0.003 A 
ATOM      4  C5  UNL d   1      -4.250   0.364   1.618  0.00  0.00     0.000 A 
ATOM      5  C6  UNL d   1      -3.365   0.113   0.570  0.00  0.00     0.000 A 
ATOM      6  C7  UNL d   1      -2.009  -0.159   0.818  0.00  0.00    -0.073 A 
ATOM      7  C8  UNL d   1      -1.099  -0.417  -0.351  0.00  0.00     0.078 C 
ENDROOT
BRANCH   1   8
ATOM      8  C1  UNL d   1      -0.085  -0.386   2.492  0.00  0.00     0.053 C 
ATOM      9  C   UNL d   1       0.620   0.877   2.963  0.00  0.00     0.018 C 
ENDBRANCH   1   8
TORSDOF 1
ENDMDL
