MODEL 1
REMARK minimizedAffinity 8.97641468
REMARK minimizedRMSD -1
REMARK  1 active torsions:
REMARK  status: ('A' for Active; 'I' for Inactive)
REMARK    1  A    between atoms: C1_2  and  C2_3 
ROOT
ATOM      1  C2  UNL d   1      -1.529   0.370   1.856  0.00  0.00    -0.076 A 
ATOM      2  C3  UNL d   1      -2.341   0.424   3.002  0.00  0.00     0.004 A 
ATOM      3  C4  UNL d   1      -3.729   0.341   2.903  0.00  0.00    -0.003 A 
ATOM      4  C5  UNL d   1      -4.327   0.203   1.656  0.00  0.00     0.000 A 
ATOM      5  C6  UNL d   1      -3.536   0.131   0.509  0.00  0.00     0.000 A 
ATOM      6  C7  UNL d   1      -2.135   0.196   0.594  0.00  0.00    -0.073 A 
ATOM      7  C8  UNL d   1      -1.331   0.119  -0.676  0.00  0.00     0.078 C 
ENDROOT
BRANCH   1   8
ATOM      8  C1  UNL d   1      -0.031   0.493   2.023  0.00  0.00     0.053 C 
ATOM      9  C   UNL d   1       0.532  -0.531   2.997  0.00  0.00     0.018 C 
ENDBRANCH   1   8
TORSDOF 1
ENDMDL
