MODEL 1
REMARK minimizedAffinity 5.40794611
REMARK minimizedRMSD -1
REMARK  1 active torsions:
REMARK  status: ('A' for Active; 'I' for Inactive)
REMARK    1  A    between atoms: C1_2  and  C2_3 
ROOT
ATOM      1  C2  UNL d   1      -1.877  -0.184   2.044  0.00  0.00    -0.076 A 
ATOM      2  C3  UNL d   1      -2.836   0.226   2.986  0.00  0.00     0.004 A 
ATOM      3  C4  UNL d   1      -4.101   0.651   2.583  0.00  0.00    -0.003 A 
ATOM      4  C5  UNL d   1      -4.428   0.672   1.232  0.00  0.00     0.000 A 
ATOM      5  C6  UNL d   1      -3.494   0.252   0.285  0.00  0.00     0.000 A 
ATOM      6  C7  UNL d   1      -2.220  -0.195   0.675  0.00  0.00    -0.073 A 
ATOM      7  C8  UNL d   1      -1.251  -0.631  -0.389  0.00  0.00     0.078 C 
ENDROOT
BRANCH   1   8
ATOM      8  C1  UNL d   1      -0.513  -0.609   2.538  0.00  0.00     0.053 C 
ATOM      9  C   UNL d   1       0.388   0.575   2.852  0.00  0.00     0.018 C 
ENDBRANCH   1   8
TORSDOF 1
ENDMDL
