MODEL 1
REMARK minimizedAffinity 8.45364571
REMARK minimizedRMSD -1
REMARK  1 active torsions:
REMARK  status: ('A' for Active; 'I' for Inactive)
REMARK    1  A    between atoms: C1_2  and  C2_3 
ROOT
ATOM      1  C2  UNL d   1      -0.862   0.234   2.465  0.00  0.00    -0.076 A 
ATOM      2  C3  UNL d   1      -0.858  -1.172   2.458  0.00  0.00     0.004 A 
ATOM      3  C4  UNL d   1       0.325  -1.887   2.631  0.00  0.00    -0.003 A 
ATOM      4  C5  UNL d   1       1.525  -1.208   2.813  0.00  0.00     0.000 A 
ATOM      5  C6  UNL d   1       1.538   0.186   2.840  0.00  0.00     0.000 A 
ATOM      6  C7  UNL d   1       0.351   0.922   2.684  0.00  0.00    -0.073 A 
ATOM      7  C8  UNL d   1       0.424   2.424   2.716  0.00  0.00     0.078 C 
ENDROOT
BRANCH   1   8
ATOM      8  C1  UNL d   1      -2.172   0.956   2.246  0.00  0.00     0.053 C 
ATOM      9  C   UNL d   1      -3.367   0.016   2.276  0.00  0.00     0.018 C 
ENDBRANCH   1   8
TORSDOF 1
ENDMDL
