MODEL 1
REMARK minimizedAffinity 0.206046239
REMARK minimizedRMSD -1
REMARK  1 active torsions:
REMARK  status: ('A' for Active; 'I' for Inactive)
REMARK    1  A    between atoms: C1_2  and  C2_3 
ROOT
ATOM      1  C2  UNL d   1      -0.089   0.646   1.569  0.00  0.00    -0.076 A 
ATOM      2  C3  UNL d   1       0.190   1.061   2.883  0.00  0.00     0.004 A 
ATOM      3  C4  UNL d   1      -0.674   0.751   3.932  0.00  0.00    -0.003 A 
ATOM      4  C5  UNL d   1      -1.831   0.022   3.684  0.00  0.00     0.000 A 
ATOM      5  C6  UNL d   1      -2.115  -0.413   2.390  0.00  0.00     0.000 A 
ATOM      6  C7  UNL d   1      -1.246  -0.124   1.324  0.00  0.00    -0.073 A 
ATOM      7  C8  UNL d   1      -1.604  -0.613  -0.053  0.00  0.00     0.078 C 
ENDROOT
BRANCH   1   8
ATOM      8  C1  UNL d   1       0.871   1.034   0.468  0.00  0.00     0.053 C 
ATOM      9  C   UNL d   1       2.005   1.917   0.967  0.00  0.00     0.018 C 
ENDBRANCH   1   8
TORSDOF 1
ENDMDL
