MODEL 1
REMARK minimizedAffinity 0.0751520246
REMARK minimizedRMSD -1
REMARK  1 active torsions:
REMARK  status: ('A' for Active; 'I' for Inactive)
REMARK    1  A    between atoms: C1_2  and  C2_3 
ROOT
ATOM      1  C2  UNL d   1      -1.128   0.799   2.573  0.00  0.00    -0.076 A 
ATOM      2  C3  UNL d   1      -0.221   1.101   3.604  0.00  0.00     0.004 A 
ATOM      3  C4  UNL d   1       1.152   0.938   3.422  0.00  0.00    -0.003 A 
ATOM      4  C5  UNL d   1       1.639   0.470   2.207  0.00  0.00     0.000 A 
ATOM      5  C6  UNL d   1       0.755   0.181   1.168  0.00  0.00     0.000 A 
ATOM      6  C7  UNL d   1      -0.631   0.356   1.329  0.00  0.00    -0.073 A 
ATOM      7  C8  UNL d   1      -1.539   0.024   0.177  0.00  0.00     0.078 C 
ENDROOT
BRANCH   1   8
ATOM      8  C1  UNL d   1      -2.607   0.970   2.837  0.00  0.00     0.053 C 
ATOM      9  C   UNL d   1      -2.887   1.940   3.975  0.00  0.00     0.018 C 
ENDBRANCH   1   8
TORSDOF 1
ENDMDL
