MODEL 1
REMARK minimizedAffinity 4.64867163
REMARK minimizedRMSD -1
REMARK  1 active torsions:
REMARK  status: ('A' for Active; 'I' for Inactive)
REMARK    1  A    between atoms: C1_2  and  C2_3 
ROOT
ATOM      1  C2  UNL d   1       0.787  -0.186  -0.291  0.00  0.00    -0.076 A 
ATOM      2  C3  UNL d   1       2.077  -0.377   0.233  0.00  0.00     0.004 A 
ATOM      3  C4  UNL d   1       2.398   0.046   1.522  0.00  0.00    -0.003 A 
ATOM      4  C5  UNL d   1       1.434   0.668   2.308  0.00  0.00     0.000 A 
ATOM      5  C6  UNL d   1       0.144   0.850   1.810  0.00  0.00     0.000 A 
ATOM      6  C7  UNL d   1      -0.201   0.414   0.519  0.00  0.00    -0.073 A 
ATOM      7  C8  UNL d   1      -1.605   0.642   0.031  0.00  0.00     0.078 C 
ENDROOT
BRANCH   1   8
ATOM      8  C1  UNL d   1       0.505  -0.641  -1.705  0.00  0.00     0.053 C 
ATOM      9  C   UNL d   1       1.702  -1.326  -2.346  0.00  0.00     0.018 C 
ENDBRANCH   1   8
TORSDOF 1
ENDMDL
