MODEL 1
REMARK minimizedAffinity -3.709234
REMARK minimizedRMSD -1
REMARK  1 active torsions:
REMARK  status: ('A' for Active; 'I' for Inactive)
REMARK    1  A    between atoms: C1_2  and  C2_3 
ROOT
ATOM      1  C2  UNL d   1      -0.568   0.166   0.195  0.00  0.00    -0.076 A 
ATOM      2  C3  UNL d   1       0.706   0.246   0.785  0.00  0.00     0.004 A 
ATOM      3  C4  UNL d   1       0.868   0.116   2.163  0.00  0.00    -0.003 A 
ATOM      4  C5  UNL d   1      -0.241  -0.098   2.974  0.00  0.00     0.000 A 
ATOM      5  C6  UNL d   1      -1.510  -0.198   2.405  0.00  0.00     0.000 A 
ATOM      6  C7  UNL d   1      -1.689  -0.085   1.015  0.00  0.00    -0.073 A 
ATOM      7  C8  UNL d   1      -3.081  -0.195   0.455  0.00  0.00     0.078 C 
ENDROOT
BRANCH   1   8
ATOM      8  C1  UNL d   1      -0.686   0.342  -1.302  0.00  0.00     0.053 C 
ATOM      9  C   UNL d   1       0.575  -0.081  -2.039  0.00  0.00     0.018 C 
ENDBRANCH   1   8
TORSDOF 1
ENDMDL
