MODEL 1
REMARK minimizedAffinity 15.3792038
REMARK minimizedRMSD -1
REMARK  0 active torsions:
REMARK  status: ('A' for Active; 'I' for Inactive)
ROOT
ATOM      1  C   UNL d   1      -4.935  -3.308  -5.181  0.00  0.00     0.077 C 
ATOM      2  C1  UNL d   1      -4.985  -2.288  -4.083  0.00  0.00    -0.074 A 
ATOM      3  C2  UNL d   1      -5.970  -2.346  -3.092  0.00  0.00    -0.005 A 
ATOM      4  C3  UNL d   1      -5.998  -1.396  -2.071  0.00  0.00     0.006 A 
ATOM      5  C4  UNL d   1      -5.042  -0.380  -2.031  0.00  0.00    -0.005 A 
ATOM      6  C5  UNL d   1      -4.049  -0.306  -3.012  0.00  0.00    -0.074 A 
ATOM      7  C6  UNL d   1      -3.008   0.773  -2.978  0.00  0.00     0.077 C 
ATOM      8  C7  UNL d   1      -4.023  -1.269  -4.031  0.00  0.00    -0.001 A 
ENDROOT
TORSDOF 0
ENDMDL
