MODEL 1
REMARK minimizedAffinity 15.2551355
REMARK minimizedRMSD -1
REMARK  0 active torsions:
REMARK  status: ('A' for Active; 'I' for Inactive)
ROOT
ATOM      1  C   UNL d   1       0.805   5.171  -0.548  0.00  0.00     0.077 C 
ATOM      2  C1  UNL d   1       0.028   3.938  -0.192  0.00  0.00    -0.074 A 
ATOM      3  C2  UNL d   1       0.073   3.409   1.102  0.00  0.00    -0.005 A 
ATOM      4  C3  UNL d   1      -0.662   2.268   1.421  0.00  0.00     0.006 A 
ATOM      5  C4  UNL d   1      -1.449   1.645   0.452  0.00  0.00    -0.005 A 
ATOM      6  C5  UNL d   1      -1.507   2.160  -0.847  0.00  0.00    -0.074 A 
ATOM      7  C6  UNL d   1      -2.355   1.508  -1.899  0.00  0.00     0.077 C 
ATOM      8  C7  UNL d   1      -0.771   3.311  -1.158  0.00  0.00    -0.001 A 
ENDROOT
TORSDOF 0
ENDMDL
