MODEL 1
REMARK minimizedAffinity -1.80750394
REMARK minimizedRMSD -1
REMARK  0 active torsions:
REMARK  status: ('A' for Active; 'I' for Inactive)
ROOT
ATOM      1  C   UNL d   1      -2.553   2.210   1.223  0.00  0.00     0.077 C 
ATOM      2  C1  UNL d   1      -3.697   1.784   0.352  0.00  0.00    -0.074 A 
ATOM      3  C2  UNL d   1      -4.942   1.467   0.904  0.00  0.00    -0.005 A 
ATOM      4  C3  UNL d   1      -5.999   1.082   0.080  0.00  0.00     0.006 A 
ATOM      5  C4  UNL d   1      -5.823   1.010  -1.302  0.00  0.00    -0.005 A 
ATOM      6  C5  UNL d   1      -4.585   1.324  -1.873  0.00  0.00    -0.074 A 
ATOM      7  C6  UNL d   1      -4.381   1.261  -3.357  0.00  0.00     0.077 C 
ATOM      8  C7  UNL d   1      -3.529   1.717  -1.038  0.00  0.00    -0.001 A 
ENDROOT
TORSDOF 0
ENDMDL
