MODEL 1
REMARK minimizedAffinity 6.93733311
REMARK minimizedRMSD -1
REMARK  0 active torsions:
REMARK  status: ('A' for Active; 'I' for Inactive)
ROOT
ATOM      1  C   UNL d   1       5.960  -3.074   3.534  0.00  0.00     0.077 C 
ATOM      2  C1  UNL d   1       4.476  -3.105   3.751  0.00  0.00    -0.074 A 
ATOM      3  C2  UNL d   1       3.913  -3.897   4.757  0.00  0.00    -0.005 A 
ATOM      4  C3  UNL d   1       2.532  -3.908   4.953  0.00  0.00     0.006 A 
ATOM      5  C4  UNL d   1       1.701  -3.129   4.147  0.00  0.00    -0.005 A 
ATOM      6  C5  UNL d   1       2.246  -2.331   3.136  0.00  0.00    -0.074 A 
ATOM      7  C6  UNL d   1       1.369  -1.481   2.266  0.00  0.00     0.077 C 
ATOM      8  C7  UNL d   1       3.635  -2.320   2.950  0.00  0.00    -0.001 A 
ENDROOT
TORSDOF 0
ENDMDL
