MODEL 1
REMARK minimizedAffinity 5.14048862
REMARK minimizedRMSD -1
REMARK  0 active torsions:
REMARK  status: ('A' for Active; 'I' for Inactive)
ROOT
ATOM      1  C   UNL d   1       5.837   5.727  -5.158  0.00  0.00     0.077 C 
ATOM      2  C1  UNL d   1       5.210   5.808  -3.799  0.00  0.00    -0.074 A 
ATOM      3  C2  UNL d   1       5.998   5.913  -2.648  0.00  0.00    -0.005 A 
ATOM      4  C3  UNL d   1       5.400   5.997  -1.391  0.00  0.00     0.006 A 
ATOM      5  C4  UNL d   1       4.010   5.976  -1.271  0.00  0.00    -0.005 A 
ATOM      6  C5  UNL d   1       3.205   5.873  -2.411  0.00  0.00    -0.074 A 
ATOM      7  C6  UNL d   1       1.709   5.859  -2.301  0.00  0.00     0.077 C 
ATOM      8  C7  UNL d   1       3.813   5.796  -3.671  0.00  0.00    -0.001 A 
ENDROOT
TORSDOF 0
ENDMDL
