MODEL 1
REMARK minimizedAffinity 16.7784882
REMARK minimizedRMSD -1
REMARK  0 active torsions:
REMARK  status: ('A' for Active; 'I' for Inactive)
ROOT
ATOM      1  C   UNL d   1       1.046  -1.378   1.927  0.00  0.00     0.077 C 
ATOM      2  C1  UNL d   1       1.674  -2.315   2.916  0.00  0.00    -0.074 A 
ATOM      3  C2  UNL d   1       3.064  -2.422   3.024  0.00  0.00    -0.005 A 
ATOM      4  C3  UNL d   1       3.633  -3.291   3.955  0.00  0.00     0.006 A 
ATOM      5  C4  UNL d   1       2.818  -4.062   4.786  0.00  0.00    -0.005 A 
ATOM      6  C5  UNL d   1       1.426  -3.968   4.693  0.00  0.00    -0.074 A 
ATOM      7  C6  UNL d   1       0.537  -4.782   5.585  0.00  0.00     0.077 C 
ATOM      8  C7  UNL d   1       0.862  -3.087   3.760  0.00  0.00    -0.001 A 
ENDROOT
TORSDOF 0
ENDMDL
