MODEL 1
REMARK minimizedAffinity 7.27908039
REMARK minimizedRMSD -1
REMARK  0 active torsions:
REMARK  status: ('A' for Active; 'I' for Inactive)
ROOT
ATOM      1  C   UNL d   1       2.807   0.727  -3.741  0.00  0.00     0.077 C 
ATOM      2  C1  UNL d   1       3.928   1.367  -4.505  0.00  0.00    -0.074 A 
ATOM      3  C2  UNL d   1       4.969   0.597  -5.033  0.00  0.00    -0.005 A 
ATOM      4  C3  UNL d   1       6.000   1.205  -5.750  0.00  0.00     0.006 A 
ATOM      5  C4  UNL d   1       6.000   2.586  -5.946  0.00  0.00    -0.005 A 
ATOM      6  C5  UNL d   1       4.967   3.372  -5.426  0.00  0.00    -0.074 A 
ATOM      7  C6  UNL d   1       4.946   4.857  -5.636  0.00  0.00     0.077 C 
ATOM      8  C7  UNL d   1       3.931   2.753  -4.713  0.00  0.00    -0.001 A 
ENDROOT
TORSDOF 0
ENDMDL
