MODEL 1
REMARK minimizedAffinity -4.66418076
REMARK minimizedRMSD -1
REMARK  0 active torsions:
REMARK  status: ('A' for Active; 'I' for Inactive)
ROOT
ATOM      1  C   UNL d   1       1.411   0.297   0.357  0.00  0.00     0.078 C 
ATOM      2  C1  UNL d   1      -0.002  -0.060   0.005  0.00  0.00    -0.077 A 
ATOM      3  C2  UNL d   1      -0.395  -0.217  -1.329  0.00  0.00    -0.001 A 
ATOM      4  C3  UNL d   1      -1.717  -0.540  -1.643  0.00  0.00     0.003 A 
ATOM      5  C4  UNL d   1      -2.656  -0.706  -0.627  0.00  0.00    -0.005 A 
ATOM      6  C5  UNL d   1      -2.275  -0.549   0.704  0.00  0.00     0.003 A 
ATOM      7  C6  UNL d   1      -0.954  -0.227   1.019  0.00  0.00    -0.001 A 
ENDROOT
TORSDOF 0
ENDMDL
