MODEL 1
REMARK minimizedAffinity -4.63755417
REMARK minimizedRMSD -1
REMARK  0 active torsions:
REMARK  status: ('A' for Active; 'I' for Inactive)
ROOT
ATOM      1  C   UNL d   1       1.557   0.960   0.654  0.00  0.00     0.078 C 
ATOM      2  C1  UNL d   1       0.241   0.526   0.081  0.00  0.00    -0.077 A 
ATOM      3  C2  UNL d   1      -0.041   0.685  -1.282  0.00  0.00    -0.001 A 
ATOM      4  C3  UNL d   1      -1.273   0.285  -1.800  0.00  0.00     0.003 A 
ATOM      5  C4  UNL d   1      -2.235  -0.276  -0.962  0.00  0.00    -0.005 A 
ATOM      6  C5  UNL d   1      -1.965  -0.437   0.395  0.00  0.00     0.003 A 
ATOM      7  C6  UNL d   1      -0.733  -0.038   0.915  0.00  0.00    -0.001 A 
ENDROOT
TORSDOF 0
ENDMDL
