MODEL 1
REMARK minimizedAffinity -2.42323613
REMARK minimizedRMSD -1
REMARK  0 active torsions:
REMARK  status: ('A' for Active; 'I' for Inactive)
ROOT
ATOM      1  C   UNL d   1      -2.654  -1.140  -0.732  0.00  0.00     0.078 C 
ATOM      2  C1  UNL d   1      -1.290  -0.631  -0.370  0.00  0.00    -0.077 A 
ATOM      3  C2  UNL d   1      -0.653   0.341  -1.152  0.00  0.00    -0.001 A 
ATOM      4  C3  UNL d   1       0.621   0.798  -0.809  0.00  0.00     0.003 A 
ATOM      5  C4  UNL d   1       1.268   0.289   0.316  0.00  0.00    -0.005 A 
ATOM      6  C5  UNL d   1       0.642  -0.680   1.098  0.00  0.00     0.003 A 
ATOM      7  C6  UNL d   1      -0.631  -1.138   0.756  0.00  0.00    -0.001 A 
ENDROOT
TORSDOF 0
ENDMDL
