MODEL 1
REMARK minimizedAffinity -1.86857164
REMARK minimizedRMSD -1
REMARK  0 active torsions:
REMARK  status: ('A' for Active; 'I' for Inactive)
ROOT
ATOM      1  C   UNL d   1      -0.461  -0.413   0.623  0.00  0.00     0.078 C 
ATOM      2  C1  UNL d   1       0.734   0.473   0.814  0.00  0.00    -0.077 A 
ATOM      3  C2  UNL d   1       0.723   1.503   1.763  0.00  0.00    -0.001 A 
ATOM      4  C3  UNL d   1       1.839   2.326   1.923  0.00  0.00     0.003 A 
ATOM      5  C4  UNL d   1       2.973   2.129   1.138  0.00  0.00    -0.005 A 
ATOM      6  C5  UNL d   1       2.991   1.108   0.189  0.00  0.00     0.003 A 
ATOM      7  C6  UNL d   1       1.877   0.284   0.027  0.00  0.00    -0.001 A 
ENDROOT
TORSDOF 0
ENDMDL
