MODEL 1
REMARK minimizedAffinity -2.24033928
REMARK minimizedRMSD -1
REMARK  0 active torsions:
REMARK  status: ('A' for Active; 'I' for Inactive)
ROOT
ATOM      1  C   UNL d   1      -2.956  -0.792  -0.677  0.00  0.00     0.078 C 
ATOM      2  C1  UNL d   1      -1.556  -0.435  -0.274  0.00  0.00    -0.077 A 
ATOM      3  C2  UNL d   1      -0.866  -1.192   0.681  0.00  0.00    -0.001 A 
ATOM      4  C3  UNL d   1       0.433  -0.842   1.054  0.00  0.00     0.003 A 
ATOM      5  C4  UNL d   1       1.052   0.266   0.479  0.00  0.00    -0.005 A 
ATOM      6  C5  UNL d   1       0.372   1.026  -0.470  0.00  0.00     0.003 A 
ATOM      7  C6  UNL d   1      -0.927   0.678  -0.845  0.00  0.00    -0.001 A 
ENDROOT
TORSDOF 0
ENDMDL
