MODEL 1
REMARK minimizedAffinity -0.265647113
REMARK minimizedRMSD -1
REMARK  0 active torsions:
REMARK  status: ('A' for Active; 'I' for Inactive)
ROOT
ATOM      1  C   UNL d   1       1.890   2.349   1.383  0.00  0.00     0.078 C 
ATOM      2  C1  UNL d   1       1.183   1.301   0.577  0.00  0.00    -0.077 A 
ATOM      3  C2  UNL d   1       0.136   0.552   1.128  0.00  0.00    -0.001 A 
ATOM      4  C3  UNL d   1      -0.507  -0.428   0.370  0.00  0.00     0.003 A 
ATOM      5  C4  UNL d   1      -0.109  -0.669  -0.944  0.00  0.00    -0.005 A 
ATOM      6  C5  UNL d   1       0.933   0.070  -1.500  0.00  0.00     0.003 A 
ATOM      7  C6  UNL d   1       1.577   1.050  -0.743  0.00  0.00    -0.001 A 
ENDROOT
TORSDOF 0
ENDMDL
