MODEL 1
REMARK minimizedAffinity -3.904073
REMARK minimizedRMSD -1
REMARK  0 active torsions:
REMARK  status: ('A' for Active; 'I' for Inactive)
ROOT
ATOM      1  C   UNL d   1       1.497   0.759   0.372  0.00  0.00     0.078 C 
ATOM      2  C1  UNL d   1       0.141   0.292  -0.067  0.00  0.00    -0.077 A 
ATOM      3  C2  UNL d   1      -0.141   0.069  -1.420  0.00  0.00    -0.001 A 
ATOM      4  C3  UNL d   1      -1.410  -0.357  -1.816  0.00  0.00     0.003 A 
ATOM      5  C4  UNL d   1      -2.407  -0.562  -0.865  0.00  0.00    -0.005 A 
ATOM      6  C5  UNL d   1      -2.137  -0.340   0.484  0.00  0.00     0.003 A 
ATOM      7  C6  UNL d   1      -0.868   0.085   0.881  0.00  0.00    -0.001 A 
ENDROOT
TORSDOF 0
ENDMDL
