MODEL 1
REMARK minimizedAffinity -4.80976152
REMARK minimizedRMSD -1
REMARK  0 active torsions:
REMARK  status: ('A' for Active; 'I' for Inactive)
ROOT
ATOM      1  C   UNL d   1       1.087   0.342   0.552  0.00  0.00     0.078 C 
ATOM      2  C1  UNL d   1      -0.333   0.029   0.184  0.00  0.00    -0.077 A 
ATOM      3  C2  UNL d   1      -1.284  -0.272   1.167  0.00  0.00    -0.001 A 
ATOM      4  C3  UNL d   1      -2.599  -0.571   0.809  0.00  0.00     0.003 A 
ATOM      5  C4  UNL d   1      -2.975  -0.575  -0.533  0.00  0.00    -0.005 A 
ATOM      6  C5  UNL d   1      -2.036  -0.279  -1.519  0.00  0.00     0.003 A 
ATOM      7  C6  UNL d   1      -0.720   0.021  -1.162  0.00  0.00    -0.001 A 
ENDROOT
TORSDOF 0
ENDMDL
