MODEL 1
REMARK minimizedAffinity -4.87452269
REMARK minimizedRMSD -1
REMARK  0 active torsions:
REMARK  status: ('A' for Active; 'I' for Inactive)
ROOT
ATOM      1  C   UNL d   1      -3.015  -0.491  -0.043  0.00  0.00     0.078 C 
ATOM      2  C1  UNL d   1      -1.519  -0.385  -0.023  0.00  0.00    -0.077 A 
ATOM      3  C2  UNL d   1      -0.770  -0.945   1.019  0.00  0.00    -0.001 A 
ATOM      4  C3  UNL d   1       0.621  -0.830   1.029  0.00  0.00     0.003 A 
ATOM      5  C4  UNL d   1       1.275  -0.154   0.000  0.00  0.00    -0.005 A 
ATOM      6  C5  UNL d   1       0.537   0.408  -1.040  0.00  0.00     0.003 A 
ATOM      7  C6  UNL d   1      -0.854   0.294  -1.052  0.00  0.00    -0.001 A 
ENDROOT
TORSDOF 0
ENDMDL
