MODEL 1
REMARK minimizedAffinity -4.93940401
REMARK minimizedRMSD -1
REMARK  0 active torsions:
REMARK  status: ('A' for Active; 'I' for Inactive)
ROOT
ATOM      1  C   UNL d   1       0.698   0.691   0.058  0.00  0.00     0.078 C 
ATOM      2  C1  UNL d   1      -0.634   0.028  -0.128  0.00  0.00    -0.077 A 
ATOM      3  C2  UNL d   1      -1.470  -0.229   0.966  0.00  0.00    -0.001 A 
ATOM      4  C3  UNL d   1      -2.703  -0.855   0.780  0.00  0.00     0.003 A 
ATOM      5  C4  UNL d   1      -3.111  -1.232  -0.499  0.00  0.00    -0.005 A 
ATOM      6  C5  UNL d   1      -2.285  -0.983  -1.593  0.00  0.00     0.003 A 
ATOM      7  C6  UNL d   1      -1.051  -0.356  -1.408  0.00  0.00    -0.001 A 
ENDROOT
TORSDOF 0
ENDMDL
