MODEL 1
REMARK minimizedAffinity -4.48948574
REMARK minimizedRMSD -1
REMARK  0 active torsions:
REMARK  status: ('A' for Active; 'I' for Inactive)
ROOT
ATOM      1  C   UNL d   1      -2.834  -0.903  -0.218  0.00  0.00     0.078 C 
ATOM      2  C1  UNL d   1      -1.359  -0.821   0.044  0.00  0.00    -0.077 A 
ATOM      3  C2  UNL d   1      -0.762  -1.589   1.050  0.00  0.00    -0.001 A 
ATOM      4  C3  UNL d   1       0.610  -1.496   1.290  0.00  0.00     0.003 A 
ATOM      5  C4  UNL d   1       1.396  -0.634   0.527  0.00  0.00    -0.005 A 
ATOM      6  C5  UNL d   1       0.810   0.137  -0.475  0.00  0.00     0.003 A 
ATOM      7  C6  UNL d   1      -0.562   0.044  -0.716  0.00  0.00    -0.001 A 
ENDROOT
TORSDOF 0
ENDMDL
