MODEL 1
REMARK minimizedAffinity -2.54832935
REMARK minimizedRMSD -1
REMARK  0 active torsions:
REMARK  status: ('A' for Active; 'I' for Inactive)
ROOT
ATOM      1  C   UNL d   1      -2.692  -0.823  -0.713  0.00  0.00     0.078 C 
ATOM      2  C1  UNL d   1      -1.326  -0.796  -0.094  0.00  0.00    -0.077 A 
ATOM      3  C2  UNL d   1      -0.354   0.112  -0.531  0.00  0.00    -0.001 A 
ATOM      4  C3  UNL d   1       0.916   0.119   0.048  0.00  0.00     0.003 A 
ATOM      5  C4  UNL d   1       1.226  -0.779   1.067  0.00  0.00    -0.005 A 
ATOM      6  C5  UNL d   1       0.265  -1.688   1.507  0.00  0.00     0.003 A 
ATOM      7  C6  UNL d   1      -1.005  -1.697   0.930  0.00  0.00    -0.001 A 
ENDROOT
TORSDOF 0
ENDMDL
