MODEL 1
REMARK minimizedAffinity -1.71881342
REMARK minimizedRMSD -1
REMARK  0 active torsions:
REMARK  status: ('A' for Active; 'I' for Inactive)
ROOT
ATOM      1  C   UNL d   1      -2.573  -1.388   0.922  0.00  0.00     0.078 C 
ATOM      2  C1  UNL d   1      -1.149  -0.934   0.802  0.00  0.00    -0.077 A 
ATOM      3  C2  UNL d   1      -0.138  -1.517   1.574  0.00  0.00    -0.001 A 
ATOM      4  C3  UNL d   1       1.182  -1.078   1.459  0.00  0.00     0.003 A 
ATOM      5  C4  UNL d   1       1.503  -0.052   0.572  0.00  0.00    -0.005 A 
ATOM      6  C5  UNL d   1       0.503   0.537  -0.199  0.00  0.00     0.003 A 
ATOM      7  C6  UNL d   1      -0.818   0.099  -0.085  0.00  0.00    -0.001 A 
ENDROOT
TORSDOF 0
ENDMDL
