MODEL 1
REMARK minimizedAffinity -5.60539961
REMARK minimizedRMSD -1
REMARK  0 active torsions:
REMARK  status: ('A' for Active; 'I' for Inactive)
ROOT
ATOM      1  C   UNL d   1       1.034   0.158   0.254  0.00  0.00     0.078 C 
ATOM      2  C1  UNL d   1      -0.402  -0.273   0.213  0.00  0.00    -0.077 A 
ATOM      3  C2  UNL d   1      -0.902  -1.203   1.132  0.00  0.00    -0.001 A 
ATOM      4  C3  UNL d   1      -2.238  -1.602   1.075  0.00  0.00     0.003 A 
ATOM      5  C4  UNL d   1      -3.085  -1.078   0.101  0.00  0.00    -0.005 A 
ATOM      6  C5  UNL d   1      -2.595  -0.153  -0.820  0.00  0.00     0.003 A 
ATOM      7  C6  UNL d   1      -1.259   0.247  -0.765  0.00  0.00    -0.001 A 
ENDROOT
TORSDOF 0
ENDMDL
