MODEL 1
REMARK minimizedAffinity -5.87954378
REMARK minimizedRMSD -1
REMARK  0 active torsions:
REMARK  status: ('A' for Active; 'I' for Inactive)
ROOT
ATOM      1  C   UNL d   1      -3.318  -1.372  -0.368  0.00  0.00     0.078 C 
ATOM      2  C1  UNL d   1      -1.888  -0.944  -0.230  0.00  0.00    -0.077 A 
ATOM      3  C2  UNL d   1      -1.252  -0.215  -1.243  0.00  0.00    -0.001 A 
ATOM      4  C3  UNL d   1       0.083   0.168  -1.105  0.00  0.00     0.003 A 
ATOM      5  C4  UNL d   1       0.794  -0.174   0.044  0.00  0.00    -0.005 A 
ATOM      6  C5  UNL d   1       0.170  -0.901   1.056  0.00  0.00     0.003 A 
ATOM      7  C6  UNL d   1      -1.164  -1.285   0.920  0.00  0.00    -0.001 A 
ENDROOT
TORSDOF 0
ENDMDL
