MODEL 1
REMARK minimizedAffinity -2.93387675
REMARK minimizedRMSD -1
REMARK  0 active torsions:
REMARK  status: ('A' for Active; 'I' for Inactive)
ROOT
ATOM      1  C   UNL d   1      -3.146  -0.897   0.326  0.00  0.00     0.078 C 
ATOM      2  C1  UNL d   1      -1.663  -0.754   0.501  0.00  0.00    -0.077 A 
ATOM      3  C2  UNL d   1      -0.974  -1.508   1.459  0.00  0.00    -0.001 A 
ATOM      4  C3  UNL d   1       0.404  -1.357   1.618  0.00  0.00     0.003 A 
ATOM      5  C4  UNL d   1       1.105  -0.452   0.823  0.00  0.00    -0.005 A 
ATOM      6  C5  UNL d   1       0.428   0.304  -0.131  0.00  0.00     0.003 A 
ATOM      7  C6  UNL d   1      -0.950   0.154  -0.292  0.00  0.00    -0.001 A 
ENDROOT
TORSDOF 0
ENDMDL
