MODEL 1
REMARK minimizedAffinity -3.43513441
REMARK minimizedRMSD -1
REMARK  0 active torsions:
REMARK  status: ('A' for Active; 'I' for Inactive)
ROOT
ATOM      1  C   UNL d   1      -2.716  -0.205   0.534  0.00  0.00     0.078 C 
ATOM      2  C1  UNL d   1      -1.235  -0.259   0.309  0.00  0.00    -0.077 A 
ATOM      3  C2  UNL d   1      -0.389  -0.893   1.227  0.00  0.00    -0.001 A 
ATOM      4  C3  UNL d   1       0.990  -0.928   1.009  0.00  0.00     0.003 A 
ATOM      5  C4  UNL d   1       1.534  -0.329  -0.125  0.00  0.00    -0.005 A 
ATOM      6  C5  UNL d   1       0.700   0.306  -1.043  0.00  0.00     0.003 A 
ATOM      7  C6  UNL d   1      -0.678   0.341  -0.827  0.00  0.00    -0.001 A 
ENDROOT
TORSDOF 0
ENDMDL
