MODEL 1
REMARK minimizedAffinity -5.22267389
REMARK minimizedRMSD -1
REMARK  1 active torsions:
REMARK  status: ('A' for Active; 'I' for Inactive)
REMARK    1  A    between atoms: N_2  and  C1_3 
ROOT
ATOM      1  C1  UNL d   1      -1.087  -0.702   2.751  0.00  0.00     0.143 A 
ATOM      2  C2  UNL d   1      -2.049  -0.659   1.735  0.00  0.00    -0.057 A 
ATOM      3  C3  UNL d   1      -1.682  -0.488   0.395  0.00  0.00     0.033 A 
ATOM      4  C4  UNL d   1      -0.344  -0.328   0.049  0.00  0.00    -0.042 A 
ATOM      5  C5  UNL d   1       0.627  -0.343   1.044  0.00  0.00     0.033 A 
ATOM      6  C6  UNL d   1       0.254  -0.520   2.380  0.00  0.00    -0.057 A 
ENDROOT
BRANCH   1   7
ATOM      7  N   UNL d   1      -1.396  -0.770   4.112  0.00  0.00    -0.732 N 
ATOM      8  C   UNL d   1      -1.022   0.303   5.007  0.00  0.00     0.284 C 
ATOM      9  H3  UNL d   1      -2.325  -1.148   4.281  0.00  0.00     0.395 HD
ENDBRANCH   1   7
TORSDOF 1
ENDMDL
