MODEL 1
REMARK minimizedAffinity -1.59785521
REMARK minimizedRMSD -1
REMARK  1 active torsions:
REMARK  status: ('A' for Active; 'I' for Inactive)
REMARK    1  A    between atoms: N_2  and  C1_3 
ROOT
ATOM      1  C1  UNL d   1       0.485  -0.055  -1.679  0.00  0.00     0.143 A 
ATOM      2  C2  UNL d   1       1.118  -0.242  -0.445  0.00  0.00    -0.057 A 
ATOM      3  C3  UNL d   1       0.429  -0.054   0.760  0.00  0.00     0.033 A 
ATOM      4  C4  UNL d   1      -0.901   0.354   0.751  0.00  0.00    -0.042 A 
ATOM      5  C5  UNL d   1      -1.542   0.570  -0.463  0.00  0.00     0.033 A 
ATOM      6  C6  UNL d   1      -0.851   0.374  -1.663  0.00  0.00    -0.057 A 
ENDROOT
BRANCH   1   7
ATOM      7  N   UNL d   1       1.143  -0.130  -2.909  0.00  0.00    -0.732 N 
ATOM      8  C   UNL d   1       1.496  -1.413  -3.479  0.00  0.00     0.284 C 
ATOM      9  H3  UNL d   1       0.782   0.540  -3.584  0.00  0.00     0.395 HD
ENDBRANCH   1   7
TORSDOF 1
ENDMDL
