MODEL 1
REMARK minimizedAffinity -4.29844284
REMARK minimizedRMSD -1
REMARK  1 active torsions:
REMARK  status: ('A' for Active; 'I' for Inactive)
REMARK    1  A    between atoms: N_2  and  C1_3 
ROOT
ATOM      1  C1  UNL d   1      -0.728  -0.269   1.766  0.00  0.00     0.143 A 
ATOM      2  C2  UNL d   1      -0.683  -1.000   2.958  0.00  0.00    -0.057 A 
ATOM      3  C3  UNL d   1      -1.797  -1.082   3.802  0.00  0.00     0.033 A 
ATOM      4  C4  UNL d   1      -2.971  -0.408   3.483  0.00  0.00    -0.042 A 
ATOM      5  C5  UNL d   1      -3.030   0.346   2.316  0.00  0.00     0.033 A 
ATOM      6  C6  UNL d   1      -1.917   0.419   1.473  0.00  0.00    -0.057 A 
ENDROOT
BRANCH   1   7
ATOM      7  N   UNL d   1       0.376  -0.068   0.935  0.00  0.00    -0.732 N 
ATOM      8  C   UNL d   1       0.196   0.248  -0.466  0.00  0.00     0.284 C 
ATOM      9  H3  UNL d   1       1.113   0.465   1.390  0.00  0.00     0.395 HD
ENDBRANCH   1   7
TORSDOF 1
ENDMDL
