MODEL 1
REMARK minimizedAffinity -2.35484338
REMARK minimizedRMSD -1
REMARK  1 active torsions:
REMARK  status: ('A' for Active; 'I' for Inactive)
REMARK    1  A    between atoms: N_2  and  C1_3 
ROOT
ATOM      1  C1  UNL d   1       0.714  -0.547  -1.460  0.00  0.00     0.143 A 
ATOM      2  C2  UNL d   1       1.519  -1.071  -0.442  0.00  0.00    -0.057 A 
ATOM      3  C3  UNL d   1       1.329  -0.704   0.895  0.00  0.00     0.033 A 
ATOM      4  C4  UNL d   1       0.345   0.218   1.237  0.00  0.00    -0.042 A 
ATOM      5  C5  UNL d   1      -0.450   0.770   0.239  0.00  0.00     0.033 A 
ATOM      6  C6  UNL d   1      -0.260   0.395  -1.094  0.00  0.00    -0.057 A 
ENDROOT
BRANCH   1   7
ATOM      7  N   UNL d   1       0.918  -0.797  -2.819  0.00  0.00    -0.732 N 
ATOM      8  C   UNL d   1       2.217  -1.208  -3.306  0.00  0.00     0.284 C 
ATOM      9  H3  UNL d   1       0.138  -1.294  -3.244  0.00  0.00     0.395 HD
ENDBRANCH   1   7
TORSDOF 1
ENDMDL
