MODEL 1
REMARK minimizedAffinity -2.48905468
REMARK minimizedRMSD -1
REMARK  1 active torsions:
REMARK  status: ('A' for Active; 'I' for Inactive)
REMARK    1  A    between atoms: N_2  and  C1_3 
ROOT
ATOM      1  C1  UNL d   1       0.423   0.151  -0.381  0.00  0.00     0.143 A 
ATOM      2  C2  UNL d   1       1.442  -0.321   0.454  0.00  0.00    -0.057 A 
ATOM      3  C3  UNL d   1       1.316  -0.278   1.848  0.00  0.00     0.033 A 
ATOM      4  C4  UNL d   1       0.176   0.265   2.433  0.00  0.00    -0.042 A 
ATOM      5  C5  UNL d   1      -0.838   0.762   1.623  0.00  0.00     0.033 A 
ATOM      6  C6  UNL d   1      -0.709   0.711   0.231  0.00  0.00    -0.057 A 
ENDROOT
BRANCH   1   7
ATOM      7  N   UNL d   1       0.531   0.226  -1.772  0.00  0.00    -0.732 N 
ATOM      8  C   UNL d   1       0.803  -0.959  -2.556  0.00  0.00     0.284 C 
ATOM      9  H3  UNL d   1      -0.165   0.845  -2.182  0.00  0.00     0.395 HD
ENDBRANCH   1   7
TORSDOF 1
ENDMDL
