MODEL 1
REMARK minimizedAffinity 1.6800561
REMARK minimizedRMSD -1
REMARK  1 active torsions:
REMARK  status: ('A' for Active; 'I' for Inactive)
REMARK    1  A    between atoms: N_2  and  C1_3 
ROOT
ATOM      1  C1  UNL d   1      -0.414   0.669  -0.072  0.00  0.00     0.143 A 
ATOM      2  C2  UNL d   1       0.892   0.821  -0.551  0.00  0.00    -0.057 A 
ATOM      3  C3  UNL d   1       1.995   0.737   0.308  0.00  0.00     0.033 A 
ATOM      4  C4  UNL d   1       1.809   0.529   1.671  0.00  0.00    -0.042 A 
ATOM      5  C5  UNL d   1       0.518   0.401   2.173  0.00  0.00     0.033 A 
ATOM      6  C6  UNL d   1      -0.578   0.478   1.309  0.00  0.00    -0.057 A 
ENDROOT
BRANCH   1   7
ATOM      7  N   UNL d   1      -1.555   0.840  -0.858  0.00  0.00    -0.732 N 
ATOM      8  C   UNL d   1      -2.846   0.377  -0.395  0.00  0.00     0.284 C 
ATOM      9  H3  UNL d   1      -1.579   1.748  -1.317  0.00  0.00     0.395 HD
ENDBRANCH   1   7
TORSDOF 1
ENDMDL
