MODEL 1
REMARK minimizedAffinity -5.63121033
REMARK minimizedRMSD -1
REMARK  1 active torsions:
REMARK  status: ('A' for Active; 'I' for Inactive)
REMARK    1  A    between atoms: N_2  and  C1_3 
ROOT
ATOM      1  C1  UNL d   1      -0.345   0.050   0.024  0.00  0.00     0.143 A 
ATOM      2  C2  UNL d   1      -1.689  -0.170   0.344  0.00  0.00    -0.057 A 
ATOM      3  C3  UNL d   1      -2.115  -0.258   1.675  0.00  0.00     0.033 A 
ATOM      4  C4  UNL d   1      -1.195  -0.155   2.713  0.00  0.00    -0.042 A 
ATOM      5  C5  UNL d   1       0.150   0.039   2.419  0.00  0.00     0.033 A 
ATOM      6  C6  UNL d   1       0.567   0.133   1.088  0.00  0.00    -0.057 A 
ENDROOT
BRANCH   1   7
ATOM      7  N   UNL d   1       0.155   0.049  -1.280  0.00  0.00    -0.732 N 
ATOM      8  C   UNL d   1      -0.446  -0.784  -2.299  0.00  0.00     0.284 C 
ATOM      9  H3  UNL d   1       0.407   0.981  -1.600  0.00  0.00     0.395 HD
ENDBRANCH   1   7
TORSDOF 1
ENDMDL
