MODEL 1
REMARK minimizedAffinity -1.89659476
REMARK minimizedRMSD -1
REMARK  1 active torsions:
REMARK  status: ('A' for Active; 'I' for Inactive)
REMARK    1  A    between atoms: N_2  and  C1_3 
ROOT
ATOM      1  C1  UNL d   1      -0.005   0.332   0.769  0.00  0.00     0.143 A 
ATOM      2  C2  UNL d   1      -0.359   0.436   2.118  0.00  0.00    -0.057 A 
ATOM      3  C3  UNL d   1      -1.700   0.525   2.512  0.00  0.00     0.033 A 
ATOM      4  C4  UNL d   1      -2.712   0.541   1.557  0.00  0.00    -0.042 A 
ATOM      5  C5  UNL d   1      -2.381   0.464   0.209  0.00  0.00     0.033 A 
ATOM      6  C6  UNL d   1      -1.041   0.368  -0.177  0.00  0.00    -0.057 A 
ENDROOT
BRANCH   1   7
ATOM      7  N   UNL d   1       1.315   0.339   0.309  0.00  0.00    -0.732 N 
ATOM      8  C   UNL d   1       2.330   1.110   0.993  0.00  0.00     0.284 C 
ATOM      9  H3  UNL d   1       1.625  -0.582   0.006  0.00  0.00     0.395 HD
ENDBRANCH   1   7
TORSDOF 1
ENDMDL
