MODEL 1
REMARK minimizedAffinity -0.423393905
REMARK minimizedRMSD -1
REMARK  1 active torsions:
REMARK  status: ('A' for Active; 'I' for Inactive)
REMARK    1  A    between atoms: N_2  and  C1_3 
ROOT
ATOM      1  C1  UNL d   1       0.572  -0.041  -0.724  0.00  0.00     0.143 A 
ATOM      2  C2  UNL d   1      -0.050   0.644  -1.773  0.00  0.00    -0.057 A 
ATOM      3  C3  UNL d   1       0.082   0.216  -3.100  0.00  0.00     0.033 A 
ATOM      4  C4  UNL d   1       0.865  -0.893  -3.404  0.00  0.00    -0.042 A 
ATOM      5  C5  UNL d   1       1.512  -1.575  -2.381  0.00  0.00     0.033 A 
ATOM      6  C6  UNL d   1       1.371  -1.146  -1.057  0.00  0.00    -0.057 A 
ENDROOT
BRANCH   1   7
ATOM      7  N   UNL d   1       0.559   0.392   0.604  0.00  0.00    -0.732 N 
ATOM      8  C   UNL d   1       1.375  -0.267   1.602  0.00  0.00     0.284 C 
ATOM      9  H3  UNL d   1       0.546   1.406   0.681  0.00  0.00     0.395 HD
ENDBRANCH   1   7
TORSDOF 1
ENDMDL
