MODEL 1
REMARK minimizedAffinity -3.39224601
REMARK minimizedRMSD -1
REMARK  1 active torsions:
REMARK  status: ('A' for Active; 'I' for Inactive)
REMARK    1  A    between atoms: N_2  and  C1_3 
ROOT
ATOM      1  C1  UNL d   1       0.303  -0.022  -1.339  0.00  0.00     0.143 A 
ATOM      2  C2  UNL d   1       1.326  -0.155  -2.284  0.00  0.00    -0.057 A 
ATOM      3  C3  UNL d   1       1.276  -1.146  -3.273  0.00  0.00     0.033 A 
ATOM      4  C4  UNL d   1       0.213  -2.042  -3.315  0.00  0.00    -0.042 A 
ATOM      5  C5  UNL d   1      -0.802  -1.944  -2.371  0.00  0.00     0.033 A 
ATOM      6  C6  UNL d   1      -0.751  -0.948  -1.390  0.00  0.00    -0.057 A 
ENDROOT
BRANCH   1   7
ATOM      7  N   UNL d   1       0.342   0.879  -0.272  0.00  0.00    -0.732 N 
ATOM      8  C   UNL d   1       1.498   0.942   0.597  0.00  0.00     0.284 C 
ATOM      9  H3  UNL d   1      -0.044   1.788  -0.517  0.00  0.00     0.395 HD
ENDBRANCH   1   7
TORSDOF 1
ENDMDL
