MODEL 1
REMARK minimizedAffinity -0.481526256
REMARK minimizedRMSD -1
REMARK  1 active torsions:
REMARK  status: ('A' for Active; 'I' for Inactive)
REMARK    1  A    between atoms: N_2  and  C1_3 
ROOT
ATOM      1  C1  UNL d   1       0.633   0.241   0.429  0.00  0.00     0.143 A 
ATOM      2  C2  UNL d   1       1.141   0.298  -0.873  0.00  0.00    -0.057 A 
ATOM      3  C3  UNL d   1       0.291   0.313  -1.985  0.00  0.00     0.033 A 
ATOM      4  C4  UNL d   1      -1.088   0.241  -1.814  0.00  0.00    -0.042 A 
ATOM      5  C5  UNL d   1      -1.615   0.158  -0.530  0.00  0.00     0.033 A 
ATOM      6  C6  UNL d   1      -0.760   0.151   0.576  0.00  0.00    -0.057 A 
ENDROOT
BRANCH   1   7
ATOM      7  N   UNL d   1       1.429   0.125   1.571  0.00  0.00    -0.732 N 
ATOM      8  C   UNL d   1       0.874   0.370   2.885  0.00  0.00     0.284 C 
ATOM      9  H3  UNL d   1       2.056  -0.675   1.527  0.00  0.00     0.395 HD
ENDBRANCH   1   7
TORSDOF 1
ENDMDL
