MODEL 1
REMARK minimizedAffinity -3.98749709
REMARK minimizedRMSD -1
REMARK  1 active torsions:
REMARK  status: ('A' for Active; 'I' for Inactive)
REMARK    1  A    between atoms: N_2  and  C1_3 
ROOT
ATOM      1  C1  UNL d   1      -0.985   0.539   0.690  0.00  0.00     0.143 A 
ATOM      2  C2  UNL d   1      -0.103   0.592  -0.394  0.00  0.00    -0.057 A 
ATOM      3  C3  UNL d   1       1.276   0.428  -0.218  0.00  0.00     0.033 A 
ATOM      4  C4  UNL d   1       1.803   0.236   1.055  0.00  0.00    -0.042 A 
ATOM      5  C5  UNL d   1       0.948   0.204   2.151  0.00  0.00     0.033 A 
ATOM      6  C6  UNL d   1      -0.430   0.362   1.968  0.00  0.00    -0.057 A 
ENDROOT
BRANCH   1   7
ATOM      7  N   UNL d   1      -2.355   0.793   0.592  0.00  0.00    -0.732 N 
ATOM      8  C   UNL d   1      -3.130   1.122   1.769  0.00  0.00     0.284 C 
ATOM      9  H3  UNL d   1      -2.590   1.346  -0.228  0.00  0.00     0.395 HD
ENDBRANCH   1   7
TORSDOF 1
ENDMDL
