MODEL 1
REMARK minimizedAffinity -3.28036332
REMARK minimizedRMSD -1
REMARK  1 active torsions:
REMARK  status: ('A' for Active; 'I' for Inactive)
REMARK    1  A    between atoms: N_2  and  C1_3 
ROOT
ATOM      1  C1  UNL d   1      -0.043   0.352  -0.174  0.00  0.00     0.143 A 
ATOM      2  C2  UNL d   1       0.837  -0.021   0.848  0.00  0.00    -0.057 A 
ATOM      3  C3  UNL d   1       0.436  -0.020   2.189  0.00  0.00     0.033 A 
ATOM      4  C4  UNL d   1      -0.849   0.384   2.536  0.00  0.00    -0.042 A 
ATOM      5  C5  UNL d   1      -1.733   0.783   1.540  0.00  0.00     0.033 A 
ATOM      6  C6  UNL d   1      -1.328   0.773   0.202  0.00  0.00    -0.057 A 
ENDROOT
BRANCH   1   7
ATOM      7  N   UNL d   1       0.327   0.466  -1.516  0.00  0.00    -0.732 N 
ATOM      8  C   UNL d   1       0.624  -0.712  -2.302  0.00  0.00     0.284 C 
ATOM      9  H3  UNL d   1      -0.218   1.169  -2.010  0.00  0.00     0.395 HD
ENDBRANCH   1   7
TORSDOF 1
ENDMDL
