MODEL 1
REMARK minimizedAffinity -1.20895255
REMARK minimizedRMSD -1
REMARK  1 active torsions:
REMARK  status: ('A' for Active; 'I' for Inactive)
REMARK    1  A    between atoms: N_2  and  C1_3 
ROOT
ATOM      1  C1  UNL d   1       0.567  -0.234  -1.825  0.00  0.00     0.143 A 
ATOM      2  C2  UNL d   1       1.807  -0.146  -2.466  0.00  0.00    -0.057 A 
ATOM      3  C3  UNL d   1       2.128  -0.980  -3.545  0.00  0.00     0.033 A 
ATOM      4  C4  UNL d   1       1.221  -1.938  -3.984  0.00  0.00    -0.042 A 
ATOM      5  C5  UNL d   1      -0.008  -2.060  -3.346  0.00  0.00     0.033 A 
ATOM      6  C6  UNL d   1      -0.325  -1.221  -2.274  0.00  0.00    -0.057 A 
ENDROOT
BRANCH   1   7
ATOM      7  N   UNL d   1       0.226   0.499  -0.686  0.00  0.00    -0.732 N 
ATOM      8  C   UNL d   1       1.208   0.754   0.347  0.00  0.00     0.284 C 
ATOM      9  H3  UNL d   1      -0.369   1.296  -0.899  0.00  0.00     0.395 HD
ENDBRANCH   1   7
TORSDOF 1
ENDMDL
