MODEL 1
REMARK minimizedAffinity -4.45533562
REMARK minimizedRMSD -1
REMARK  1 active torsions:
REMARK  status: ('A' for Active; 'I' for Inactive)
REMARK    1  A    between atoms: N_2  and  C1_3 
ROOT
ATOM      1  C1  UNL d   1      -1.965   0.433   1.365  0.00  0.00     0.143 A 
ATOM      2  C2  UNL d   1      -1.278   0.533   0.151  0.00  0.00    -0.057 A 
ATOM      3  C3  UNL d   1       0.118   0.453   0.097  0.00  0.00     0.033 A 
ATOM      4  C4  UNL d   1       0.857   0.298   1.265  0.00  0.00    -0.042 A 
ATOM      5  C5  UNL d   1       0.198   0.221   2.487  0.00  0.00     0.033 A 
ATOM      6  C6  UNL d   1      -1.198   0.295   2.533  0.00  0.00    -0.057 A 
ENDROOT
BRANCH   1   7
ATOM      7  N   UNL d   1      -3.345   0.604   1.495  0.00  0.00    -0.732 N 
ATOM      8  C   UNL d   1      -3.884   1.558   2.441  0.00  0.00     0.284 C 
ATOM      9  H3  UNL d   1      -3.824   0.592   0.598  0.00  0.00     0.395 HD
ENDBRANCH   1   7
TORSDOF 1
ENDMDL
