MODEL 1
REMARK minimizedAffinity -0.351385057
REMARK minimizedRMSD -1
REMARK  1 active torsions:
REMARK  status: ('A' for Active; 'I' for Inactive)
REMARK    1  A    between atoms: C1_2  and  C2_3 
ROOT
ATOM      1  C2  UNL d   1       1.501  -0.822  -0.096  0.00  0.00    -0.081 A 
ATOM      2  C3  UNL d   1       2.496  -1.745  -0.438  0.00  0.00     0.006 A 
ATOM      3  C4  UNL d   1       3.523  -1.387  -1.315  0.00  0.00     0.002 A 
ATOM      4  C5  UNL d   1       3.576  -0.099  -1.857  0.00  0.00    -0.080 A 
ATOM      5  C6  UNL d   1       4.690   0.308  -2.776  0.00  0.00     0.076 C 
ATOM      6  C7  UNL d   1       2.572   0.819  -1.529  0.00  0.00     0.002 A 
ATOM      7  C8  UNL d   1       1.545   0.461  -0.654  0.00  0.00     0.006 A 
ENDROOT
BRANCH   1   8
ATOM      8  C1  UNL d   1       0.428  -1.184   0.899  0.00  0.00     0.054 C 
ATOM      9  C   UNL d   1       0.259  -0.097   1.951  0.00  0.00     0.018 C 
ENDBRANCH   1   8
TORSDOF 1
ENDMDL
