MODEL 1
REMARK minimizedAffinity -0.917414665
REMARK minimizedRMSD -1
REMARK  1 active torsions:
REMARK  status: ('A' for Active; 'I' for Inactive)
REMARK    1  A    between atoms: C1_2  and  C2_3 
ROOT
ATOM      1  C2  UNL d   1       0.041  -0.435   1.738  0.00  0.00    -0.081 A 
ATOM      2  C3  UNL d   1       0.103  -1.513   0.847  0.00  0.00     0.006 A 
ATOM      3  C4  UNL d   1       1.099  -1.567  -0.131  0.00  0.00     0.002 A 
ATOM      4  C5  UNL d   1       2.054  -0.550  -0.229  0.00  0.00    -0.080 A 
ATOM      5  C6  UNL d   1       3.147  -0.611  -1.255  0.00  0.00     0.076 C 
ATOM      6  C7  UNL d   1       1.982   0.536   0.650  0.00  0.00     0.002 A 
ATOM      7  C8  UNL d   1       0.986   0.592   1.627  0.00  0.00     0.006 A 
ENDROOT
BRANCH   1   8
ATOM      8  C1  UNL d   1      -0.992  -0.405   2.834  0.00  0.00     0.054 C 
ATOM      9  C   UNL d   1      -2.188  -1.282   2.492  0.00  0.00     0.018 C 
ENDBRANCH   1   8
TORSDOF 1
ENDMDL
