MODEL 1
REMARK minimizedAffinity -0.00702657551
REMARK minimizedRMSD -1
REMARK  1 active torsions:
REMARK  status: ('A' for Active; 'I' for Inactive)
REMARK    1  A    between atoms: C1_2  and  C2_3 
ROOT
ATOM      1  C2  UNL d   1       1.658  -0.468  -0.147  0.00  0.00    -0.081 A 
ATOM      2  C3  UNL d   1       2.234  -1.704  -0.463  0.00  0.00     0.006 A 
ATOM      3  C4  UNL d   1       3.385  -1.768  -1.252  0.00  0.00     0.002 A 
ATOM      4  C5  UNL d   1       3.983  -0.597  -1.730  0.00  0.00    -0.080 A 
ATOM      5  C6  UNL d   1       5.237  -0.650  -2.553  0.00  0.00     0.076 C 
ATOM      6  C7  UNL d   1       3.398   0.637  -1.429  0.00  0.00     0.002 A 
ATOM      7  C8  UNL d   1       2.247   0.701  -0.641  0.00  0.00     0.006 A 
ENDROOT
BRANCH   1   8
ATOM      8  C1  UNL d   1       0.454  -0.392   0.757  0.00  0.00     0.054 C 
ATOM      9  C   UNL d   1       0.606   0.715   1.790  0.00  0.00     0.018 C 
ENDBRANCH   1   8
TORSDOF 1
ENDMDL
