MODEL 1
REMARK minimizedAffinity 2.4954958
REMARK minimizedRMSD -1
REMARK  1 active torsions:
REMARK  status: ('A' for Active; 'I' for Inactive)
REMARK    1  A    between atoms: C1_2  and  C2_3 
ROOT
ATOM      1  C2  UNL d   1       3.777  -0.990  -1.098  0.00  0.00    -0.081 A 
ATOM      2  C3  UNL d   1       3.568   0.334  -0.692  0.00  0.00     0.006 A 
ATOM      3  C4  UNL d   1       2.411   0.686   0.007  0.00  0.00     0.002 A 
ATOM      4  C5  UNL d   1       1.448  -0.280   0.318  0.00  0.00    -0.080 A 
ATOM      5  C6  UNL d   1       0.215   0.079   1.094  0.00  0.00     0.076 C 
ATOM      6  C7  UNL d   1       1.648  -1.599  -0.104  0.00  0.00     0.002 A 
ATOM      7  C8  UNL d   1       2.804  -1.952  -0.803  0.00  0.00     0.006 A 
ENDROOT
BRANCH   1   8
ATOM      8  C1  UNL d   1       5.054  -1.385  -1.795  0.00  0.00     0.054 C 
ATOM      9  C   UNL d   1       5.803  -0.166  -2.312  0.00  0.00     0.018 C 
ENDBRANCH   1   8
TORSDOF 1
ENDMDL
