MODEL 1
REMARK minimizedAffinity 0.664524853
REMARK minimizedRMSD -1
REMARK  1 active torsions:
REMARK  status: ('A' for Active; 'I' for Inactive)
REMARK    1  A    between atoms: C1_2  and  C2_3 
ROOT
ATOM      1  C2  UNL d   1      -0.394  -0.533   1.783  0.00  0.00    -0.081 A 
ATOM      2  C3  UNL d   1       0.183   0.495   1.027  0.00  0.00     0.006 A 
ATOM      3  C4  UNL d   1       1.392   0.288   0.357  0.00  0.00     0.002 A 
ATOM      4  C5  UNL d   1       2.039  -0.950   0.426  0.00  0.00    -0.080 A 
ATOM      5  C6  UNL d   1       3.321  -1.194  -0.313  0.00  0.00     0.076 C 
ATOM      6  C7  UNL d   1       1.471  -1.971   1.196  0.00  0.00     0.002 A 
ATOM      7  C8  UNL d   1       0.263  -1.765   1.866  0.00  0.00     0.006 A 
ENDROOT
BRANCH   1   8
ATOM      8  C1  UNL d   1      -1.729  -0.334   2.454  0.00  0.00     0.054 C 
ATOM      9  C   UNL d   1      -2.701  -1.448   2.092  0.00  0.00     0.018 C 
ENDBRANCH   1   8
TORSDOF 1
ENDMDL
