MODEL 1
REMARK minimizedAffinity -1.28395593
REMARK minimizedRMSD -1
REMARK  1 active torsions:
REMARK  status: ('A' for Active; 'I' for Inactive)
REMARK    1  A    between atoms: C1_2  and  C2_3 
ROOT
ATOM      1  C2  UNL d   1       3.581  -0.004  -1.850  0.00  0.00    -0.081 A 
ATOM      2  C3  UNL d   1       3.270  -1.322  -1.491  0.00  0.00     0.006 A 
ATOM      3  C4  UNL d   1       2.296  -1.581  -0.524  0.00  0.00     0.002 A 
ATOM      4  C5  UNL d   1       1.612  -0.529   0.095  0.00  0.00    -0.080 A 
ATOM      5  C6  UNL d   1       0.543  -0.794   1.113  0.00  0.00     0.076 C 
ATOM      6  C7  UNL d   1       1.936   0.788  -0.251  0.00  0.00     0.002 A 
ATOM      7  C8  UNL d   1       2.910   1.048  -1.218  0.00  0.00     0.006 A 
ENDROOT
BRANCH   1   8
ATOM      8  C1  UNL d   1       4.585   0.276  -2.939  0.00  0.00     0.054 C 
ATOM      9  C   UNL d   1       5.792  -0.644  -2.830  0.00  0.00     0.018 C 
ENDBRANCH   1   8
TORSDOF 1
ENDMDL
