MODEL 1
REMARK minimizedAffinity -1.61864603
REMARK minimizedRMSD -1
REMARK  1 active torsions:
REMARK  status: ('A' for Active; 'I' for Inactive)
REMARK    1  A    between atoms: C1_2  and  C2_3 
ROOT
ATOM      1  C2  UNL d   1      -0.129  -0.665   1.593  0.00  0.00    -0.081 A 
ATOM      2  C3  UNL d   1       0.732   0.421   1.389  0.00  0.00     0.006 A 
ATOM      3  C4  UNL d   1       1.936   0.250   0.702  0.00  0.00     0.002 A 
ATOM      4  C5  UNL d   1       2.297  -1.005   0.202  0.00  0.00    -0.080 A 
ATOM      5  C6  UNL d   1       3.572  -1.195  -0.563  0.00  0.00     0.076 C 
ATOM      6  C7  UNL d   1       1.445  -2.094   0.421  0.00  0.00     0.002 A 
ATOM      7  C8  UNL d   1       0.241  -1.924   1.108  0.00  0.00     0.006 A 
ENDROOT
BRANCH   1   8
ATOM      8  C1  UNL d   1      -1.458  -0.471   2.277  0.00  0.00     0.054 C 
ATOM      9  C   UNL d   1      -2.432  -1.585   1.919  0.00  0.00     0.018 C 
ENDBRANCH   1   8
TORSDOF 1
ENDMDL
