MODEL 1
REMARK minimizedAffinity 1.85241437
REMARK minimizedRMSD -1
REMARK  1 active torsions:
REMARK  status: ('A' for Active; 'I' for Inactive)
REMARK    1  A    between atoms: C1_2  and  C2_3 
ROOT
ATOM      1  C2  UNL d   1      -0.464  -0.593   1.834  0.00  0.00    -0.081 A 
ATOM      2  C3  UNL d   1       0.462   0.457   1.808  0.00  0.00     0.006 A 
ATOM      3  C4  UNL d   1       1.649   0.336   1.081  0.00  0.00     0.002 A 
ATOM      4  C5  UNL d   1       1.926  -0.832   0.364  0.00  0.00    -0.080 A 
ATOM      5  C6  UNL d   1       3.183  -0.963  -0.445  0.00  0.00     0.076 C 
ATOM      6  C7  UNL d   1       1.009  -1.888   0.404  0.00  0.00     0.002 A 
ATOM      7  C8  UNL d   1      -0.177  -1.768   1.131  0.00  0.00     0.006 A 
ENDROOT
BRANCH   1   8
ATOM      8  C1  UNL d   1      -1.775  -0.442   2.564  0.00  0.00     0.054 C 
ATOM      9  C   UNL d   1      -2.811  -1.431   2.050  0.00  0.00     0.018 C 
ENDBRANCH   1   8
TORSDOF 1
ENDMDL
