MODEL 1
REMARK minimizedAffinity 0.241920039
REMARK minimizedRMSD -1
REMARK  1 active torsions:
REMARK  status: ('A' for Active; 'I' for Inactive)
REMARK    1  A    between atoms: C1_2  and  C2_3 
ROOT
ATOM      1  C2  UNL d   1       2.239   0.337   0.084  0.00  0.00    -0.081 A 
ATOM      2  C3  UNL d   1       2.719  -0.940  -0.232  0.00  0.00     0.006 A 
ATOM      3  C4  UNL d   1       3.712  -1.104  -1.200  0.00  0.00     0.002 A 
ATOM      4  C5  UNL d   1       4.247   0.005  -1.863  0.00  0.00    -0.080 A 
ATOM      5  C6  UNL d   1       5.335  -0.155  -2.884  0.00  0.00     0.076 C 
ATOM      6  C7  UNL d   1       3.756   1.280  -1.561  0.00  0.00     0.002 A 
ATOM      7  C8  UNL d   1       2.763   1.444  -0.593  0.00  0.00     0.006 A 
ENDROOT
BRANCH   1   8
ATOM      8  C1  UNL d   1       1.215   0.523   1.174  0.00  0.00     0.054 C 
ATOM      9  C   UNL d   1       0.507  -0.785   1.497  0.00  0.00     0.018 C 
ENDBRANCH   1   8
TORSDOF 1
ENDMDL
