MODEL 1
REMARK minimizedAffinity -1.53794813
REMARK minimizedRMSD -1
REMARK  1 active torsions:
REMARK  status: ('A' for Active; 'I' for Inactive)
REMARK    1  A    between atoms: C1_2  and  C2_3 
ROOT
ATOM      1  C2  UNL d   1       0.769  -0.946   2.124  0.00  0.00    -0.081 A 
ATOM      2  C3  UNL d   1       0.391  -2.184   1.590  0.00  0.00     0.006 A 
ATOM      3  C4  UNL d   1      -0.956  -2.474   1.359  0.00  0.00     0.002 A 
ATOM      4  C5  UNL d   1      -1.945  -1.528   1.650  0.00  0.00    -0.080 A 
ATOM      5  C6  UNL d   1      -3.392  -1.815   1.379  0.00  0.00     0.076 C 
ATOM      6  C7  UNL d   1      -1.569  -0.298   2.200  0.00  0.00     0.002 A 
ATOM      7  C8  UNL d   1      -0.222  -0.009   2.432  0.00  0.00     0.006 A 
ENDROOT
BRANCH   1   8
ATOM      8  C1  UNL d   1       2.226  -0.607   2.315  0.00  0.00     0.054 C 
ATOM      9  C   UNL d   1       2.979  -0.641   0.992  0.00  0.00     0.018 C 
ENDBRANCH   1   8
TORSDOF 1
ENDMDL
