MODEL 1
REMARK minimizedAffinity 26.0051613
REMARK minimizedRMSD -1
REMARK  0 active torsions:
REMARK  status: ('A' for Active; 'I' for Inactive)
ROOT
ATOM      1  C   UNL d   1      -1.295  -6.000  -4.303  0.00  0.00    -0.002 A 
ATOM      2  C1  UNL d   1      -1.692  -5.114  -5.294  0.00  0.00     0.010 A 
ATOM      3  C2  UNL d   1      -1.911  -3.767  -4.998  0.00  0.00     0.041 A 
ATOM      4  C3  UNL d   1      -1.720  -3.321  -3.675  0.00  0.00    -0.075 A 
ATOM      5  S   UNL d   1      -1.928  -1.717  -3.079  0.00  0.00     0.015 SA
ATOM      6  C4  UNL d   1      -1.494  -2.170  -1.494  0.00  0.00     0.022 A 
ATOM      7  C5  UNL d   1      -1.195  -3.509  -1.404  0.00  0.00     0.026 A 
ATOM      8  C6  UNL d   1      -1.320  -4.194  -2.659  0.00  0.00    -0.082 A 
ATOM      9  C7  UNL d   1      -1.107  -5.554  -2.992  0.00  0.00     0.045 A 
ENDROOT
TORSDOF 0
ENDMDL
