MODEL 1
REMARK minimizedAffinity 16.3488522
REMARK minimizedRMSD -1
REMARK  0 active torsions:
REMARK  status: ('A' for Active; 'I' for Inactive)
ROOT
ATOM      1  C   UNL d   1       0.572  -1.353  -5.404  0.00  0.00    -0.002 A 
ATOM      2  C1  UNL d   1       1.451  -2.415  -5.251  0.00  0.00     0.010 A 
ATOM      3  C2  UNL d   1       2.831  -2.201  -5.249  0.00  0.00     0.041 A 
ATOM      4  C3  UNL d   1       3.317  -0.887  -5.405  0.00  0.00    -0.075 A 
ATOM      5  S   UNL d   1       4.966  -0.385  -5.434  0.00  0.00     0.015 SA
ATOM      6  C4  UNL d   1       4.542   1.251  -5.650  0.00  0.00     0.022 A 
ATOM      7  C5  UNL d   1       3.179   1.428  -5.701  0.00  0.00     0.026 A 
ATOM      8  C6  UNL d   1       2.451   0.199  -5.560  0.00  0.00    -0.082 A 
ATOM      9  C7  UNL d   1       1.057  -0.052  -5.558  0.00  0.00     0.045 A 
ENDROOT
TORSDOF 0
ENDMDL
