MODEL 1
REMARK minimizedAffinity 20.796505
REMARK minimizedRMSD -1
REMARK  0 active torsions:
REMARK  status: ('A' for Active; 'I' for Inactive)
ROOT
ATOM      1  C   UNL d   1       1.408  -0.113  -5.247  0.00  0.00    -0.002 A 
ATOM      2  C1  UNL d   1       1.629  -1.259  -5.999  0.00  0.00     0.010 A 
ATOM      3  C2  UNL d   1       0.697  -2.299  -5.999  0.00  0.00     0.041 A 
ATOM      4  C3  UNL d   1      -0.473  -2.166  -5.225  0.00  0.00    -0.075 A 
ATOM      5  S   UNL d   1      -1.754  -3.310  -5.073  0.00  0.00     0.015 SA
ATOM      6  C4  UNL d   1      -2.625  -2.304  -4.008  0.00  0.00     0.022 A 
ATOM      7  C5  UNL d   1      -1.969  -1.121  -3.763  0.00  0.00     0.026 A 
ATOM      8  C6  UNL d   1      -0.718  -1.022  -4.461  0.00  0.00    -0.082 A 
ATOM      9  C7  UNL d   1       0.246   0.015  -4.481  0.00  0.00     0.045 A 
ENDROOT
TORSDOF 0
ENDMDL
