MODEL 1
REMARK minimizedAffinity 26.8793392
REMARK minimizedRMSD -1
REMARK  0 active torsions:
REMARK  status: ('A' for Active; 'I' for Inactive)
ROOT
ATOM      1  C   UNL d   1      -1.502  -2.423  -4.112  0.00  0.00    -0.002 A 
ATOM      2  C1  UNL d   1      -1.093  -2.906  -5.347  0.00  0.00     0.010 A 
ATOM      3  C2  UNL d   1       0.007  -2.346  -6.000  0.00  0.00     0.041 A 
ATOM      4  C3  UNL d   1       0.696  -1.283  -5.384  0.00  0.00    -0.075 A 
ATOM      5  S   UNL d   1       2.072  -0.443  -5.996  0.00  0.00     0.015 SA
ATOM      6  C4  UNL d   1       2.149   0.576  -4.633  0.00  0.00     0.022 A 
ATOM      7  C5  UNL d   1       1.157   0.296  -3.723  0.00  0.00     0.026 A 
ATOM      8  C6  UNL d   1       0.304  -0.780  -4.140  0.00  0.00    -0.082 A 
ATOM      9  C7  UNL d   1      -0.815  -1.369  -3.504  0.00  0.00     0.045 A 
ENDROOT
TORSDOF 0
ENDMDL
