MODEL 1
REMARK minimizedAffinity 16.6927395
REMARK minimizedRMSD -1
REMARK  0 active torsions:
REMARK  status: ('A' for Active; 'I' for Inactive)
ROOT
ATOM      1  C   UNL d   1       4.844  -0.757   5.733  0.00  0.00    -0.002 A 
ATOM      2  C1  UNL d   1       4.264  -1.989   6.000  0.00  0.00     0.010 A 
ATOM      3  C2  UNL d   1       3.045  -2.341   5.417  0.00  0.00     0.041 A 
ATOM      4  C3  UNL d   1       2.414  -1.426   4.551  0.00  0.00    -0.075 A 
ATOM      5  S   UNL d   1       0.918  -1.642   3.722  0.00  0.00     0.015 SA
ATOM      6  C4  UNL d   1       1.014  -0.104   2.994  0.00  0.00     0.022 A 
ATOM      7  C5  UNL d   1       2.153   0.571   3.363  0.00  0.00     0.026 A 
ATOM      8  C6  UNL d   1       2.979  -0.180   4.266  0.00  0.00    -0.082 A 
ATOM      9  C7  UNL d   1       4.215   0.148   4.874  0.00  0.00     0.045 A 
ENDROOT
TORSDOF 0
ENDMDL
