MODEL 1
REMARK minimizedAffinity 1.20821404
REMARK minimizedRMSD -1
REMARK  0 active torsions:
REMARK  status: ('A' for Active; 'I' for Inactive)
ROOT
ATOM      1  C4' PXY d   1       0.605   1.621   0.845  0.00  0.00     0.077 C 
ATOM      2  C1' PXY d   1      -5.135   1.237   0.279  0.00  0.00     0.077 C 
ATOM      3  C1  PXY d   1      -3.630   1.331   0.439  0.00  0.00    -0.082 A 
ATOM      4  C2  PXY d   1      -2.971   2.320  -0.143  0.00  0.00     0.003 A 
ATOM      5  C3  PXY d   1      -1.607   2.402  -0.035  0.00  0.00     0.003 A 
ATOM      6  C4  PXY d   1      -0.915   1.492   0.719  0.00  0.00    -0.082 A 
ATOM      7  C5  PXY d   1      -1.582   0.486   1.324  0.00  0.00     0.003 A 
ATOM      8  C6  PXY d   1      -2.962   0.397   1.169  0.00  0.00     0.003 A 
ENDROOT
TORSDOF 0
ENDMDL
