MODEL 1
REMARK minimizedAffinity 0.611242533
REMARK minimizedRMSD -1
REMARK  0 active torsions:
REMARK  status: ('A' for Active; 'I' for Inactive)
ROOT
ATOM      1  C4' PXY d   1      -4.790   1.382   0.012  0.00  0.00     0.077 C 
ATOM      2  C1' PXY d   1       0.960   1.175   0.562  0.00  0.00     0.077 C 
ATOM      3  C1  PXY d   1      -0.548   1.216   0.418  0.00  0.00    -0.082 A 
ATOM      4  C2  PXY d   1      -1.125   2.275  -0.128  0.00  0.00     0.003 A 
ATOM      5  C3  PXY d   1      -2.490   2.343  -0.237  0.00  0.00     0.003 A 
ATOM      6  C4  PXY d   1      -3.270   1.293   0.169  0.00  0.00    -0.082 A 
ATOM      7  C5  PXY d   1      -2.689   0.205   0.717  0.00  0.00     0.003 A 
ATOM      8  C6  PXY d   1      -1.304   0.173   0.856  0.00  0.00     0.003 A 
ENDROOT
TORSDOF 0
ENDMDL
