MODEL 1
REMARK minimizedAffinity 4.86029291
REMARK minimizedRMSD -1
REMARK  0 active torsions:
REMARK  status: ('A' for Active; 'I' for Inactive)
ROOT
ATOM      1  C4' PXY d   1      -2.265  -4.086  -1.390  0.00  0.00     0.077 C 
ATOM      2  C1' PXY d   1      -1.090  -2.934   4.152  0.00  0.00     0.077 C 
ATOM      3  C1  PXY d   1      -1.390  -3.246   2.699  0.00  0.00    -0.082 A 
ATOM      4  C2  PXY d   1      -1.870  -2.297   1.912  0.00  0.00     0.003 A 
ATOM      5  C3  PXY d   1      -2.176  -2.570   0.603  0.00  0.00     0.003 A 
ATOM      6  C4  PXY d   1      -1.939  -3.813   0.082  0.00  0.00    -0.082 A 
ATOM      7  C5  PXY d   1      -1.440  -4.784   0.876  0.00  0.00     0.003 A 
ATOM      8  C6  PXY d   1      -1.174  -4.498   2.212  0.00  0.00     0.003 A 
ENDROOT
TORSDOF 0
ENDMDL
