MODEL 1
REMARK minimizedAffinity -0.987837017
REMARK minimizedRMSD -1
REMARK  0 active torsions:
REMARK  status: ('A' for Active; 'I' for Inactive)
ROOT
ATOM      1  C4' PXY d   1       0.906   1.425   1.356  0.00  0.00     0.077 C 
ATOM      2  C1' PXY d   1      -4.740   1.350   0.121  0.00  0.00     0.077 C 
ATOM      3  C1  PXY d   1      -3.261   1.360   0.454  0.00  0.00    -0.082 A 
ATOM      4  C2  PXY d   1      -2.557   2.465   0.270  0.00  0.00     0.003 A 
ATOM      5  C3  PXY d   1      -1.212   2.482   0.535  0.00  0.00     0.003 A 
ATOM      6  C4  PXY d   1      -0.592   1.372   1.043  0.00  0.00    -0.082 A 
ATOM      7  C5  PXY d   1      -1.305   0.244   1.243  0.00  0.00     0.003 A 
ATOM      8  C6  PXY d   1      -2.661   0.235   0.929  0.00  0.00     0.003 A 
ENDROOT
TORSDOF 0
ENDMDL
