MODEL 1
REMARK minimizedAffinity -5.69242048
REMARK minimizedRMSD -1
REMARK  0 active torsions:
REMARK  status: ('A' for Active; 'I' for Inactive)
ROOT
ATOM      1  C4' PXY d   1       0.563   1.406  -0.202  0.00  0.00     0.077 C 
ATOM      2  C1' PXY d   1      -5.158   2.044   0.323  0.00  0.00     0.077 C 
ATOM      3  C1  PXY d   1      -3.658   1.869   0.196  0.00  0.00    -0.082 A 
ATOM      4  C2  PXY d   1      -2.947   2.775  -0.455  0.00  0.00     0.003 A 
ATOM      5  C3  PXY d   1      -1.593   2.616  -0.607  0.00  0.00     0.003 A 
ATOM      6  C4  PXY d   1      -0.953   1.547  -0.041  0.00  0.00    -0.082 A 
ATOM      7  C5  PXY d   1      -1.670   0.624   0.634  0.00  0.00     0.003 A 
ATOM      8  C6  PXY d   1      -3.049   0.782   0.742  0.00  0.00     0.003 A 
ENDROOT
TORSDOF 0
ENDMDL
