MODEL 1
REMARK minimizedAffinity 2.56301332
REMARK minimizedRMSD -1
REMARK  0 active torsions:
REMARK  status: ('A' for Active; 'I' for Inactive)
ROOT
ATOM      1  C4' PXY d   1       4.889   5.989   4.826  0.00  0.00     0.077 C 
ATOM      2  C1' PXY d   1       4.231   5.949  -0.917  0.00  0.00     0.077 C 
ATOM      3  C1  PXY d   1       4.416   5.954   0.588  0.00  0.00    -0.082 A 
ATOM      4  C2  PXY d   1       3.354   5.928   1.378  0.00  0.00     0.003 A 
ATOM      5  C3  PXY d   1       3.502   5.964   2.740  0.00  0.00     0.003 A 
ATOM      6  C4  PXY d   1       4.751   5.975   3.301  0.00  0.00    -0.082 A 
ATOM      7  C5  PXY d   1       5.839   5.991   2.503  0.00  0.00     0.003 A 
ATOM      8  C6  PXY d   1       5.667   5.995   1.122  0.00  0.00     0.003 A 
ENDROOT
TORSDOF 0
ENDMDL
