MODEL 1
REMARK minimizedAffinity 1.89580691
REMARK minimizedRMSD -1
REMARK  0 active torsions:
REMARK  status: ('A' for Active; 'I' for Inactive)
ROOT
ATOM      1  C4' PXY d   1      -2.604  -2.450   0.837  0.00  0.00     0.077 C 
ATOM      2  C1' PXY d   1       0.486  -6.000   4.193  0.00  0.00     0.077 C 
ATOM      3  C1  PXY d   1      -0.321  -5.076   3.302  0.00  0.00    -0.082 A 
ATOM      4  C2  PXY d   1      -0.532  -3.825   3.678  0.00  0.00     0.003 A 
ATOM      5  C3  PXY d   1      -1.287  -2.985   2.900  0.00  0.00     0.003 A 
ATOM      6  C4  PXY d   1      -1.787  -3.415   1.700  0.00  0.00    -0.082 A 
ATOM      7  C5  PXY d   1      -1.567  -4.687   1.305  0.00  0.00     0.003 A 
ATOM      8  C6  PXY d   1      -0.833  -5.536   2.128  0.00  0.00     0.003 A 
ENDROOT
TORSDOF 0
ENDMDL
