MODEL 1
REMARK minimizedAffinity 6.04525661
REMARK minimizedRMSD -1
REMARK  0 active torsions:
REMARK  status: ('A' for Active; 'I' for Inactive)
ROOT
ATOM      1  C4' PXY d   1      -0.905   3.556   3.235  0.00  0.00     0.077 C 
ATOM      2  C1' PXY d   1       2.189   0.109  -0.223  0.00  0.00     0.077 C 
ATOM      3  C1  PXY d   1       1.389   1.017   0.689  0.00  0.00    -0.082 A 
ATOM      4  C2  PXY d   1       0.123   0.733   0.949  0.00  0.00     0.003 A 
ATOM      5  C3  PXY d   1      -0.625   1.561   1.746  0.00  0.00     0.003 A 
ATOM      6  C4  PXY d   1      -0.056   2.662   2.327  0.00  0.00    -0.082 A 
ATOM      7  C5  PXY d   1       1.238   2.953   2.076  0.00  0.00     0.003 A 
ATOM      8  C6  PXY d   1       1.968   2.123   1.231  0.00  0.00     0.003 A 
ENDROOT
TORSDOF 0
ENDMDL
