MODEL 1
REMARK minimizedAffinity 1.89582205
REMARK minimizedRMSD -1
REMARK  0 active torsions:
REMARK  status: ('A' for Active; 'I' for Inactive)
ROOT
ATOM      1  C4' PXY d   1       3.768   1.492   1.526  0.00  0.00     0.077 C 
ATOM      2  C1' PXY d   1      -1.528   3.137   3.157  0.00  0.00     0.077 C 
ATOM      3  C1  PXY d   1      -0.144   2.695   2.724  0.00  0.00    -0.082 A 
ATOM      4  C2  PXY d   1       0.920   3.170   3.351  0.00  0.00     0.003 A 
ATOM      5  C3  PXY d   1       2.180   2.805   2.952  0.00  0.00     0.003 A 
ATOM      6  C4  PXY d   1       2.351   1.904   1.935  0.00  0.00    -0.082 A 
ATOM      7  C5  PXY d   1       1.270   1.406   1.298  0.00  0.00     0.003 A 
ATOM      8  C6  PXY d   1       0.001   1.821   1.692  0.00  0.00     0.003 A 
ENDROOT
TORSDOF 0
ENDMDL
