MODEL 1
REMARK minimizedAffinity 3.17359018
REMARK minimizedRMSD -1
REMARK  0 active torsions:
REMARK  status: ('A' for Active; 'I' for Inactive)
ROOT
ATOM      1  C4' PXY d   1       3.316   1.829   1.609  0.00  0.00     0.077 C 
ATOM      2  C1' PXY d   1      -2.006   3.302   3.320  0.00  0.00     0.077 C 
ATOM      3  C1  PXY d   1      -0.615   2.906   2.865  0.00  0.00    -0.082 A 
ATOM      4  C2  PXY d   1       0.435   3.261   3.586  0.00  0.00     0.003 A 
ATOM      5  C3  PXY d   1       1.702   2.939   3.172  0.00  0.00     0.003 A 
ATOM      6  C4  PXY d   1       1.892   2.199   2.036  0.00  0.00    -0.082 A 
ATOM      7  C5  PXY d   1       0.825   1.823   1.300  0.00  0.00     0.003 A 
ATOM      8  C6  PXY d   1      -0.450   2.196   1.716  0.00  0.00     0.003 A 
ENDROOT
TORSDOF 0
ENDMDL
