MODEL 1
REMARK minimizedAffinity 3.05093765
REMARK minimizedRMSD -1
REMARK  0 active torsions:
REMARK  status: ('A' for Active; 'I' for Inactive)
ROOT
ATOM      1  C4' PXY d   1      -1.877   3.779   3.354  0.00  0.00     0.077 C 
ATOM      2  C1' PXY d   1       2.094   0.578   0.633  0.00  0.00     0.077 C 
ATOM      3  C1  PXY d   1       1.060   1.418   1.357  0.00  0.00    -0.082 A 
ATOM      4  C2  PXY d   1      -0.211   1.346   0.996  0.00  0.00     0.003 A 
ATOM      5  C3  PXY d   1      -1.154   2.122   1.619  0.00  0.00     0.003 A 
ATOM      6  C4  PXY d   1      -0.801   2.942   2.657  0.00  0.00    -0.082 A 
ATOM      7  C5  PXY d   1       0.492   3.013   3.039  0.00  0.00     0.003 A 
ATOM      8  C6  PXY d   1       1.441   2.247   2.367  0.00  0.00     0.003 A 
ENDROOT
TORSDOF 0
ENDMDL
