MODEL 1
REMARK minimizedAffinity 3.62176132
REMARK minimizedRMSD -1
REMARK  0 active torsions:
REMARK  status: ('A' for Active; 'I' for Inactive)
ROOT
ATOM      1  C4' PXY d   1       3.422   6.000   1.881  0.00  0.00     0.077 C 
ATOM      2  C1' PXY d   1      -1.028   2.494   3.028  0.00  0.00     0.077 C 
ATOM      3  C1  PXY d   1       0.139   3.409   2.715  0.00  0.00    -0.082 A 
ATOM      4  C2  PXY d   1       0.958   3.780   3.686  0.00  0.00     0.003 A 
ATOM      5  C3  PXY d   1       2.000   4.633   3.426  0.00  0.00     0.003 A 
ATOM      6  C4  PXY d   1       2.236   5.069   2.150  0.00  0.00    -0.082 A 
ATOM      7  C5  PXY d   1       1.411   4.687   1.152  0.00  0.00     0.003 A 
ATOM      8  C6  PXY d   1       0.335   3.853   1.444  0.00  0.00     0.003 A 
ENDROOT
TORSDOF 0
ENDMDL
