MODEL 1
REMARK minimizedAffinity 5.40407705
REMARK minimizedRMSD -1
REMARK  0 active torsions:
REMARK  status: ('A' for Active; 'I' for Inactive)
ROOT
ATOM      1  C4' PXY d   1      -1.866  -0.145   0.306  0.00  0.00     0.077 C 
ATOM      2  C1' PXY d   1       1.531   3.564   3.155  0.00  0.00     0.077 C 
ATOM      3  C1  PXY d   1       0.650   2.589   2.399  0.00  0.00    -0.082 A 
ATOM      4  C2  PXY d   1      -0.665   2.726   2.443  0.00  0.00     0.003 A 
ATOM      5  C3  PXY d   1      -1.478   1.834   1.792  0.00  0.00     0.003 A 
ATOM      6  C4  PXY d   1      -0.937   0.822   1.045  0.00  0.00    -0.082 A 
ATOM      7  C5  PXY d   1       0.404   0.682   0.987  0.00  0.00     0.003 A 
ATOM      8  C6  PXY d   1       1.210   1.573   1.688  0.00  0.00     0.003 A 
ENDROOT
TORSDOF 0
ENDMDL
