MODEL 1
REMARK minimizedAffinity 7.72535896
REMARK minimizedRMSD -1
REMARK  0 active torsions:
REMARK  status: ('A' for Active; 'I' for Inactive)
ROOT
ATOM      1  C4' PXY d   1      -0.931   1.270   1.709  0.00  0.00     0.077 C 
ATOM      2  C1' PXY d   1       2.350   1.676  -3.033  0.00  0.00     0.077 C 
ATOM      3  C1  PXY d   1       1.498   1.560  -1.785  0.00  0.00    -0.082 A 
ATOM      4  C2  PXY d   1       0.232   1.944  -1.820  0.00  0.00     0.003 A 
ATOM      5  C3  PXY d   1      -0.545   1.876  -0.691  0.00  0.00     0.003 A 
ATOM      6  C4  PXY d   1      -0.035   1.360   0.470  0.00  0.00    -0.082 A 
ATOM      7  C5  PXY d   1       1.252   0.957   0.510  0.00  0.00     0.003 A 
ATOM      8  C6  PXY d   1       2.035   1.072  -0.635  0.00  0.00     0.003 A 
ENDROOT
TORSDOF 0
ENDMDL
