MODEL 1
REMARK minimizedAffinity -3.77046275
REMARK minimizedRMSD -1
REMARK  0 active torsions:
REMARK  status: ('A' for Active; 'I' for Inactive)
ROOT
ATOM      1  C4' PXY d   1      -2.449   0.071  -0.069  0.00  0.00     0.077 C 
ATOM      2  C1' PXY d   1       1.811   2.665   2.853  0.00  0.00     0.077 C 
ATOM      3  C1  PXY d   1       0.702   1.984   2.076  0.00  0.00    -0.082 A 
ATOM      4  C2  PXY d   1      -0.557   2.154   2.449  0.00  0.00     0.003 A 
ATOM      5  C3  PXY d   1      -1.570   1.520   1.777  0.00  0.00     0.003 A 
ATOM      6  C4  PXY d   1      -1.297   0.747   0.680  0.00  0.00    -0.082 A 
ATOM      7  C5  PXY d   1      -0.016   0.578   0.287  0.00  0.00     0.003 A 
ATOM      8  C6  PXY d   1       1.001   1.197   1.008  0.00  0.00     0.003 A 
ENDROOT
TORSDOF 0
ENDMDL
