MODEL 1
REMARK minimizedAffinity 2.71826768
REMARK minimizedRMSD -1
REMARK  0 active torsions:
REMARK  status: ('A' for Active; 'I' for Inactive)
ROOT
ATOM      1  C4' PXY d   1      -2.087  -6.000   1.826  0.00  0.00     0.077 C 
ATOM      2  C1' PXY d   1       2.797  -5.956   4.918  0.00  0.00     0.077 C 
ATOM      3  C1  PXY d   1       1.510  -5.973   4.118  0.00  0.00    -0.082 A 
ATOM      4  C2  PXY d   1       1.562  -6.000   2.796  0.00  0.00     0.003 A 
ATOM      5  C3  PXY d   1       0.408  -5.983   2.055  0.00  0.00     0.003 A 
ATOM      6  C4  PXY d   1      -0.813  -5.992   2.675  0.00  0.00    -0.082 A 
ATOM      7  C5  PXY d   1      -0.875  -5.975   4.024  0.00  0.00     0.003 A 
ATOM      8  C6  PXY d   1       0.308  -5.951   4.756  0.00  0.00     0.003 A 
ENDROOT
TORSDOF 0
ENDMDL
