MODEL 1
REMARK minimizedAffinity 2.00775099
REMARK minimizedRMSD -1
REMARK  0 active torsions:
REMARK  status: ('A' for Active; 'I' for Inactive)
ROOT
ATOM      1  C4' PXY d   1      -0.970   2.639   3.235  0.00  0.00     0.077 C 
ATOM      2  C1' PXY d   1       2.280   1.017  -1.262  0.00  0.00     0.077 C 
ATOM      3  C1  PXY d   1       1.438   1.440  -0.074  0.00  0.00    -0.082 A 
ATOM      4  C2  PXY d   1       0.120   1.349  -0.142  0.00  0.00     0.003 A 
ATOM      5  C3  PXY d   1      -0.659   1.757   0.911  0.00  0.00     0.003 A 
ATOM      6  C4  PXY d   1      -0.079   2.214   2.064  0.00  0.00    -0.082 A 
ATOM      7  C5  PXY d   1       1.265   2.301   2.144  0.00  0.00     0.003 A 
ATOM      8  C6  PXY d   1       2.036   1.920   1.050  0.00  0.00     0.003 A 
ENDROOT
TORSDOF 0
ENDMDL
