MODEL 1
REMARK minimizedAffinity 1.30272877
REMARK minimizedRMSD -1
REMARK  0 active torsions:
REMARK  status: ('A' for Active; 'I' for Inactive)
ROOT
ATOM      1  C4' PXY d   1      -1.611   3.445   3.362  0.00  0.00     0.077 C 
ATOM      2  C1' PXY d   1       2.107   0.358   0.189  0.00  0.00     0.077 C 
ATOM      3  C1  PXY d   1       1.141   1.169   1.031  0.00  0.00    -0.082 A 
ATOM      4  C2  PXY d   1      -0.162   1.016   0.861  0.00  0.00     0.003 A 
ATOM      5  C3  PXY d   1      -1.049   1.764   1.591  0.00  0.00     0.003 A 
ATOM      6  C4  PXY d   1      -0.599   2.640   2.542  0.00  0.00    -0.082 A 
ATOM      7  C5  PXY d   1       0.729   2.794   2.728  0.00  0.00     0.003 A 
ATOM      8  C6  PXY d   1       1.614   2.055   1.949  0.00  0.00     0.003 A 
ENDROOT
TORSDOF 0
ENDMDL
