MODEL 1
REMARK minimizedAffinity -0.658089101
REMARK minimizedRMSD -1
REMARK  0 active torsions:
REMARK  status: ('A' for Active; 'I' for Inactive)
ROOT
ATOM      1  C4' PXY d   1       4.514   2.201   1.282  0.00  0.00     0.077 C 
ATOM      2  C1' PXY d   1      -0.975   2.446   3.078  0.00  0.00     0.077 C 
ATOM      3  C1  PXY d   1       0.463   2.369   2.603  0.00  0.00    -0.082 A 
ATOM      4  C2  PXY d   1       1.365   3.192   3.113  0.00  0.00     0.003 A 
ATOM      5  C3  PXY d   1       2.662   3.158   2.672  0.00  0.00     0.003 A 
ATOM      6  C4  PXY d   1       3.053   2.236   1.738  0.00  0.00    -0.082 A 
ATOM      7  C5  PXY d   1       2.141   1.386   1.221  0.00  0.00     0.003 A 
ATOM      8  C6  PXY d   1       0.820   1.464   1.652  0.00  0.00     0.003 A 
ENDROOT
TORSDOF 0
ENDMDL
