MODEL 1
REMARK minimizedAffinity 8.93587971
REMARK minimizedRMSD -1
REMARK  0 active torsions:
REMARK  status: ('A' for Active; 'I' for Inactive)
ROOT
ATOM      1  C4' PXY d   1       2.548  -0.130   0.492  0.00  0.00     0.077 C 
ATOM      2  C1' PXY d   1      -1.501   3.267   2.833  0.00  0.00     0.077 C 
ATOM      3  C1  PXY d   1      -0.430   2.385   2.223  0.00  0.00    -0.082 A 
ATOM      4  C2  PXY d   1      -0.745   1.559   1.238  0.00  0.00     0.003 A 
ATOM      5  C3  PXY d   1       0.204   0.731   0.697  0.00  0.00     0.003 A 
ATOM      6  C4  PXY d   1       1.501   0.786   1.132  0.00  0.00    -0.082 A 
ATOM      7  C5  PXY d   1       1.833   1.634   2.128  0.00  0.00     0.003 A 
ATOM      8  C6  PXY d   1       0.846   2.437   2.692  0.00  0.00     0.003 A 
ENDROOT
TORSDOF 0
ENDMDL
