MODEL 1
REMARK minimizedAffinity 8.06990528
REMARK minimizedRMSD -1
REMARK  0 active torsions:
REMARK  status: ('A' for Active; 'I' for Inactive)
ROOT
ATOM      1  C   UNL d   1      -1.516  -5.986  -5.893  0.00  0.00     0.020 A 
ATOM      2  C1  UNL d   1      -0.676  -5.962  -4.780  0.00  0.00     0.020 A 
ATOM      3  C2  UNL d   1      -0.999  -5.166  -3.679  0.00  0.00     0.034 A 
ATOM      4  C3  UNL d   1      -2.164  -4.390  -3.689  0.00  0.00     0.017 A 
ATOM      5  C4  UNL d   1      -3.006  -4.415  -4.807  0.00  0.00     0.017 A 
ATOM      6  C5  UNL d   1      -2.678  -5.214  -5.907  0.00  0.00     0.034 A 
ATOM      7 Cl   UNL d   1      -4.460  -3.485  -4.893  0.00  0.00    -0.070 Cl
ATOM      8 Cl1  UNL d   1      -2.501  -3.429  -2.294  0.00  0.00    -0.070 Cl
ENDROOT
TORSDOF 0
ENDMDL
