MODEL 1
REMARK minimizedAffinity 1.15342569
REMARK minimizedRMSD -1
REMARK  0 active torsions:
REMARK  status: ('A' for Active; 'I' for Inactive)
ROOT
ATOM      1  C   UNL d   1      -5.073  -4.563  -4.974  0.00  0.00     0.020 A 
ATOM      2  C1  UNL d   1      -4.606  -5.385  -6.000  0.00  0.00     0.020 A 
ATOM      3  C2  UNL d   1      -3.278  -5.815  -6.000  0.00  0.00     0.034 A 
ATOM      4  C3  UNL d   1      -2.411  -5.425  -4.972  0.00  0.00     0.017 A 
ATOM      5  C4  UNL d   1      -2.880  -4.601  -3.943  0.00  0.00     0.017 A 
ATOM      6  C5  UNL d   1      -4.211  -4.172  -3.948  0.00  0.00     0.034 A 
ATOM      7 Cl   UNL d   1      -1.871  -4.077  -2.642  0.00  0.00    -0.070 Cl
ATOM      8 Cl1  UNL d   1      -0.781  -5.995  -5.036  0.00  0.00    -0.070 Cl
ENDROOT
TORSDOF 0
ENDMDL
