MODEL 1
REMARK minimizedAffinity 0.842580259
REMARK minimizedRMSD -1
REMARK  0 active torsions:
REMARK  status: ('A' for Active; 'I' for Inactive)
ROOT
ATOM      1  C   UNL d   1      -2.092  -5.928  -5.888  0.00  0.00     0.020 A 
ATOM      2  C1  UNL d   1      -1.466  -4.693  -5.724  0.00  0.00     0.020 A 
ATOM      3  C2  UNL d   1      -2.231  -3.528  -5.637  0.00  0.00     0.034 A 
ATOM      4  C3  UNL d   1      -3.627  -3.596  -5.714  0.00  0.00     0.017 A 
ATOM      5  C4  UNL d   1      -4.255  -4.836  -5.877  0.00  0.00     0.017 A 
ATOM      6  C5  UNL d   1      -3.484  -5.999  -5.964  0.00  0.00     0.034 A 
ATOM      7 Cl   UNL d   1      -5.972  -4.999  -5.980  0.00  0.00    -0.070 Cl
ATOM      8 Cl1  UNL d   1      -4.510  -2.115  -5.598  0.00  0.00    -0.070 Cl
ENDROOT
TORSDOF 0
ENDMDL
