MODEL 1
REMARK minimizedAffinity -0.450358421
REMARK minimizedRMSD -1
REMARK  0 active torsions:
REMARK  status: ('A' for Active; 'I' for Inactive)
ROOT
ATOM      1  C   UNL d   1      -2.720  -1.843   1.461  0.00  0.00     0.020 A 
ATOM      2  C1  UNL d   1      -1.991  -0.755   1.939  0.00  0.00     0.020 A 
ATOM      3  C2  UNL d   1      -1.883   0.405   1.170  0.00  0.00     0.034 A 
ATOM      4  C3  UNL d   1      -2.504   0.481  -0.082  0.00  0.00     0.017 A 
ATOM      5  C4  UNL d   1      -3.236  -0.612  -0.561  0.00  0.00     0.017 A 
ATOM      6  C5  UNL d   1      -3.341  -1.771   0.213  0.00  0.00     0.034 A 
ATOM      7 Cl   UNL d   1      -4.030  -0.594  -2.096  0.00  0.00    -0.070 Cl
ATOM      8 Cl1  UNL d   1      -2.328   1.947  -0.979  0.00  0.00    -0.070 Cl
ENDROOT
TORSDOF 0
ENDMDL
