MODEL 1
REMARK minimizedAffinity -1.84930348
REMARK minimizedRMSD -1
REMARK  0 active torsions:
REMARK  status: ('A' for Active; 'I' for Inactive)
ROOT
ATOM      1  C   UNL d   1      -5.772  -5.604  -4.876  0.00  0.00     0.020 A 
ATOM      2  C1  UNL d   1      -5.042  -5.996  -5.997  0.00  0.00     0.020 A 
ATOM      3  C2  UNL d   1      -3.650  -5.882  -6.000  0.00  0.00     0.034 A 
ATOM      4  C3  UNL d   1      -2.984  -5.374  -4.879  0.00  0.00     0.017 A 
ATOM      5  C4  UNL d   1      -3.717  -4.980  -3.754  0.00  0.00     0.017 A 
ATOM      6  C5  UNL d   1      -5.110  -5.097  -3.757  0.00  0.00     0.034 A 
ATOM      7 Cl   UNL d   1      -2.965  -4.344  -2.333  0.00  0.00    -0.070 Cl
ATOM      8 Cl1  UNL d   1      -1.261  -5.260  -4.952  0.00  0.00    -0.070 Cl
ENDROOT
TORSDOF 0
ENDMDL
