MODEL 1
REMARK minimizedAffinity 0.401076794
REMARK minimizedRMSD -1
REMARK  0 active torsions:
REMARK  status: ('A' for Active; 'I' for Inactive)
ROOT
ATOM      1  C   UNL d   1      -1.897  -5.983  -5.146  0.00  0.00     0.020 A 
ATOM      2  C1  UNL d   1      -2.999  -6.000  -6.000  0.00  0.00     0.020 A 
ATOM      3  C2  UNL d   1      -4.144  -5.270  -5.676  0.00  0.00     0.034 A 
ATOM      4  C3  UNL d   1      -4.190  -4.520  -4.494  0.00  0.00     0.017 A 
ATOM      5  C4  UNL d   1      -3.083  -4.505  -3.638  0.00  0.00     0.017 A 
ATOM      6  C5  UNL d   1      -1.939  -5.237  -3.968  0.00  0.00     0.034 A 
ATOM      7 Cl   UNL d   1      -3.065  -3.603  -2.163  0.00  0.00    -0.070 Cl
ATOM      8 Cl1  UNL d   1      -5.639  -3.641  -4.156  0.00  0.00    -0.070 Cl
ENDROOT
TORSDOF 0
ENDMDL
