MODEL 1
REMARK minimizedAffinity 0.651836693
REMARK minimizedRMSD -1
REMARK  0 active torsions:
REMARK  status: ('A' for Active; 'I' for Inactive)
ROOT
ATOM      1  C   UNL d   1      -2.029  -5.795  -5.512  0.00  0.00     0.020 A 
ATOM      2  C1  UNL d   1      -1.729  -4.760  -4.627  0.00  0.00     0.020 A 
ATOM      3  C2  UNL d   1      -2.746  -3.931  -4.151  0.00  0.00     0.034 A 
ATOM      4  C3  UNL d   1      -4.069  -4.134  -4.561  0.00  0.00     0.017 A 
ATOM      5  C4  UNL d   1      -4.370  -5.172  -5.449  0.00  0.00     0.017 A 
ATOM      6  C5  UNL d   1      -3.347  -6.000  -5.922  0.00  0.00     0.034 A 
ATOM      7 Cl   UNL d   1      -5.978  -5.485  -5.999  0.00  0.00    -0.070 Cl
ATOM      8 Cl1  UNL d   1      -5.277  -3.070  -3.932  0.00  0.00    -0.070 Cl
ENDROOT
TORSDOF 0
ENDMDL
