MODEL 1
REMARK minimizedAffinity -1.51051998
REMARK minimizedRMSD -1
REMARK  0 active torsions:
REMARK  status: ('A' for Active; 'I' for Inactive)
ROOT
ATOM      1  C   UNL d   1      -4.171  -3.858  -5.888  0.00  0.00     0.020 A 
ATOM      2  C1  UNL d   1      -4.846  -3.906  -4.669  0.00  0.00     0.020 A 
ATOM      3  C2  UNL d   1      -4.243  -4.504  -3.561  0.00  0.00     0.034 A 
ATOM      4  C3  UNL d   1      -2.962  -5.056  -3.669  0.00  0.00     0.017 A 
ATOM      5  C4  UNL d   1      -2.285  -5.007  -4.893  0.00  0.00     0.017 A 
ATOM      6  C5  UNL d   1      -2.893  -4.407  -6.000  0.00  0.00     0.034 A 
ATOM      7 Cl   UNL d   1      -0.701  -5.667  -5.103  0.00  0.00    -0.070 Cl
ATOM      8 Cl1  UNL d   1      -2.277  -5.780  -2.257  0.00  0.00    -0.070 Cl
ENDROOT
TORSDOF 0
ENDMDL
