MODEL 1
REMARK minimizedAffinity 2.729105
REMARK minimizedRMSD -1
REMARK  0 active torsions:
REMARK  status: ('A' for Active; 'I' for Inactive)
ROOT
ATOM      1  C   UNL d   1      -2.472  -0.434   2.521  0.00  0.00     0.020 A 
ATOM      2  C1  UNL d   1      -2.414   0.193   1.276  0.00  0.00     0.020 A 
ATOM      3  C2  UNL d   1      -1.463  -0.209   0.336  0.00  0.00     0.034 A 
ATOM      4  C3  UNL d   1      -0.565  -1.239   0.638  0.00  0.00     0.017 A 
ATOM      5  C4  UNL d   1      -0.624  -1.867   1.888  0.00  0.00     0.017 A 
ATOM      6  C5  UNL d   1      -1.578  -1.461   2.826  0.00  0.00     0.034 A 
ATOM      7 Cl   UNL d   1       0.450  -3.146   2.333  0.00  0.00    -0.070 Cl
ATOM      8 Cl1  UNL d   1       0.584  -1.685  -0.572  0.00  0.00    -0.070 Cl
ENDROOT
TORSDOF 0
ENDMDL
