MODEL 1
REMARK minimizedAffinity -0.398073554
REMARK minimizedRMSD -1
REMARK  0 active torsions:
REMARK  status: ('A' for Active; 'I' for Inactive)
ROOT
ATOM      1  C   UNL d   1      -0.881  -6.000  -5.042  0.00  0.00     0.020 A 
ATOM      2  C1  UNL d   1      -1.792  -5.557  -6.000  0.00  0.00     0.020 A 
ATOM      3  C2  UNL d   1      -2.985  -4.952  -5.601  0.00  0.00     0.034 A 
ATOM      4  C3  UNL d   1      -3.271  -4.787  -4.241  0.00  0.00     0.017 A 
ATOM      5  C4  UNL d   1      -2.356  -5.231  -3.280  0.00  0.00     0.017 A 
ATOM      6  C5  UNL d   1      -1.163  -5.837  -3.685  0.00  0.00     0.034 A 
ATOM      7 Cl   UNL d   1      -2.639  -5.063  -1.583  0.00  0.00    -0.070 Cl
ATOM      8 Cl1  UNL d   1      -4.766  -4.029  -3.820  0.00  0.00    -0.070 Cl
ENDROOT
TORSDOF 0
ENDMDL
