MODEL 1
REMARK minimizedAffinity 1.32278788
REMARK minimizedRMSD -1
REMARK  0 active torsions:
REMARK  status: ('A' for Active; 'I' for Inactive)
ROOT
ATOM      1  C   UNL d   1      -1.766  -5.999  -6.000  0.00  0.00     0.020 A 
ATOM      2  C1  UNL d   1      -0.874  -5.997  -4.928  0.00  0.00     0.020 A 
ATOM      3  C2  UNL d   1      -1.241  -5.406  -3.717  0.00  0.00     0.034 A 
ATOM      4  C3  UNL d   1      -2.501  -4.815  -3.575  0.00  0.00     0.017 A 
ATOM      5  C4  UNL d   1      -3.395  -4.817  -4.651  0.00  0.00     0.017 A 
ATOM      6  C5  UNL d   1      -3.023  -5.411  -5.862  0.00  0.00     0.034 A 
ATOM      7 Cl   UNL d   1      -4.968  -4.107  -4.552  0.00  0.00    -0.070 Cl
ATOM      8 Cl1  UNL d   1      -2.887  -4.103  -2.048  0.00  0.00    -0.070 Cl
ENDROOT
TORSDOF 0
ENDMDL
