MODEL 1
REMARK minimizedAffinity 2.56261635
REMARK minimizedRMSD -1
REMARK  0 active torsions:
REMARK  status: ('A' for Active; 'I' for Inactive)
ROOT
ATOM      1  C   UNL d   1       0.681  -0.555   0.362  0.00  0.00     0.020 A 
ATOM      2  C1  UNL d   1       0.073   0.617   0.807  0.00  0.00     0.020 A 
ATOM      3  C2  UNL d   1      -1.106   0.553   1.552  0.00  0.00     0.034 A 
ATOM      4  C3  UNL d   1      -1.680  -0.687   1.855  0.00  0.00     0.017 A 
ATOM      5  C4  UNL d   1      -1.068  -1.864   1.409  0.00  0.00     0.017 A 
ATOM      6  C5  UNL d   1       0.112  -1.794   0.662  0.00  0.00     0.034 A 
ATOM      7 Cl   UNL d   1      -1.717  -3.431   1.743  0.00  0.00    -0.070 Cl
ATOM      8 Cl1  UNL d   1      -3.139  -0.693   2.782  0.00  0.00    -0.070 Cl
ENDROOT
TORSDOF 0
ENDMDL
