MODEL 1
REMARK minimizedAffinity -0.156078294
REMARK minimizedRMSD -1
REMARK  0 active torsions:
REMARK  status: ('A' for Active; 'I' for Inactive)
ROOT
ATOM      1  C   UNL d   1      -5.806  -5.233  -6.000  0.00  0.00     0.020 A 
ATOM      2  C1  UNL d   1      -4.652  -5.983  -5.775  0.00  0.00     0.020 A 
ATOM      3  C2  UNL d   1      -3.690  -5.529  -4.870  0.00  0.00     0.034 A 
ATOM      4  C3  UNL d   1      -3.881  -4.324  -4.185  0.00  0.00     0.017 A 
ATOM      5  C4  UNL d   1      -5.040  -3.572  -4.411  0.00  0.00     0.017 A 
ATOM      6  C5  UNL d   1      -6.000  -4.031  -5.319  0.00  0.00     0.034 A 
ATOM      7 Cl   UNL d   1      -5.346  -2.075  -3.603  0.00  0.00    -0.070 Cl
ATOM      8 Cl1  UNL d   1      -2.651  -3.824  -3.079  0.00  0.00    -0.070 Cl
ENDROOT
TORSDOF 0
ENDMDL
