MODEL 1
REMARK minimizedAffinity -0.454997599
REMARK minimizedRMSD -1
REMARK  0 active torsions:
REMARK  status: ('A' for Active; 'I' for Inactive)
ROOT
ATOM      1  C   UNL d   1      -5.956  -4.641  -5.078  0.00  0.00     0.020 A 
ATOM      2  C1  UNL d   1      -5.476  -5.571  -5.999  0.00  0.00     0.020 A 
ATOM      3  C2  UNL d   1      -4.139  -5.973  -5.954  0.00  0.00     0.034 A 
ATOM      4  C3  UNL d   1      -3.278  -5.446  -4.984  0.00  0.00     0.017 A 
ATOM      5  C4  UNL d   1      -3.761  -4.513  -4.060  0.00  0.00     0.017 A 
ATOM      6  C5  UNL d   1      -5.100  -4.114  -4.110  0.00  0.00     0.034 A 
ATOM      7 Cl   UNL d   1      -2.759  -3.818  -2.835  0.00  0.00    -0.070 Cl
ATOM      8 Cl1  UNL d   1      -1.638  -5.989  -4.986  0.00  0.00    -0.070 Cl
ENDROOT
TORSDOF 0
ENDMDL
