MODEL 1
REMARK minimizedAffinity -2.2399416
REMARK minimizedRMSD -1
REMARK  0 active torsions:
REMARK  status: ('A' for Active; 'I' for Inactive)
ROOT
ATOM      1  C   UNL d   1      -1.943  -5.243  -5.307  0.00  0.00     0.020 A 
ATOM      2  C1  UNL d   1      -3.017  -5.996  -5.780  0.00  0.00     0.020 A 
ATOM      3  C2  UNL d   1      -4.258  -5.389  -5.987  0.00  0.00     0.034 A 
ATOM      4  C3  UNL d   1      -4.428  -4.026  -5.721  0.00  0.00     0.017 A 
ATOM      5  C4  UNL d   1      -3.349  -3.271  -5.245  0.00  0.00     0.017 A 
ATOM      6  C5  UNL d   1      -2.109  -3.884  -5.040  0.00  0.00     0.034 A 
ATOM      7 Cl   UNL d   1      -3.482  -1.584  -4.894  0.00  0.00    -0.070 Cl
ATOM      8 Cl1  UNL d   1      -5.989  -3.341  -6.000  0.00  0.00    -0.070 Cl
ENDROOT
TORSDOF 0
ENDMDL
