MODEL 1
REMARK minimizedAffinity 0.0945520103
REMARK minimizedRMSD -1
REMARK  0 active torsions:
REMARK  status: ('A' for Active; 'I' for Inactive)
ROOT
ATOM      1  C   UNL d   1      -2.552  -5.992  -4.892  0.00  0.00     0.020 A 
ATOM      2  C1  UNL d   1      -2.133  -4.926  -5.687  0.00  0.00     0.020 A 
ATOM      3  C2  UNL d   1      -2.909  -3.767  -5.767  0.00  0.00     0.034 A 
ATOM      4  C3  UNL d   1      -4.108  -3.673  -5.052  0.00  0.00     0.017 A 
ATOM      5  C4  UNL d   1      -4.528  -4.743  -4.254  0.00  0.00     0.017 A 
ATOM      6  C5  UNL d   1      -3.747  -5.901  -4.177  0.00  0.00     0.034 A 
ATOM      7 Cl   UNL d   1      -5.996  -4.700  -3.342  0.00  0.00    -0.070 Cl
ATOM      8 Cl1  UNL d   1      -5.018  -2.211  -5.197  0.00  0.00    -0.070 Cl
ENDROOT
TORSDOF 0
ENDMDL
