MODEL 1
REMARK minimizedAffinity 4.18464899
REMARK minimizedRMSD -1
REMARK  0 active torsions:
REMARK  status: ('A' for Active; 'I' for Inactive)
ROOT
ATOM      1  C   UNL d   1      -2.885  -6.000  -5.198  0.00  0.00     0.020 A 
ATOM      2  C1  UNL d   1      -3.985  -5.698  -6.000  0.00  0.00     0.020 A 
ATOM      3  C2  UNL d   1      -4.860  -4.675  -5.629  0.00  0.00     0.034 A 
ATOM      4  C3  UNL d   1      -4.637  -3.950  -4.453  0.00  0.00     0.017 A 
ATOM      5  C4  UNL d   1      -3.532  -4.253  -3.648  0.00  0.00     0.017 A 
ATOM      6  C5  UNL d   1      -2.659  -5.279  -4.025  0.00  0.00     0.034 A 
ATOM      7 Cl   UNL d   1      -3.192  -3.403  -2.183  0.00  0.00    -0.070 Cl
ATOM      8 Cl1  UNL d   1      -5.760  -2.698  -4.056  0.00  0.00    -0.070 Cl
ENDROOT
TORSDOF 0
ENDMDL
