MODEL 1
REMARK minimizedAffinity 3.26974225
REMARK minimizedRMSD -1
REMARK  0 active torsions:
REMARK  status: ('A' for Active; 'I' for Inactive)
ROOT
ATOM      1  C   UNL d   1      -2.774   0.414  -5.421  0.00  0.00     0.020 A 
ATOM      2  C1  UNL d   1      -2.781   0.648  -4.047  0.00  0.00     0.020 A 
ATOM      3  C2  UNL d   1      -3.786   0.094  -3.250  0.00  0.00     0.034 A 
ATOM      4  C3  UNL d   1      -4.786  -0.696  -3.826  0.00  0.00     0.017 A 
ATOM      5  C4  UNL d   1      -4.778  -0.931  -5.206  0.00  0.00     0.017 A 
ATOM      6  C5  UNL d   1      -3.770  -0.374  -6.000  0.00  0.00     0.034 A 
ATOM      7 Cl   UNL d   1      -5.979  -1.895  -5.990  0.00  0.00    -0.070 Cl
ATOM      8 Cl1  UNL d   1      -5.997  -1.349  -2.781  0.00  0.00    -0.070 Cl
ENDROOT
TORSDOF 0
ENDMDL
