MODEL 1
REMARK minimizedAffinity -5.89610767
REMARK minimizedRMSD -1
REMARK  0 active torsions:
REMARK  status: ('A' for Active; 'I' for Inactive)
ROOT
ATOM      1  C   UNL d   1      -0.752   0.386  -3.007  0.00  0.00     0.078 C 
ATOM      2  C1  UNL d   1      -1.304  -0.104  -1.701  0.00  0.00    -0.077 A 
ATOM      3  C2  UNL d   1      -0.578   0.038  -0.513  0.00  0.00    -0.001 A 
ATOM      4  C3  UNL d   1      -1.100  -0.431   0.694  0.00  0.00     0.003 A 
ATOM      5  C4  UNL d   1      -2.350  -1.046   0.723  0.00  0.00    -0.005 A 
ATOM      6  C5  UNL d   1      -3.079  -1.193  -0.454  0.00  0.00     0.003 A 
ATOM      7  C6  UNL d   1      -2.559  -0.724  -1.662  0.00  0.00    -0.001 A 
ENDROOT
TORSDOF 0
ENDMDL
