MODEL 1
REMARK minimizedAffinity -2.21456504
REMARK minimizedRMSD -1
REMARK  0 active torsions:
REMARK  status: ('A' for Active; 'I' for Inactive)
ROOT
ATOM      1  C   UNL d   1      -0.217   0.806  -1.822  0.00  0.00     0.078 C 
ATOM      2  C1  UNL d   1       0.059   0.008  -0.582  0.00  0.00    -0.077 A 
ATOM      3  C2  UNL d   1       1.357  -0.096  -0.066  0.00  0.00    -0.001 A 
ATOM      4  C3  UNL d   1       1.601  -0.850   1.083  0.00  0.00     0.003 A 
ATOM      5  C4  UNL d   1       0.553  -1.507   1.724  0.00  0.00    -0.005 A 
ATOM      6  C5  UNL d   1      -0.741  -1.412   1.216  0.00  0.00     0.003 A 
ATOM      7  C6  UNL d   1      -0.987  -0.658   0.068  0.00  0.00    -0.001 A 
ENDROOT
TORSDOF 0
ENDMDL
