MODEL 1
REMARK minimizedAffinity -4.15568829
REMARK minimizedRMSD -1
REMARK  0 active torsions:
REMARK  status: ('A' for Active; 'I' for Inactive)
ROOT
ATOM      1  C   UNL d   1       1.255   0.792   0.365  0.00  0.00     0.078 C 
ATOM      2  C1  UNL d   1      -0.084   0.235  -0.017  0.00  0.00    -0.077 A 
ATOM      3  C2  UNL d   1      -0.412   0.002  -1.359  0.00  0.00    -0.001 A 
ATOM      4  C3  UNL d   1      -1.665  -0.508  -1.701  0.00  0.00     0.003 A 
ATOM      5  C4  UNL d   1      -2.602  -0.787  -0.708  0.00  0.00    -0.005 A 
ATOM      6  C5  UNL d   1      -2.286  -0.557   0.629  0.00  0.00     0.003 A 
ATOM      7  C6  UNL d   1      -1.033  -0.047   0.974  0.00  0.00    -0.001 A 
ENDROOT
TORSDOF 0
ENDMDL
