MODEL 1
REMARK minimizedAffinity -5.28765106
REMARK minimizedRMSD -1
REMARK  0 active torsions:
REMARK  status: ('A' for Active; 'I' for Inactive)
ROOT
ATOM      1  C   UNL d   1      -3.420  -0.443  -0.252  0.00  0.00     0.078 C 
ATOM      2  C1  UNL d   1      -1.960  -0.181  -0.468  0.00  0.00    -0.077 A 
ATOM      3  C2  UNL d   1      -1.005  -0.607   0.463  0.00  0.00    -0.001 A 
ATOM      4  C3  UNL d   1       0.351  -0.348   0.253  0.00  0.00     0.003 A 
ATOM      5  C4  UNL d   1       0.763   0.340  -0.887  0.00  0.00    -0.005 A 
ATOM      6  C5  UNL d   1      -0.180   0.770  -1.818  0.00  0.00     0.003 A 
ATOM      7  C6  UNL d   1      -1.536   0.511  -1.610  0.00  0.00    -0.001 A 
ENDROOT
TORSDOF 0
ENDMDL
