MODEL 1
REMARK minimizedAffinity -3.72979617
REMARK minimizedRMSD -1
REMARK  0 active torsions:
REMARK  status: ('A' for Active; 'I' for Inactive)
ROOT
ATOM      1  C   UNL d   1       1.117   0.346   0.250  0.00  0.00     0.078 C 
ATOM      2  C1  UNL d   1      -0.280   0.166  -0.265  0.00  0.00    -0.077 A 
ATOM      3  C2  UNL d   1      -1.167  -0.724   0.352  0.00  0.00    -0.001 A 
ATOM      4  C3  UNL d   1      -2.461  -0.889  -0.144  0.00  0.00     0.003 A 
ATOM      5  C4  UNL d   1      -2.879  -0.168  -1.260  0.00  0.00    -0.005 A 
ATOM      6  C5  UNL d   1      -2.003   0.719  -1.882  0.00  0.00     0.003 A 
ATOM      7  C6  UNL d   1      -0.708   0.885  -1.388  0.00  0.00    -0.001 A 
ENDROOT
TORSDOF 0
ENDMDL
