MODEL 1
REMARK minimizedAffinity -3.23708439
REMARK minimizedRMSD -1
REMARK  0 active torsions:
REMARK  status: ('A' for Active; 'I' for Inactive)
ROOT
ATOM      1  C   UNL d   1      -3.264  -0.888   0.358  0.00  0.00     0.078 C 
ATOM      2  C1  UNL d   1      -1.835  -0.522   0.092  0.00  0.00    -0.077 A 
ATOM      3  C2  UNL d   1      -0.842  -0.743   1.055  0.00  0.00    -0.001 A 
ATOM      4  C3  UNL d   1       0.483  -0.388   0.797  0.00  0.00     0.003 A 
ATOM      5  C4  UNL d   1       0.827   0.191  -0.422  0.00  0.00    -0.005 A 
ATOM      6  C5  UNL d   1      -0.154   0.418  -1.385  0.00  0.00     0.003 A 
ATOM      7  C6  UNL d   1      -1.479   0.063  -1.130  0.00  0.00    -0.001 A 
ENDROOT
TORSDOF 0
ENDMDL
