MODEL 1
REMARK minimizedAffinity -3.08850169
REMARK minimizedRMSD -1
REMARK  0 active torsions:
REMARK  status: ('A' for Active; 'I' for Inactive)
ROOT
ATOM      1  C   UNL d   1       0.242   0.813  -1.571  0.00  0.00     0.078 C 
ATOM      2  C1  UNL d   1       0.013  -0.155  -0.448  0.00  0.00    -0.077 A 
ATOM      3  C2  UNL d   1       1.068  -0.567   0.376  0.00  0.00    -0.001 A 
ATOM      4  C3  UNL d   1       0.843  -1.475   1.411  0.00  0.00     0.003 A 
ATOM      5  C4  UNL d   1      -0.437  -1.981   1.631  0.00  0.00    -0.005 A 
ATOM      6  C5  UNL d   1      -1.492  -1.579   0.816  0.00  0.00     0.003 A 
ATOM      7  C6  UNL d   1      -1.269  -0.670  -0.220  0.00  0.00    -0.001 A 
ENDROOT
TORSDOF 0
ENDMDL
