MODEL 1
REMARK minimizedAffinity -2.52041912
REMARK minimizedRMSD -1
REMARK  0 active torsions:
REMARK  status: ('A' for Active; 'I' for Inactive)
ROOT
ATOM      1  C   UNL d   1      -2.626  -0.638  -0.046  0.00  0.00     0.078 C 
ATOM      2  C1  UNL d   1      -1.142  -0.511   0.133  0.00  0.00    -0.077 A 
ATOM      3  C2  UNL d   1      -0.477  -1.204   1.151  0.00  0.00    -0.001 A 
ATOM      4  C3  UNL d   1       0.903  -1.069   1.312  0.00  0.00     0.003 A 
ATOM      5  C4  UNL d   1       1.629  -0.240   0.459  0.00  0.00    -0.005 A 
ATOM      6  C5  UNL d   1       0.975   0.456  -0.556  0.00  0.00     0.003 A 
ATOM      7  C6  UNL d   1      -0.405   0.322  -0.718  0.00  0.00    -0.001 A 
ENDROOT
TORSDOF 0
ENDMDL
