MODEL 1
REMARK minimizedAffinity -5.66850376
REMARK minimizedRMSD -1
REMARK  0 active torsions:
REMARK  status: ('A' for Active; 'I' for Inactive)
ROOT
ATOM      1  C   UNL d   1      -3.110  -0.999   0.134  0.00  0.00     0.078 C 
ATOM      2  C1  UNL d   1      -1.630  -0.800   0.265  0.00  0.00    -0.077 A 
ATOM      3  C2  UNL d   1      -0.909  -1.407   1.301  0.00  0.00    -0.001 A 
ATOM      4  C3  UNL d   1       0.467  -1.205   1.416  0.00  0.00     0.003 A 
ATOM      5  C4  UNL d   1       1.135  -0.396   0.499  0.00  0.00    -0.005 A 
ATOM      6  C5  UNL d   1       0.426   0.214  -0.533  0.00  0.00     0.003 A 
ATOM      7  C6  UNL d   1      -0.950   0.014  -0.650  0.00  0.00    -0.001 A 
ENDROOT
TORSDOF 0
ENDMDL
