MODEL 1
REMARK minimizedAffinity -2.10558867
REMARK minimizedRMSD -1
REMARK  0 active torsions:
REMARK  status: ('A' for Active; 'I' for Inactive)
ROOT
ATOM      1  C   UNL d   1      -2.922  -0.782  -0.116  0.00  0.00     0.078 C 
ATOM      2  C1  UNL d   1      -1.474  -0.405  -0.011  0.00  0.00    -0.077 A 
ATOM      3  C2  UNL d   1      -0.867   0.400  -0.982  0.00  0.00    -0.001 A 
ATOM      4  C3  UNL d   1       0.484   0.734  -0.877  0.00  0.00     0.003 A 
ATOM      5  C4  UNL d   1       1.239   0.267   0.197  0.00  0.00    -0.005 A 
ATOM      6  C5  UNL d   1       0.644  -0.537   1.167  0.00  0.00     0.003 A 
ATOM      7  C6  UNL d   1      -0.707  -0.872   1.063  0.00  0.00    -0.001 A 
ENDROOT
TORSDOF 0
ENDMDL
