MODEL 1
REMARK minimizedAffinity -2.38156366
REMARK minimizedRMSD -1
REMARK  0 active torsions:
REMARK  status: ('A' for Active; 'I' for Inactive)
ROOT
ATOM      1  C   UNL d   1       1.087   0.016  -0.003  0.00  0.00     0.078 C 
ATOM      2  C1  UNL d   1       1.945   1.151   0.471  0.00  0.00    -0.077 A 
ATOM      3  C2  UNL d   1       2.928   1.706  -0.357  0.00  0.00    -0.001 A 
ATOM      4  C3  UNL d   1       3.726   2.755   0.101  0.00  0.00     0.003 A 
ATOM      5  C4  UNL d   1       3.550   3.258   1.388  0.00  0.00    -0.005 A 
ATOM      6  C5  UNL d   1       2.575   2.711   2.220  0.00  0.00     0.003 A 
ATOM      7  C6  UNL d   1       1.776   1.661   1.764  0.00  0.00    -0.001 A 
ENDROOT
TORSDOF 0
ENDMDL
