MODEL 1
REMARK minimizedAffinity 1.06287181
REMARK minimizedRMSD -1
REMARK  1 active torsions:
REMARK  status: ('A' for Active; 'I' for Inactive)
REMARK    1  A    between atoms: C3_4  and  O_7 
ROOT
ATOM      1  C   UNL d   1      -3.155   1.076   0.999  0.00  0.00    -0.033 A 
ATOM      2  C1  UNL d   1      -2.746   1.729   2.163  0.00  0.00     0.039 A 
ATOM      3  C2  UNL d   1      -1.470   1.500   2.683  0.00  0.00    -0.080 A 
ATOM      4  C3  UNL d   1      -0.615   0.616   2.030  0.00  0.00     0.150 A 
ATOM      5  C4  UNL d   1      -1.015  -0.035   0.868  0.00  0.00    -0.007 A 
ATOM      6  C5  UNL d   1      -2.289   0.195   0.351  0.00  0.00     0.039 A 
ENDROOT
BRANCH   4   7
ATOM      7  O   UNL d   1       0.637   0.356   2.502  0.00  0.00    -0.526 OA
ATOM      8  H5  UNL d   1       0.765   0.855   3.327  0.00  0.00     0.418 HD
ENDBRANCH   4   7
TORSDOF 1
ENDMDL
