MODEL 1
REMARK minimizedAffinity 1.07898402
REMARK minimizedRMSD -1
REMARK  1 active torsions:
REMARK  status: ('A' for Active; 'I' for Inactive)
REMARK    1  A    between atoms: C3_4  and  O_7 
ROOT
ATOM      1  C   UNL d   1      -5.917   3.075   5.945  0.00  0.00    -0.033 A 
ATOM      2  C1  UNL d   1      -4.796   2.243   5.941  0.00  0.00     0.039 A 
ATOM      3  C2  UNL d   1      -3.514   2.796   5.956  0.00  0.00    -0.080 A 
ATOM      4  C3  UNL d   1      -3.367   4.180   5.978  0.00  0.00     0.150 A 
ATOM      5  C4  UNL d   1      -4.479   5.015   5.987  0.00  0.00    -0.007 A 
ATOM      6  C5  UNL d   1      -5.759   4.461   5.970  0.00  0.00     0.039 A 
ENDROOT
BRANCH   4   7
ATOM      7  O   UNL d   1      -2.136   4.766   5.989  0.00  0.00    -0.526 OA
ATOM      8  H5  UNL d   1      -1.462   4.066   5.952  0.00  0.00     0.418 HD
ENDBRANCH   4   7
TORSDOF 1
ENDMDL
