MODEL 1
REMARK minimizedAffinity 9.15734005
REMARK minimizedRMSD -1
REMARK  1 active torsions:
REMARK  status: ('A' for Active; 'I' for Inactive)
REMARK    1  A    between atoms: C3_4  and  O_7 
ROOT
ATOM      1  C   UNL d   1       2.512   1.191   1.169  0.00  0.00    -0.033 A 
ATOM      2  C1  UNL d   1       3.741   1.667   0.705  0.00  0.00     0.039 A 
ATOM      3  C2  UNL d   1       4.924   1.283   1.340  0.00  0.00    -0.080 A 
ATOM      4  C3  UNL d   1       4.865   0.424   2.434  0.00  0.00     0.150 A 
ATOM      5  C4  UNL d   1       3.645  -0.056   2.898  0.00  0.00    -0.007 A 
ATOM      6  C5  UNL d   1       2.465   0.329   2.264  0.00  0.00     0.039 A 
ENDROOT
BRANCH   4   7
ATOM      7  O   UNL d   1       5.993   0.026   3.088  0.00  0.00    -0.526 OA
ATOM      8  H5  UNL d   1       6.758   0.460   2.675  0.00  0.00     0.418 HD
ENDBRANCH   4   7
TORSDOF 1
ENDMDL
