MODEL 1
REMARK minimizedAffinity -1.1161468
REMARK minimizedRMSD -1
REMARK  1 active torsions:
REMARK  status: ('A' for Active; 'I' for Inactive)
REMARK    1  A    between atoms: C3_4  and  O_7 
ROOT
ATOM      1  C   UNL d   1      -3.396  -1.865   5.233  0.00  0.00    -0.033 A 
ATOM      2  C1  UNL d   1      -3.453  -1.917   3.839  0.00  0.00     0.039 A 
ATOM      3  C2  UNL d   1      -4.219  -2.898   3.206  0.00  0.00    -0.080 A 
ATOM      4  C3  UNL d   1      -4.922  -3.819   3.977  0.00  0.00     0.150 A 
ATOM      5  C4  UNL d   1      -4.872  -3.771   5.366  0.00  0.00    -0.007 A 
ATOM      6  C5  UNL d   1      -4.107  -2.791   5.997  0.00  0.00     0.039 A 
ENDROOT
BRANCH   4   7
ATOM      7  O   UNL d   1      -5.679  -4.798   3.405  0.00  0.00    -0.526 OA
ATOM      8  H5  UNL d   1      -5.595  -4.726   2.439  0.00  0.00     0.418 HD
ENDBRANCH   4   7
TORSDOF 1
ENDMDL
