MODEL 1
REMARK minimizedAffinity 7.60753202
REMARK minimizedRMSD -1
REMARK  1 active torsions:
REMARK  status: ('A' for Active; 'I' for Inactive)
REMARK    1  A    between atoms: C3_4  and  O_7 
ROOT
ATOM      1  C   UNL d   1       0.149   5.479  -3.740  0.00  0.00    -0.033 A 
ATOM      2  C1  UNL d   1       0.377   4.155  -3.357  0.00  0.00     0.039 A 
ATOM      3  C2  UNL d   1       1.235   3.348  -4.106  0.00  0.00    -0.080 A 
ATOM      4  C3  UNL d   1       1.858   3.875  -5.234  0.00  0.00     0.150 A 
ATOM      5  C4  UNL d   1       1.638   5.193  -5.619  0.00  0.00    -0.007 A 
ATOM      6  C5  UNL d   1       0.780   5.998  -4.870  0.00  0.00     0.039 A 
ENDROOT
BRANCH   4   7
ATOM      7  O   UNL d   1       2.700   3.124  -6.000  0.00  0.00    -0.526 OA
ATOM      8  H5  UNL d   1       2.734   2.226  -5.630  0.00  0.00     0.418 HD
ENDBRANCH   4   7
TORSDOF 1
ENDMDL
