MODEL 1
REMARK minimizedAffinity -0.738761485
REMARK minimizedRMSD -1
REMARK  1 active torsions:
REMARK  status: ('A' for Active; 'I' for Inactive)
REMARK    1  A    between atoms: C3_4  and  O_7 
ROOT
ATOM      1  C   UNL d   1      -5.983   1.120   3.926  0.00  0.00    -0.033 A 
ATOM      2  C1  UNL d   1      -5.827   1.119   5.314  0.00  0.00     0.039 A 
ATOM      3  C2  UNL d   1      -5.654   2.322   6.000  0.00  0.00    -0.080 A 
ATOM      4  C3  UNL d   1      -5.640   3.519   5.288  0.00  0.00     0.150 A 
ATOM      5  C4  UNL d   1      -5.799   3.527   3.906  0.00  0.00    -0.007 A 
ATOM      6  C5  UNL d   1      -5.970   2.324   3.223  0.00  0.00     0.039 A 
ENDROOT
BRANCH   4   7
ATOM      7  O   UNL d   1      -5.469   4.718   5.913  0.00  0.00    -0.526 OA
ATOM      8  H5  UNL d   1      -5.344   4.555   6.863  0.00  0.00     0.418 HD
ENDBRANCH   4   7
TORSDOF 1
ENDMDL
