MODEL 1
REMARK minimizedAffinity 0.605230331
REMARK minimizedRMSD -1
REMARK  1 active torsions:
REMARK  status: ('A' for Active; 'I' for Inactive)
REMARK    1  A    between atoms: C3_4  and  O_7 
ROOT
ATOM      1  C   UNL d   1       3.334   4.111  -5.999  0.00  0.00    -0.033 A 
ATOM      2  C1  UNL d   1       2.308   3.227  -5.657  0.00  0.00     0.039 A 
ATOM      3  C2  UNL d   1       2.607   1.906  -5.319  0.00  0.00    -0.080 A 
ATOM      4  C3  UNL d   1       3.933   1.483  -5.325  0.00  0.00     0.150 A 
ATOM      5  C4  UNL d   1       4.960   2.359  -5.660  0.00  0.00    -0.007 A 
ATOM      6  C5  UNL d   1       4.660   3.678  -5.999  0.00  0.00     0.039 A 
ENDROOT
BRANCH   4   7
ATOM      7  O   UNL d   1       4.274   0.202  -5.006  0.00  0.00    -0.526 OA
ATOM      8  H5  UNL d   1       3.460  -0.297  -4.824  0.00  0.00     0.418 HD
ENDBRANCH   4   7
TORSDOF 1
ENDMDL
