MODEL 1
REMARK minimizedAffinity -2.51438522
REMARK minimizedRMSD -1
REMARK  1 active torsions:
REMARK  status: ('A' for Active; 'I' for Inactive)
REMARK    1  A    between atoms: C3_4  and  O_7 
ROOT
ATOM      1  C   UNL d   1      -0.540   0.337   1.794  0.00  0.00    -0.033 A 
ATOM      2  C1  UNL d   1      -1.440   0.127   0.747  0.00  0.00     0.039 A 
ATOM      3  C2  UNL d   1      -2.746   0.614   0.838  0.00  0.00    -0.080 A 
ATOM      4  C3  UNL d   1      -3.138   1.308   1.980  0.00  0.00     0.150 A 
ATOM      5  C4  UNL d   1      -2.246   1.523   3.025  0.00  0.00    -0.007 A 
ATOM      6  C5  UNL d   1      -0.943   1.036   2.932  0.00  0.00     0.039 A 
ENDROOT
BRANCH   4   7
ATOM      7  O   UNL d   1      -4.403   1.797   2.116  0.00  0.00    -0.526 OA
ATOM      8  H5  UNL d   1      -4.916   1.548   1.330  0.00  0.00     0.418 HD
ENDBRANCH   4   7
TORSDOF 1
ENDMDL
