MODEL 1
REMARK minimizedAffinity 2.67038894
REMARK minimizedRMSD -1
REMARK  1 active torsions:
REMARK  status: ('A' for Active; 'I' for Inactive)
REMARK    1  A    between atoms: C3_4  and  O_7 
ROOT
ATOM      1  C   UNL d   1       0.052  -0.278   0.551  0.00  0.00    -0.033 A 
ATOM      2  C1  UNL d   1       1.340   0.258   0.598  0.00  0.00     0.039 A 
ATOM      3  C2  UNL d   1       1.684   1.166   1.602  0.00  0.00    -0.080 A 
ATOM      4  C3  UNL d   1       0.733   1.528   2.552  0.00  0.00     0.150 A 
ATOM      5  C4  UNL d   1      -0.552   0.995   2.513  0.00  0.00    -0.007 A 
ATOM      6  C5  UNL d   1      -0.894   0.089   1.510  0.00  0.00     0.039 A 
ENDROOT
BRANCH   4   7
ATOM      7  O   UNL d   1       1.021   2.414   3.547  0.00  0.00    -0.526 OA
ATOM      8  H5  UNL d   1       1.935   2.720   3.431  0.00  0.00     0.418 HD
ENDBRANCH   4   7
TORSDOF 1
ENDMDL
