MODEL 1
REMARK minimizedAffinity -2.13862801
REMARK minimizedRMSD -1
REMARK  1 active torsions:
REMARK  status: ('A' for Active; 'I' for Inactive)
REMARK    1  A    between atoms: C3_4  and  O_7 
ROOT
ATOM      1  C   UNL d   1      -0.149   1.145   2.754  0.00  0.00    -0.033 A 
ATOM      2  C1  UNL d   1      -0.311   0.353   1.615  0.00  0.00     0.039 A 
ATOM      3  C2  UNL d   1      -1.504   0.403   0.892  0.00  0.00    -0.080 A 
ATOM      4  C3  UNL d   1      -2.526   1.248   1.317  0.00  0.00     0.150 A 
ATOM      5  C4  UNL d   1      -2.370   2.042   2.448  0.00  0.00    -0.007 A 
ATOM      6  C5  UNL d   1      -1.178   1.991   3.169  0.00  0.00     0.039 A 
ENDROOT
BRANCH   4   7
ATOM      7  O   UNL d   1      -3.710   1.327   0.646  0.00  0.00    -0.526 OA
ATOM      8  H5  UNL d   1      -3.685   0.701  -0.097  0.00  0.00     0.418 HD
ENDBRANCH   4   7
TORSDOF 1
ENDMDL
