MODEL 1
REMARK minimizedAffinity 4.05409288
REMARK minimizedRMSD -1
REMARK  1 active torsions:
REMARK  status: ('A' for Active; 'I' for Inactive)
REMARK    1  A    between atoms: C3_4  and  O_7 
ROOT
ATOM      1  C   UNL d   1      -0.084   1.740   3.529  0.00  0.00    -0.033 A 
ATOM      2  C1  UNL d   1      -1.291   2.299   3.954  0.00  0.00     0.039 A 
ATOM      3  C2  UNL d   1      -2.446   2.139   3.185  0.00  0.00    -0.080 A 
ATOM      4  C3  UNL d   1      -2.380   1.417   1.996  0.00  0.00     0.150 A 
ATOM      5  C4  UNL d   1      -1.183   0.854   1.569  0.00  0.00    -0.007 A 
ATOM      6  C5  UNL d   1      -0.030   1.016   2.337  0.00  0.00     0.039 A 
ENDROOT
BRANCH   4   7
ATOM      7  O   UNL d   1      -3.480   1.238   1.210  0.00  0.00    -0.526 OA
ATOM      8  H5  UNL d   1      -4.228   1.707   1.617  0.00  0.00     0.418 HD
ENDBRANCH   4   7
TORSDOF 1
ENDMDL
