MODEL 1
REMARK minimizedAffinity 0.482656896
REMARK minimizedRMSD -1
REMARK  1 active torsions:
REMARK  status: ('A' for Active; 'I' for Inactive)
REMARK    1  A    between atoms: C3_4  and  O_7 
ROOT
ATOM      1  C   UNL d   1       0.070  -0.154   1.189  0.00  0.00    -0.033 A 
ATOM      2  C1  UNL d   1      -1.155  -0.182   0.519  0.00  0.00     0.039 A 
ATOM      3  C2  UNL d   1      -2.234   0.561   1.002  0.00  0.00    -0.080 A 
ATOM      4  C3  UNL d   1      -2.076   1.327   2.154  0.00  0.00     0.150 A 
ATOM      5  C4  UNL d   1      -0.858   1.363   2.824  0.00  0.00    -0.007 A 
ATOM      6  C5  UNL d   1       0.219   0.620   2.341  0.00  0.00     0.039 A 
ENDROOT
BRANCH   4   7
ATOM      7  O   UNL d   1      -3.102   2.065   2.665  0.00  0.00    -0.526 OA
ATOM      8  H5  UNL d   1      -3.889   1.920   2.115  0.00  0.00     0.418 HD
ENDBRANCH   4   7
TORSDOF 1
ENDMDL
