MODEL 1
REMARK minimizedAffinity -3.14476252
REMARK minimizedRMSD -1
REMARK  1 active torsions:
REMARK  status: ('A' for Active; 'I' for Inactive)
REMARK    1  A    between atoms: C3_4  and  O_7 
ROOT
ATOM      1  C   UNL d   1       0.548   6.000  -4.252  0.00  0.00    -0.033 A 
ATOM      2  C1  UNL d   1       1.205   4.906  -3.684  0.00  0.00     0.039 A 
ATOM      3  C2  UNL d   1       1.084   3.641  -4.261  0.00  0.00    -0.080 A 
ATOM      4  C3  UNL d   1       0.306   3.482  -5.404  0.00  0.00     0.150 A 
ATOM      5  C4  UNL d   1      -0.348   4.568  -5.977  0.00  0.00    -0.007 A 
ATOM      6  C5  UNL d   1      -0.227   5.831  -5.400  0.00  0.00     0.039 A 
ENDROOT
BRANCH   4   7
ATOM      7  O   UNL d   1       0.154   2.265  -6.000  0.00  0.00    -0.526 OA
ATOM      8  H5  UNL d   1       0.639   1.604  -5.478  0.00  0.00     0.418 HD
ENDBRANCH   4   7
TORSDOF 1
ENDMDL
