MODEL 1
REMARK minimizedAffinity 3.32477975
REMARK minimizedRMSD -1
REMARK  1 active torsions:
REMARK  status: ('A' for Active; 'I' for Inactive)
REMARK    1  A    between atoms: C3_4  and  O_7 
ROOT
ATOM      1  C   UNL d   1      -2.343   2.148   2.809  0.00  0.00    -0.033 A 
ATOM      2  C1  UNL d   1      -2.800   1.416   1.711  0.00  0.00     0.039 A 
ATOM      3  C2  UNL d   1      -1.910   0.634   0.973  0.00  0.00    -0.080 A 
ATOM      4  C3  UNL d   1      -0.568   0.592   1.343  0.00  0.00     0.150 A 
ATOM      5  C4  UNL d   1      -0.108   1.315   2.438  0.00  0.00    -0.007 A 
ATOM      6  C5  UNL d   1      -0.998   2.097   3.173  0.00  0.00     0.039 A 
ENDROOT
BRANCH   4   7
ATOM      7  O   UNL d   1       0.339  -0.154   0.650  0.00  0.00    -0.526 OA
ATOM      8  H5  UNL d   1      -0.117  -0.576  -0.097  0.00  0.00     0.418 HD
ENDBRANCH   4   7
TORSDOF 1
ENDMDL
