MODEL 1
REMARK minimizedAffinity 5.9575367
REMARK minimizedRMSD -1
REMARK  1 active torsions:
REMARK  status: ('A' for Active; 'I' for Inactive)
REMARK    1  A    between atoms: C3_4  and  O_7 
ROOT
ATOM      1  C   UNL d   1      -6.000   1.983   3.562  0.00  0.00    -0.033 A 
ATOM      2  C1  UNL d   1      -5.999   1.486   2.257  0.00  0.00     0.039 A 
ATOM      3  C2  UNL d   1      -4.791   1.245   1.600  0.00  0.00    -0.080 A 
ATOM      4  C3  UNL d   1      -3.592   1.503   2.258  0.00  0.00     0.150 A 
ATOM      5  C4  UNL d   1      -3.585   1.994   3.560  0.00  0.00    -0.007 A 
ATOM      6  C5  UNL d   1      -4.792   2.236   4.214  0.00  0.00     0.039 A 
ENDROOT
BRANCH   4   7
ATOM      7  O   UNL d   1      -2.388   1.288   1.657  0.00  0.00    -0.526 OA
ATOM      8  H5  UNL d   1      -2.548   0.975   0.750  0.00  0.00     0.418 HD
ENDBRANCH   4   7
TORSDOF 1
ENDMDL
