MODEL 1
REMARK minimizedAffinity 3.66559792
REMARK minimizedRMSD -1
REMARK  1 active torsions:
REMARK  status: ('A' for Active; 'I' for Inactive)
REMARK    1  A    between atoms: C3_4  and  O_7 
ROOT
ATOM      1  C   UNL d   1      -0.498   0.261   1.315  0.00  0.00    -0.033 A 
ATOM      2  C1  UNL d   1      -1.472  -0.020   0.355  0.00  0.00     0.039 A 
ATOM      3  C2  UNL d   1      -2.777   0.446   0.526  0.00  0.00    -0.080 A 
ATOM      4  C3  UNL d   1      -3.094   1.192   1.658  0.00  0.00     0.150 A 
ATOM      5  C4  UNL d   1      -2.127   1.479   2.616  0.00  0.00    -0.007 A 
ATOM      6  C5  UNL d   1      -0.825   1.012   2.444  0.00  0.00     0.039 A 
ENDROOT
BRANCH   4   7
ATOM      7  O   UNL d   1      -4.355   1.665   1.870  0.00  0.00    -0.526 OA
ATOM      8  H5  UNL d   1      -4.923   1.365   1.141  0.00  0.00     0.418 HD
ENDBRANCH   4   7
TORSDOF 1
ENDMDL
