MODEL 1
REMARK minimizedAffinity -0.699079275
REMARK minimizedRMSD -1
REMARK  0 active torsions:
REMARK  status: ('A' for Active; 'I' for Inactive)
ROOT
ATOM      1  C   UNL d   1       4.507  -1.893  -0.319  0.00  0.00     0.172 C 
ATOM      2  N   UNL d   1       4.523  -3.102  -1.110  0.00  0.00    -0.070 N 
ATOM      3  C1  UNL d   1       3.946  -3.257  -2.342  0.00  0.00    -0.004 A 
ATOM      4  C2  UNL d   1       4.183  -4.549  -2.759  0.00  0.00    -0.047 A 
ATOM      5  C3  UNL d   1       4.927  -5.193  -1.741  0.00  0.00    -0.047 A 
ATOM      6  C4  UNL d   1       5.123  -4.274  -0.732  0.00  0.00    -0.004 A 
ENDROOT
TORSDOF 0
ENDMDL
