MODEL 1
REMARK minimizedAffinity -1.76423955
REMARK minimizedRMSD -1
REMARK  0 active torsions:
REMARK  status: ('A' for Active; 'I' for Inactive)
ROOT
ATOM      1  C   UNL d   1       2.995  -3.780  -4.019  0.00  0.00     0.172 C 
ATOM      2  N   UNL d   1       3.895  -3.995  -2.910  0.00  0.00    -0.070 N 
ATOM      3  C1  UNL d   1       4.267  -3.052  -1.989  0.00  0.00    -0.004 A 
ATOM      4  C2  UNL d   1       5.132  -3.650  -1.099  0.00  0.00    -0.047 A 
ATOM      5  C3  UNL d   1       5.288  -4.998  -1.499  0.00  0.00    -0.047 A 
ATOM      6  C4  UNL d   1       4.511  -5.185  -2.623  0.00  0.00    -0.004 A 
ENDROOT
TORSDOF 0
ENDMDL
