MODEL 1
REMARK minimizedAffinity -0.169589266
REMARK minimizedRMSD -1
REMARK  0 active torsions:
REMARK  status: ('A' for Active; 'I' for Inactive)
ROOT
ATOM      1  C   UNL d   1      -0.498   2.356  -0.842  0.00  0.00     0.172 C 
ATOM      2  N   UNL d   1      -0.321   3.783  -0.968  0.00  0.00    -0.070 N 
ATOM      3  C1  UNL d   1       0.834   4.415  -1.345  0.00  0.00    -0.004 A 
ATOM      4  C2  UNL d   1       0.593   5.772  -1.343  0.00  0.00    -0.047 A 
ATOM      5  C3  UNL d   1      -0.753   5.962  -0.950  0.00  0.00    -0.047 A 
ATOM      6  C4  UNL d   1      -1.295   4.715  -0.724  0.00  0.00    -0.004 A 
ENDROOT
TORSDOF 0
ENDMDL
