MODEL 1
REMARK minimizedAffinity 0.357189566
REMARK minimizedRMSD -1
REMARK  0 active torsions:
REMARK  status: ('A' for Active; 'I' for Inactive)
ROOT
ATOM      1  C   UNL d   1       1.900  -4.972  -1.122  0.00  0.00     0.172 C 
ATOM      2  N   UNL d   1       3.032  -4.076  -1.076  0.00  0.00    -0.070 N 
ATOM      3  C1  UNL d   1       3.258  -3.030  -1.931  0.00  0.00    -0.004 A 
ATOM      4  C2  UNL d   1       4.437  -2.425  -1.555  0.00  0.00    -0.047 A 
ATOM      5  C3  UNL d   1       4.939  -3.132  -0.436  0.00  0.00    -0.047 A 
ATOM      6  C4  UNL d   1       4.049  -4.149  -0.161  0.00  0.00    -0.004 A 
ENDROOT
TORSDOF 0
ENDMDL
