MODEL 1
REMARK minimizedAffinity -0.162912577
REMARK minimizedRMSD -1
REMARK  0 active torsions:
REMARK  status: ('A' for Active; 'I' for Inactive)
ROOT
ATOM      1  C   UNL d   1      -1.471   6.000  -1.500  0.00  0.00     0.172 C 
ATOM      2  N   UNL d   1      -1.045   4.672  -1.127  0.00  0.00    -0.070 N 
ATOM      3  C1  UNL d   1      -0.130   4.371  -0.153  0.00  0.00    -0.004 A 
ATOM      4  C2  UNL d   1      -0.000   3.000  -0.105  0.00  0.00    -0.047 A 
ATOM      5  C3  UNL d   1      -0.865   2.458  -1.085  0.00  0.00    -0.047 A 
ATOM      6  C4  UNL d   1      -1.500   3.515  -1.703  0.00  0.00    -0.004 A 
ENDROOT
TORSDOF 0
ENDMDL
