MODEL 1
REMARK minimizedAffinity -2.94898319
REMARK minimizedRMSD -1
REMARK  0 active torsions:
REMARK  status: ('A' for Active; 'I' for Inactive)
ROOT
ATOM      1  C   UNL d   1       3.352  -1.557  -1.793  0.00  0.00     0.172 C 
ATOM      2  N   UNL d   1       4.042  -2.796  -2.067  0.00  0.00    -0.070 N 
ATOM      3  C1  UNL d   1       5.183  -3.229  -1.446  0.00  0.00    -0.004 A 
ATOM      4  C2  UNL d   1       5.521  -4.450  -1.988  0.00  0.00    -0.047 A 
ATOM      5  C3  UNL d   1       4.550  -4.762  -2.969  0.00  0.00    -0.047 A 
ATOM      6  C4  UNL d   1       3.646  -3.721  -2.997  0.00  0.00    -0.004 A 
ENDROOT
TORSDOF 0
ENDMDL
