MODEL 1
REMARK minimizedAffinity 4.52640343
REMARK minimizedRMSD -1
REMARK  0 active torsions:
REMARK  status: ('A' for Active; 'I' for Inactive)
ROOT
ATOM      1  C   UNL d   1       0.224   4.652  -1.321  0.00  0.00     0.172 C 
ATOM      2  N   UNL d   1      -0.016   3.439  -0.574  0.00  0.00    -0.070 N 
ATOM      3  C1  UNL d   1      -0.372   2.229  -1.110  0.00  0.00    -0.004 A 
ATOM      4  C2  UNL d   1      -0.505   1.332  -0.072  0.00  0.00    -0.047 A 
ATOM      5  C3  UNL d   1      -0.221   2.026   1.128  0.00  0.00    -0.047 A 
ATOM      6  C4  UNL d   1       0.079   3.328   0.788  0.00  0.00    -0.004 A 
ENDROOT
TORSDOF 0
ENDMDL
