MODEL 1
REMARK minimizedAffinity -2.12393594
REMARK minimizedRMSD -1
REMARK  0 active torsions:
REMARK  status: ('A' for Active; 'I' for Inactive)
ROOT
ATOM      1  C   UNL d   1       1.527  -5.023  -0.765  0.00  0.00     0.172 C 
ATOM      2  N   UNL d   1       2.812  -4.450  -1.091  0.00  0.00    -0.070 N 
ATOM      3  C1  UNL d   1       3.790  -4.119  -0.191  0.00  0.00    -0.004 A 
ATOM      4  C2  UNL d   1       4.856  -3.604  -0.897  0.00  0.00    -0.047 A 
ATOM      5  C3  UNL d   1       4.506  -3.626  -2.268  0.00  0.00    -0.047 A 
ATOM      6  C4  UNL d   1       3.236  -4.154  -2.359  0.00  0.00    -0.004 A 
ENDROOT
TORSDOF 0
ENDMDL
