MODEL 1
REMARK minimizedAffinity 4.92347765
REMARK minimizedRMSD -1
REMARK  0 active torsions:
REMARK  status: ('A' for Active; 'I' for Inactive)
ROOT
ATOM      1  C   UNL d   1       4.290  -1.005   3.504  0.00  0.00    -0.002 A 
ATOM      2  C1  UNL d   1       4.877  -0.443   2.379  0.00  0.00     0.010 A 
ATOM      3  C2  UNL d   1       4.114  -0.166   1.243  0.00  0.00     0.041 A 
ATOM      4  C3  UNL d   1       2.738  -0.464   1.257  0.00  0.00    -0.075 A 
ATOM      5  S   UNL d   1       1.606  -0.210  -0.019  0.00  0.00     0.015 SA
ATOM      6  C4  UNL d   1       0.316  -0.841   0.899  0.00  0.00     0.022 A 
ATOM      7  C5  UNL d   1       0.721  -1.240   2.151  0.00  0.00     0.026 A 
ATOM      8  C6  UNL d   1       2.123  -1.029   2.378  0.00  0.00    -0.082 A 
ATOM      9  C7  UNL d   1       2.923  -1.299   3.514  0.00  0.00     0.045 A 
ENDROOT
TORSDOF 0
ENDMDL
