MODEL 1
REMARK minimizedAffinity 4.51451731
REMARK minimizedRMSD -1
REMARK  0 active torsions:
REMARK  status: ('A' for Active; 'I' for Inactive)
ROOT
ATOM      1  C   UNL d   1      -3.202   0.427  -2.291  0.00  0.00    -0.002 A 
ATOM      2  C1  UNL d   1      -4.063   0.736  -3.335  0.00  0.00     0.010 A 
ATOM      3  C2  UNL d   1      -3.705   1.689  -4.291  0.00  0.00     0.041 A 
ATOM      4  C3  UNL d   1      -2.456   2.330  -4.181  0.00  0.00    -0.075 A 
ATOM      5  S   UNL d   1      -1.806   3.529  -5.236  0.00  0.00     0.015 SA
ATOM      6  C4  UNL d   1      -0.370   3.657  -4.327  0.00  0.00     0.022 A 
ATOM      7  C5  UNL d   1      -0.370   2.814  -3.241  0.00  0.00     0.026 A 
ATOM      8  C6  UNL d   1      -1.572   2.034  -3.140  0.00  0.00    -0.082 A 
ATOM      9  C7  UNL d   1      -1.963   1.065  -2.185  0.00  0.00     0.045 A 
ENDROOT
TORSDOF 0
ENDMDL
