MODEL 1
REMARK minimizedAffinity -2.01604629
REMARK minimizedRMSD -1
REMARK  0 active torsions:
REMARK  status: ('A' for Active; 'I' for Inactive)
ROOT
ATOM      1  C   UNL d   1       2.576  -2.819   2.799  0.00  0.00    -0.002 A 
ATOM      2  C1  UNL d   1       1.558  -2.226   3.532  0.00  0.00     0.010 A 
ATOM      3  C2  UNL d   1       0.855  -1.134   3.019  0.00  0.00     0.041 A 
ATOM      4  C3  UNL d   1       1.196  -0.644   1.742  0.00  0.00    -0.075 A 
ATOM      5  S   UNL d   1       0.472   0.681   0.911  0.00  0.00     0.015 SA
ATOM      6  C4  UNL d   1       1.497   0.492  -0.437  0.00  0.00     0.022 A 
ATOM      7  C5  UNL d   1       2.376  -0.552  -0.274  0.00  0.00     0.026 A 
ATOM      8  C6  UNL d   1       2.217  -1.225   0.985  0.00  0.00    -0.082 A 
ATOM      9  C7  UNL d   1       2.911  -2.330   1.534  0.00  0.00     0.045 A 
ENDROOT
TORSDOF 0
ENDMDL
