MODEL 1
REMARK minimizedAffinity 1.46297169
REMARK minimizedRMSD -1
REMARK  0 active torsions:
REMARK  status: ('A' for Active; 'I' for Inactive)
ROOT
ATOM      1  C   UNL d   1      -2.404  -1.931   0.721  0.00  0.00    -0.002 A 
ATOM      2  C1  UNL d   1      -2.875  -0.641   0.915  0.00  0.00     0.010 A 
ATOM      3  C2  UNL d   1      -2.021   0.456   0.773  0.00  0.00     0.041 A 
ATOM      4  C3  UNL d   1      -0.674   0.230   0.427  0.00  0.00    -0.075 A 
ATOM      5  S   UNL d   1       0.553   1.420   0.198  0.00  0.00     0.015 SA
ATOM      6  C4  UNL d   1       1.731   0.242  -0.164  0.00  0.00     0.022 A 
ATOM      7  C5  UNL d   1       1.218  -1.032  -0.115  0.00  0.00     0.026 A 
ATOM      8  C6  UNL d   1      -0.177  -1.060   0.226  0.00  0.00    -0.082 A 
ATOM      9  C7  UNL d   1      -1.067  -2.151   0.378  0.00  0.00     0.045 A 
ENDROOT
TORSDOF 0
ENDMDL
