MODEL 1
REMARK minimizedAffinity -2.57435131
REMARK minimizedRMSD -1
REMARK  0 active torsions:
REMARK  status: ('A' for Active; 'I' for Inactive)
ROOT
ATOM      1  C   UNL d   1       1.748  -5.691  -5.782  0.00  0.00    -0.002 A 
ATOM      2  C1  UNL d   1       2.264  -5.788  -4.497  0.00  0.00     0.010 A 
ATOM      3  C2  UNL d   1       1.412  -5.886  -3.395  0.00  0.00     0.041 A 
ATOM      4  C3  UNL d   1       0.019  -5.887  -3.609  0.00  0.00    -0.075 A 
ATOM      5  S   UNL d   1      -1.216  -5.999  -2.411  0.00  0.00     0.015 SA
ATOM      6  C4  UNL d   1      -2.457  -5.922  -3.577  0.00  0.00     0.022 A 
ATOM      7  C5  UNL d   1      -1.959  -5.813  -4.853  0.00  0.00     0.026 A 
ATOM      8  C6  UNL d   1      -0.524  -5.792  -4.893  0.00  0.00    -0.082 A 
ATOM      9  C7  UNL d   1       0.367  -5.693  -5.989  0.00  0.00     0.045 A 
ENDROOT
TORSDOF 0
ENDMDL
