MODEL 1
REMARK minimizedAffinity 10.8342924
REMARK minimizedRMSD -1
REMARK  0 active torsions:
REMARK  status: ('A' for Active; 'I' for Inactive)
ROOT
ATOM      1  C   UNL d   1      -2.568  -2.524   0.253  0.00  0.00    -0.002 A 
ATOM      2  C1  UNL d   1      -3.056  -1.225   0.234  0.00  0.00     0.010 A 
ATOM      3  C2  UNL d   1      -2.182  -0.137   0.203  0.00  0.00     0.041 A 
ATOM      4  C3  UNL d   1      -0.794  -0.379   0.190  0.00  0.00    -0.075 A 
ATOM      5  S   UNL d   1       0.466   0.798   0.152  0.00  0.00     0.015 SA
ATOM      6  C4  UNL d   1       1.682  -0.396   0.158  0.00  0.00     0.022 A 
ATOM      7  C5  UNL d   1       1.158  -1.666   0.189  0.00  0.00     0.026 A 
ATOM      8  C6  UNL d   1      -0.277  -1.678   0.207  0.00  0.00    -0.082 A 
ATOM      9  C7  UNL d   1      -1.190  -2.759   0.239  0.00  0.00     0.045 A 
ENDROOT
TORSDOF 0
ENDMDL
