MODEL 1
REMARK minimizedAffinity 9.38844204
REMARK minimizedRMSD -1
REMARK  0 active torsions:
REMARK  status: ('A' for Active; 'I' for Inactive)
ROOT
ATOM      1  C   UNL d   1       2.608  -1.122   3.152  0.00  0.00    -0.002 A 
ATOM      2  C1  UNL d   1       3.966  -0.927   2.942  0.00  0.00     0.010 A 
ATOM      3  C2  UNL d   1       4.451  -0.625   1.668  0.00  0.00     0.041 A 
ATOM      4  C3  UNL d   1       3.539  -0.520   0.599  0.00  0.00    -0.075 A 
ATOM      5  S   UNL d   1       3.905  -0.158  -1.047  0.00  0.00     0.015 SA
ATOM      6  C4  UNL d   1       2.267  -0.253  -1.510  0.00  0.00     0.022 A 
ATOM      7  C5  UNL d   1       1.448  -0.552  -0.447  0.00  0.00     0.026 A 
ATOM      8  C6  UNL d   1       2.167  -0.711   0.786  0.00  0.00    -0.082 A 
ATOM      9  C7  UNL d   1       1.707  -1.016   2.089  0.00  0.00     0.045 A 
ENDROOT
TORSDOF 0
ENDMDL
