MODEL 1
REMARK minimizedAffinity -2.76436877
REMARK minimizedRMSD -1
REMARK  0 active torsions:
REMARK  status: ('A' for Active; 'I' for Inactive)
ROOT
ATOM      1  C   UNL d   1      -3.097  -5.981  -2.007  0.00  0.00    -0.002 A 
ATOM      2  C1  UNL d   1      -1.905  -5.646  -1.379  0.00  0.00     0.010 A 
ATOM      3  C2  UNL d   1      -0.773  -5.322  -2.129  0.00  0.00     0.041 A 
ATOM      4  C3  UNL d   1      -0.860  -5.339  -3.535  0.00  0.00    -0.075 A 
ATOM      5  S   UNL d   1       0.397  -4.977  -4.659  0.00  0.00     0.015 SA
ATOM      6  C4  UNL d   1      -0.618  -5.258  -5.999  0.00  0.00     0.022 A 
ATOM      7  C5  UNL d   1      -1.888  -5.620  -5.617  0.00  0.00     0.026 A 
ATOM      8  C6  UNL d   1      -2.049  -5.672  -4.191  0.00  0.00    -0.082 A 
ATOM      9  C7  UNL d   1      -3.179  -5.997  -3.402  0.00  0.00     0.045 A 
ENDROOT
TORSDOF 0
ENDMDL
