MODEL 1
REMARK minimizedAffinity -2.51654935
REMARK minimizedRMSD -1
REMARK  0 active torsions:
REMARK  status: ('A' for Active; 'I' for Inactive)
ROOT
ATOM      1  C   UNL d   1      -1.841  -5.695  -1.499  0.00  0.00    -0.002 A 
ATOM      2  C1  UNL d   1      -3.071  -5.897  -2.110  0.00  0.00     0.010 A 
ATOM      3  C2  UNL d   1      -3.165  -6.000  -3.500  0.00  0.00     0.041 A 
ATOM      4  C3  UNL d   1      -1.991  -5.898  -4.272  0.00  0.00    -0.075 A 
ATOM      5  S   UNL d   1      -1.864  -5.995  -5.988  0.00  0.00     0.015 SA
ATOM      6  C4  UNL d   1      -0.175  -5.771  -5.951  0.00  0.00     0.022 A 
ATOM      7  C5  UNL d   1       0.298  -5.624  -4.668  0.00  0.00     0.026 A 
ATOM      8  C6  UNL d   1      -0.741  -5.695  -3.679  0.00  0.00    -0.082 A 
ATOM      9  C7  UNL d   1      -0.679  -5.594  -2.268  0.00  0.00     0.045 A 
ENDROOT
TORSDOF 0
ENDMDL
