MODEL 1
REMARK minimizedAffinity 1.39888096
REMARK minimizedRMSD -1
REMARK  0 active torsions:
REMARK  status: ('A' for Active; 'I' for Inactive)
ROOT
ATOM      1  C   UNL d   1      -1.853  -4.873  -1.644  0.00  0.00    -0.002 A 
ATOM      2  C1  UNL d   1      -3.036  -5.326  -2.210  0.00  0.00     0.010 A 
ATOM      3  C2  UNL d   1      -3.085  -5.695  -3.556  0.00  0.00     0.041 A 
ATOM      4  C3  UNL d   1      -1.912  -5.602  -4.330  0.00  0.00    -0.075 A 
ATOM      5  S   UNL d   1      -1.734  -5.999  -5.998  0.00  0.00     0.015 SA
ATOM      6  C4  UNL d   1      -0.082  -5.579  -5.999  0.00  0.00     0.022 A 
ATOM      7  C5  UNL d   1       0.340  -5.143  -4.765  0.00  0.00     0.026 A 
ATOM      8  C6  UNL d   1      -0.708  -5.150  -3.783  0.00  0.00    -0.082 A 
ATOM      9  C7  UNL d   1      -0.691  -4.783  -2.416  0.00  0.00     0.045 A 
ENDROOT
TORSDOF 0
ENDMDL
