MODEL 1
REMARK minimizedAffinity 3.0512352
REMARK minimizedRMSD -1
REMARK  0 active torsions:
REMARK  status: ('A' for Active; 'I' for Inactive)
ROOT
ATOM      1  C   UNL d   1      -3.242  -5.501  -0.765  0.00  0.00    -0.002 A 
ATOM      2  C1  UNL d   1      -2.285  -4.945   0.073  0.00  0.00     0.010 A 
ATOM      3  C2  UNL d   1      -2.560  -4.741   1.426  0.00  0.00     0.041 A 
ATOM      4  C3  UNL d   1      -3.823  -5.110   1.929  0.00  0.00    -0.075 A 
ATOM      5  S   UNL d   1      -4.382  -4.953   3.552  0.00  0.00     0.015 SA
ATOM      6  C4  UNL d   1      -5.903  -5.621   3.172  0.00  0.00     0.022 A 
ATOM      7  C5  UNL d   1      -6.000  -5.961   1.843  0.00  0.00     0.026 A 
ATOM      8  C6  UNL d   1      -4.802  -5.672   1.105  0.00  0.00    -0.082 A 
ATOM      9  C7  UNL d   1      -4.494  -5.866  -0.263  0.00  0.00     0.045 A 
ENDROOT
TORSDOF 0
ENDMDL
