MODEL 1
REMARK minimizedAffinity -3.86153436
REMARK minimizedRMSD -1
REMARK  0 active torsions:
REMARK  status: ('A' for Active; 'I' for Inactive)
ROOT
ATOM      1  C   UNL d   1      -4.793  -5.925   2.377  0.00  0.00    -0.002 A 
ATOM      2  C1  UNL d   1      -3.429  -5.933   2.118  0.00  0.00     0.010 A 
ATOM      3  C2  UNL d   1      -2.956  -5.957   0.805  0.00  0.00     0.041 A 
ATOM      4  C3  UNL d   1      -3.884  -5.970  -0.254  0.00  0.00    -0.075 A 
ATOM      5  S   UNL d   1      -3.534  -5.999  -1.943  0.00  0.00     0.015 SA
ATOM      6  C4  UNL d   1      -5.187  -6.000  -2.361  0.00  0.00     0.022 A 
ATOM      7  C5  UNL d   1      -5.999  -5.979  -1.252  0.00  0.00     0.026 A 
ATOM      8  C6  UNL d   1      -5.262  -5.961  -0.020  0.00  0.00    -0.082 A 
ATOM      9  C7  UNL d   1      -5.711  -5.938   1.323  0.00  0.00     0.045 A 
ENDROOT
TORSDOF 0
ENDMDL
