MODEL 1
REMARK minimizedAffinity 6.55951595
REMARK minimizedRMSD -1
REMARK  0 active torsions:
REMARK  status: ('A' for Active; 'I' for Inactive)
ROOT
ATOM      1  C   UNL d   1      -0.477   3.942  -3.750  0.00  0.00    -0.002 A 
ATOM      2  C1  UNL d   1      -1.002   2.690  -4.038  0.00  0.00     0.010 A 
ATOM      3  C2  UNL d   1      -0.969   1.670  -3.085  0.00  0.00     0.041 A 
ATOM      4  C3  UNL d   1      -0.396   1.932  -1.825  0.00  0.00    -0.075 A 
ATOM      5  S   UNL d   1      -0.247   0.836  -0.503  0.00  0.00     0.015 SA
ATOM      6  C4  UNL d   1       0.516   2.004   0.476  0.00  0.00     0.022 A 
ATOM      7  C5  UNL d   1       0.661   3.207  -0.174  0.00  0.00     0.026 A 
ATOM      8  C6  UNL d   1       0.137   3.185  -1.511  0.00  0.00    -0.082 A 
ATOM      9  C7  UNL d   1       0.090   4.199  -2.499  0.00  0.00     0.045 A 
ENDROOT
TORSDOF 0
ENDMDL
