MODEL 1
REMARK minimizedAffinity 2.52771616
REMARK minimizedRMSD -1
REMARK  0 active torsions:
REMARK  status: ('A' for Active; 'I' for Inactive)
ROOT
ATOM      1  C   UNL d   1      -3.759  -5.895  -2.561  0.00  0.00    -0.002 A 
ATOM      2  C1  UNL d   1      -2.661  -5.866  -1.714  0.00  0.00     0.010 A 
ATOM      3  C2  UNL d   1      -1.364  -5.877  -2.231  0.00  0.00     0.041 A 
ATOM      4  C3  UNL d   1      -1.187  -5.917  -3.628  0.00  0.00    -0.075 A 
ATOM      5  S   UNL d   1       0.307  -5.937  -4.487  0.00  0.00     0.015 SA
ATOM      6  C4  UNL d   1      -0.477  -5.983  -5.999  0.00  0.00     0.022 A 
ATOM      7  C5  UNL d   1      -1.846  -5.985  -5.871  0.00  0.00     0.026 A 
ATOM      8  C6  UNL d   1      -2.278  -5.946  -4.502  0.00  0.00    -0.082 A 
ATOM      9  C7  UNL d   1      -3.580  -5.934  -3.947  0.00  0.00     0.045 A 
ENDROOT
TORSDOF 0
ENDMDL
