MODEL 1
REMARK minimizedAffinity -0.000207725112
REMARK minimizedRMSD -1
REMARK  0 active torsions:
REMARK  status: ('A' for Active; 'I' for Inactive)
ROOT
ATOM      1  C   UNL d   1       2.836  -1.401   3.430  0.00  0.00    -0.002 A 
ATOM      2  C1  UNL d   1       3.920  -1.339   2.565  0.00  0.00     0.010 A 
ATOM      3  C2  UNL d   1       3.744  -0.959   1.233  0.00  0.00     0.041 A 
ATOM      4  C3  UNL d   1       2.449  -0.638   0.780  0.00  0.00    -0.075 A 
ATOM      5  S   UNL d   1       1.995  -0.147  -0.808  0.00  0.00     0.015 SA
ATOM      6  C4  UNL d   1       0.352  -0.006  -0.376  0.00  0.00     0.022 A 
ATOM      7  C5  UNL d   1       0.138  -0.324   0.944  0.00  0.00     0.026 A 
ATOM      8  C6  UNL d   1       1.342  -0.692   1.633  0.00  0.00    -0.082 A 
ATOM      9  C7  UNL d   1       1.553  -1.082   2.978  0.00  0.00     0.045 A 
ENDROOT
TORSDOF 0
ENDMDL
