MODEL 1
REMARK minimizedAffinity 4.56139898
REMARK minimizedRMSD -1
REMARK  0 active torsions:
REMARK  status: ('A' for Active; 'I' for Inactive)
ROOT
ATOM      1  C   UNL d   1       2.000  -5.861  -5.095  0.00  0.00    -0.002 A 
ATOM      2  C1  UNL d   1       1.854  -5.873  -3.715  0.00  0.00     0.010 A 
ATOM      3  C2  UNL d   1       0.585  -5.912  -3.135  0.00  0.00     0.041 A 
ATOM      4  C3  UNL d   1      -0.547  -5.941  -3.973  0.00  0.00    -0.075 A 
ATOM      5  S   UNL d   1      -2.200  -5.992  -3.486  0.00  0.00     0.015 SA
ATOM      6  C4  UNL d   1      -2.752  -6.000  -5.099  0.00  0.00     0.022 A 
ATOM      7  C5  UNL d   1      -1.714  -5.965  -5.999  0.00  0.00     0.026 A 
ATOM      8  C6  UNL d   1      -0.426  -5.931  -5.366  0.00  0.00    -0.082 A 
ATOM      9  C7  UNL d   1       0.875  -5.890  -5.923  0.00  0.00     0.045 A 
ENDROOT
TORSDOF 0
ENDMDL
