MODEL 1
REMARK minimizedAffinity 1.17160344
REMARK minimizedRMSD -1
REMARK  0 active torsions:
REMARK  status: ('A' for Active; 'I' for Inactive)
ROOT
ATOM      1  C   UNL d   1       3.409  -1.483   1.600  0.00  0.00    -0.002 A 
ATOM      2  C1  UNL d   1       2.633  -1.399   2.747  0.00  0.00     0.010 A 
ATOM      3  C2  UNL d   1       1.301  -0.988   2.676  0.00  0.00     0.041 A 
ATOM      4  C3  UNL d   1       0.755  -0.661   1.419  0.00  0.00    -0.075 A 
ATOM      5  S   UNL d   1      -0.853  -0.134   1.089  0.00  0.00     0.015 SA
ATOM      6  C4  UNL d   1      -0.548  -0.008  -0.584  0.00  0.00     0.022 A 
ATOM      7  C5  UNL d   1       0.744  -0.356  -0.900  0.00  0.00     0.026 A 
ATOM      8  C6  UNL d   1       1.516  -0.738   0.249  0.00  0.00    -0.082 A 
ATOM      9  C7  UNL d   1       2.864  -1.158   0.354  0.00  0.00     0.045 A 
ENDROOT
TORSDOF 0
ENDMDL
