MODEL 1
REMARK minimizedAffinity 3.07998347
REMARK minimizedRMSD -1
REMARK  2 active torsions:
REMARK  status: ('A' for Active; 'I' for Inactive)
REMARK    1  A    between atoms: C1_2  and  C2_3 
REMARK    2  A    between atoms: C2_3  and  C3_4 
ROOT
ATOM      1  C3  UNL d   1      -3.800   0.729   4.173  0.00  0.00    -0.075 A 
ATOM      2  C4  UNL d   1      -3.823   0.297   2.839  0.00  0.00     0.002 A 
ATOM      3  C5  UNL d   1      -4.537  -0.846   2.477  0.00  0.00     0.002 A 
ATOM      4  C6  UNL d   1      -5.227  -1.575   3.442  0.00  0.00    -0.004 A 
ATOM      5  C7  UNL d   1      -5.197  -1.165   4.773  0.00  0.00     0.002 A 
ATOM      6  C8  UNL d   1      -4.487  -0.020   5.138  0.00  0.00     0.002 A 
ENDROOT
BRANCH   1   7
ATOM      7  C2  UNL d   1      -3.053   1.981   4.567  0.00  0.00     0.056 C 
BRANCH   7   8
ATOM      8  C1  UNL d   1      -3.392   2.493   5.971  0.00  0.00     0.007 C 
ATOM      9  C   UNL d   1      -4.467   3.571   5.974  0.00  0.00     0.009 C 
ENDBRANCH   7   8
ENDBRANCH   1   7
TORSDOF 2
ENDMDL
