MODEL 1
REMARK minimizedAffinity 7.72860527
REMARK minimizedRMSD -1
REMARK  2 active torsions:
REMARK  status: ('A' for Active; 'I' for Inactive)
REMARK    1  A    between atoms: C1_2  and  C2_3 
REMARK    2  A    between atoms: C2_3  and  C3_4 
ROOT
ATOM      1  C3  UNL d   1      -4.502  -0.290   4.162  0.00  0.00    -0.075 A 
ATOM      2  C4  UNL d   1      -4.164  -0.360   2.803  0.00  0.00     0.002 A 
ATOM      3  C5  UNL d   1      -4.383  -1.532   2.078  0.00  0.00     0.002 A 
ATOM      4  C6  UNL d   1      -4.933  -2.649   2.703  0.00  0.00    -0.004 A 
ATOM      5  C7  UNL d   1      -5.258  -2.595   4.057  0.00  0.00     0.002 A 
ATOM      6  C8  UNL d   1      -5.044  -1.423   4.784  0.00  0.00     0.002 A 
ENDROOT
BRANCH   1   7
ATOM      7  C2  UNL d   1      -4.295   0.985   4.945  0.00  0.00     0.056 C 
BRANCH   7   8
ATOM      8  C1  UNL d   1      -2.868   1.166   5.474  0.00  0.00     0.007 C 
ATOM      9  C   UNL d   1      -1.802   0.970   4.405  0.00  0.00     0.009 C 
ENDBRANCH   7   8
ENDBRANCH   1   7
TORSDOF 2
ENDMDL
