MODEL 1
REMARK minimizedAffinity 12.2843609
REMARK minimizedRMSD -1
REMARK  2 active torsions:
REMARK  status: ('A' for Active; 'I' for Inactive)
REMARK    1  A    between atoms: C1_2  and  C2_3 
REMARK    2  A    between atoms: C2_3  and  C3_4 
ROOT
ATOM      1  C3  UNL d   1      -4.739   0.151   2.882  0.00  0.00    -0.075 A 
ATOM      2  C4  UNL d   1      -5.022  -1.176   2.528  0.00  0.00     0.002 A 
ATOM      3  C5  UNL d   1      -5.532  -2.068   3.473  0.00  0.00     0.002 A 
ATOM      4  C6  UNL d   1      -5.755  -1.648   4.782  0.00  0.00    -0.004 A 
ATOM      5  C7  UNL d   1      -5.461  -0.336   5.149  0.00  0.00     0.002 A 
ATOM      6  C8  UNL d   1      -4.955   0.559   4.205  0.00  0.00     0.002 A 
ENDROOT
BRANCH   1   7
ATOM      7  C2  UNL d   1      -4.215   1.128   1.857  0.00  0.00     0.056 C 
BRANCH   7   8
ATOM      8  C1  UNL d   1      -5.030   2.422   1.756  0.00  0.00     0.007 C 
ATOM      9  C   UNL d   1      -4.485   3.396   0.719  0.00  0.00     0.009 C 
ENDBRANCH   7   8
ENDBRANCH   1   7
TORSDOF 2
ENDMDL
