MODEL 1
REMARK minimizedAffinity -3.71742201
REMARK minimizedRMSD -1
REMARK  2 active torsions:
REMARK  status: ('A' for Active; 'I' for Inactive)
REMARK    1  A    between atoms: C1_2  and  C2_3 
REMARK    2  A    between atoms: C2_3  and  C3_4 
ROOT
ATOM      1  C3  UNL d   1       3.041  -3.361  -0.471  0.00  0.00    -0.075 A 
ATOM      2  C4  UNL d   1       3.625  -4.358   0.324  0.00  0.00     0.002 A 
ATOM      3  C5  UNL d   1       4.826  -4.956  -0.058  0.00  0.00     0.002 A 
ATOM      4  C6  UNL d   1       5.452  -4.574  -1.243  0.00  0.00    -0.004 A 
ATOM      5  C7  UNL d   1       4.872  -3.597  -2.049  0.00  0.00     0.002 A 
ATOM      6  C8  UNL d   1       3.673  -2.993  -1.666  0.00  0.00     0.002 A 
ENDROOT
BRANCH   1   7
ATOM      7  C2  UNL d   1       1.757  -2.688  -0.048  0.00  0.00     0.056 C 
BRANCH   7   8
ATOM      8  C1  UNL d   1       1.100  -3.318   1.185  0.00  0.00     0.007 C 
ATOM      9  C   UNL d   1       0.259  -2.333   1.987  0.00  0.00     0.009 C 
ENDBRANCH   7   8
ENDBRANCH   1   7
TORSDOF 2
ENDMDL
