MODEL 1
REMARK minimizedAffinity -3.60824084
REMARK minimizedRMSD -1
REMARK  2 active torsions:
REMARK  status: ('A' for Active; 'I' for Inactive)
REMARK    1  A    between atoms: C1_2  and  C2_3 
REMARK    2  A    between atoms: C2_3  and  C3_4 
ROOT
ATOM      1  C3  UNL d   1       3.081  -3.552  -0.709  0.00  0.00    -0.075 A 
ATOM      2  C4  UNL d   1       2.343  -4.449   0.077  0.00  0.00     0.002 A 
ATOM      3  C5  UNL d   1       1.196  -4.025   0.748  0.00  0.00     0.002 A 
ATOM      4  C6  UNL d   1       0.778  -2.700   0.651  0.00  0.00    -0.004 A 
ATOM      5  C7  UNL d   1       1.512  -1.796  -0.114  0.00  0.00     0.002 A 
ATOM      6  C8  UNL d   1       2.658  -2.218  -0.790  0.00  0.00     0.002 A 
ENDROOT
BRANCH   1   7
ATOM      7  C2  UNL d   1       4.307  -4.011  -1.461  0.00  0.00     0.056 C 
BRANCH   7   8
ATOM      8  C1  UNL d   1       5.403  -4.600  -0.568  0.00  0.00     0.007 C 
ATOM      9  C   UNL d   1       5.851  -5.989  -1.003  0.00  0.00     0.009 C 
ENDBRANCH   7   8
ENDBRANCH   1   7
TORSDOF 2
ENDMDL
