MODEL 1
REMARK minimizedAffinity -4.85085535
REMARK minimizedRMSD -1
REMARK  2 active torsions:
REMARK  status: ('A' for Active; 'I' for Inactive)
REMARK    1  A    between atoms: C1_2  and  C2_3 
REMARK    2  A    between atoms: C2_3  and  C3_4 
ROOT
ATOM      1  C3  UNL d   1       2.950  -3.249  -0.451  0.00  0.00    -0.075 A 
ATOM      2  C4  UNL d   1       3.269  -2.960  -1.786  0.00  0.00     0.002 A 
ATOM      3  C5  UNL d   1       4.432  -3.470  -2.363  0.00  0.00     0.002 A 
ATOM      4  C6  UNL d   1       5.295  -4.266  -1.612  0.00  0.00    -0.004 A 
ATOM      5  C7  UNL d   1       4.996  -4.545  -0.280  0.00  0.00     0.002 A 
ATOM      6  C8  UNL d   1       3.831  -4.040   0.298  0.00  0.00     0.002 A 
ENDROOT
BRANCH   1   7
ATOM      7  C2  UNL d   1       1.677  -2.725   0.170  0.00  0.00     0.056 C 
BRANCH   7   8
ATOM      8  C1  UNL d   1       0.830  -3.800   0.859  0.00  0.00     0.007 C 
ATOM      9  C   UNL d   1      -0.474  -4.095   0.130  0.00  0.00     0.009 C 
ENDBRANCH   7   8
ENDBRANCH   1   7
TORSDOF 2
ENDMDL
