MODEL 1
REMARK minimizedAffinity -2.97785568
REMARK minimizedRMSD -1
REMARK  2 active torsions:
REMARK  status: ('A' for Active; 'I' for Inactive)
REMARK    1  A    between atoms: C1_2  and  C2_3 
REMARK    2  A    between atoms: C2_3  and  C3_4 
ROOT
ATOM      1  C3  UNL d   1       3.345  -3.429  -0.881  0.00  0.00    -0.075 A 
ATOM      2  C4  UNL d   1       4.066  -4.441  -0.231  0.00  0.00     0.002 A 
ATOM      3  C5  UNL d   1       5.387  -4.713  -0.591  0.00  0.00     0.002 A 
ATOM      4  C6  UNL d   1       5.998  -3.986  -1.610  0.00  0.00    -0.004 A 
ATOM      5  C7  UNL d   1       5.286  -2.990  -2.274  0.00  0.00     0.002 A 
ATOM      6  C8  UNL d   1       3.966  -2.712  -1.913  0.00  0.00     0.002 A 
ENDROOT
BRANCH   1   7
ATOM      7  C2  UNL d   1       1.926  -3.109  -0.476  0.00  0.00     0.056 C 
BRANCH   7   8
ATOM      8  C1  UNL d   1       1.514  -3.703   0.875  0.00  0.00     0.007 C 
ATOM      9  C   UNL d   1       0.377  -2.943   1.544  0.00  0.00     0.009 C 
ENDBRANCH   7   8
ENDBRANCH   1   7
TORSDOF 2
ENDMDL
