MODEL 1
REMARK minimizedAffinity 6.87780046
REMARK minimizedRMSD -1
REMARK  2 active torsions:
REMARK  status: ('A' for Active; 'I' for Inactive)
REMARK    1  A    between atoms: C1_2  and  C2_3 
REMARK    2  A    between atoms: C2_3  and  C3_4 
ROOT
ATOM      1  C3  UNL d   1      -0.593  -2.238   1.759  0.00  0.00    -0.075 A 
ATOM      2  C4  UNL d   1      -1.627  -1.354   1.415  0.00  0.00     0.002 A 
ATOM      3  C5  UNL d   1      -2.150  -0.473   2.361  0.00  0.00     0.002 A 
ATOM      4  C6  UNL d   1      -1.656  -0.471   3.664  0.00  0.00    -0.004 A 
ATOM      5  C7  UNL d   1      -0.641  -1.355   4.021  0.00  0.00     0.002 A 
ATOM      6  C8  UNL d   1      -0.112  -2.235   3.075  0.00  0.00     0.002 A 
ENDROOT
BRANCH   1   7
ATOM      7  C2  UNL d   1      -0.002  -3.174   0.732  0.00  0.00     0.056 C 
BRANCH   7   8
ATOM      8  C1  UNL d   1      -0.220  -4.658   1.042  0.00  0.00     0.007 C 
ATOM      9  C   UNL d   1       0.754  -5.573   0.313  0.00  0.00     0.009 C 
ENDBRANCH   7   8
ENDBRANCH   1   7
TORSDOF 2
ENDMDL
