MODEL 1
REMARK minimizedAffinity 3.35327935
REMARK minimizedRMSD -1
REMARK  2 active torsions:
REMARK  status: ('A' for Active; 'I' for Inactive)
REMARK    1  A    between atoms: C1_2  and  C2_3 
REMARK    2  A    between atoms: C2_3  and  C3_4 
ROOT
ATOM      1  C3  UNL d   1      -1.821  -0.901   1.089  0.00  0.00    -0.075 A 
ATOM      2  C4  UNL d   1      -2.107   0.102   2.027  0.00  0.00     0.002 A 
ATOM      3  C5  UNL d   1      -2.773   1.265   1.639  0.00  0.00     0.002 A 
ATOM      4  C6  UNL d   1      -3.152   1.444   0.310  0.00  0.00    -0.004 A 
ATOM      5  C7  UNL d   1      -2.858   0.461  -0.633  0.00  0.00     0.002 A 
ATOM      6  C8  UNL d   1      -2.195  -0.705  -0.247  0.00  0.00     0.002 A 
ENDROOT
BRANCH   1   7
ATOM      7  C2  UNL d   1      -1.126  -2.175   1.508  0.00  0.00     0.056 C 
BRANCH   7   8
ATOM      8  C1  UNL d   1      -0.551  -2.985   0.341  0.00  0.00     0.007 C 
ATOM      9  C   UNL d   1      -0.307  -4.448   0.688  0.00  0.00     0.009 C 
ENDBRANCH   7   8
ENDBRANCH   1   7
TORSDOF 2
ENDMDL
