MODEL 1
REMARK minimizedAffinity 6.93152285
REMARK minimizedRMSD -1
REMARK  2 active torsions:
REMARK  status: ('A' for Active; 'I' for Inactive)
REMARK    1  A    between atoms: C1_2  and  C2_3 
REMARK    2  A    between atoms: C2_3  and  C3_4 
ROOT
ATOM      1  C3  UNL d   1       0.642   4.034  -2.769  0.00  0.00    -0.075 A 
ATOM      2  C4  UNL d   1       1.682   3.231  -2.278  0.00  0.00     0.002 A 
ATOM      3  C5  UNL d   1       1.868   3.074  -0.904  0.00  0.00     0.002 A 
ATOM      4  C6  UNL d   1       1.025   3.724  -0.006  0.00  0.00    -0.004 A 
ATOM      5  C7  UNL d   1      -0.001   4.537  -0.482  0.00  0.00     0.002 A 
ATOM      6  C8  UNL d   1      -0.192   4.692  -1.856  0.00  0.00     0.002 A 
ENDROOT
BRANCH   1   7
ATOM      7  C2  UNL d   1       0.417   4.184  -4.255  0.00  0.00     0.056 C 
BRANCH   7   8
ATOM      8  C1  UNL d   1      -0.380   5.434  -4.642  0.00  0.00     0.007 C 
ATOM      9  C   UNL d   1       0.012   6.000  -6.000  0.00  0.00     0.009 C 
ENDBRANCH   7   8
ENDBRANCH   1   7
TORSDOF 2
ENDMDL
