MODEL 1
REMARK minimizedAffinity -2.46125531
REMARK minimizedRMSD -1
REMARK  2 active torsions:
REMARK  status: ('A' for Active; 'I' for Inactive)
REMARK    1  A    between atoms: C1_2  and  C2_3 
REMARK    2  A    between atoms: C2_3  and  C3_4 
ROOT
ATOM      1  C3  UNL d   1       3.501  -3.801  -0.040  0.00  0.00    -0.075 A 
ATOM      2  C4  UNL d   1       3.612  -2.442   0.288  0.00  0.00     0.002 A 
ATOM      3  C5  UNL d   1       2.483  -1.705   0.645  0.00  0.00     0.002 A 
ATOM      4  C6  UNL d   1       1.230  -2.313   0.670  0.00  0.00    -0.004 A 
ATOM      5  C7  UNL d   1       1.105  -3.659   0.330  0.00  0.00     0.002 A 
ATOM      6  C8  UNL d   1       2.234  -4.400  -0.023  0.00  0.00     0.002 A 
ENDROOT
BRANCH   1   7
ATOM      7  C2  UNL d   1       4.724  -4.612  -0.399  0.00  0.00     0.056 C 
BRANCH   7   8
ATOM      8  C1  UNL d   1       4.792  -5.977   0.294  0.00  0.00     0.007 C 
ATOM      9  C   UNL d   1       5.739  -5.998   1.487  0.00  0.00     0.009 C 
ENDBRANCH   7   8
ENDBRANCH   1   7
TORSDOF 2
ENDMDL
