MODEL 1
REMARK minimizedAffinity -0.0640615746
REMARK minimizedRMSD -1
REMARK  0 active torsions:
REMARK  status: ('A' for Active; 'I' for Inactive)
ROOT
ATOM      1  C   UNL d   1       2.728  -1.536   0.075  0.00  0.00    -0.002 A 
ATOM      2  C1  UNL d   1       1.477  -1.928  -0.378  0.00  0.00     0.010 A 
ATOM      3  C2  UNL d   1       0.398  -1.042  -0.341  0.00  0.00     0.041 A 
ATOM      4  C3  UNL d   1       0.601   0.258   0.161  0.00  0.00    -0.075 A 
ATOM      5  S   UNL d   1      -0.572   1.513   0.302  0.00  0.00     0.015 SA
ATOM      6  C4  UNL d   1       0.561   2.600   0.965  0.00  0.00     0.022 A 
ATOM      7  C5  UNL d   1       1.809   2.036   1.084  0.00  0.00     0.026 A 
ATOM      8  C6  UNL d   1       1.853   0.677   0.622  0.00  0.00    -0.082 A 
ATOM      9  C7  UNL d   1       2.926  -0.246   0.573  0.00  0.00     0.045 A 
ENDROOT
TORSDOF 0
ENDMDL
