MODEL 1
REMARK minimizedAffinity 0.394202352
REMARK minimizedRMSD -1
REMARK  0 active torsions:
REMARK  status: ('A' for Active; 'I' for Inactive)
ROOT
ATOM      1  C   UNL d   1       2.810   0.611   0.573  0.00  0.00    -0.002 A 
ATOM      2  C1  UNL d   1       2.684  -0.480   1.421  0.00  0.00     0.010 A 
ATOM      3  C2  UNL d   1       1.449  -1.111   1.588  0.00  0.00     0.041 A 
ATOM      4  C3  UNL d   1       0.333  -0.623   0.881  0.00  0.00    -0.075 A 
ATOM      5  S   UNL d   1      -1.277  -1.237   0.928  0.00  0.00     0.015 SA
ATOM      6  C4  UNL d   1      -1.836  -0.065  -0.177  0.00  0.00     0.022 A 
ATOM      7  C5  UNL d   1      -0.831   0.781  -0.582  0.00  0.00     0.026 A 
ATOM      8  C6  UNL d   1       0.435   0.474   0.020  0.00  0.00    -0.082 A 
ATOM      9  C7  UNL d   1       1.700   1.092  -0.128  0.00  0.00     0.045 A 
ENDROOT
TORSDOF 0
ENDMDL
