MODEL 1
REMARK minimizedAffinity -0.172484949
REMARK minimizedRMSD -1
REMARK  0 active torsions:
REMARK  status: ('A' for Active; 'I' for Inactive)
ROOT
ATOM      1  C   UNL d   1       2.446   0.820   1.169  0.00  0.00    -0.002 A 
ATOM      2  C1  UNL d   1       2.901  -0.445   0.822  0.00  0.00     0.010 A 
ATOM      3  C2  UNL d   1       2.078  -1.327   0.120  0.00  0.00     0.041 A 
ATOM      4  C3  UNL d   1       0.779  -0.913  -0.233  0.00  0.00    -0.075 A 
ATOM      5  S   UNL d   1      -0.405  -1.824  -1.095  0.00  0.00     0.015 SA
ATOM      6  C4  UNL d   1      -1.542  -0.556  -1.023  0.00  0.00     0.022 A 
ATOM      7  C5  UNL d   1      -1.047   0.543  -0.361  0.00  0.00     0.026 A 
ATOM      8  C6  UNL d   1       0.298   0.355   0.105  0.00  0.00    -0.082 A 
ATOM      9  C7  UNL d   1       1.156   1.227   0.818  0.00  0.00     0.045 A 
ENDROOT
TORSDOF 0
ENDMDL
