MODEL 1
REMARK minimizedAffinity 0.245597526
REMARK minimizedRMSD -1
REMARK  0 active torsions:
REMARK  status: ('A' for Active; 'I' for Inactive)
ROOT
ATOM      1  C   UNL d   1       3.001  -0.773   0.317  0.00  0.00    -0.002 A 
ATOM      2  C1  UNL d   1       3.266   0.403   1.005  0.00  0.00     0.010 A 
ATOM      3  C2  UNL d   1       2.293   1.400   1.109  0.00  0.00     0.041 A 
ATOM      4  C3  UNL d   1       1.037   1.192   0.505  0.00  0.00    -0.075 A 
ATOM      5  S   UNL d   1      -0.307   2.272   0.503  0.00  0.00     0.015 SA
ATOM      6  C4  UNL d   1      -1.264   1.197  -0.410  0.00  0.00     0.022 A 
ATOM      7  C5  UNL d   1      -0.591   0.038  -0.715  0.00  0.00     0.026 A 
ATOM      8  C6  UNL d   1       0.747   0.016  -0.192  0.00  0.00    -0.082 A 
ATOM      9  C7  UNL d   1       1.754  -0.975  -0.280  0.00  0.00     0.045 A 
ENDROOT
TORSDOF 0
ENDMDL
