MODEL 1
REMARK minimizedAffinity -4.76111412
REMARK minimizedRMSD -1
REMARK  0 active torsions:
REMARK  status: ('A' for Active; 'I' for Inactive)
ROOT
ATOM      1  C   UNL d   1       2.534  -1.795   1.851  0.00  0.00    -0.002 A 
ATOM      2  C1  UNL d   1       1.371  -2.547   1.781  0.00  0.00     0.010 A 
ATOM      3  C2  UNL d   1       0.192  -1.989   1.283  0.00  0.00     0.041 A 
ATOM      4  C3  UNL d   1       0.204  -0.648   0.849  0.00  0.00    -0.075 A 
ATOM      5  S   UNL d   1      -1.120   0.246   0.201  0.00  0.00     0.015 SA
ATOM      6  C4  UNL d   1      -0.172   1.648  -0.000  0.00  0.00     0.022 A 
ATOM      7  C5  UNL d   1       1.126   1.456   0.412  0.00  0.00     0.026 A 
ATOM      8  C6  UNL d   1       1.364   0.129   0.908  0.00  0.00    -0.082 A 
ATOM      9  C7  UNL d   1       2.542  -0.466   1.420  0.00  0.00     0.045 A 
ENDROOT
TORSDOF 0
ENDMDL
