MODEL 1
REMARK minimizedAffinity 21.0664024
REMARK minimizedRMSD -1
REMARK  0 active torsions:
REMARK  status: ('A' for Active; 'I' for Inactive)
ROOT
ATOM      1  C   UNL d   1      -5.276   5.869  -1.490  0.00  0.00    -0.002 A 
ATOM      2  C1  UNL d   1      -4.035   5.701  -2.089  0.00  0.00     0.010 A 
ATOM      3  C2  UNL d   1      -3.485   4.427  -2.239  0.00  0.00     0.041 A 
ATOM      4  C3  UNL d   1      -4.210   3.313  -1.773  0.00  0.00    -0.075 A 
ATOM      5  S   UNL d   1      -3.735   1.657  -1.850  0.00  0.00     0.015 SA
ATOM      6  C4  UNL d   1      -5.168   1.133  -1.090  0.00  0.00     0.022 A 
ATOM      7  C5  UNL d   1      -6.000   2.182  -0.778  0.00  0.00     0.026 A 
ATOM      8  C6  UNL d   1      -5.462   3.456  -1.167  0.00  0.00    -0.082 A 
ATOM      9  C7  UNL d   1      -5.992   4.761  -1.029  0.00  0.00     0.045 A 
ENDROOT
TORSDOF 0
ENDMDL
