MODEL 1
REMARK minimizedAffinity -1.35663509
REMARK minimizedRMSD -1
REMARK  0 active torsions:
REMARK  status: ('A' for Active; 'I' for Inactive)
ROOT
ATOM      1  C   UNL d   1       2.960   1.094   1.022  0.00  0.00    -0.002 A 
ATOM      2  C1  UNL d   1       3.141  -0.278   1.126  0.00  0.00     0.010 A 
ATOM      3  C2  UNL d   1       2.106  -1.157   0.800  0.00  0.00     0.041 A 
ATOM      4  C3  UNL d   1       0.875  -0.630   0.364  0.00  0.00    -0.075 A 
ATOM      5  S   UNL d   1      -0.533  -1.515  -0.090  0.00  0.00     0.015 SA
ATOM      6  C4  UNL d   1      -1.408  -0.092  -0.432  0.00  0.00     0.022 A 
ATOM      7  C5  UNL d   1      -0.659   1.039  -0.211  0.00  0.00     0.026 A 
ATOM      8  C6  UNL d   1       0.669   0.748   0.251  0.00  0.00    -0.082 A 
ATOM      9  C7  UNL d   1       1.738   1.614   0.589  0.00  0.00     0.045 A 
ENDROOT
TORSDOF 0
ENDMDL
