MODEL 1
REMARK minimizedAffinity -2.33554339
REMARK minimizedRMSD -1
REMARK  0 active torsions:
REMARK  status: ('A' for Active; 'I' for Inactive)
ROOT
ATOM      1  C4' PXY d   1      -1.273   1.746  -2.319  0.00  0.00     0.077 C 
ATOM      2  C1' PXY d   1       0.223  -1.283   2.372  0.00  0.00     0.077 C 
ATOM      3  C1  PXY d   1      -0.157  -0.491   1.136  0.00  0.00    -0.082 A 
ATOM      4  C2  PXY d   1      -1.117   0.417   1.211  0.00  0.00     0.003 A 
ATOM      5  C3  PXY d   1      -1.496   1.120   0.096  0.00  0.00     0.003 A 
ATOM      6  C4  PXY d   1      -0.849   0.929  -1.095  0.00  0.00    -0.082 A 
ATOM      7  C5  PXY d   1       0.139   0.013  -1.177  0.00  0.00     0.003 A 
ATOM      8  C6  PXY d   1       0.480  -0.720  -0.044  0.00  0.00     0.003 A 
ENDROOT
TORSDOF 0
ENDMDL
