MODEL 1
REMARK minimizedAffinity -4.84269619
REMARK minimizedRMSD -1
REMARK  0 active torsions:
REMARK  status: ('A' for Active; 'I' for Inactive)
ROOT
ATOM      1  C4' PXY d   1      -0.425   0.408  -1.579  0.00  0.00     0.077 C 
ATOM      2  C1' PXY d   1       2.186  -2.161   2.893  0.00  0.00     0.077 C 
ATOM      3  C1  PXY d   1       1.490  -1.486   1.727  0.00  0.00    -0.082 A 
ATOM      4  C2  PXY d   1       1.953  -1.660   0.500  0.00  0.00     0.003 A 
ATOM      5  C3  PXY d   1       1.355  -1.032  -0.562  0.00  0.00     0.003 A 
ATOM      6  C4  PXY d   1       0.240  -0.261  -0.373  0.00  0.00    -0.082 A 
ATOM      7  C5  PXY d   1      -0.245  -0.087   0.875  0.00  0.00     0.003 A 
ATOM      8  C6  PXY d   1       0.401  -0.700   1.945  0.00  0.00     0.003 A 
ENDROOT
TORSDOF 0
ENDMDL
