MODEL 1
REMARK minimizedAffinity -2.10905766
REMARK minimizedRMSD -1
REMARK  0 active torsions:
REMARK  status: ('A' for Active; 'I' for Inactive)
ROOT
ATOM      1  C4' PXY d   1       2.237  -2.973   1.265  0.00  0.00     0.077 C 
ATOM      2  C1' PXY d   1      -1.073   1.029  -1.274  0.00  0.00     0.077 C 
ATOM      3  C1  PXY d   1      -0.207  -0.015  -0.597  0.00  0.00    -0.082 A 
ATOM      4  C2  PXY d   1       0.743  -0.625  -1.287  0.00  0.00     0.003 A 
ATOM      5  C3  PXY d   1       1.514  -1.594  -0.698  0.00  0.00     0.003 A 
ATOM      6  C4  PXY d   1       1.345  -1.906   0.624  0.00  0.00    -0.082 A 
ATOM      7  C5  PXY d   1       0.384  -1.281   1.338  0.00  0.00     0.003 A 
ATOM      8  C6  PXY d   1      -0.415  -0.329   0.711  0.00  0.00     0.003 A 
ENDROOT
TORSDOF 0
ENDMDL
