MODEL 1
REMARK minimizedAffinity -2.02515745
REMARK minimizedRMSD -1
REMARK  0 active torsions:
REMARK  status: ('A' for Active; 'I' for Inactive)
ROOT
ATOM      1  C4' PXY d   1      -0.801  -0.113   2.455  0.00  0.00     0.077 C 
ATOM      2  C1' PXY d   1      -0.458   3.261  -2.226  0.00  0.00     0.077 C 
ATOM      3  C1  PXY d   1      -0.548   2.386  -0.991  0.00  0.00    -0.082 A 
ATOM      4  C2  PXY d   1      -0.114   1.137  -1.041  0.00  0.00     0.003 A 
ATOM      5  C3  PXY d   1      -0.218   0.323   0.058  0.00  0.00     0.003 A 
ATOM      6  C4  PXY d   1      -0.721   0.808   1.235  0.00  0.00    -0.082 A 
ATOM      7  C5  PXY d   1      -1.156   2.085   1.297  0.00  0.00     0.003 A 
ATOM      8  C6  PXY d   1      -1.080   2.883   0.159  0.00  0.00     0.003 A 
ENDROOT
TORSDOF 0
ENDMDL
