MODEL 1
REMARK minimizedAffinity -3.0869813
REMARK minimizedRMSD -1
REMARK  0 active torsions:
REMARK  status: ('A' for Active; 'I' for Inactive)
ROOT
ATOM      1  C4' PXY d   1       1.861  -2.632   1.897  0.00  0.00     0.077 C 
ATOM      2  C1' PXY d   1      -1.372   1.088  -1.124  0.00  0.00     0.077 C 
ATOM      3  C1  PXY d   1      -0.527   0.119  -0.321  0.00  0.00    -0.082 A 
ATOM      4  C2  PXY d   1       0.455  -0.540  -0.914  0.00  0.00     0.003 A 
ATOM      5  C3  PXY d   1       1.208  -1.444  -0.210  0.00  0.00     0.003 A 
ATOM      6  C4  PXY d   1       0.988  -1.637   1.128  0.00  0.00    -0.082 A 
ATOM      7  C5  PXY d   1      -0.005  -0.960   1.743  0.00  0.00     0.003 A 
ATOM      8  C6  PXY d   1      -0.785  -0.078   1.001  0.00  0.00     0.003 A 
ENDROOT
TORSDOF 0
ENDMDL
