MODEL 1
REMARK minimizedAffinity -3.25744462
REMARK minimizedRMSD -1
REMARK  0 active torsions:
REMARK  status: ('A' for Active; 'I' for Inactive)
ROOT
ATOM      1  C4' PXY d   1      -0.814   0.995  -2.468  0.00  0.00     0.077 C 
ATOM      2  C1' PXY d   1       0.647  -1.391   2.591  0.00  0.00     0.077 C 
ATOM      3  C1  PXY d   1       0.275  -0.768   1.259  0.00  0.00    -0.082 A 
ATOM      4  C2  PXY d   1      -0.661   0.165   1.212  0.00  0.00     0.003 A 
ATOM      5  C3  PXY d   1      -1.032   0.716   0.012  0.00  0.00     0.003 A 
ATOM      6  C4  PXY d   1      -0.400   0.345  -1.145  0.00  0.00    -0.082 A 
ATOM      7  C5  PXY d   1       0.563  -0.599  -1.103  0.00  0.00     0.003 A 
ATOM      8  C6  PXY d   1       0.896  -1.175   0.119  0.00  0.00     0.003 A 
ENDROOT
TORSDOF 0
ENDMDL
