MODEL 1
REMARK minimizedAffinity -2.9235909
REMARK minimizedRMSD -1
REMARK  0 active torsions:
REMARK  status: ('A' for Active; 'I' for Inactive)
ROOT
ATOM      1  C4' PXY d   1      -1.380   1.758  -2.322  0.00  0.00     0.077 C 
ATOM      2  C1' PXY d   1      -0.260  -1.360   2.415  0.00  0.00     0.077 C 
ATOM      3  C1  PXY d   1      -0.541  -0.544   1.168  0.00  0.00    -0.082 A 
ATOM      4  C2  PXY d   1      -1.518   0.348   1.178  0.00  0.00     0.003 A 
ATOM      5  C3  PXY d   1      -1.807   1.072   0.050  0.00  0.00     0.003 A 
ATOM      6  C4  PXY d   1      -1.054   0.919  -1.084  0.00  0.00    -0.082 A 
ATOM      7  C5  PXY d   1      -0.049   0.018  -1.098  0.00  0.00     0.003 A 
ATOM      8  C6  PXY d   1       0.202  -0.737   0.045  0.00  0.00     0.003 A 
ENDROOT
TORSDOF 0
ENDMDL
