MODEL 1
REMARK minimizedAffinity -3.25691271
REMARK minimizedRMSD -1
REMARK  0 active torsions:
REMARK  status: ('A' for Active; 'I' for Inactive)
ROOT
ATOM      1  C4' PXY d   1       2.779  -2.714   0.727  0.00  0.00     0.077 C 
ATOM      2  C1' PXY d   1      -2.107   0.342   1.177  0.00  0.00     0.077 C 
ATOM      3  C1  PXY d   1      -0.823  -0.458   1.072  0.00  0.00    -0.082 A 
ATOM      4  C2  PXY d   1      -0.207  -0.555  -0.095  0.00  0.00     0.003 A 
ATOM      5  C3  PXY d   1       0.938  -1.300  -0.215  0.00  0.00     0.003 A 
ATOM      6  C4  PXY d   1       1.486  -1.909   0.882  0.00  0.00    -0.082 A 
ATOM      7  C5  PXY d   1       0.869  -1.806   2.078  0.00  0.00     0.003 A 
ATOM      8  C6  PXY d   1      -0.314  -1.079   2.170  0.00  0.00     0.003 A 
ENDROOT
TORSDOF 0
ENDMDL
