MODEL 1
REMARK minimizedAffinity -3.05258512
REMARK minimizedRMSD -1
REMARK  0 active torsions:
REMARK  status: ('A' for Active; 'I' for Inactive)
ROOT
ATOM      1  C4' PXY d   1      -1.679   0.403   1.109  0.00  0.00     0.077 C 
ATOM      2  C1' PXY d   1       2.908  -3.014   0.276  0.00  0.00     0.077 C 
ATOM      3  C1  PXY d   1       1.707  -2.112   0.483  0.00  0.00    -0.082 A 
ATOM      4  C2  PXY d   1       1.295  -1.844   1.711  0.00  0.00     0.003 A 
ATOM      5  C3  PXY d   1       0.191  -1.056   1.915  0.00  0.00     0.003 A 
ATOM      6  C4  PXY d   1      -0.465  -0.494   0.853  0.00  0.00    -0.082 A 
ATOM      7  C5  PXY d   1      -0.044  -0.755  -0.403  0.00  0.00     0.003 A 
ATOM      8  C6  PXY d   1       1.053  -1.590  -0.590  0.00  0.00     0.003 A 
ENDROOT
TORSDOF 0
ENDMDL
