MODEL 1
REMARK minimizedAffinity -0.759855747
REMARK minimizedRMSD -1
REMARK  0 active torsions:
REMARK  status: ('A' for Active; 'I' for Inactive)
ROOT
ATOM      1  C4' PXY d   1      -0.661   1.723  -2.065  0.00  0.00     0.077 C 
ATOM      2  C1' PXY d   1       0.625  -2.015   2.153  0.00  0.00     0.077 C 
ATOM      3  C1  PXY d   1       0.299  -1.037   1.041  0.00  0.00    -0.082 A 
ATOM      4  C2  PXY d   1      -0.586  -0.076   1.253  0.00  0.00     0.003 A 
ATOM      5  C3  PXY d   1      -0.915   0.797   0.249  0.00  0.00     0.003 A 
ATOM      6  C4  PXY d   1      -0.294   0.719  -0.969  0.00  0.00    -0.082 A 
ATOM      7  C5  PXY d   1       0.618  -0.252  -1.190  0.00  0.00     0.003 A 
ATOM      8  C6  PXY d   1       0.908  -1.154  -0.170  0.00  0.00     0.003 A 
ENDROOT
TORSDOF 0
ENDMDL
