MODEL 1
REMARK minimizedAffinity -2.92178941
REMARK minimizedRMSD -1
REMARK  0 active torsions:
REMARK  status: ('A' for Active; 'I' for Inactive)
ROOT
ATOM      1  O1  BZF d   1       0.223   2.708  -0.772  0.00  0.00    -0.204 OA
ATOM      2  C2  BZF d   1      -0.096   3.902  -0.154  0.00  0.00     0.174 A 
ATOM      3  C3  BZF d   1      -0.653   3.680   1.055  0.00  0.00    -0.012 A 
ATOM      4  C3A BZF d   1      -0.600   2.263   1.239  0.00  0.00    -0.107 A 
ATOM      5  C4  BZF d   1      -0.986   1.433   2.253  0.00  0.00     0.055 A 
ATOM      6  C5  BZF d   1      -0.863   0.089   2.090  0.00  0.00    -0.016 A 
ATOM      7  C6  BZF d   1      -0.362  -0.458   0.927  0.00  0.00     0.022 A 
ATOM      8  C7  BZF d   1       0.039   0.325  -0.104  0.00  0.00     0.029 A 
ATOM      9  C7A BZF d   1      -0.054   1.684   0.070  0.00  0.00     0.058 A 
ENDROOT
TORSDOF 0
ENDMDL
