MODEL 1
REMARK minimizedAffinity -2.37317491
REMARK minimizedRMSD -1
REMARK  0 active torsions:
REMARK  status: ('A' for Active; 'I' for Inactive)
ROOT
ATOM      1  O1  BZF d   1      -0.560   3.419   1.007  0.00  0.00    -0.204 OA
ATOM      2  C2  BZF d   1       0.099   3.850  -0.128  0.00  0.00     0.174 A 
ATOM      3  C3  BZF d   1       0.641   2.809  -0.792  0.00  0.00    -0.012 A 
ATOM      4  C3A BZF d   1       0.221   1.645  -0.073  0.00  0.00    -0.107 A 
ATOM      5  C4  BZF d   1       0.426   0.306  -0.251  0.00  0.00     0.055 A 
ATOM      6  C5  BZF d   1      -0.061  -0.565   0.671  0.00  0.00    -0.016 A 
ATOM      7  C6  BZF d   1      -0.751  -0.133   1.785  0.00  0.00     0.022 A 
ATOM      8  C7  BZF d   1      -0.983   1.185   2.002  0.00  0.00     0.029 A 
ATOM      9  C7A BZF d   1      -0.521   2.065   1.055  0.00  0.00     0.058 A 
ENDROOT
TORSDOF 0
ENDMDL
