MODEL 1
REMARK minimizedAffinity -3.31206536
REMARK minimizedRMSD -1
REMARK  0 active torsions:
REMARK  status: ('A' for Active; 'I' for Inactive)
ROOT
ATOM      1  O1  BZF d   1       0.556   2.627  -0.861  0.00  0.00    -0.204 OA
ATOM      2  C2  BZF d   1       0.330   3.867  -0.296  0.00  0.00     0.174 A 
ATOM      3  C3  BZF d   1      -0.339   3.746   0.869  0.00  0.00    -0.012 A 
ATOM      4  C3A BZF d   1      -0.463   2.338   1.088  0.00  0.00    -0.107 A 
ATOM      5  C4  BZF d   1      -1.018   1.588   2.085  0.00  0.00     0.055 A 
ATOM      6  C5  BZF d   1      -1.037   0.235   1.962  0.00  0.00    -0.016 A 
ATOM      7  C6  BZF d   1      -0.516  -0.400   0.854  0.00  0.00     0.022 A 
ATOM      8  C7  BZF d   1       0.050   0.301  -0.159  0.00  0.00     0.029 A 
ATOM      9  C7A BZF d   1       0.100   1.667  -0.022  0.00  0.00     0.058 A 
ENDROOT
TORSDOF 0
ENDMDL
