MODEL 1
REMARK minimizedAffinity -4.22401905
REMARK minimizedRMSD -1
REMARK  0 active torsions:
REMARK  status: ('A' for Active; 'I' for Inactive)
ROOT
ATOM      1  O1  BZF d   1      -0.890  -3.178  -1.505  0.00  0.00    -0.204 OA
ATOM      2  C2  BZF d   1       0.115  -3.527  -2.386  0.00  0.00     0.174 A 
ATOM      3  C3  BZF d   1       1.121  -2.629  -2.344  0.00  0.00    -0.012 A 
ATOM      4  C3A BZF d   1       0.762  -1.709  -1.309  0.00  0.00    -0.107 A 
ATOM      5  C4  BZF d   1       1.367  -0.604  -0.783  0.00  0.00     0.055 A 
ATOM      6  C5  BZF d   1       0.717   0.114   0.170  0.00  0.00    -0.016 A 
ATOM      7  C6  BZF d   1      -0.539  -0.240   0.616  0.00  0.00     0.022 A 
ATOM      8  C7  BZF d   1      -1.178  -1.331   0.128  0.00  0.00     0.029 A 
ATOM      9  C7A BZF d   1      -0.510  -2.078  -0.812  0.00  0.00     0.058 A 
ENDROOT
TORSDOF 0
ENDMDL
