MODEL 1
REMARK minimizedAffinity -3.09535956
REMARK minimizedRMSD -1
REMARK  0 active torsions:
REMARK  status: ('A' for Active; 'I' for Inactive)
ROOT
ATOM      1  O1  BZF d   1      -0.312  -2.212  -1.591  0.00  0.00    -0.204 OA
ATOM      2  C2  BZF d   1       1.032  -2.142  -1.904  0.00  0.00     0.174 A 
ATOM      3  C3  BZF d   1       1.671  -1.288  -1.077  0.00  0.00    -0.012 A 
ATOM      4  C3A BZF d   1       0.681  -0.865  -0.135  0.00  0.00    -0.107 A 
ATOM      5  C4  BZF d   1       0.709  -0.028   0.944  0.00  0.00     0.055 A 
ATOM      6  C5  BZF d   1      -0.446   0.229   1.611  0.00  0.00    -0.016 A 
ATOM      7  C6  BZF d   1      -1.648  -0.328   1.223  0.00  0.00     0.022 A 
ATOM      8  C7  BZF d   1      -1.725  -1.168   0.162  0.00  0.00     0.029 A 
ATOM      9  C7A BZF d   1      -0.552  -1.456  -0.493  0.00  0.00     0.058 A 
ENDROOT
TORSDOF 0
ENDMDL
