MODEL 1
REMARK minimizedAffinity -0.216868013
REMARK minimizedRMSD -1
REMARK  0 active torsions:
REMARK  status: ('A' for Active; 'I' for Inactive)
ROOT
ATOM      1  O1  BZF d   1      -0.032  -3.081  -2.683  0.00  0.00    -0.204 OA
ATOM      2  C2  BZF d   1       0.650  -4.163  -2.161  0.00  0.00     0.174 A 
ATOM      3  C3  BZF d   1       1.237  -3.840  -0.991  0.00  0.00    -0.012 A 
ATOM      4  C3A BZF d   1       0.825  -2.496  -0.722  0.00  0.00    -0.107 A 
ATOM      5  C4  BZF d   1       1.068  -1.627   0.302  0.00  0.00     0.055 A 
ATOM      6  C5  BZF d   1       0.576  -0.362   0.227  0.00  0.00    -0.016 A 
ATOM      7  C6  BZF d   1      -0.158   0.067  -0.860  0.00  0.00     0.022 A 
ATOM      8  C7  BZF d   1      -0.430  -0.760  -1.898  0.00  0.00     0.029 A 
ATOM      9  C7A BZF d   1       0.038  -2.049  -1.809  0.00  0.00     0.058 A 
ENDROOT
TORSDOF 0
ENDMDL
