MODEL 1
REMARK minimizedAffinity -3.6724906
REMARK minimizedRMSD -1
REMARK  0 active torsions:
REMARK  status: ('A' for Active; 'I' for Inactive)
ROOT
ATOM      1  O1  BZF d   1       0.447   2.451  -0.751  0.00  0.00    -0.204 OA
ATOM      2  C2  BZF d   1       0.104   3.593  -0.054  0.00  0.00     0.174 A 
ATOM      3  C3  BZF d   1      -0.540   3.280   1.089  0.00  0.00    -0.012 A 
ATOM      4  C3A BZF d   1      -0.522   1.851   1.152  0.00  0.00    -0.107 A 
ATOM      5  C4  BZF d   1      -0.992   0.945   2.060  0.00  0.00     0.055 A 
ATOM      6  C5  BZF d   1      -0.878  -0.381   1.789  0.00  0.00    -0.016 A 
ATOM      7  C6  BZF d   1      -0.306  -0.837   0.619  0.00  0.00     0.022 A 
ATOM      8  C7  BZF d   1       0.179   0.023  -0.309  0.00  0.00     0.029 A 
ATOM      9  C7A BZF d   1       0.095   1.364  -0.023  0.00  0.00     0.058 A 
ENDROOT
TORSDOF 0
ENDMDL
