MODEL 1
REMARK minimizedAffinity -3.43092585
REMARK minimizedRMSD -1
REMARK  0 active torsions:
REMARK  status: ('A' for Active; 'I' for Inactive)
ROOT
ATOM      1  O1  BZF d   1       1.869  -2.628  -2.294  0.00  0.00    -0.204 OA
ATOM      2  C2  BZF d   1       0.928  -3.547  -2.717  0.00  0.00     0.174 A 
ATOM      3  C3  BZF d   1      -0.277  -3.284  -2.170  0.00  0.00    -0.012 A 
ATOM      4  C3A BZF d   1      -0.097  -2.075  -1.427  0.00  0.00    -0.107 A 
ATOM      5  C4  BZF d   1      -0.935  -1.301  -0.675  0.00  0.00     0.055 A 
ATOM      6  C5  BZF d   1      -0.429  -0.223  -0.021  0.00  0.00    -0.016 A 
ATOM      7  C6  BZF d   1       0.908   0.108  -0.093  0.00  0.00     0.022 A 
ATOM      8  C7  BZF d   1       1.777  -0.626  -0.830  0.00  0.00     0.029 A 
ATOM      9  C7A BZF d   1       1.262  -1.697  -1.519  0.00  0.00     0.058 A 
ENDROOT
TORSDOF 0
ENDMDL
