MODEL 1
REMARK minimizedAffinity -3.82876968
REMARK minimizedRMSD -1
REMARK  0 active torsions:
REMARK  status: ('A' for Active; 'I' for Inactive)
ROOT
ATOM      1  O1  BZF d   1       0.379   2.733  -0.986  0.00  0.00    -0.204 OA
ATOM      2  C2  BZF d   1       0.088   3.900  -0.308  0.00  0.00     0.174 A 
ATOM      3  C3  BZF d   1      -0.526   3.633   0.863  0.00  0.00    -0.012 A 
ATOM      4  C3A BZF d   1      -0.541   2.206   0.963  0.00  0.00    -0.107 A 
ATOM      5  C4  BZF d   1      -1.003   1.336   1.909  0.00  0.00     0.055 A 
ATOM      6  C5  BZF d   1      -0.931   0.000   1.669  0.00  0.00    -0.016 A 
ATOM      7  C6  BZF d   1      -0.408  -0.499   0.494  0.00  0.00     0.022 A 
ATOM      8  C7  BZF d   1       0.067   0.325  -0.472  0.00  0.00     0.029 A 
ATOM      9  C7A BZF d   1       0.025   1.674  -0.218  0.00  0.00     0.058 A 
ENDROOT
TORSDOF 0
ENDMDL
