MODEL 1
REMARK minimizedAffinity -4.98318386
REMARK minimizedRMSD -1
REMARK  0 active torsions:
REMARK  status: ('A' for Active; 'I' for Inactive)
ROOT
ATOM      1  O1  BZF d   1       0.407   2.409  -0.900  0.00  0.00    -0.204 OA
ATOM      2  C2  BZF d   1      -0.051   3.615  -0.404  0.00  0.00     0.174 A 
ATOM      3  C3  BZF d   1      -0.724   3.432   0.751  0.00  0.00    -0.012 A 
ATOM      4  C3A BZF d   1      -0.604   2.036   1.040  0.00  0.00    -0.107 A 
ATOM      5  C4  BZF d   1      -1.048   1.247   2.062  0.00  0.00     0.055 A 
ATOM      6  C5  BZF d   1      -0.824  -0.092   2.008  0.00  0.00    -0.016 A 
ATOM      7  C6  BZF d   1      -0.166  -0.676   0.946  0.00  0.00     0.022 A 
ATOM      8  C7  BZF d   1       0.298   0.066  -0.089  0.00  0.00     0.029 A 
ATOM      9  C7A BZF d   1       0.103   1.424  -0.021  0.00  0.00     0.058 A 
ENDROOT
TORSDOF 0
ENDMDL
