MODEL 1
REMARK minimizedAffinity -0.591911852
REMARK minimizedRMSD -1
REMARK  0 active torsions:
REMARK  status: ('A' for Active; 'I' for Inactive)
ROOT
ATOM      1  O1  BZF d   1       1.031  -0.343  -1.370  0.00  0.00    -0.204 OA
ATOM      2  C2  BZF d   1       0.605  -1.605  -1.739  0.00  0.00     0.174 A 
ATOM      3  C3  BZF d   1      -0.300  -2.080  -0.860  0.00  0.00    -0.012 A 
ATOM      4  C3A BZF d   1      -0.517  -1.014   0.069  0.00  0.00    -0.107 A 
ATOM      5  C4  BZF d   1      -1.320  -0.873   1.165  0.00  0.00     0.055 A 
ATOM      6  C5  BZF d   1      -1.243   0.268   1.898  0.00  0.00    -0.016 A 
ATOM      7  C6  BZF d   1      -0.372   1.286   1.568  0.00  0.00     0.022 A 
ATOM      8  C7  BZF d   1       0.440   1.194   0.486  0.00  0.00     0.029 A 
ATOM      9  C7A BZF d   1       0.341   0.055  -0.275  0.00  0.00     0.058 A 
ENDROOT
TORSDOF 0
ENDMDL
