MODEL 1
REMARK minimizedAffinity -2.15705824
REMARK minimizedRMSD -1
REMARK  0 active torsions:
REMARK  status: ('A' for Active; 'I' for Inactive)
ROOT
ATOM      1  O1  BZF d   1      -0.227   3.223  -0.090  0.00  0.00    -0.204 OA
ATOM      2  C2  BZF d   1       0.411   3.109  -1.310  0.00  0.00     0.174 A 
ATOM      3  C3  BZF d   1       0.869   1.854  -1.495  0.00  0.00    -0.012 A 
ATOM      4  C3A BZF d   1       0.413   1.115  -0.358  0.00  0.00    -0.107 A 
ATOM      5  C4  BZF d   1       0.537  -0.190   0.024  0.00  0.00     0.055 A 
ATOM      6  C5  BZF d   1       0.038  -0.575   1.228  0.00  0.00    -0.016 A 
ATOM      7  C6  BZF d   1      -0.585   0.318   2.075  0.00  0.00     0.022 A 
ATOM      8  C7  BZF d   1      -0.736   1.622   1.737  0.00  0.00     0.029 A 
ATOM      9  C7A BZF d   1      -0.262   2.007   0.507  0.00  0.00     0.058 A 
ENDROOT
TORSDOF 0
ENDMDL
