MODEL 1
REMARK minimizedAffinity -3.62122965
REMARK minimizedRMSD -1
REMARK  0 active torsions:
REMARK  status: ('A' for Active; 'I' for Inactive)
ROOT
ATOM      1  O1  BZF d   1       0.615   2.863  -0.630  0.00  0.00    -0.204 OA
ATOM      2  C2  BZF d   1       0.033   3.884   0.096  0.00  0.00     0.174 A 
ATOM      3  C3  BZF d   1      -0.618   3.396   1.171  0.00  0.00    -0.012 A 
ATOM      4  C3A BZF d   1      -0.353   1.990   1.165  0.00  0.00    -0.107 A 
ATOM      5  C4  BZF d   1      -0.714   0.963   1.990  0.00  0.00     0.055 A 
ATOM      6  C5  BZF d   1      -0.351  -0.305   1.663  0.00  0.00    -0.016 A 
ATOM      7  C6  BZF d   1       0.366  -0.583   0.518  0.00  0.00     0.022 A 
ATOM      8  C7  BZF d   1       0.750   0.403  -0.329  0.00  0.00     0.029 A 
ATOM      9  C7A BZF d   1       0.414   1.689   0.016  0.00  0.00     0.058 A 
ENDROOT
TORSDOF 0
ENDMDL
