MODEL 1
REMARK minimizedAffinity -3.14174271
REMARK minimizedRMSD -1
REMARK  0 active torsions:
REMARK  status: ('A' for Active; 'I' for Inactive)
ROOT
ATOM      1  O1  BZF d   1       0.982   2.302  -1.048  0.00  0.00    -0.204 OA
ATOM      2  C2  BZF d   1       0.516   3.504  -0.551  0.00  0.00     0.174 A 
ATOM      3  C3  BZF d   1      -0.128   3.320   0.620  0.00  0.00    -0.012 A 
ATOM      4  C3A BZF d   1       0.019   1.928   0.916  0.00  0.00    -0.107 A 
ATOM      5  C4  BZF d   1      -0.391   1.141   1.954  0.00  0.00     0.055 A 
ATOM      6  C5  BZF d   1      -0.148  -0.196   1.905  0.00  0.00    -0.016 A 
ATOM      7  C6  BZF d   1       0.496  -0.778   0.833  0.00  0.00     0.022 A 
ATOM      8  C7  BZF d   1       0.926  -0.037  -0.218  0.00  0.00     0.029 A 
ATOM      9  C7A BZF d   1       0.712   1.319  -0.156  0.00  0.00     0.058 A 
ENDROOT
TORSDOF 0
ENDMDL
