MODEL 1
REMARK minimizedAffinity -4.52353954
REMARK minimizedRMSD -1
REMARK  0 active torsions:
REMARK  status: ('A' for Active; 'I' for Inactive)
ROOT
ATOM      1  O1  BZF d   1       0.419   0.440  -0.684  0.00  0.00    -0.204 OA
ATOM      2  C2  BZF d   1      -0.061  -0.561   0.138  0.00  0.00     0.174 A 
ATOM      3  C3  BZF d   1      -0.643  -0.039   1.237  0.00  0.00    -0.012 A 
ATOM      4  C3A BZF d   1      -0.601   1.379   1.048  0.00  0.00    -0.107 A 
ATOM      5  C4  BZF d   1      -1.039   2.438   1.791  0.00  0.00     0.055 A 
ATOM      6  C5  BZF d   1      -0.777   3.700   1.359  0.00  0.00    -0.016 A 
ATOM      7  C6  BZF d   1      -0.078   3.938   0.194  0.00  0.00     0.022 A 
ATOM      8  C7  BZF d   1       0.372   2.919  -0.579  0.00  0.00     0.029 A 
ATOM      9  C7A BZF d   1       0.080   1.643  -0.162  0.00  0.00     0.058 A 
ENDROOT
TORSDOF 0
ENDMDL
