MODEL 1
REMARK minimizedAffinity -1.93462634
REMARK minimizedRMSD -1
REMARK  0 active torsions:
REMARK  status: ('A' for Active; 'I' for Inactive)
ROOT
ATOM      1  O1  BZF d   1       0.077   2.542  -0.689  0.00  0.00    -0.204 OA
ATOM      2  C2  BZF d   1       0.906   2.026  -1.666  0.00  0.00     0.174 A 
ATOM      3  C3  BZF d   1       1.397   0.827  -1.293  0.00  0.00    -0.012 A 
ATOM      4  C3A BZF d   1       0.767   0.536  -0.042  0.00  0.00    -0.107 A 
ATOM      5  C4  BZF d   1       0.836  -0.521   0.821  0.00  0.00     0.055 A 
ATOM      6  C5  BZF d   1       0.150  -0.463   1.992  0.00  0.00    -0.016 A 
ATOM      7  C6  BZF d   1      -0.609   0.636   2.336  0.00  0.00     0.022 A 
ATOM      8  C7  BZF d   1      -0.712   1.706   1.511  0.00  0.00     0.029 A 
ATOM      9  C7A BZF d   1      -0.046   1.637   0.311  0.00  0.00     0.058 A 
ENDROOT
TORSDOF 0
ENDMDL
