MODEL 1
REMARK minimizedAffinity -3.46445155
REMARK minimizedRMSD -1
REMARK  0 active torsions:
REMARK  status: ('A' for Active; 'I' for Inactive)
ROOT
ATOM      1  O1  BZF d   1      -1.459   1.323   2.109  0.00  0.00    -0.204 OA
ATOM      2  C2  BZF d   1      -1.177   0.060   1.627  0.00  0.00     0.174 A 
ATOM      3  C3  BZF d   1      -0.422   0.131   0.511  0.00  0.00    -0.012 A 
ATOM      4  C3A BZF d   1      -0.142   1.523   0.335  0.00  0.00    -0.107 A 
ATOM      5  C4  BZF d   1       0.576   2.227  -0.590  0.00  0.00     0.055 A 
ATOM      6  C5  BZF d   1       0.590   3.584  -0.521  0.00  0.00    -0.016 A 
ATOM      7  C6  BZF d   1      -0.104   4.269   0.454  0.00  0.00     0.022 A 
ATOM      8  C7  BZF d   1      -0.826   3.615   1.396  0.00  0.00     0.029 A 
ATOM      9  C7A BZF d   1      -0.817   2.242   1.349  0.00  0.00     0.058 A 
ENDROOT
TORSDOF 0
ENDMDL
