MODEL 1
REMARK minimizedAffinity 2.32717586
REMARK minimizedRMSD -1
REMARK  0 active torsions:
REMARK  status: ('A' for Active; 'I' for Inactive)
ROOT
ATOM      1  C   UNL d   1       2.853  -1.828  -0.447  0.00  0.00     0.023 A 
ATOM      2  C1  UNL d   1       1.659  -2.538  -0.322  0.00  0.00     0.003 A 
ATOM      3  C2  UNL d   1       1.086  -2.726   0.938  0.00  0.00     0.048 A 
ATOM      4  C3  UNL d   1       1.712  -2.200   2.067  0.00  0.00     0.023 A 
ATOM      5  C4  UNL d   1       2.907  -1.489   1.947  0.00  0.00     0.048 A 
ATOM      6  C5  UNL d   1       3.476  -1.304   0.685  0.00  0.00     0.003 A 
ATOM      7  I   UNL d   1       0.861  -2.478   3.943  0.00  0.00    -0.146 I 
ENDROOT
TORSDOF 0
ENDMDL
