MODEL 1
REMARK minimizedAffinity 8.85643578
REMARK minimizedRMSD -1
REMARK  0 active torsions:
REMARK  status: ('A' for Active; 'I' for Inactive)
ROOT
ATOM      1  C   UNL d   1       0.933   2.478   2.659  0.00  0.00     0.023 A 
ATOM      2  C1  UNL d   1       0.252   1.645   3.546  0.00  0.00     0.003 A 
ATOM      3  C2  UNL d   1      -1.141   1.571   3.507  0.00  0.00     0.048 A 
ATOM      4  C3  UNL d   1      -1.848   2.333   2.577  0.00  0.00     0.023 A 
ATOM      5  C4  UNL d   1      -1.171   3.167   1.686  0.00  0.00     0.048 A 
ATOM      6  C5  UNL d   1       0.223   3.238   1.730  0.00  0.00     0.003 A 
ATOM      7  I   UNL d   1      -3.923   2.225   2.516  0.00  0.00    -0.146 I 
ENDROOT
TORSDOF 0
ENDMDL
