MODEL 1
REMARK minimizedAffinity 4.99930573
REMARK minimizedRMSD -1
REMARK  0 active torsions:
REMARK  status: ('A' for Active; 'I' for Inactive)
ROOT
ATOM      1  C   UNL d   1       2.243  -2.177  -0.423  0.00  0.00     0.023 A 
ATOM      2  C1  UNL d   1       0.929  -1.761  -0.635  0.00  0.00     0.003 A 
ATOM      3  C2  UNL d   1       0.563  -0.438  -0.379  0.00  0.00     0.048 A 
ATOM      4  C3  UNL d   1       1.518   0.465   0.089  0.00  0.00     0.023 A 
ATOM      5  C4  UNL d   1       2.835   0.053   0.301  0.00  0.00     0.048 A 
ATOM      6  C5  UNL d   1       3.195  -1.271   0.044  0.00  0.00     0.003 A 
ATOM      7  I   UNL d   1       0.977   2.434   0.471  0.00  0.00    -0.146 I 
ENDROOT
TORSDOF 0
ENDMDL
