MODEL 1
REMARK minimizedAffinity 4.44629955
REMARK minimizedRMSD -1
REMARK  0 active torsions:
REMARK  status: ('A' for Active; 'I' for Inactive)
ROOT
ATOM      1  C   UNL d   1      -0.721   3.186   1.865  0.00  0.00     0.023 A 
ATOM      2  C1  UNL d   1      -0.907   1.819   2.075  0.00  0.00     0.003 A 
ATOM      3  C2  UNL d   1      -0.076   0.895   1.438  0.00  0.00     0.048 A 
ATOM      4  C3  UNL d   1       0.939   1.344   0.594  0.00  0.00     0.023 A 
ATOM      5  C4  UNL d   1       1.129   2.710   0.382  0.00  0.00     0.048 A 
ATOM      6  C5  UNL d   1       0.296   3.631   1.020  0.00  0.00     0.003 A 
ATOM      7  I   UNL d   1       2.177  -0.030  -0.354  0.00  0.00    -0.146 I 
ENDROOT
TORSDOF 0
ENDMDL
