MODEL 1
REMARK minimizedAffinity 0.803349495
REMARK minimizedRMSD -1
REMARK  0 active torsions:
REMARK  status: ('A' for Active; 'I' for Inactive)
ROOT
ATOM      1  C   UNL d   1       6.000   5.999   0.295  0.00  0.00     0.023 A 
ATOM      2  C1  UNL d   1       5.970   4.921   1.180  0.00  0.00     0.003 A 
ATOM      3  C2  UNL d   1       5.715   3.633   0.705  0.00  0.00     0.048 A 
ATOM      4  C3  UNL d   1       5.492   3.429  -0.656  0.00  0.00     0.023 A 
ATOM      5  C4  UNL d   1       5.522   4.504  -1.546  0.00  0.00     0.048 A 
ATOM      6  C5  UNL d   1       5.777   5.791  -1.066  0.00  0.00     0.003 A 
ATOM      7  I   UNL d   1       5.113   1.513  -1.366  0.00  0.00    -0.146 I 
ENDROOT
TORSDOF 0
ENDMDL
