MODEL 1
REMARK minimizedAffinity 3.6609292
REMARK minimizedRMSD -1
REMARK  0 active torsions:
REMARK  status: ('A' for Active; 'I' for Inactive)
ROOT
ATOM      1  C   UNL d   1       0.038  -1.120  -0.363  0.00  0.00     0.023 A 
ATOM      2  C1  UNL d   1       1.387  -0.847  -0.136  0.00  0.00     0.003 A 
ATOM      3  C2  UNL d   1       2.365  -1.439  -0.938  0.00  0.00     0.048 A 
ATOM      4  C3  UNL d   1       1.987  -2.302  -1.965  0.00  0.00     0.023 A 
ATOM      5  C4  UNL d   1       0.639  -2.578  -2.197  0.00  0.00     0.048 A 
ATOM      6  C5  UNL d   1      -0.336  -1.984  -1.392  0.00  0.00     0.003 A 
ATOM      7  I   UNL d   1       3.441  -3.184  -3.160  0.00  0.00    -0.146 I 
ENDROOT
TORSDOF 0
ENDMDL
