MODEL 1
REMARK minimizedAffinity -0.810126424
REMARK minimizedRMSD -1
REMARK  0 active torsions:
REMARK  status: ('A' for Active; 'I' for Inactive)
ROOT
ATOM      1  C   UNL d   1      -0.150  -1.530  -0.801  0.00  0.00     0.023 A 
ATOM      2  C1  UNL d   1       0.023  -0.155  -0.645  0.00  0.00     0.003 A 
ATOM      3  C2  UNL d   1       1.309   0.387  -0.593  0.00  0.00     0.048 A 
ATOM      4  C3  UNL d   1       2.417  -0.453  -0.699  0.00  0.00     0.023 A 
ATOM      5  C4  UNL d   1       2.249  -1.829  -0.857  0.00  0.00     0.048 A 
ATOM      6  C5  UNL d   1       0.961  -2.366  -0.908  0.00  0.00     0.003 A 
ATOM      7  I   UNL d   1       4.333   0.351  -0.623  0.00  0.00    -0.146 I 
ENDROOT
TORSDOF 0
ENDMDL
