MODEL 1
REMARK minimizedAffinity -2.45984435
REMARK minimizedRMSD -1
REMARK  0 active torsions:
REMARK  status: ('A' for Active; 'I' for Inactive)
ROOT
ATOM      1  C   UNL d   1       0.121   1.372  -0.266  0.00  0.00     0.023 A 
ATOM      2  C1  UNL d   1      -0.533   0.872   0.860  0.00  0.00     0.003 A 
ATOM      3  C2  UNL d   1      -0.714  -0.505   1.011  0.00  0.00     0.048 A 
ATOM      4  C3  UNL d   1      -0.237  -1.376   0.032  0.00  0.00     0.023 A 
ATOM      5  C4  UNL d   1       0.420  -0.880  -1.096  0.00  0.00     0.048 A 
ATOM      6  C5  UNL d   1       0.597   0.497  -1.243  0.00  0.00     0.003 A 
ATOM      7  I   UNL d   1      -0.504  -3.425   0.254  0.00  0.00    -0.146 I 
ENDROOT
TORSDOF 0
ENDMDL
