MODEL 1
REMARK minimizedAffinity -5.06258106
REMARK minimizedRMSD -1
REMARK  0 active torsions:
REMARK  status: ('A' for Active; 'I' for Inactive)
ROOT
ATOM      1  C   UNL d   1       0.110  -3.644   0.017  0.00  0.00     0.023 A 
ATOM      2  C1  UNL d   1       0.302  -3.029  -1.220  0.00  0.00     0.003 A 
ATOM      3  C2  UNL d   1       0.304  -1.636  -1.315  0.00  0.00     0.048 A 
ATOM      4  C3  UNL d   1       0.114  -0.864  -0.170  0.00  0.00     0.023 A 
ATOM      5  C4  UNL d   1      -0.078  -1.475   1.070  0.00  0.00     0.048 A 
ATOM      6  C5  UNL d   1      -0.080  -2.868   1.161  0.00  0.00     0.003 A 
ATOM      7  I   UNL d   1       0.118   1.210  -0.310  0.00  0.00    -0.146 I 
ENDROOT
TORSDOF 0
ENDMDL
