MODEL 1
REMARK minimizedAffinity -5.48988628
REMARK minimizedRMSD -1
REMARK  0 active torsions:
REMARK  status: ('A' for Active; 'I' for Inactive)
ROOT
ATOM      1  C   UNL d   1      -0.243  -3.726  -0.920  0.00  0.00     0.023 A 
ATOM      2  C1  UNL d   1       0.045  -2.864  -1.978  0.00  0.00     0.003 A 
ATOM      3  C2  UNL d   1       0.184  -1.494  -1.747  0.00  0.00     0.048 A 
ATOM      4  C3  UNL d   1       0.035  -0.992  -0.455  0.00  0.00     0.023 A 
ATOM      5  C4  UNL d   1      -0.253  -1.850   0.608  0.00  0.00     0.048 A 
ATOM      6  C5  UNL d   1      -0.392  -3.219   0.372  0.00  0.00     0.003 A 
ATOM      7  I   UNL d   1       0.241   1.047  -0.109  0.00  0.00    -0.146 I 
ENDROOT
TORSDOF 0
ENDMDL
