MODEL 1
REMARK minimizedAffinity -3.74596667
REMARK minimizedRMSD -1
REMARK  0 active torsions:
REMARK  status: ('A' for Active; 'I' for Inactive)
ROOT
ATOM      1  C   UNL d   1      -0.105  -3.273  -1.313  0.00  0.00     0.023 A 
ATOM      2  C1  UNL d   1      -0.363  -2.752  -0.045  0.00  0.00     0.003 A 
ATOM      3  C2  UNL d   1      -0.164  -1.393   0.207  0.00  0.00     0.048 A 
ATOM      4  C3  UNL d   1       0.293  -0.560  -0.815  0.00  0.00     0.023 A 
ATOM      5  C4  UNL d   1       0.552  -1.077  -2.085  0.00  0.00     0.048 A 
ATOM      6  C5  UNL d   1       0.352  -2.437  -2.331  0.00  0.00     0.003 A 
ATOM      7  I   UNL d   1       0.590   1.463  -0.443  0.00  0.00    -0.146 I 
ENDROOT
TORSDOF 0
ENDMDL
