MODEL 1
REMARK minimizedAffinity -5.44299126
REMARK minimizedRMSD -1
REMARK  0 active torsions:
REMARK  status: ('A' for Active; 'I' for Inactive)
ROOT
ATOM      1  C   UNL d   1       0.214  -3.597  -0.388  0.00  0.00     0.023 A 
ATOM      2  C1  UNL d   1       0.015  -2.838   0.765  0.00  0.00     0.003 A 
ATOM      3  C2  UNL d   1       0.048  -1.444   0.699  0.00  0.00     0.048 A 
ATOM      4  C3  UNL d   1       0.280  -0.815  -0.524  0.00  0.00     0.023 A 
ATOM      5  C4  UNL d   1       0.479  -1.570  -1.680  0.00  0.00     0.048 A 
ATOM      6  C5  UNL d   1       0.446  -2.964  -1.609  0.00  0.00     0.003 A 
ATOM      7  I   UNL d   1       0.329   1.261  -0.624  0.00  0.00    -0.146 I 
ENDROOT
TORSDOF 0
ENDMDL
