MODEL 1
REMARK minimizedAffinity -3.76016116
REMARK minimizedRMSD -1
REMARK  0 active torsions:
REMARK  status: ('A' for Active; 'I' for Inactive)
ROOT
ATOM      1  C   UNL d   1      -0.434  -3.681  -0.515  0.00  0.00     0.023 A 
ATOM      2  C1  UNL d   1      -0.684  -2.981   0.665  0.00  0.00     0.003 A 
ATOM      3  C2  UNL d   1      -0.560  -1.590   0.692  0.00  0.00     0.048 A 
ATOM      4  C3  UNL d   1      -0.188  -0.906  -0.465  0.00  0.00     0.023 A 
ATOM      5  C4  UNL d   1       0.062  -1.603  -1.648  0.00  0.00     0.048 A 
ATOM      6  C5  UNL d   1      -0.061  -2.993  -1.670  0.00  0.00     0.003 A 
ATOM      7  I   UNL d   1      -0.004   1.164  -0.427  0.00  0.00    -0.146 I 
ENDROOT
TORSDOF 0
ENDMDL
