MODEL 1
REMARK minimizedAffinity -5.2601037
REMARK minimizedRMSD -1
REMARK  0 active torsions:
REMARK  status: ('A' for Active; 'I' for Inactive)
ROOT
ATOM      1  C   UNL d   1      -0.025  -3.362  -0.367  0.00  0.00     0.023 A 
ATOM      2  C1  UNL d   1       0.558  -2.678  -1.434  0.00  0.00     0.003 A 
ATOM      3  C2  UNL d   1       0.641  -1.284  -1.410  0.00  0.00     0.048 A 
ATOM      4  C3  UNL d   1       0.139  -0.581  -0.315  0.00  0.00     0.023 A 
ATOM      5  C4  UNL d   1      -0.444  -1.261   0.755  0.00  0.00     0.048 A 
ATOM      6  C5  UNL d   1      -0.525  -2.654   0.726  0.00  0.00     0.003 A 
ATOM      7  I   UNL d   1       0.261   1.494  -0.277  0.00  0.00    -0.146 I 
ENDROOT
TORSDOF 0
ENDMDL
