MODEL 1
REMARK minimizedAffinity -1.60147619
REMARK minimizedRMSD -1
REMARK  0 active torsions:
REMARK  status: ('A' for Active; 'I' for Inactive)
ROOT
ATOM      1  C   UNL d   1      -0.837  -2.212   0.756  0.00  0.00     0.023 A 
ATOM      2  C1  UNL d   1      -1.354  -1.130   1.469  0.00  0.00     0.003 A 
ATOM      3  C2  UNL d   1      -0.853   0.155   1.250  0.00  0.00     0.048 A 
ATOM      4  C3  UNL d   1       0.163   0.351   0.315  0.00  0.00     0.023 A 
ATOM      5  C4  UNL d   1       0.682  -0.729  -0.401  0.00  0.00     0.048 A 
ATOM      6  C5  UNL d   1       0.179  -2.012  -0.178  0.00  0.00     0.003 A 
ATOM      7  I   UNL d   1       0.909   2.263  -0.013  0.00  0.00    -0.146 I 
ENDROOT
TORSDOF 0
ENDMDL
