MODEL 1
REMARK minimizedAffinity -5.56386089
REMARK minimizedRMSD -1
REMARK  0 active torsions:
REMARK  status: ('A' for Active; 'I' for Inactive)
ROOT
ATOM      1  C   UNL d   1       0.104  -3.566  -0.083  0.00  0.00     0.023 A 
ATOM      2  C1  UNL d   1       0.250  -2.897  -1.298  0.00  0.00     0.003 A 
ATOM      3  C2  UNL d   1       0.228  -1.502  -1.337  0.00  0.00     0.048 A 
ATOM      4  C3  UNL d   1       0.060  -0.780  -0.155  0.00  0.00     0.023 A 
ATOM      5  C4  UNL d   1      -0.086  -1.445   1.064  0.00  0.00     0.048 A 
ATOM      6  C5  UNL d   1      -0.064  -2.840   1.097  0.00  0.00     0.003 A 
ATOM      7  I   UNL d   1       0.026   1.297  -0.209  0.00  0.00    -0.146 I 
ENDROOT
TORSDOF 0
ENDMDL
