MODEL 1
REMARK minimizedAffinity -4.86024904
REMARK minimizedRMSD -1
REMARK  0 active torsions:
REMARK  status: ('A' for Active; 'I' for Inactive)
ROOT
ATOM      1  C   UNL d   1      -0.343  -3.863  -0.431  0.00  0.00     0.023 A 
ATOM      2  C1  UNL d   1      -0.048  -3.111  -1.568  0.00  0.00     0.003 A 
ATOM      3  C2  UNL d   1       0.226  -1.747  -1.452  0.00  0.00     0.048 A 
ATOM      4  C3  UNL d   1       0.204  -1.141  -0.196  0.00  0.00     0.023 A 
ATOM      5  C4  UNL d   1      -0.090  -1.890   0.945  0.00  0.00     0.048 A 
ATOM      6  C5  UNL d   1      -0.364  -3.254   0.824  0.00  0.00     0.003 A 
ATOM      7  I   UNL d   1       0.612   0.889  -0.021  0.00  0.00    -0.146 I 
ENDROOT
TORSDOF 0
ENDMDL
