MODEL 1
REMARK minimizedAffinity -3.76946878
REMARK minimizedRMSD -1
REMARK  0 active torsions:
REMARK  status: ('A' for Active; 'I' for Inactive)
ROOT
ATOM      1  C   UNL d   1      -0.816  -2.212   0.867  0.00  0.00     0.023 A 
ATOM      2  C1  UNL d   1       0.112  -1.929  -0.136  0.00  0.00     0.003 A 
ATOM      3  C2  UNL d   1       0.624  -0.637  -0.270  0.00  0.00     0.048 A 
ATOM      4  C3  UNL d   1       0.205   0.367   0.601  0.00  0.00     0.023 A 
ATOM      5  C4  UNL d   1      -0.723   0.088   1.607  0.00  0.00     0.048 A 
ATOM      6  C5  UNL d   1      -1.232  -1.205   1.737  0.00  0.00     0.003 A 
ATOM      7  I   UNL d   1       0.966   2.291   0.403  0.00  0.00    -0.146 I 
ENDROOT
TORSDOF 0
ENDMDL
