MODEL 1
REMARK minimizedAffinity -5.05448723
REMARK minimizedRMSD -1
REMARK  0 active torsions:
REMARK  status: ('A' for Active; 'I' for Inactive)
ROOT
ATOM      1  C   UNL d   1      -0.180  -3.476  -0.928  0.00  0.00     0.023 A 
ATOM      2  C1  UNL d   1      -0.619  -2.849   0.238  0.00  0.00     0.003 A 
ATOM      3  C2  UNL d   1      -0.413  -1.479   0.416  0.00  0.00     0.048 A 
ATOM      4  C3  UNL d   1       0.232  -0.742  -0.576  0.00  0.00     0.023 A 
ATOM      5  C4  UNL d   1       0.672  -1.365  -1.746  0.00  0.00     0.048 A 
ATOM      6  C5  UNL d   1       0.464  -2.735  -1.919  0.00  0.00     0.003 A 
ATOM      7  I   UNL d   1       0.540   1.296  -0.314  0.00  0.00    -0.146 I 
ENDROOT
TORSDOF 0
ENDMDL
