MODEL 1
REMARK minimizedAffinity -4.18071651
REMARK minimizedRMSD -1
REMARK  0 active torsions:
REMARK  status: ('A' for Active; 'I' for Inactive)
ROOT
ATOM      1  C   UNL d   1      -0.996  -0.732   1.580  0.00  0.00     0.023 A 
ATOM      2  C1  UNL d   1      -1.050  -2.102   1.319  0.00  0.00     0.003 A 
ATOM      3  C2  UNL d   1      -0.640  -2.593   0.078  0.00  0.00     0.048 A 
ATOM      4  C3  UNL d   1      -0.178  -1.710  -0.897  0.00  0.00     0.023 A 
ATOM      5  C4  UNL d   1      -0.122  -0.339  -0.640  0.00  0.00     0.048 A 
ATOM      6  C5  UNL d   1      -0.533   0.148   0.602  0.00  0.00     0.003 A 
ATOM      7  I   UNL d   1       0.433  -2.440  -2.746  0.00  0.00    -0.146 I 
ENDROOT
TORSDOF 0
ENDMDL
