MODEL 1
REMARK minimizedAffinity -4.70964575
REMARK minimizedRMSD -1
REMARK  0 active torsions:
REMARK  status: ('A' for Active; 'I' for Inactive)
ROOT
ATOM      1  C   UNL d   1       0.000  -4.112  -1.489  0.00  0.00     0.023 A 
ATOM      2  C1  UNL d   1      -0.375  -3.909  -0.161  0.00  0.00     0.003 A 
ATOM      3  C2  UNL d   1      -0.375  -2.619   0.376  0.00  0.00     0.048 A 
ATOM      4  C3  UNL d   1      -0.000  -1.539  -0.422  0.00  0.00     0.023 A 
ATOM      5  C4  UNL d   1       0.375  -1.738  -1.751  0.00  0.00     0.048 A 
ATOM      6  C5  UNL d   1       0.375  -3.028  -2.283  0.00  0.00     0.003 A 
ATOM      7  I   UNL d   1       0.000   0.381   0.375  0.00  0.00    -0.146 I 
ENDROOT
TORSDOF 0
ENDMDL
