MODEL 1
REMARK minimizedAffinity -5.05790186
REMARK minimizedRMSD -1
REMARK  0 active torsions:
REMARK  status: ('A' for Active; 'I' for Inactive)
ROOT
ATOM      1  C   UNL d   1      -0.410  -0.494   1.894  0.00  0.00     0.023 A 
ATOM      2  C1  UNL d   1      -0.506  -1.880   1.771  0.00  0.00     0.003 A 
ATOM      3  C2  UNL d   1      -0.417  -2.478   0.513  0.00  0.00     0.048 A 
ATOM      4  C3  UNL d   1      -0.232  -1.685  -0.619  0.00  0.00     0.023 A 
ATOM      5  C4  UNL d   1      -0.135  -0.297  -0.500  0.00  0.00     0.048 A 
ATOM      6  C5  UNL d   1      -0.225   0.297   0.760  0.00  0.00     0.003 A 
ATOM      7  I   UNL d   1      -0.099  -2.573  -2.493  0.00  0.00    -0.146 I 
ENDROOT
TORSDOF 0
ENDMDL
