MODEL 1
REMARK minimizedAffinity 2.99223852
REMARK minimizedRMSD -1
REMARK  0 active torsions:
REMARK  status: ('A' for Active; 'I' for Inactive)
ROOT
ATOM      1  C   UNL d   1       0.709  -5.272  -2.929  0.00  0.00     0.078 C 
ATOM      2  C1  UNL d   1      -0.341  -5.137  -3.991  0.00  0.00    -0.077 A 
ATOM      3  C2  UNL d   1      -1.467  -5.969  -4.001  0.00  0.00    -0.001 A 
ATOM      4  C3  UNL d   1      -2.432  -5.840  -5.001  0.00  0.00     0.003 A 
ATOM      5  C4  UNL d   1      -2.280  -4.880  -6.000  0.00  0.00    -0.005 A 
ATOM      6  C5  UNL d   1      -1.161  -4.049  -6.000  0.00  0.00     0.003 A 
ATOM      7  C6  UNL d   1      -0.195  -4.177  -5.000  0.00  0.00    -0.001 A 
ENDROOT
TORSDOF 0
ENDMDL
