MODEL 1
REMARK minimizedAffinity 4.70402002
REMARK minimizedRMSD -1
REMARK  0 active torsions:
REMARK  status: ('A' for Active; 'I' for Inactive)
ROOT
ATOM      1  C   UNL d   1       0.380   2.649   0.375  0.00  0.00     0.078 C 
ATOM      2  C1  UNL d   1       0.011   3.823  -0.483  0.00  0.00    -0.077 A 
ATOM      3  C2  UNL d   1      -0.677   4.919   0.051  0.00  0.00    -0.001 A 
ATOM      4  C3  UNL d   1      -1.022   6.000  -0.761  0.00  0.00     0.003 A 
ATOM      5  C4  UNL d   1      -0.685   5.995  -2.113  0.00  0.00    -0.005 A 
ATOM      6  C5  UNL d   1      -0.002   4.907  -2.654  0.00  0.00     0.003 A 
ATOM      7  C6  UNL d   1       0.344   3.826  -1.843  0.00  0.00    -0.001 A 
ENDROOT
TORSDOF 0
ENDMDL
