MODEL 1
REMARK minimizedAffinity 6.94756174
REMARK minimizedRMSD -1
REMARK  0 active torsions:
REMARK  status: ('A' for Active; 'I' for Inactive)
ROOT
ATOM      1  C   UNL d   1      -0.746   2.881  -1.921  0.00  0.00     0.078 C 
ATOM      2  C1  UNL d   1      -0.120   2.697  -0.571  0.00  0.00    -0.077 A 
ATOM      3  C2  UNL d   1       0.980   3.469  -0.176  0.00  0.00    -0.001 A 
ATOM      4  C3  UNL d   1       1.560   3.281   1.080  0.00  0.00     0.003 A 
ATOM      5  C4  UNL d   1       1.047   2.321   1.950  0.00  0.00    -0.005 A 
ATOM      6  C5  UNL d   1      -0.045   1.547   1.565  0.00  0.00     0.003 A 
ATOM      7  C6  UNL d   1      -0.626   1.733   0.310  0.00  0.00    -0.001 A 
ENDROOT
TORSDOF 0
ENDMDL
