MODEL 1
REMARK minimizedAffinity 4.20415068
REMARK minimizedRMSD -1
REMARK  0 active torsions:
REMARK  status: ('A' for Active; 'I' for Inactive)
ROOT
ATOM      1  C   UNL d   1      -3.352  -5.787  -5.999  0.00  0.00     0.078 C 
ATOM      2  C1  UNL d   1      -2.627  -4.474  -5.991  0.00  0.00    -0.077 A 
ATOM      3  C2  UNL d   1      -3.329  -3.263  -5.997  0.00  0.00    -0.001 A 
ATOM      4  C3  UNL d   1      -2.641  -2.048  -5.999  0.00  0.00     0.003 A 
ATOM      5  C4  UNL d   1      -1.248  -2.034  -5.997  0.00  0.00    -0.005 A 
ATOM      6  C5  UNL d   1      -0.541  -3.234  -5.993  0.00  0.00     0.003 A 
ATOM      7  C6  UNL d   1      -1.227  -4.450  -5.990  0.00  0.00    -0.001 A 
ENDROOT
TORSDOF 0
ENDMDL
