MODEL 1
REMARK minimizedAffinity 0.935643017
REMARK minimizedRMSD -1
REMARK  0 active torsions:
REMARK  status: ('A' for Active; 'I' for Inactive)
ROOT
ATOM      1  C   UNL d   1      -4.124  -1.381   2.541  0.00  0.00     0.078 C 
ATOM      2  C1  UNL d   1      -4.424  -2.231   3.740  0.00  0.00    -0.077 A 
ATOM      3  C2  UNL d   1      -5.730  -2.653   4.016  0.00  0.00    -0.001 A 
ATOM      4  C3  UNL d   1      -5.996  -3.435   5.141  0.00  0.00     0.003 A 
ATOM      5  C4  UNL d   1      -4.961  -3.801   5.999  0.00  0.00    -0.005 A 
ATOM      6  C5  UNL d   1      -3.659  -3.384   5.734  0.00  0.00     0.003 A 
ATOM      7  C6  UNL d   1      -3.391  -2.601   4.610  0.00  0.00    -0.001 A 
ENDROOT
TORSDOF 0
ENDMDL
