MODEL 1
REMARK minimizedAffinity -2.80712128
REMARK minimizedRMSD -1
REMARK  0 active torsions:
REMARK  status: ('A' for Active; 'I' for Inactive)
ROOT
ATOM      1  C   UNL d   1      -0.013  -3.676  -5.991  0.00  0.00     0.078 C 
ATOM      2  C1  UNL d   1      -1.439  -4.141  -5.981  0.00  0.00    -0.077 A 
ATOM      3  C2  UNL d   1      -1.753  -5.505  -5.967  0.00  0.00    -0.001 A 
ATOM      4  C3  UNL d   1      -3.085  -5.923  -5.967  0.00  0.00     0.003 A 
ATOM      5  C4  UNL d   1      -4.113  -4.983  -5.983  0.00  0.00    -0.005 A 
ATOM      6  C5  UNL d   1      -3.811  -3.623  -6.000  0.00  0.00     0.003 A 
ATOM      7  C6  UNL d   1      -2.479  -3.203  -5.999  0.00  0.00    -0.001 A 
ENDROOT
TORSDOF 0
ENDMDL
