MODEL 1
REMARK minimizedAffinity 2.55329204
REMARK minimizedRMSD -1
REMARK  0 active torsions:
REMARK  status: ('A' for Active; 'I' for Inactive)
ROOT
ATOM      1  C   UNL d   1      -4.080  -5.713  -5.988  0.00  0.00     0.078 C 
ATOM      2  C1  UNL d   1      -2.806  -4.922  -5.998  0.00  0.00    -0.077 A 
ATOM      3  C2  UNL d   1      -1.560  -5.561  -5.995  0.00  0.00    -0.001 A 
ATOM      4  C3  UNL d   1      -0.383  -4.811  -5.994  0.00  0.00     0.003 A 
ATOM      5  C4  UNL d   1      -0.439  -3.419  -5.996  0.00  0.00    -0.005 A 
ATOM      6  C5  UNL d   1      -1.675  -2.775  -5.997  0.00  0.00     0.003 A 
ATOM      7  C6  UNL d   1      -2.853  -3.522  -5.998  0.00  0.00    -0.001 A 
ENDROOT
TORSDOF 0
ENDMDL
