MODEL 1
REMARK minimizedAffinity 5.614645
REMARK minimizedRMSD -1
REMARK  0 active torsions:
REMARK  status: ('A' for Active; 'I' for Inactive)
ROOT
ATOM      1  C   UNL d   1      -1.827  -2.488  -5.894  0.00  0.00     0.078 C 
ATOM      2  C1  UNL d   1      -2.829  -3.603  -5.933  0.00  0.00    -0.077 A 
ATOM      3  C2  UNL d   1      -4.203  -3.337  -5.932  0.00  0.00    -0.001 A 
ATOM      4  C3  UNL d   1      -5.125  -4.385  -5.958  0.00  0.00     0.003 A 
ATOM      5  C4  UNL d   1      -4.682  -5.706  -5.985  0.00  0.00    -0.005 A 
ATOM      6  C5  UNL d   1      -3.316  -5.980  -5.983  0.00  0.00     0.003 A 
ATOM      7  C6  UNL d   1      -2.393  -4.934  -5.957  0.00  0.00    -0.001 A 
ENDROOT
TORSDOF 0
ENDMDL
