MODEL 1
REMARK minimizedAffinity -3.00884724
REMARK minimizedRMSD -1
REMARK  0 active torsions:
REMARK  status: ('A' for Active; 'I' for Inactive)
ROOT
ATOM      1  C   UNL d   1       5.246  -5.606  -4.373  0.00  0.00     0.078 C 
ATOM      2  C1  UNL d   1       3.814  -5.602  -3.928  0.00  0.00    -0.077 A 
ATOM      3  C2  UNL d   1       3.459  -5.999  -2.633  0.00  0.00    -0.001 A 
ATOM      4  C3  UNL d   1       2.121  -5.999  -2.236  0.00  0.00     0.003 A 
ATOM      5  C4  UNL d   1       1.127  -5.604  -3.129  0.00  0.00    -0.005 A 
ATOM      6  C5  UNL d   1       1.469  -5.209  -4.420  0.00  0.00     0.003 A 
ATOM      7  C6  UNL d   1       2.807  -5.209  -4.819  0.00  0.00    -0.001 A 
ENDROOT
TORSDOF 0
ENDMDL
