MODEL 1
REMARK minimizedAffinity 3.52347922
REMARK minimizedRMSD -1
REMARK  0 active torsions:
REMARK  status: ('A' for Active; 'I' for Inactive)
ROOT
ATOM      1  C   UNL d   1      -4.182   0.004   0.796  0.00  0.00     0.078 C 
ATOM      2  C1  UNL d   1      -4.805  -0.321   2.120  0.00  0.00    -0.077 A 
ATOM      3  C2  UNL d   1      -4.808  -1.631   2.614  0.00  0.00    -0.001 A 
ATOM      4  C3  UNL d   1      -5.400  -1.920   3.845  0.00  0.00     0.003 A 
ATOM      5  C4  UNL d   1      -5.995  -0.904   4.591  0.00  0.00    -0.005 A 
ATOM      6  C5  UNL d   1      -5.998   0.402   4.107  0.00  0.00     0.003 A 
ATOM      7  C6  UNL d   1      -5.407   0.693   2.876  0.00  0.00    -0.001 A 
ENDROOT
TORSDOF 0
ENDMDL
