MODEL 1
REMARK minimizedAffinity 1.60800922
REMARK minimizedRMSD -1
REMARK  0 active torsions:
REMARK  status: ('A' for Active; 'I' for Inactive)
ROOT
ATOM      1  C   UNL d   1       2.562  -5.971  -5.162  0.00  0.00     0.078 C 
ATOM      2  C1  UNL d   1       1.142  -5.988  -4.678  0.00  0.00    -0.077 A 
ATOM      3  C2  UNL d   1       0.073  -5.993  -5.582  0.00  0.00    -0.001 A 
ATOM      4  C3  UNL d   1      -1.244  -6.000  -5.118  0.00  0.00     0.003 A 
ATOM      5  C4  UNL d   1      -1.503  -6.000  -3.749  0.00  0.00    -0.005 A 
ATOM      6  C5  UNL d   1      -0.445  -5.992  -2.842  0.00  0.00     0.003 A 
ATOM      7  C6  UNL d   1       0.872  -5.986  -3.304  0.00  0.00    -0.001 A 
ENDROOT
TORSDOF 0
ENDMDL
