MODEL 1
REMARK minimizedAffinity 0.518805921
REMARK minimizedRMSD -1
REMARK  0 active torsions:
REMARK  status: ('A' for Active; 'I' for Inactive)
ROOT
ATOM      1  C   UNL d   1       2.937  -4.875  -4.876  0.00  0.00     0.078 C 
ATOM      2  C1  UNL d   1       1.521  -5.275  -4.592  0.00  0.00    -0.077 A 
ATOM      3  C2  UNL d   1       0.652  -5.639  -5.628  0.00  0.00    -0.001 A 
ATOM      4  C3  UNL d   1      -0.667  -6.000  -5.349  0.00  0.00     0.003 A 
ATOM      5  C4  UNL d   1      -1.130  -5.999  -4.035  0.00  0.00    -0.005 A 
ATOM      6  C5  UNL d   1      -0.274  -5.637  -2.997  0.00  0.00     0.003 A 
ATOM      7  C6  UNL d   1       1.046  -5.276  -3.274  0.00  0.00    -0.001 A 
ENDROOT
TORSDOF 0
ENDMDL
