MODEL 1
REMARK minimizedAffinity 0.918077469
REMARK minimizedRMSD -1
REMARK  0 active torsions:
REMARK  status: ('A' for Active; 'I' for Inactive)
ROOT
ATOM      1  C   UNL d   1      -3.267  -5.986  -2.182  0.00  0.00     0.078 C 
ATOM      2  C1  UNL d   1      -1.943  -5.782  -2.856  0.00  0.00    -0.077 A 
ATOM      3  C2  UNL d   1      -1.871  -5.390  -4.199  0.00  0.00    -0.001 A 
ATOM      4  C3  UNL d   1      -0.631  -5.214  -4.817  0.00  0.00     0.003 A 
ATOM      5  C4  UNL d   1       0.544  -5.427  -4.100  0.00  0.00    -0.005 A 
ATOM      6  C5  UNL d   1       0.482  -5.819  -2.764  0.00  0.00     0.003 A 
ATOM      7  C6  UNL d   1      -0.756  -5.996  -2.145  0.00  0.00    -0.001 A 
ENDROOT
TORSDOF 0
ENDMDL
