MODEL 1
REMARK minimizedAffinity 5.90149975
REMARK minimizedRMSD -1
REMARK  0 active torsions:
REMARK  status: ('A' for Active; 'I' for Inactive)
ROOT
ATOM      1  C   UNL d   1       2.475  -5.995  -5.990  0.00  0.00     0.078 C 
ATOM      2  C1  UNL d   1       1.156  -5.908  -5.282  0.00  0.00    -0.077 A 
ATOM      3  C2  UNL d   1      -0.049  -5.991  -5.989  0.00  0.00    -0.001 A 
ATOM      4  C3  UNL d   1      -1.270  -5.899  -5.318  0.00  0.00     0.003 A 
ATOM      5  C4  UNL d   1      -1.296  -5.723  -3.936  0.00  0.00    -0.005 A 
ATOM      6  C5  UNL d   1      -0.102  -5.638  -3.224  0.00  0.00     0.003 A 
ATOM      7  C6  UNL d   1       1.119  -5.729  -3.893  0.00  0.00    -0.001 A 
ENDROOT
TORSDOF 0
ENDMDL
