MODEL 1
REMARK minimizedAffinity 0.850876868
REMARK minimizedRMSD -1
REMARK  0 active torsions:
REMARK  status: ('A' for Active; 'I' for Inactive)
ROOT
ATOM      1  C   UNL d   1      -2.641  -5.998  -2.762  0.00  0.00     0.078 C 
ATOM      2  C1  UNL d   1      -1.401  -5.989  -3.605  0.00  0.00    -0.077 A 
ATOM      3  C2  UNL d   1      -1.479  -5.988  -5.003  0.00  0.00    -0.001 A 
ATOM      4  C3  UNL d   1      -0.316  -5.990  -5.775  0.00  0.00     0.003 A 
ATOM      5  C4  UNL d   1       0.934  -5.995  -5.158  0.00  0.00    -0.005 A 
ATOM      6  C5  UNL d   1       1.021  -5.999  -3.767  0.00  0.00     0.003 A 
ATOM      7  C6  UNL d   1      -0.141  -5.997  -2.994  0.00  0.00    -0.001 A 
ENDROOT
TORSDOF 0
ENDMDL
