MODEL 1
REMARK minimizedAffinity -2.29988217
REMARK minimizedRMSD -1
REMARK  0 active torsions:
REMARK  status: ('A' for Active; 'I' for Inactive)
ROOT
ATOM      1  C   UNL d   1      -2.926  -6.000  -2.916  0.00  0.00     0.078 C 
ATOM      2  C1  UNL d   1      -1.604  -5.990  -3.624  0.00  0.00    -0.077 A 
ATOM      3  C2  UNL d   1      -1.535  -5.999  -5.022  0.00  0.00    -0.001 A 
ATOM      4  C3  UNL d   1      -0.297  -6.000  -5.668  0.00  0.00     0.003 A 
ATOM      5  C4  UNL d   1       0.880  -5.993  -4.923  0.00  0.00    -0.005 A 
ATOM      6  C5  UNL d   1       0.821  -5.986  -3.531  0.00  0.00     0.003 A 
ATOM      7  C6  UNL d   1      -0.415  -5.986  -2.883  0.00  0.00    -0.001 A 
ENDROOT
TORSDOF 0
ENDMDL
