MODEL 1
REMARK minimizedAffinity -1.81439519
REMARK minimizedRMSD -1
REMARK  0 active torsions:
REMARK  status: ('A' for Active; 'I' for Inactive)
ROOT
ATOM      1  C   UNL d   1      -4.110  -5.989  -2.465  0.00  0.00     0.078 C 
ATOM      2  C1  UNL d   1      -2.665  -5.999  -2.868  0.00  0.00    -0.077 A 
ATOM      3  C2  UNL d   1      -1.648  -5.996  -1.905  0.00  0.00    -0.001 A 
ATOM      4  C3  UNL d   1      -0.308  -5.996  -2.294  0.00  0.00     0.003 A 
ATOM      5  C4  UNL d   1       0.028  -5.998  -3.647  0.00  0.00    -0.005 A 
ATOM      6  C5  UNL d   1      -0.977  -5.999  -4.612  0.00  0.00     0.003 A 
ATOM      7  C6  UNL d   1      -2.318  -5.999  -4.224  0.00  0.00    -0.001 A 
ENDROOT
TORSDOF 0
ENDMDL
