MODEL 1
REMARK minimizedAffinity -0.674322307
REMARK minimizedRMSD -1
REMARK  0 active torsions:
REMARK  status: ('A' for Active; 'I' for Inactive)
ROOT
ATOM      1  C   UNL d   1       2.165  -4.881  -5.226  0.00  0.00     0.078 C 
ATOM      2  C1  UNL d   1       0.760  -5.275  -4.879  0.00  0.00    -0.077 A 
ATOM      3  C2  UNL d   1      -0.249  -5.272  -5.850  0.00  0.00    -0.001 A 
ATOM      4  C3  UNL d   1      -1.555  -5.632  -5.511  0.00  0.00     0.003 A 
ATOM      5  C4  UNL d   1      -1.863  -5.996  -4.201  0.00  0.00    -0.005 A 
ATOM      6  C5  UNL d   1      -0.865  -6.000  -3.229  0.00  0.00     0.003 A 
ATOM      7  C6  UNL d   1       0.441  -5.640  -3.566  0.00  0.00    -0.001 A 
ENDROOT
TORSDOF 0
ENDMDL
