MODEL 1
REMARK minimizedAffinity -3.36168337
REMARK minimizedRMSD -1
REMARK  0 active torsions:
REMARK  status: ('A' for Active; 'I' for Inactive)
ROOT
ATOM      1  C   UNL d   1      -3.023  -5.984  -2.986  0.00  0.00     0.078 C 
ATOM      2  C1  UNL d   1      -1.593  -5.997  -3.438  0.00  0.00    -0.077 A 
ATOM      3  C2  UNL d   1      -0.544  -5.997  -2.511  0.00  0.00    -0.001 A 
ATOM      4  C3  UNL d   1       0.783  -5.999  -2.945  0.00  0.00     0.003 A 
ATOM      5  C4  UNL d   1       1.072  -6.000  -4.308  0.00  0.00    -0.005 A 
ATOM      6  C5  UNL d   1       0.035  -5.997  -5.238  0.00  0.00     0.003 A 
ATOM      7  C6  UNL d   1      -1.292  -5.995  -4.806  0.00  0.00    -0.001 A 
ENDROOT
TORSDOF 0
ENDMDL
