MODEL 1
REMARK minimizedAffinity 0.736145198
REMARK minimizedRMSD -1
REMARK  0 active torsions:
REMARK  status: ('A' for Active; 'I' for Inactive)
ROOT
ATOM      1  C   UNL d   1      -2.680  -6.000  -2.627  0.00  0.00     0.078 C 
ATOM      2  C1  UNL d   1      -1.319  -5.989  -3.258  0.00  0.00    -0.077 A 
ATOM      3  C2  UNL d   1      -1.169  -5.982  -4.650  0.00  0.00    -0.001 A 
ATOM      4  C3  UNL d   1       0.104  -5.981  -5.223  0.00  0.00     0.003 A 
ATOM      5  C4  UNL d   1       1.236  -5.990  -4.411  0.00  0.00    -0.005 A 
ATOM      6  C5  UNL d   1       1.097  -5.999  -3.025  0.00  0.00     0.003 A 
ATOM      7  C6  UNL d   1      -0.175  -6.000  -2.450  0.00  0.00    -0.001 A 
ENDROOT
TORSDOF 0
ENDMDL
