MODEL 1
REMARK minimizedAffinity 4.2546196
REMARK minimizedRMSD -1
REMARK  0 active torsions:
REMARK  status: ('A' for Active; 'I' for Inactive)
ROOT
ATOM      1  C   UNL d   1       2.164  -5.993  -2.793  0.00  0.00     0.078 C 
ATOM      2  C1  UNL d   1       0.920  -5.986  -3.631  0.00  0.00    -0.077 A 
ATOM      3  C2  UNL d   1      -0.348  -5.987  -3.038  0.00  0.00    -0.001 A 
ATOM      4  C3  UNL d   1      -1.498  -5.991  -3.830  0.00  0.00     0.003 A 
ATOM      5  C4  UNL d   1      -1.390  -5.994  -5.219  0.00  0.00    -0.005 A 
ATOM      6  C5  UNL d   1      -0.132  -5.995  -5.818  0.00  0.00     0.003 A 
ATOM      7  C6  UNL d   1       1.019  -5.992  -5.028  0.00  0.00    -0.001 A 
ENDROOT
TORSDOF 0
ENDMDL
