MODEL 1
REMARK minimizedAffinity 3.2708838
REMARK minimizedRMSD -1
REMARK  0 active torsions:
REMARK  status: ('A' for Active; 'I' for Inactive)
ROOT
ATOM      1  C   UNL d   1       1.093  -5.969  -5.996  0.00  0.00     0.078 C 
ATOM      2  C1  UNL d   1       0.681  -5.949  -4.555  0.00  0.00    -0.077 A 
ATOM      3  C2  UNL d   1       1.636  -5.894  -3.532  0.00  0.00    -0.001 A 
ATOM      4  C3  UNL d   1       1.238  -5.886  -2.194  0.00  0.00     0.003 A 
ATOM      5  C4  UNL d   1      -0.116  -5.934  -1.867  0.00  0.00    -0.005 A 
ATOM      6  C5  UNL d   1      -1.073  -5.991  -2.878  0.00  0.00     0.003 A 
ATOM      7  C6  UNL d   1      -0.677  -5.999  -4.216  0.00  0.00    -0.001 A 
ENDROOT
TORSDOF 0
ENDMDL
