MODEL 1
REMARK minimizedAffinity -0.385822833
REMARK minimizedRMSD -1
REMARK  0 active torsions:
REMARK  status: ('A' for Active; 'I' for Inactive)
ROOT
ATOM      1  C   UNL d   1       2.155  -0.403   2.960  0.00  0.00     0.078 C 
ATOM      2  C1  UNL d   1       1.741  -0.938   1.622  0.00  0.00    -0.077 A 
ATOM      3  C2  UNL d   1       1.157  -2.205   1.502  0.00  0.00    -0.001 A 
ATOM      4  C3  UNL d   1       0.786  -2.695   0.249  0.00  0.00     0.003 A 
ATOM      5  C4  UNL d   1       0.997  -1.925  -0.894  0.00  0.00    -0.005 A 
ATOM      6  C5  UNL d   1       1.580  -0.665  -0.784  0.00  0.00     0.003 A 
ATOM      7  C6  UNL d   1       1.952  -0.173   0.468  0.00  0.00    -0.001 A 
ENDROOT
TORSDOF 0
ENDMDL
