MODEL 1
REMARK minimizedAffinity -3.76965237
REMARK minimizedRMSD -1
REMARK  0 active torsions:
REMARK  status: ('A' for Active; 'I' for Inactive)
ROOT
ATOM      1  C   UNL d   1       1.128  -4.876  -2.472  0.00  0.00     0.078 C 
ATOM      2  C1  UNL d   1       0.203  -5.184  -3.612  0.00  0.00    -0.077 A 
ATOM      3  C2  UNL d   1      -1.074  -5.710  -3.383  0.00  0.00    -0.001 A 
ATOM      4  C3  UNL d   1      -1.921  -6.000  -4.454  0.00  0.00     0.003 A 
ATOM      5  C4  UNL d   1      -1.498  -5.769  -5.762  0.00  0.00    -0.005 A 
ATOM      6  C5  UNL d   1      -0.228  -5.248  -6.000  0.00  0.00     0.003 A 
ATOM      7  C6  UNL d   1       0.620  -4.957  -4.930  0.00  0.00    -0.001 A 
ENDROOT
TORSDOF 0
ENDMDL
