MODEL 1
REMARK minimizedAffinity 3.59020925
REMARK minimizedRMSD -1
REMARK  0 active torsions:
REMARK  status: ('A' for Active; 'I' for Inactive)
ROOT
ATOM      1  C   UNL d   1      -2.020  -5.940  -3.096  0.00  0.00     0.078 C 
ATOM      2  C1  UNL d   1      -0.727  -5.960  -3.856  0.00  0.00    -0.077 A 
ATOM      3  C2  UNL d   1       0.503  -5.936  -3.186  0.00  0.00    -0.001 A 
ATOM      4  C3  UNL d   1       1.699  -5.945  -3.906  0.00  0.00     0.003 A 
ATOM      5  C4  UNL d   1       1.676  -5.977  -5.299  0.00  0.00    -0.005 A 
ATOM      6  C5  UNL d   1       0.458  -6.000  -5.974  0.00  0.00     0.003 A 
ATOM      7  C6  UNL d   1      -0.739  -5.991  -5.256  0.00  0.00    -0.001 A 
ENDROOT
TORSDOF 0
ENDMDL
