MODEL 1
REMARK minimizedAffinity 4.35146904
REMARK minimizedRMSD -1
REMARK  0 active torsions:
REMARK  status: ('A' for Active; 'I' for Inactive)
ROOT
ATOM      1  C   UNL d   1       5.242   0.056   2.171  0.00  0.00     0.078 C 
ATOM      2  C1  UNL d   1       4.088   0.119   1.216  0.00  0.00    -0.077 A 
ATOM      3  C2  UNL d   1       4.299   0.189  -0.167  0.00  0.00    -0.001 A 
ATOM      4  C3  UNL d   1       3.216   0.256  -1.044  0.00  0.00     0.003 A 
ATOM      5  C4  UNL d   1       1.914   0.255  -0.549  0.00  0.00    -0.005 A 
ATOM      6  C5  UNL d   1       1.693   0.188   0.825  0.00  0.00     0.003 A 
ATOM      7  C6  UNL d   1       2.775   0.120   1.704  0.00  0.00    -0.001 A 
ENDROOT
TORSDOF 0
ENDMDL
