MODEL 1
REMARK minimizedAffinity 8.35554123
REMARK minimizedRMSD -1
REMARK  0 active torsions:
REMARK  status: ('A' for Active; 'I' for Inactive)
ROOT
ATOM      1  C   UNL d   1      -5.996  -6.000   0.629  0.00  0.00     0.078 C 
ATOM      2  C1  UNL d   1      -5.285  -5.939  -0.690  0.00  0.00    -0.077 A 
ATOM      3  C2  UNL d   1      -5.999  -5.839  -1.890  0.00  0.00    -0.001 A 
ATOM      4  C3  UNL d   1      -5.324  -5.793  -3.111  0.00  0.00     0.003 A 
ATOM      5  C4  UNL d   1      -3.932  -5.849  -3.144  0.00  0.00    -0.005 A 
ATOM      6  C5  UNL d   1      -3.213  -5.951  -1.954  0.00  0.00     0.003 A 
ATOM      7  C6  UNL d   1      -3.887  -5.997  -0.732  0.00  0.00    -0.001 A 
ENDROOT
TORSDOF 0
ENDMDL
