MODEL 1
REMARK minimizedAffinity 0.0314137079
REMARK minimizedRMSD -1
REMARK  0 active torsions:
REMARK  status: ('A' for Active; 'I' for Inactive)
ROOT
ATOM      1  C   UNL d   1       0.223   0.044  -1.942  0.00  0.00     0.078 C 
ATOM      2  C1  UNL d   1       0.304  -0.684  -0.634  0.00  0.00    -0.077 A 
ATOM      3  C2  UNL d   1       0.561   0.004   0.559  0.00  0.00    -0.001 A 
ATOM      4  C3  UNL d   1       0.643  -0.688   1.769  0.00  0.00     0.003 A 
ATOM      5  C4  UNL d   1       0.472  -2.070   1.797  0.00  0.00    -0.005 A 
ATOM      6  C5  UNL d   1       0.218  -2.763   0.615  0.00  0.00     0.003 A 
ATOM      7  C6  UNL d   1       0.135  -2.073  -0.595  0.00  0.00    -0.001 A 
ENDROOT
TORSDOF 0
ENDMDL
