MODEL 1
REMARK minimizedAffinity -4.24519539
REMARK minimizedRMSD -1
REMARK  0 active torsions:
REMARK  status: ('A' for Active; 'I' for Inactive)
ROOT
ATOM      1  C1  BNZ d   1       0.553  -0.921  -1.675  0.00  0.00     0.000 A 
ATOM      2  C2  BNZ d   1      -0.197  -0.574  -0.583  0.00  0.00     0.000 A 
ATOM      3  C3  BNZ d   1      -0.069   0.661  -0.010  0.00  0.00     0.000 A 
ATOM      4  C4  BNZ d   1       0.835   1.531  -0.504  0.00  0.00     0.000 A 
ATOM      5  C5  BNZ d   1       1.605   1.192  -1.599  0.00  0.00     0.000 A 
ATOM      6  C6  BNZ d   1       1.446  -0.037  -2.197  0.00  0.00     0.000 A 
ENDROOT
TORSDOF 0
ENDMDL
