MODEL 1
REMARK minimizedAffinity -3.99187016
REMARK minimizedRMSD -1
REMARK  0 active torsions:
REMARK  status: ('A' for Active; 'I' for Inactive)
ROOT
ATOM      1  C1  BNZ d   1       1.192   1.064  -0.688  0.00  0.00     0.000 A 
ATOM      2  C2  BNZ d   1       2.222   1.017  -1.590  0.00  0.00     0.000 A 
ATOM      3  C3  BNZ d   1       2.383  -0.063  -2.413  0.00  0.00     0.000 A 
ATOM      4  C4  BNZ d   1       1.539  -1.109  -2.307  0.00  0.00     0.000 A 
ATOM      5  C5  BNZ d   1       0.501  -1.081  -1.396  0.00  0.00     0.000 A 
ATOM      6  C6  BNZ d   1       0.319   0.024  -0.596  0.00  0.00     0.000 A 
ENDROOT
TORSDOF 0
ENDMDL
