MODEL 1
REMARK minimizedAffinity -4.14638805
REMARK minimizedRMSD -1
REMARK  0 active torsions:
REMARK  status: ('A' for Active; 'I' for Inactive)
ROOT
ATOM      1  C1  BNZ d   1       1.847   0.094  -2.090  0.00  0.00     0.000 A 
ATOM      2  C2  BNZ d   1       2.349  -1.127  -2.452  0.00  0.00     0.000 A 
ATOM      3  C3  BNZ d   1       1.825  -2.280  -1.936  0.00  0.00     0.000 A 
ATOM      4  C4  BNZ d   1       0.829  -2.208  -1.029  0.00  0.00     0.000 A 
ATOM      5  C5  BNZ d   1       0.319  -0.983  -0.647  0.00  0.00     0.000 A 
ATOM      6  C6  BNZ d   1       0.822   0.173  -1.198  0.00  0.00     0.000 A 
ENDROOT
TORSDOF 0
ENDMDL
