MODEL 1
REMARK minimizedAffinity -3.9408102
REMARK minimizedRMSD -1
REMARK  0 active torsions:
REMARK  status: ('A' for Active; 'I' for Inactive)
ROOT
ATOM      1  C1  BNZ d   1       0.352   0.006  -0.873  0.00  0.00     0.000 A 
ATOM      2  C2  BNZ d   1       0.052   1.149  -1.564  0.00  0.00     0.000 A 
ATOM      3  C3  BNZ d   1      -1.001   1.937  -1.191  0.00  0.00     0.000 A 
ATOM      4  C4  BNZ d   1      -1.776   1.559  -0.153  0.00  0.00     0.000 A 
ATOM      5  C5  BNZ d   1      -1.491   0.405   0.548  0.00  0.00     0.000 A 
ATOM      6  C6  BNZ d   1      -0.407  -0.365   0.193  0.00  0.00     0.000 A 
ENDROOT
TORSDOF 0
ENDMDL
