MODEL 1
REMARK minimizedAffinity 2.44663358
REMARK minimizedRMSD -1
REMARK  0 active torsions:
REMARK  status: ('A' for Active; 'I' for Inactive)
ROOT
ATOM      1  C1  BNZ d   1      -1.686   0.663   6.000  0.00  0.00     0.000 A 
ATOM      2  C2  BNZ d   1      -0.337   0.430   6.000  0.00  0.00     0.000 A 
ATOM      3  C3  BNZ d   1       0.351   0.302   4.826  0.00  0.00     0.000 A 
ATOM      4  C4  BNZ d   1      -0.316   0.368   3.656  0.00  0.00     0.000 A 
ATOM      5  C5  BNZ d   1      -1.678   0.593   3.639  0.00  0.00     0.000 A 
ATOM      6  C6  BNZ d   1      -2.361   0.760   4.822  0.00  0.00     0.000 A 
ENDROOT
TORSDOF 0
ENDMDL
