MODEL 1
REMARK minimizedAffinity -5.27863884
REMARK minimizedRMSD -1
REMARK  0 active torsions:
REMARK  status: ('A' for Active; 'I' for Inactive)
ROOT
ATOM      1  C1  BNZ d   1       2.037  -0.364  -2.762  0.00  0.00     0.000 A 
ATOM      2  C2  BNZ d   1       1.888  -1.556  -2.105  0.00  0.00     0.000 A 
ATOM      3  C3  BNZ d   1       1.011  -1.676  -1.064  0.00  0.00     0.000 A 
ATOM      4  C4  BNZ d   1       0.315  -0.596  -0.655  0.00  0.00     0.000 A 
ATOM      5  C5  BNZ d   1       0.462   0.615  -1.301  0.00  0.00     0.000 A 
ATOM      6  C6  BNZ d   1       1.316   0.723  -2.374  0.00  0.00     0.000 A 
ENDROOT
TORSDOF 0
ENDMDL
