MODEL 1
REMARK minimizedAffinity -2.47187948
REMARK minimizedRMSD -1
REMARK  0 active torsions:
REMARK  status: ('A' for Active; 'I' for Inactive)
ROOT
ATOM      1  C1  BNZ d   1       0.736  -0.831  -2.131  0.00  0.00     0.000 A 
ATOM      2  C2  BNZ d   1       0.169  -1.051  -0.904  0.00  0.00     0.000 A 
ATOM      3  C3  BNZ d   1       0.138  -0.062   0.039  0.00  0.00     0.000 A 
ATOM      4  C4  BNZ d   1       0.708   1.130  -0.230  0.00  0.00     0.000 A 
ATOM      5  C5  BNZ d   1       1.292   1.363  -1.460  0.00  0.00     0.000 A 
ATOM      6  C6  BNZ d   1       1.286   0.379  -2.421  0.00  0.00     0.000 A 
ENDROOT
TORSDOF 0
ENDMDL
