MODEL 1
REMARK minimizedAffinity -3.22012424
REMARK minimizedRMSD -1
REMARK  0 active torsions:
REMARK  status: ('A' for Active; 'I' for Inactive)
ROOT
ATOM      1  C1  BNZ d   1       2.004   0.067  -2.031  0.00  0.00     0.000 A 
ATOM      2  C2  BNZ d   1       1.593   1.265  -1.512  0.00  0.00     0.000 A 
ATOM      3  C3  BNZ d   1       0.597   1.317  -0.576  0.00  0.00     0.000 A 
ATOM      4  C4  BNZ d   1      -0.012   0.177  -0.192  0.00  0.00     0.000 A 
ATOM      5  C5  BNZ d   1       0.385  -1.038  -0.713  0.00  0.00     0.000 A 
ATOM      6  C6  BNZ d   1       1.413  -1.090  -1.626  0.00  0.00     0.000 A 
ENDROOT
TORSDOF 0
ENDMDL
