MODEL 1
REMARK minimizedAffinity -4.08688784
REMARK minimizedRMSD -1
REMARK  0 active torsions:
REMARK  status: ('A' for Active; 'I' for Inactive)
ROOT
ATOM      1  C1  BNZ d   1      -1.283   0.747  -0.384  0.00  0.00     0.000 A 
ATOM      2  C2  BNZ d   1      -1.802   0.435   0.844  0.00  0.00     0.000 A 
ATOM      3  C3  BNZ d   1      -1.089  -0.322   1.733  0.00  0.00     0.000 A 
ATOM      4  C4  BNZ d   1       0.122  -0.797   1.377  0.00  0.00     0.000 A 
ATOM      5  C5  BNZ d   1       0.654  -0.499   0.139  0.00  0.00     0.000 A 
ATOM      6  C6  BNZ d   1      -0.049   0.296  -0.738  0.00  0.00     0.000 A 
ENDROOT
TORSDOF 0
ENDMDL
