MODEL 1
REMARK minimizedAffinity -4.12846422
REMARK minimizedRMSD -1
REMARK  0 active torsions:
REMARK  status: ('A' for Active; 'I' for Inactive)
ROOT
ATOM      1  C1  BNZ d   1      -3.141   0.977   0.791  0.00  0.00     0.000 A 
ATOM      2  C2  BNZ d   1      -2.100   0.769  -0.074  0.00  0.00     0.000 A 
ATOM      3  C3  BNZ d   1      -0.920   0.238   0.365  0.00  0.00     0.000 A 
ATOM      4  C4  BNZ d   1      -0.767  -0.046   1.674  0.00  0.00     0.000 A 
ATOM      5  C5  BNZ d   1      -1.804   0.166   2.561  0.00  0.00     0.000 A 
ATOM      6  C6  BNZ d   1      -3.004   0.665   2.109  0.00  0.00     0.000 A 
ENDROOT
TORSDOF 0
ENDMDL
