MODEL 1
REMARK minimizedAffinity -0.0498561673
REMARK minimizedRMSD -1
REMARK  0 active torsions:
REMARK  status: ('A' for Active; 'I' for Inactive)
ROOT
ATOM      1  C1  BNZ d   1      -0.078   0.418   0.818  0.00  0.00     0.000 A 
ATOM      2  C2  BNZ d   1       0.679   1.202  -0.010  0.00  0.00     0.000 A 
ATOM      3  C3  BNZ d   1       1.389   0.652  -1.040  0.00  0.00     0.000 A 
ATOM      4  C4  BNZ d   1       1.373  -0.685  -1.216  0.00  0.00     0.000 A 
ATOM      5  C5  BNZ d   1       0.622  -1.491  -0.384  0.00  0.00     0.000 A 
ATOM      6  C6  BNZ d   1      -0.122  -0.929   0.628  0.00  0.00     0.000 A 
ENDROOT
TORSDOF 0
ENDMDL
