MODEL 1
REMARK minimizedAffinity -4.68533707
REMARK minimizedRMSD -1
REMARK  0 active torsions:
REMARK  status: ('A' for Active; 'I' for Inactive)
ROOT
ATOM      1  C1  BNZ d   1       1.853   1.021  -1.464  0.00  0.00     0.000 A 
ATOM      2  C2  BNZ d   1       1.039   1.394  -0.428  0.00  0.00     0.000 A 
ATOM      3  C3  BNZ d   1      -0.037   0.629  -0.073  0.00  0.00     0.000 A 
ATOM      4  C4  BNZ d   1      -0.320  -0.485  -0.778  0.00  0.00     0.000 A 
ATOM      5  C5  BNZ d   1       0.485  -0.870  -1.831  0.00  0.00     0.000 A 
ATOM      6  C6  BNZ d   1       1.590  -0.118  -2.161  0.00  0.00     0.000 A 
ENDROOT
TORSDOF 0
ENDMDL
