MODEL 1
REMARK minimizedAffinity -3.93216777
REMARK minimizedRMSD -1
REMARK  0 active torsions:
REMARK  status: ('A' for Active; 'I' for Inactive)
ROOT
ATOM      1  C1  BNZ d   1      -2.243   0.179   0.721  0.00  0.00     0.000 A 
ATOM      2  C2  BNZ d   1      -1.040  -0.097   1.313  0.00  0.00     0.000 A 
ATOM      3  C3  BNZ d   1       0.135   0.219   0.690  0.00  0.00     0.000 A 
ATOM      4  C4  BNZ d   1       0.106   0.772  -0.540  0.00  0.00     0.000 A 
ATOM      5  C5  BNZ d   1      -1.100   1.047  -1.154  0.00  0.00     0.000 A 
ATOM      6  C6  BNZ d   1      -2.281   0.764  -0.507  0.00  0.00     0.000 A 
ENDROOT
TORSDOF 0
ENDMDL
