MODEL 1
REMARK minimizedAffinity -6.03139877
REMARK minimizedRMSD -1
REMARK  0 active torsions:
REMARK  status: ('A' for Active; 'I' for Inactive)
ROOT
ATOM      1  C   UNL d   1      -1.489   0.087   3.309  0.00  0.00    -0.002 A 
ATOM      2  C1  UNL d   1      -2.587   0.275   2.481  0.00  0.00     0.010 A 
ATOM      3  C2  UNL d   1      -2.425   0.374   1.098  0.00  0.00     0.041 A 
ATOM      4  C3  UNL d   1      -1.129   0.276   0.555  0.00  0.00    -0.075 A 
ATOM      5  S   UNL d   1      -0.689   0.366  -1.110  0.00  0.00     0.015 SA
ATOM      6  C4  UNL d   1       0.966   0.156  -0.762  0.00  0.00     0.022 A 
ATOM      7  C5  UNL d   1       1.196   0.019   0.587  0.00  0.00     0.026 A 
ATOM      8  C6  UNL d   1      -0.008   0.085   1.368  0.00  0.00    -0.082 A 
ATOM      9  C7  UNL d   1      -0.205  -0.010   2.766  0.00  0.00     0.045 A 
ENDROOT
TORSDOF 0
ENDMDL
