MODEL 1
REMARK minimizedAffinity -2.00840378
REMARK minimizedRMSD -1
REMARK  0 active torsions:
REMARK  status: ('A' for Active; 'I' for Inactive)
ROOT
ATOM      1  C   UNL d   1      -0.213  -0.085   3.191  0.00  0.00    -0.002 A 
ATOM      2  C1  UNL d   1      -1.291  -0.801   2.690  0.00  0.00     0.010 A 
ATOM      3  C2  UNL d   1      -1.466  -0.950   1.313  0.00  0.00     0.041 A 
ATOM      4  C3  UNL d   1      -0.530  -0.362   0.439  0.00  0.00    -0.075 A 
ATOM      5  S   UNL d   1      -0.541  -0.414  -1.284  0.00  0.00     0.015 SA
ATOM      6  C4  UNL d   1       0.885   0.513  -1.395  0.00  0.00     0.022 A 
ATOM      7  C5  UNL d   1       1.371   0.862  -0.158  0.00  0.00     0.026 A 
ATOM      8  C6  UNL d   1       0.564   0.363   0.920  0.00  0.00    -0.082 A 
ATOM      9  C7  UNL d   1       0.714   0.496   2.322  0.00  0.00     0.045 A 
ENDROOT
TORSDOF 0
ENDMDL
