MODEL 1
REMARK minimizedAffinity -2.21638107
REMARK minimizedRMSD -1
REMARK  0 active torsions:
REMARK  status: ('A' for Active; 'I' for Inactive)
ROOT
ATOM      1  C   UNL d   1      -1.409  -0.998   2.686  0.00  0.00    -0.002 A 
ATOM      2  C1  UNL d   1      -0.250  -0.492   3.260  0.00  0.00     0.010 A 
ATOM      3  C2  UNL d   1       0.645   0.265   2.502  0.00  0.00     0.041 A 
ATOM      4  C3  UNL d   1       0.354   0.510   1.146  0.00  0.00    -0.075 A 
ATOM      5  S   UNL d   1       1.304   1.411   0.024  0.00  0.00     0.015 SA
ATOM      6  C4  UNL d   1       0.195   1.147  -1.242  0.00  0.00     0.022 A 
ATOM      7  C5  UNL d   1      -0.880   0.392  -0.837  0.00  0.00     0.026 A 
ATOM      8  C6  UNL d   1      -0.806   0.012   0.546  0.00  0.00    -0.082 A 
ATOM      9  C7  UNL d   1      -1.694  -0.753   1.340  0.00  0.00     0.045 A 
ENDROOT
TORSDOF 0
ENDMDL
