MODEL 1
REMARK minimizedAffinity -3.2221303
REMARK minimizedRMSD -1
REMARK  0 active torsions:
REMARK  status: ('A' for Active; 'I' for Inactive)
ROOT
ATOM      1  C   UNL d   1       0.159   0.157   2.596  0.00  0.00    -0.002 A 
ATOM      2  C1  UNL d   1      -1.064  -0.425   2.293  0.00  0.00     0.010 A 
ATOM      3  C2  UNL d   1      -1.449  -0.618   0.965  0.00  0.00     0.041 A 
ATOM      4  C3  UNL d   1      -0.575  -0.215  -0.063  0.00  0.00    -0.075 A 
ATOM      5  S   UNL d   1      -0.834  -0.354  -1.762  0.00  0.00     0.015 SA
ATOM      6  C4  UNL d   1       0.672   0.355  -2.126  0.00  0.00     0.022 A 
ATOM      7  C5  UNL d   1       1.369   0.695  -0.990  0.00  0.00     0.026 A 
ATOM      8  C6  UNL d   1       0.662   0.372   0.217  0.00  0.00    -0.082 A 
ATOM      9  C7  UNL d   1       1.023   0.555   1.573  0.00  0.00     0.045 A 
ENDROOT
TORSDOF 0
ENDMDL
