MODEL 1
REMARK minimizedAffinity -3.06206155
REMARK minimizedRMSD -1
REMARK  0 active torsions:
REMARK  status: ('A' for Active; 'I' for Inactive)
ROOT
ATOM      1  C   UNL d   1       0.352   0.619   2.919  0.00  0.00    -0.002 A 
ATOM      2  C1  UNL d   1      -0.669  -0.321   2.915  0.00  0.00     0.010 A 
ATOM      3  C2  UNL d   1      -1.089  -0.908   1.720  0.00  0.00     0.041 A 
ATOM      4  C3  UNL d   1      -0.459  -0.532   0.517  0.00  0.00    -0.075 A 
ATOM      5  S   UNL d   1      -0.806  -1.119  -1.066  0.00  0.00     0.015 SA
ATOM      6  C4  UNL d   1       0.393  -0.135  -1.774  0.00  0.00     0.022 A 
ATOM      7  C5  UNL d   1       1.051   0.629  -0.840  0.00  0.00     0.026 A 
ATOM      8  C6  UNL d   1       0.572   0.412   0.496  0.00  0.00    -0.082 A 
ATOM      9  C7  UNL d   1       0.974   0.990   1.724  0.00  0.00     0.045 A 
ENDROOT
TORSDOF 0
ENDMDL
