MODEL 1
REMARK minimizedAffinity -4.23164749
REMARK minimizedRMSD -1
REMARK  0 active torsions:
REMARK  status: ('A' for Active; 'I' for Inactive)
ROOT
ATOM      1  C   UNL d   1      -1.239  -0.526   3.130  0.00  0.00    -0.002 A 
ATOM      2  C1  UNL d   1      -2.436  -0.593   2.432  0.00  0.00     0.010 A 
ATOM      3  C2  UNL d   1      -2.472  -0.348   1.058  0.00  0.00     0.041 A 
ATOM      4  C3  UNL d   1      -1.272  -0.035   0.390  0.00  0.00    -0.075 A 
ATOM      5  S   UNL d   1      -1.075   0.302  -1.289  0.00  0.00     0.015 SA
ATOM      6  C4  UNL d   1       0.604   0.541  -1.120  0.00  0.00     0.022 A 
ATOM      7  C5  UNL d   1       1.021   0.373   0.179  0.00  0.00     0.026 A 
ATOM      8  C6  UNL d   1      -0.054   0.038   1.071  0.00  0.00    -0.082 A 
ATOM      9  C7  UNL d   1      -0.050  -0.214   2.464  0.00  0.00     0.045 A 
ENDROOT
TORSDOF 0
ENDMDL
