MODEL 1
REMARK minimizedAffinity 0.827206194
REMARK minimizedRMSD -1
REMARK  0 active torsions:
REMARK  status: ('A' for Active; 'I' for Inactive)
ROOT
ATOM      1  C   UNL d   1      -4.174  -0.470   0.292  0.00  0.00    -0.002 A 
ATOM      2  C1  UNL d   1      -3.726   0.646  -0.400  0.00  0.00     0.010 A 
ATOM      3  C2  UNL d   1      -2.365   0.955  -0.444  0.00  0.00     0.041 A 
ATOM      4  C3  UNL d   1      -1.453   0.114   0.224  0.00  0.00    -0.075 A 
ATOM      5  S   UNL d   1       0.260   0.294   0.306  0.00  0.00     0.015 SA
ATOM      6  C4  UNL d   1       0.436  -1.107   1.260  0.00  0.00     0.022 A 
ATOM      7  C5  UNL d   1      -0.772  -1.710   1.519  0.00  0.00     0.026 A 
ATOM      8  C6  UNL d   1      -1.881  -1.017   0.926  0.00  0.00    -0.082 A 
ATOM      9  C7  UNL d   1      -3.267  -1.302   0.953  0.00  0.00     0.045 A 
ENDROOT
TORSDOF 0
ENDMDL
