MODEL 1
REMARK minimizedAffinity -4.69284248
REMARK minimizedRMSD -1
REMARK  0 active torsions:
REMARK  status: ('A' for Active; 'I' for Inactive)
ROOT
ATOM      1  C   UNL d   1      -0.937  -0.595   3.028  0.00  0.00    -0.002 A 
ATOM      2  C1  UNL d   1       0.405  -0.358   2.768  0.00  0.00     0.010 A 
ATOM      3  C2  UNL d   1       0.815   0.106   1.517  0.00  0.00     0.041 A 
ATOM      4  C3  UNL d   1      -0.156   0.332   0.522  0.00  0.00    -0.075 A 
ATOM      5  S   UNL d   1       0.113   0.899  -1.084  0.00  0.00     0.015 SA
ATOM      6  C4  UNL d   1      -1.548   0.841  -1.462  0.00  0.00     0.022 A 
ATOM      7  C5  UNL d   1      -2.304   0.402  -0.401  0.00  0.00     0.026 A 
ATOM      8  C6  UNL d   1      -1.514   0.101   0.760  0.00  0.00    -0.082 A 
ATOM      9  C7  UNL d   1      -1.898  -0.370   2.039  0.00  0.00     0.045 A 
ENDROOT
TORSDOF 0
ENDMDL
