MODEL 1
REMARK minimizedAffinity -2.41032124
REMARK minimizedRMSD -1
REMARK  0 active torsions:
REMARK  status: ('A' for Active; 'I' for Inactive)
ROOT
ATOM      1  C   UNL d   1       4.425   1.319  -3.674  0.00  0.00    -0.002 A 
ATOM      2  C1  UNL d   1       4.908   0.096  -4.117  0.00  0.00     0.010 A 
ATOM      3  C2  UNL d   1       4.141  -1.062  -3.980  0.00  0.00     0.041 A 
ATOM      4  C3  UNL d   1       2.867  -0.970  -3.385  0.00  0.00    -0.075 A 
ATOM      5  S   UNL d   1       1.751  -2.255  -3.114  0.00  0.00     0.015 SA
ATOM      6  C4  UNL d   1       0.606  -1.211  -2.404  0.00  0.00     0.022 A 
ATOM      7  C5  UNL d   1       1.049   0.090  -2.367  0.00  0.00     0.026 A 
ATOM      8  C6  UNL d   1       2.359   0.251  -2.932  0.00  0.00    -0.082 A 
ATOM      9  C7  UNL d   1       3.161   1.407  -3.085  0.00  0.00     0.045 A 
ENDROOT
TORSDOF 0
ENDMDL
