MODEL 1
REMARK minimizedAffinity -0.411527663
REMARK minimizedRMSD -1
REMARK  0 active torsions:
REMARK  status: ('A' for Active; 'I' for Inactive)
ROOT
ATOM      1  C   UNL d   1      -2.778  -0.522   0.159  0.00  0.00    -0.002 A 
ATOM      2  C1  UNL d   1      -2.178   0.224  -0.845  0.00  0.00     0.010 A 
ATOM      3  C2  UNL d   1      -0.920   0.797  -0.650  0.00  0.00     0.041 A 
ATOM      4  C3  UNL d   1      -0.267   0.603   0.583  0.00  0.00    -0.075 A 
ATOM      5  S   UNL d   1       1.279   1.208   1.047  0.00  0.00     0.015 SA
ATOM      6  C4  UNL d   1       1.181   0.490   2.589  0.00  0.00     0.022 A 
ATOM      7  C5  UNL d   1       0.003  -0.198   2.763  0.00  0.00     0.026 A 
ATOM      8  C6  UNL d   1      -0.850  -0.145   1.610  0.00  0.00    -0.082 A 
ATOM      9  C7  UNL d   1      -2.127  -0.711   1.381  0.00  0.00     0.045 A 
ENDROOT
TORSDOF 0
ENDMDL
