MODEL 1
REMARK minimizedAffinity 12.8700504
REMARK minimizedRMSD -1
REMARK  2 active torsions:
REMARK  status: ('A' for Active; 'I' for Inactive)
REMARK    1  A    between atoms: C1_2  and  C2_3 
REMARK    2  A    between atoms: C2_3  and  C3_4 
ROOT
ATOM      1  C3  UNL d   1      -4.816   1.740   5.986  0.00  0.00    -0.075 A 
ATOM      2  C4  UNL d   1      -5.985   2.515   5.986  0.00  0.00     0.002 A 
ATOM      3  C5  UNL d   1      -5.911   3.908   5.976  0.00  0.00     0.002 A 
ATOM      4  C6  UNL d   1      -4.671   4.543   5.977  0.00  0.00    -0.004 A 
ATOM      5  C7  UNL d   1      -3.503   3.783   5.994  0.00  0.00     0.002 A 
ATOM      6  C8  UNL d   1      -3.574   2.389   5.999  0.00  0.00     0.002 A 
ENDROOT
BRANCH   1   7
ATOM      7  C2  UNL d   1      -4.889   0.232   5.966  0.00  0.00     0.056 C 
BRANCH   7   8
ATOM      8  C1  UNL d   1      -4.281  -0.406   4.713  0.00  0.00     0.007 C 
ATOM      9  C   UNL d   1      -4.149  -1.920   4.813  0.00  0.00     0.009 C 
ENDBRANCH   7   8
ENDBRANCH   1   7
TORSDOF 2
ENDMDL
