MODEL 1
REMARK minimizedAffinity 0.488129348
REMARK minimizedRMSD -1
REMARK  2 active torsions:
REMARK  status: ('A' for Active; 'I' for Inactive)
REMARK    1  A    between atoms: C1_2  and  C2_3 
REMARK    2  A    between atoms: C2_3  and  C3_4 
ROOT
ATOM      1  C3  UNL d   1      -2.379   1.188   2.802  0.00  0.00    -0.075 A 
ATOM      2  C4  UNL d   1      -1.399   0.198   2.962  0.00  0.00     0.002 A 
ATOM      3  C5  UNL d   1      -0.097   0.541   3.326  0.00  0.00     0.002 A 
ATOM      4  C6  UNL d   1       0.244   1.877   3.525  0.00  0.00    -0.004 A 
ATOM      5  C7  UNL d   1      -0.717   2.871   3.353  0.00  0.00     0.002 A 
ATOM      6  C8  UNL d   1      -2.022   2.530   2.993  0.00  0.00     0.002 A 
ENDROOT
BRANCH   1   7
ATOM      7  C2  UNL d   1      -3.797   0.821   2.437  0.00  0.00     0.056 C 
BRANCH   7   8
ATOM      8  C1  UNL d   1      -3.972   0.380   0.980  0.00  0.00     0.007 C 
ATOM      9  C   UNL d   1      -4.411  -1.072   0.840  0.00  0.00     0.009 C 
ENDBRANCH   7   8
ENDBRANCH   1   7
TORSDOF 2
ENDMDL
