MODEL 1
REMARK minimizedAffinity 1.30453312
REMARK minimizedRMSD -1
REMARK  2 active torsions:
REMARK  status: ('A' for Active; 'I' for Inactive)
REMARK    1  A    between atoms: C1_2  and  C2_3 
REMARK    2  A    between atoms: C2_3  and  C3_4 
ROOT
ATOM      1  C3  UNL d   1      -3.510   1.458   3.145  0.00  0.00    -0.075 A 
ATOM      2  C4  UNL d   1      -3.991   1.440   1.828  0.00  0.00     0.002 A 
ATOM      3  C5  UNL d   1      -3.174   1.015   0.781  0.00  0.00     0.002 A 
ATOM      4  C6  UNL d   1      -1.864   0.613   1.034  0.00  0.00    -0.004 A 
ATOM      5  C7  UNL d   1      -1.370   0.643   2.336  0.00  0.00     0.002 A 
ATOM      6  C8  UNL d   1      -2.187   1.064   3.387  0.00  0.00     0.002 A 
ENDROOT
BRANCH   1   7
ATOM      7  C2  UNL d   1      -4.398   1.890   4.287  0.00  0.00     0.056 C 
BRANCH   7   8
ATOM      8  C1  UNL d   1      -5.274   0.767   4.854  0.00  0.00     0.007 C 
ATOM      9  C   UNL d   1      -4.613   0.008   5.996  0.00  0.00     0.009 C 
ENDBRANCH   7   8
ENDBRANCH   1   7
TORSDOF 2
ENDMDL
