MODEL 1
REMARK minimizedAffinity -3.70794511
REMARK minimizedRMSD -1
REMARK  2 active torsions:
REMARK  status: ('A' for Active; 'I' for Inactive)
REMARK    1  A    between atoms: C1_2  and  C2_3 
REMARK    2  A    between atoms: C2_3  and  C3_4 
ROOT
ATOM      1  C3  UNL d   1      -2.941   0.008   3.568  0.00  0.00    -0.075 A 
ATOM      2  C4  UNL d   1      -3.001   0.746   2.377  0.00  0.00     0.002 A 
ATOM      3  C5  UNL d   1      -1.907   0.783   1.511  0.00  0.00     0.002 A 
ATOM      4  C6  UNL d   1      -0.740   0.092   1.828  0.00  0.00    -0.004 A 
ATOM      5  C7  UNL d   1      -0.664  -0.631   3.017  0.00  0.00     0.002 A 
ATOM      6  C8  UNL d   1      -1.758  -0.673   3.883  0.00  0.00     0.002 A 
ENDROOT
BRANCH   1   7
ATOM      7  C2  UNL d   1      -4.131  -0.060   4.495  0.00  0.00     0.056 C 
BRANCH   7   8
ATOM      8  C1  UNL d   1      -3.883  -0.875   5.769  0.00  0.00     0.007 C 
ATOM      9  C   UNL d   1      -4.927  -1.959   6.000  0.00  0.00     0.009 C 
ENDBRANCH   7   8
ENDBRANCH   1   7
TORSDOF 2
ENDMDL
