MODEL 1
REMARK minimizedAffinity 5.47476149
REMARK minimizedRMSD -1
REMARK  2 active torsions:
REMARK  status: ('A' for Active; 'I' for Inactive)
REMARK    1  A    between atoms: C1_2  and  C2_3 
REMARK    2  A    between atoms: C2_3  and  C3_4 
ROOT
ATOM      1  C3  UNL d   1      -3.880   0.294   3.431  0.00  0.00    -0.075 A 
ATOM      2  C4  UNL d   1      -2.537  -0.083   3.582  0.00  0.00     0.002 A 
ATOM      3  C5  UNL d   1      -1.642   0.042   2.519  0.00  0.00     0.002 A 
ATOM      4  C6  UNL d   1      -2.078   0.535   1.292  0.00  0.00    -0.004 A 
ATOM      5  C7  UNL d   1      -3.413   0.897   1.125  0.00  0.00     0.002 A 
ATOM      6  C8  UNL d   1      -4.310   0.777   2.188  0.00  0.00     0.002 A 
ENDROOT
BRANCH   1   7
ATOM      7  C2  UNL d   1      -4.847   0.188   4.585  0.00  0.00     0.056 C 
BRANCH   7   8
ATOM      8  C1  UNL d   1      -4.270  -0.512   5.820  0.00  0.00     0.007 C 
ATOM      9  C   UNL d   1      -4.785  -1.934   6.000  0.00  0.00     0.009 C 
ENDBRANCH   7   8
ENDBRANCH   1   7
TORSDOF 2
ENDMDL
