MODEL 1
REMARK minimizedAffinity 3.92910647
REMARK minimizedRMSD -1
REMARK  2 active torsions:
REMARK  status: ('A' for Active; 'I' for Inactive)
REMARK    1  A    between atoms: C1_2  and  C2_3 
REMARK    2  A    between atoms: C2_3  and  C3_4 
ROOT
ATOM      1  C3  UNL d   1       2.435  -5.990   1.241  0.00  0.00    -0.075 A 
ATOM      2  C4  UNL d   1       2.350  -5.989   2.641  0.00  0.00     0.002 A 
ATOM      3  C5  UNL d   1       3.506  -5.953   3.420  0.00  0.00     0.002 A 
ATOM      4  C6  UNL d   1       4.759  -5.928   2.812  0.00  0.00    -0.004 A 
ATOM      5  C7  UNL d   1       4.856  -5.946   1.423  0.00  0.00     0.002 A 
ATOM      6  C8  UNL d   1       3.701  -5.978   0.640  0.00  0.00     0.002 A 
ENDROOT
BRANCH   1   7
ATOM      7  C2  UNL d   1       1.186  -6.000   0.391  0.00  0.00     0.056 C 
BRANCH   7   8
ATOM      8  C1  UNL d   1      -0.115  -5.901   1.194  0.00  0.00     0.007 C 
ATOM      9  C   UNL d   1      -1.356  -5.801   0.316  0.00  0.00     0.009 C 
ENDBRANCH   7   8
ENDBRANCH   1   7
TORSDOF 2
ENDMDL
