MODEL 1
REMARK minimizedAffinity 2.71325016
REMARK minimizedRMSD -1
REMARK  2 active torsions:
REMARK  status: ('A' for Active; 'I' for Inactive)
REMARK    1  A    between atoms: C1_2  and  C2_3 
REMARK    2  A    between atoms: C2_3  and  C3_4 
ROOT
ATOM      1  C3  UNL d   1      -1.824   1.087   1.808  0.00  0.00    -0.075 A 
ATOM      2  C4  UNL d   1      -0.778   0.244   2.214  0.00  0.00     0.002 A 
ATOM      3  C5  UNL d   1       0.130   0.661   3.188  0.00  0.00     0.002 A 
ATOM      4  C6  UNL d   1       0.011   1.926   3.759  0.00  0.00    -0.004 A 
ATOM      5  C7  UNL d   1      -1.014   2.777   3.352  0.00  0.00     0.002 A 
ATOM      6  C8  UNL d   1      -1.926   2.361   2.381  0.00  0.00     0.002 A 
ENDROOT
BRANCH   1   7
ATOM      7  C2  UNL d   1      -2.827   0.631   0.776  0.00  0.00     0.056 C 
BRANCH   7   8
ATOM      8  C1  UNL d   1      -3.389  -0.772   1.030  0.00  0.00     0.007 C 
ATOM      9  C   UNL d   1      -4.498  -1.159   0.061  0.00  0.00     0.009 C 
ENDBRANCH   7   8
ENDBRANCH   1   7
TORSDOF 2
ENDMDL
