MODEL 1
REMARK minimizedAffinity 5.92030954
REMARK minimizedRMSD -1
REMARK  2 active torsions:
REMARK  status: ('A' for Active; 'I' for Inactive)
REMARK    1  A    between atoms: C1_2  and  C2_3 
REMARK    2  A    between atoms: C2_3  and  C3_4 
ROOT
ATOM      1  C3  UNL d   1      -3.697   0.903   2.189  0.00  0.00    -0.075 A 
ATOM      2  C4  UNL d   1      -3.916   0.099   1.061  0.00  0.00     0.002 A 
ATOM      3  C5  UNL d   1      -2.841  -0.361   0.300  0.00  0.00     0.002 A 
ATOM      4  C6  UNL d   1      -1.538  -0.016   0.649  0.00  0.00    -0.004 A 
ATOM      5  C7  UNL d   1      -1.309   0.796   1.759  0.00  0.00     0.002 A 
ATOM      6  C8  UNL d   1      -2.383   1.254   2.525  0.00  0.00     0.002 A 
ENDROOT
BRANCH   1   7
ATOM      7  C2  UNL d   1      -4.854   1.379   3.035  0.00  0.00     0.056 C 
BRANCH   7   8
ATOM      8  C1  UNL d   1      -4.847   0.833   4.466  0.00  0.00     0.007 C 
ATOM      9  C   UNL d   1      -5.677   1.669   5.432  0.00  0.00     0.009 C 
ENDBRANCH   7   8
ENDBRANCH   1   7
TORSDOF 2
ENDMDL
