MODEL 1
REMARK minimizedAffinity 2.45150328
REMARK minimizedRMSD -1
REMARK  2 active torsions:
REMARK  status: ('A' for Active; 'I' for Inactive)
REMARK    1  A    between atoms: C1_2  and  C2_3 
REMARK    2  A    between atoms: C2_3  and  C3_4 
ROOT
ATOM      1  C3  UNL d   1       3.253  -5.455   2.161  0.00  0.00    -0.075 A 
ATOM      2  C4  UNL d   1       4.024  -4.704   1.262  0.00  0.00     0.002 A 
ATOM      3  C5  UNL d   1       5.390  -4.524   1.479  0.00  0.00     0.002 A 
ATOM      4  C6  UNL d   1       6.000  -5.081   2.601  0.00  0.00    -0.004 A 
ATOM      5  C7  UNL d   1       5.240  -5.814   3.510  0.00  0.00     0.002 A 
ATOM      6  C8  UNL d   1       3.874  -6.000   3.293  0.00  0.00     0.002 A 
ENDROOT
BRANCH   1   7
ATOM      7  C2  UNL d   1       1.780  -5.679   1.917  0.00  0.00     0.056 C 
BRANCH   7   8
ATOM      8  C1  UNL d   1       0.882  -4.556   2.446  0.00  0.00     0.007 C 
ATOM      9  C   UNL d   1      -0.387  -4.364   1.625  0.00  0.00     0.009 C 
ENDBRANCH   7   8
ENDBRANCH   1   7
TORSDOF 2
ENDMDL
