MODEL 1
REMARK minimizedAffinity 6.29055738
REMARK minimizedRMSD -1
REMARK  0 active torsions:
REMARK  status: ('A' for Active; 'I' for Inactive)
ROOT
ATOM      1  O1  BZF d   1       3.293  -2.297  -1.142  0.00  0.00    -0.204 OA
ATOM      2  C2  BZF d   1       2.354  -2.223  -0.131  0.00  0.00     0.174 A 
ATOM      3  C3  BZF d   1       2.130  -0.941   0.222  0.00  0.00    -0.012 A 
ATOM      4  C3A BZF d   1       2.913  -0.159  -0.686  0.00  0.00    -0.107 A 
ATOM      5  C4  BZF d   1       3.097   1.184  -0.850  0.00  0.00     0.055 A 
ATOM      6  C5  BZF d   1       3.986   1.620  -1.782  0.00  0.00    -0.016 A 
ATOM      7  C6  BZF d   1       4.710   0.741  -2.561  0.00  0.00     0.022 A 
ATOM      8  C7  BZF d   1       4.558  -0.600  -2.437  0.00  0.00     0.029 A 
ATOM      9  C7A BZF d   1       3.637  -1.042  -1.520  0.00  0.00     0.058 A 
ENDROOT
TORSDOF 0
ENDMDL
