MODEL 1
REMARK minimizedAffinity -1.04046214
REMARK minimizedRMSD -1
REMARK  0 active torsions:
REMARK  status: ('A' for Active; 'I' for Inactive)
ROOT
ATOM      1  O1  BZF d   1       1.356   0.971   0.593  0.00  0.00    -0.204 OA
ATOM      2  C2  BZF d   1       0.779  -0.056   1.315  0.00  0.00     0.174 A 
ATOM      3  C3  BZF d   1       1.007  -1.245   0.720  0.00  0.00    -0.012 A 
ATOM      4  C3A BZF d   1       1.852  -0.952  -0.396  0.00  0.00    -0.107 A 
ATOM      5  C4  BZF d   1       2.433  -1.723  -1.362  0.00  0.00     0.055 A 
ATOM      6  C5  BZF d   1       3.141  -1.119  -2.352  0.00  0.00    -0.016 A 
ATOM      7  C6  BZF d   1       3.285   0.252  -2.410  0.00  0.00     0.022 A 
ATOM      8  C7  BZF d   1       2.731   1.058  -1.471  0.00  0.00     0.029 A 
ATOM      9  C7A BZF d   1       2.043   0.448  -0.451  0.00  0.00     0.058 A 
ENDROOT
TORSDOF 0
ENDMDL
