MODEL 1
REMARK minimizedAffinity 0.461978734
REMARK minimizedRMSD -1
REMARK  0 active torsions:
REMARK  status: ('A' for Active; 'I' for Inactive)
ROOT
ATOM      1  O1  BZF d   1      -3.355   3.401  -5.165  0.00  0.00    -0.204 OA
ATOM      2  C2  BZF d   1      -2.107   3.755  -4.690  0.00  0.00     0.174 A 
ATOM      3  C3  BZF d   1      -2.083   3.724  -3.342  0.00  0.00    -0.012 A 
ATOM      4  C3A BZF d   1      -3.371   3.237  -2.953  0.00  0.00    -0.107 A 
ATOM      5  C4  BZF d   1      -3.949   2.972  -1.744  0.00  0.00     0.055 A 
ATOM      6  C5  BZF d   1      -5.248   2.575  -1.706  0.00  0.00    -0.016 A 
ATOM      7  C6  BZF d   1      -5.999   2.439  -2.855  0.00  0.00     0.022 A 
ATOM      8  C7  BZF d   1      -5.468   2.685  -4.077  0.00  0.00     0.029 A 
ATOM      9  C7A BZF d   1      -4.146   3.054  -4.121  0.00  0.00     0.058 A 
ENDROOT
TORSDOF 0
ENDMDL
