MODEL 1
REMARK minimizedAffinity -3.71847963
REMARK minimizedRMSD -1
REMARK  0 active torsions:
REMARK  status: ('A' for Active; 'I' for Inactive)
ROOT
ATOM      1  O1  BZF d   1      -3.630   2.186  -3.894  0.00  0.00    -0.204 OA
ATOM      2  C2  BZF d   1      -4.787   2.724  -3.364  0.00  0.00     0.174 A 
ATOM      3  C3  BZF d   1      -4.502   3.758  -2.546  0.00  0.00    -0.012 A 
ATOM      4  C3A BZF d   1      -3.085   3.932  -2.639  0.00  0.00    -0.107 A 
ATOM      5  C4  BZF d   1      -2.208   4.811  -2.071  0.00  0.00     0.055 A 
ATOM      6  C5  BZF d   1      -0.878   4.667  -2.312  0.00  0.00    -0.016 A 
ATOM      7  C6  BZF d   1      -0.392   3.653  -3.111  0.00  0.00     0.022 A 
ATOM      8  C7  BZF d   1      -1.223   2.760  -3.700  0.00  0.00     0.029 A 
ATOM      9  C7A BZF d   1      -2.570   2.923  -3.485  0.00  0.00     0.058 A 
ENDROOT
TORSDOF 0
ENDMDL
