MODEL 1
REMARK minimizedAffinity -2.02677345
REMARK minimizedRMSD -1
REMARK  0 active torsions:
REMARK  status: ('A' for Active; 'I' for Inactive)
ROOT
ATOM      1  O1  BZF d   1       2.268  -2.595  -0.983  0.00  0.00    -0.204 OA
ATOM      2  C2  BZF d   1       3.212  -1.689  -1.426  0.00  0.00     0.174 A 
ATOM      3  C3  BZF d   1       3.000  -0.473  -0.882  0.00  0.00    -0.012 A 
ATOM      4  C3A BZF d   1       1.908  -0.652   0.025  0.00  0.00    -0.107 A 
ATOM      5  C4  BZF d   1       1.246   0.189   0.874  0.00  0.00     0.055 A 
ATOM      6  C5  BZF d   1       0.175  -0.282   1.567  0.00  0.00    -0.016 A 
ATOM      7  C6  BZF d   1      -0.263  -1.583   1.431  0.00  0.00     0.022 A 
ATOM      8  C7  BZF d   1       0.365  -2.455   0.605  0.00  0.00     0.029 A 
ATOM      9  C7A BZF d   1       1.467  -1.992  -0.072  0.00  0.00     0.058 A 
ENDROOT
TORSDOF 0
ENDMDL
