MODEL 1
REMARK minimizedAffinity -1.32757604
REMARK minimizedRMSD -1
REMARK  0 active torsions:
REMARK  status: ('A' for Active; 'I' for Inactive)
ROOT
ATOM      1  O1  BZF d   1       3.524   0.922  -1.934  0.00  0.00    -0.204 OA
ATOM      2  C2  BZF d   1       4.369  -0.015  -2.495  0.00  0.00     0.174 A 
ATOM      3  C3  BZF d   1       4.106  -1.246  -2.012  0.00  0.00    -0.012 A 
ATOM      4  C3A BZF d   1       2.969  -1.081  -1.160  0.00  0.00    -0.107 A 
ATOM      5  C4  BZF d   1       2.228  -1.945  -0.405  0.00  0.00     0.055 A 
ATOM      6  C5  BZF d   1       1.226  -1.453   0.370  0.00  0.00    -0.016 A 
ATOM      7  C6  BZF d   1       0.941  -0.104   0.418  0.00  0.00     0.022 A 
ATOM      8  C7  BZF d   1       1.645   0.791  -0.318  0.00  0.00     0.029 A 
ATOM      9  C7A BZF d   1       2.637   0.293  -1.127  0.00  0.00     0.058 A 
ENDROOT
TORSDOF 0
ENDMDL
