MODEL 1
REMARK minimizedAffinity 3.41458893
REMARK minimizedRMSD -1
REMARK  0 active torsions:
REMARK  status: ('A' for Active; 'I' for Inactive)
ROOT
ATOM      1  O1  BZF d   1      -2.417   5.098  -2.556  0.00  0.00    -0.204 OA
ATOM      2  C2  BZF d   1      -1.518   5.999  -2.019  0.00  0.00     0.174 A 
ATOM      3  C3  BZF d   1      -0.257   5.528  -2.110  0.00  0.00    -0.012 A 
ATOM      4  C3A BZF d   1      -0.367   4.294  -2.826  0.00  0.00    -0.107 A 
ATOM      5  C4  BZF d   1       0.544   3.366  -3.243  0.00  0.00     0.055 A 
ATOM      6  C5  BZF d   1       0.103   2.236  -3.855  0.00  0.00    -0.016 A 
ATOM      7  C6  BZF d   1      -1.240   1.999  -4.062  0.00  0.00     0.022 A 
ATOM      8  C7  BZF d   1      -2.181   2.893  -3.670  0.00  0.00     0.029 A 
ATOM      9  C7A BZF d   1      -1.736   4.051  -3.081  0.00  0.00     0.058 A 
ENDROOT
TORSDOF 0
ENDMDL
