MODEL 1
REMARK minimizedAffinity -1.8237648
REMARK minimizedRMSD -1
REMARK  0 active torsions:
REMARK  status: ('A' for Active; 'I' for Inactive)
ROOT
ATOM      1  O1  BZF d   1       0.995  -2.567   1.190  0.00  0.00    -0.204 OA
ATOM      2  C2  BZF d   1       0.138  -2.124   2.179  0.00  0.00     0.174 A 
ATOM      3  C3  BZF d   1       0.026  -0.780   2.148  0.00  0.00    -0.012 A 
ATOM      4  C3A BZF d   1       0.793  -0.364   1.014  0.00  0.00    -0.107 A 
ATOM      5  C4  BZF d   1       1.054   0.853   0.453  0.00  0.00     0.055 A 
ATOM      6  C5  BZF d   1       1.902   0.923  -0.607  0.00  0.00    -0.016 A 
ATOM      7  C6  BZF d   1       2.509  -0.202  -1.127  0.00  0.00     0.022 A 
ATOM      8  C7  BZF d   1       2.277  -1.431  -0.607  0.00  0.00     0.029 A 
ATOM      9  C7A BZF d   1       1.395  -1.509   0.444  0.00  0.00     0.058 A 
ENDROOT
TORSDOF 0
ENDMDL
