MODEL 1
REMARK minimizedAffinity -1.60191774
REMARK minimizedRMSD -1
REMARK  0 active torsions:
REMARK  status: ('A' for Active; 'I' for Inactive)
ROOT
ATOM      1  O1  BZF d   1       0.086   0.527   1.702  0.00  0.00    -0.204 OA
ATOM      2  C2  BZF d   1      -0.633  -0.643   1.857  0.00  0.00     0.174 A 
ATOM      3  C3  BZF d   1      -0.223  -1.577   0.974  0.00  0.00    -0.012 A 
ATOM      4  C3A BZF d   1       0.878  -0.982   0.281  0.00  0.00    -0.107 A 
ATOM      5  C4  BZF d   1       1.714  -1.420  -0.706  0.00  0.00     0.055 A 
ATOM      6  C5  BZF d   1       2.641  -0.567  -1.214  0.00  0.00    -0.016 A 
ATOM      7  C6  BZF d   1       2.757   0.732  -0.763  0.00  0.00     0.022 A 
ATOM      8  C7  BZF d   1       1.953   1.211   0.218  0.00  0.00     0.029 A 
ATOM      9  C7A BZF d   1       1.037   0.341   0.756  0.00  0.00     0.058 A 
ENDROOT
TORSDOF 0
ENDMDL
