MODEL 1
REMARK minimizedAffinity -1.66332114
REMARK minimizedRMSD -1
REMARK  0 active torsions:
REMARK  status: ('A' for Active; 'I' for Inactive)
ROOT
ATOM      1  O1  BZF d   1       2.790  -1.897  -1.123  0.00  0.00    -0.204 OA
ATOM      2  C2  BZF d   1       3.260  -0.911  -1.970  0.00  0.00     0.174 A 
ATOM      3  C3  BZF d   1       2.721   0.285  -1.657  0.00  0.00    -0.012 A 
ATOM      4  C3A BZF d   1       1.931   0.048  -0.487  0.00  0.00    -0.107 A 
ATOM      5  C4  BZF d   1       1.164   0.851   0.306  0.00  0.00     0.055 A 
ATOM      6  C5  BZF d   1       0.464   0.295   1.329  0.00  0.00    -0.016 A 
ATOM      7  C6  BZF d   1       0.504  -1.060   1.584  0.00  0.00     0.022 A 
ATOM      8  C7  BZF d   1       1.255  -1.897   0.828  0.00  0.00     0.029 A 
ATOM      9  C7A BZF d   1       1.990  -1.333  -0.187  0.00  0.00     0.058 A 
ENDROOT
TORSDOF 0
ENDMDL
