MODEL 1
REMARK minimizedAffinity 1.86470282
REMARK minimizedRMSD -1
REMARK  0 active torsions:
REMARK  status: ('A' for Active; 'I' for Inactive)
ROOT
ATOM      1  O1  BZF d   1       1.607  -2.395  -0.180  0.00  0.00    -0.204 OA
ATOM      2  C2  BZF d   1       0.800  -1.822   0.784  0.00  0.00     0.174 A 
ATOM      3  C3  BZF d   1       1.035  -0.498   0.879  0.00  0.00    -0.012 A 
ATOM      4  C3A BZF d   1       1.987  -0.210  -0.149  0.00  0.00    -0.107 A 
ATOM      5  C4  BZF d   1       2.601   0.937  -0.566  0.00  0.00     0.055 A 
ATOM      6  C5  BZF d   1       3.536   0.866  -1.549  0.00  0.00    -0.016 A 
ATOM      7  C6  BZF d   1       3.885  -0.334  -2.134  0.00  0.00     0.022 A 
ATOM      8  C7  BZF d   1       3.300  -1.497  -1.757  0.00  0.00     0.029 A 
ATOM      9  C7A BZF d   1       2.331  -1.424  -0.786  0.00  0.00     0.058 A 
ENDROOT
TORSDOF 0
ENDMDL
