MODEL 1
REMARK minimizedAffinity -2.96160817
REMARK minimizedRMSD -1
REMARK  0 active torsions:
REMARK  status: ('A' for Active; 'I' for Inactive)
ROOT
ATOM      1  O1  BZF d   1       3.246   0.613  -1.876  0.00  0.00    -0.204 OA
ATOM      2  C2  BZF d   1       3.800  -0.607  -2.214  0.00  0.00     0.174 A 
ATOM      3  C3  BZF d   1       3.251  -1.599  -1.484  0.00  0.00    -0.012 A 
ATOM      4  C3A BZF d   1       2.229  -0.972  -0.703  0.00  0.00    -0.107 A 
ATOM      5  C4  BZF d   1       1.324  -1.437   0.207  0.00  0.00     0.055 A 
ATOM      6  C5  BZF d   1       0.514  -0.552   0.845  0.00  0.00    -0.016 A 
ATOM      7  C6  BZF d   1       0.586   0.804   0.601  0.00  0.00     0.022 A 
ATOM      8  C7  BZF d   1       1.464   1.312  -0.296  0.00  0.00     0.029 A 
ATOM      9  C7A BZF d   1       2.262   0.417  -0.967  0.00  0.00     0.058 A 
ENDROOT
TORSDOF 0
ENDMDL
