MODEL 1
REMARK minimizedAffinity -1.02435327
REMARK minimizedRMSD -1
REMARK  0 active torsions:
REMARK  status: ('A' for Active; 'I' for Inactive)
ROOT
ATOM      1  O1  BZF d   1       0.477   0.522   1.543  0.00  0.00    -0.204 OA
ATOM      2  C2  BZF d   1      -0.014  -0.744   1.802  0.00  0.00     0.174 A 
ATOM      3  C3  BZF d   1       0.500  -1.642   0.937  0.00  0.00    -0.012 A 
ATOM      4  C3A BZF d   1       1.436  -0.907   0.143  0.00  0.00    -0.107 A 
ATOM      5  C4  BZF d   1       2.275  -1.252  -0.878  0.00  0.00     0.055 A 
ATOM      6  C5  BZF d   1       3.006  -0.282  -1.489  0.00  0.00    -0.016 A 
ATOM      7  C6  BZF d   1       2.918   1.041  -1.108  0.00  0.00     0.022 A 
ATOM      8  C7  BZF d   1       2.103   1.430  -0.098  0.00  0.00     0.029 A 
ATOM      9  C7A BZF d   1       1.388   0.448   0.543  0.00  0.00     0.058 A 
ENDROOT
TORSDOF 0
ENDMDL
