MODEL 1
REMARK minimizedAffinity -2.15158343
REMARK minimizedRMSD -1
REMARK  0 active torsions:
REMARK  status: ('A' for Active; 'I' for Inactive)
ROOT
ATOM      1  O1  BZF d   1       3.246   0.040  -1.761  0.00  0.00    -0.204 OA
ATOM      2  C2  BZF d   1       3.256  -1.291  -2.130  0.00  0.00     0.174 A 
ATOM      3  C3  BZF d   1       2.458  -2.018  -1.323  0.00  0.00    -0.012 A 
ATOM      4  C3A BZF d   1       1.842  -1.068  -0.448  0.00  0.00    -0.107 A 
ATOM      5  C4  BZF d   1       0.935  -1.176   0.567  0.00  0.00     0.055 A 
ATOM      6  C5  BZF d   1       0.595  -0.065   1.271  0.00  0.00    -0.016 A 
ATOM      7  C6  BZF d   1       1.146   1.169   0.991  0.00  0.00     0.022 A 
ATOM      8  C7  BZF d   1       2.047   1.327  -0.010  0.00  0.00     0.029 A 
ATOM      9  C7A BZF d   1       2.367   0.211  -0.744  0.00  0.00     0.058 A 
ENDROOT
TORSDOF 0
ENDMDL
