MODEL 1
REMARK minimizedAffinity 12.4965105
REMARK minimizedRMSD -1
REMARK  1 active torsions:
REMARK  status: ('A' for Active; 'I' for Inactive)
REMARK    1  A    between atoms: C1_2  and  C2_3 
ROOT
ATOM      1  C2  UNL d   1       4.763   3.317   3.632  0.00  0.00    -0.073 A 
ATOM      2  C3  UNL d   1       5.957   3.470   4.345  0.00  0.00    -0.002 A 
ATOM      3  C4  UNL d   1       5.985   4.220   5.521  0.00  0.00     0.004 A 
ATOM      4  C5  UNL d   1       4.820   4.818   6.000  0.00  0.00    -0.004 A 
ATOM      5  C6  UNL d   1       3.614   4.667   5.308  0.00  0.00    -0.075 A 
ATOM      6  C7  UNL d   1       2.351   5.306   5.809  0.00  0.00     0.076 C 
ATOM      7  C8  UNL d   1       3.594   3.914   4.126  0.00  0.00     0.001 A 
ENDROOT
BRANCH   1   8
ATOM      8  C1  UNL d   1       4.726   2.502   2.365  0.00  0.00     0.053 C 
ATOM      9  C   UNL d   1       3.830   3.130   1.309  0.00  0.00     0.018 C 
ENDBRANCH   1   8
TORSDOF 1
ENDMDL
