MODEL 1
REMARK minimizedAffinity 16.6374187
REMARK minimizedRMSD -1
REMARK  1 active torsions:
REMARK  status: ('A' for Active; 'I' for Inactive)
REMARK    1  A    between atoms: C1_2  and  C2_3 
ROOT
ATOM      1  C2  UNL d   1       4.472   3.916   5.376  0.00  0.00    -0.073 A 
ATOM      2  C3  UNL d   1       5.224   3.709   4.214  0.00  0.00    -0.002 A 
ATOM      3  C4  UNL d   1       5.297   2.440   3.638  0.00  0.00     0.004 A 
ATOM      4  C5  UNL d   1       4.615   1.368   4.213  0.00  0.00    -0.004 A 
ATOM      5  C6  UNL d   1       3.848   1.557   5.368  0.00  0.00    -0.075 A 
ATOM      6  C7  UNL d   1       3.110   0.414   6.000  0.00  0.00     0.076 C 
ATOM      7  C8  UNL d   1       3.782   2.834   5.941  0.00  0.00     0.001 A 
ENDROOT
BRANCH   1   8
ATOM      8  C1  UNL d   1       4.385   5.286   5.997  0.00  0.00     0.053 C 
ATOM      9  C   UNL d   1       5.728   6.000   5.994  0.00  0.00     0.018 C 
ENDBRANCH   1   8
TORSDOF 1
ENDMDL
