MODEL 1
REMARK minimizedAffinity 17.0196323
REMARK minimizedRMSD -1
REMARK  1 active torsions:
REMARK  status: ('A' for Active; 'I' for Inactive)
REMARK    1  A    between atoms: C1_2  and  C2_3 
ROOT
ATOM      1  C2  UNL d   1       3.432   1.734  -1.223  0.00  0.00    -0.073 A 
ATOM      2  C3  UNL d   1       2.482   0.769  -0.870  0.00  0.00    -0.002 A 
ATOM      3  C4  UNL d   1       2.659  -0.564  -1.242  0.00  0.00     0.004 A 
ATOM      4  C5  UNL d   1       3.790  -0.947  -1.963  0.00  0.00    -0.004 A 
ATOM      5  C6  UNL d   1       4.757   0.001  -2.315  0.00  0.00    -0.075 A 
ATOM      6  C7  UNL d   1       5.978  -0.394  -3.092  0.00  0.00     0.076 C 
ATOM      7  C8  UNL d   1       4.570   1.338  -1.940  0.00  0.00     0.001 A 
ENDROOT
BRANCH   1   8
ATOM      8  C1  UNL d   1       3.247   3.174  -0.818  0.00  0.00     0.053 C 
ATOM      9  C   UNL d   1       4.361   3.655   0.099  0.00  0.00     0.018 C 
ENDBRANCH   1   8
TORSDOF 1
ENDMDL
