MODEL 1
REMARK minimizedAffinity 12.3016167
REMARK minimizedRMSD -1
REMARK  1 active torsions:
REMARK  status: ('A' for Active; 'I' for Inactive)
REMARK    1  A    between atoms: C1_2  and  C2_3 
ROOT
ATOM      1  C2  UNL d   1       3.352   4.670   5.499  0.00  0.00    -0.073 A 
ATOM      2  C3  UNL d   1       4.204   5.704   5.902  0.00  0.00    -0.002 A 
ATOM      3  C4  UNL d   1       5.523   5.749   5.447  0.00  0.00     0.004 A 
ATOM      4  C5  UNL d   1       6.000   4.766   4.580  0.00  0.00    -0.004 A 
ATOM      5  C6  UNL d   1       5.160   3.731   4.157  0.00  0.00    -0.075 A 
ATOM      6  C7  UNL d   1       5.659   2.664   3.227  0.00  0.00     0.076 C 
ATOM      7  C8  UNL d   1       3.838   3.691   4.621  0.00  0.00     0.001 A 
ENDROOT
BRANCH   1   8
ATOM      8  C1  UNL d   1       1.926   4.621   5.983  0.00  0.00     0.053 C 
ATOM      9  C   UNL d   1       1.282   5.998   6.000  0.00  0.00     0.018 C 
ENDBRANCH   1   8
TORSDOF 1
ENDMDL
