MODEL 1
REMARK minimizedAffinity 17.551878
REMARK minimizedRMSD -1
REMARK  1 active torsions:
REMARK  status: ('A' for Active; 'I' for Inactive)
REMARK    1  A    between atoms: C1_2  and  C2_3 
ROOT
ATOM      1  C2  UNL d   1      -1.731  -2.862  -1.726  0.00  0.00    -0.073 A 
ATOM      2  C3  UNL d   1      -2.427  -2.714  -0.521  0.00  0.00    -0.002 A 
ATOM      3  C4  UNL d   1      -3.118  -1.533  -0.247  0.00  0.00     0.004 A 
ATOM      4  C5  UNL d   1      -3.126  -0.492  -1.175  0.00  0.00    -0.004 A 
ATOM      5  C6  UNL d   1      -2.446  -0.626  -2.390  0.00  0.00    -0.075 A 
ATOM      6  C7  UNL d   1      -2.443   0.485  -3.399  0.00  0.00     0.076 C 
ATOM      7  C8  UNL d   1      -1.752  -1.814  -2.657  0.00  0.00     0.001 A 
ENDROOT
BRANCH   1   8
ATOM      8  C1  UNL d   1      -0.989  -4.138  -2.029  0.00  0.00     0.053 C 
ATOM      9  C   UNL d   1      -1.206  -5.193  -0.956  0.00  0.00     0.018 C 
ENDBRANCH   1   8
TORSDOF 1
ENDMDL
