MODEL 1
REMARK minimizedAffinity 12.3743906
REMARK minimizedRMSD -1
REMARK  1 active torsions:
REMARK  status: ('A' for Active; 'I' for Inactive)
REMARK    1  A    between atoms: C1_2  and  C2_3 
ROOT
ATOM      1  C2  UNL d   1       3.677   4.879   5.989  0.00  0.00    -0.073 A 
ATOM      2  C3  UNL d   1       5.048   5.156   5.972  0.00  0.00    -0.002 A 
ATOM      3  C4  UNL d   1       5.978   4.115   5.970  0.00  0.00     0.004 A 
ATOM      4  C5  UNL d   1       5.546   2.789   5.978  0.00  0.00    -0.004 A 
ATOM      5  C6  UNL d   1       4.180   2.492   5.983  0.00  0.00    -0.075 A 
ATOM      6  C7  UNL d   1       3.699   1.070   5.994  0.00  0.00     0.076 C 
ATOM      7  C8  UNL d   1       3.253   3.543   5.987  0.00  0.00     0.001 A 
ENDROOT
BRANCH   1   8
ATOM      8  C1  UNL d   1       2.669   6.000   5.984  0.00  0.00     0.053 C 
ATOM      9  C   UNL d   1       1.802   5.982   4.735  0.00  0.00     0.018 C 
ENDBRANCH   1   8
TORSDOF 1
ENDMDL
