MODEL 1
REMARK minimizedAffinity 7.82587337
REMARK minimizedRMSD -1
REMARK  1 active torsions:
REMARK  status: ('A' for Active; 'I' for Inactive)
REMARK    1  A    between atoms: C1_2  and  C2_3 
ROOT
ATOM      1  C2  UNL d   1      -0.489  -5.103   2.444  0.00  0.00    -0.073 A 
ATOM      2  C3  UNL d   1      -1.075  -6.000   1.544  0.00  0.00    -0.002 A 
ATOM      3  C4  UNL d   1      -1.418  -5.584   0.257  0.00  0.00     0.004 A 
ATOM      4  C5  UNL d   1      -1.174  -4.271  -0.145  0.00  0.00    -0.004 A 
ATOM      5  C6  UNL d   1      -0.578  -3.363   0.736  0.00  0.00    -0.075 A 
ATOM      6  C7  UNL d   1      -0.311  -1.946   0.320  0.00  0.00     0.076 C 
ATOM      7  C8  UNL d   1      -0.239  -3.787   2.028  0.00  0.00     0.001 A 
ENDROOT
BRANCH   1   8
ATOM      8  C1  UNL d   1      -0.110  -5.549   3.833  0.00  0.00     0.053 C 
ATOM      9  C   UNL d   1      -1.202  -5.245   4.847  0.00  0.00     0.018 C 
ENDBRANCH   1   8
TORSDOF 1
ENDMDL
