MODEL 1
REMARK minimizedAffinity 15.1204977
REMARK minimizedRMSD -1
REMARK  1 active torsions:
REMARK  status: ('A' for Active; 'I' for Inactive)
REMARK    1  A    between atoms: C1_2  and  C2_3 
ROOT
ATOM      1  C2  UNL d   1       4.732   3.953   3.887  0.00  0.00    -0.073 A 
ATOM      2  C3  UNL d   1       5.950   4.339   4.459  0.00  0.00    -0.002 A 
ATOM      3  C4  UNL d   1       5.976   5.259   5.508  0.00  0.00     0.004 A 
ATOM      4  C5  UNL d   1       4.787   5.797   6.000  0.00  0.00    -0.004 A 
ATOM      5  C6  UNL d   1       3.559   5.414   5.450  0.00  0.00    -0.075 A 
ATOM      6  C7  UNL d   1       2.271   5.985   5.966  0.00  0.00     0.076 C 
ATOM      7  C8  UNL d   1       3.541   4.492   4.395  0.00  0.00     0.001 A 
ENDROOT
BRANCH   1   8
ATOM      8  C1  UNL d   1       4.699   2.955   2.759  0.00  0.00     0.053 C 
ATOM      9  C   UNL d   1       4.109   3.550   1.489  0.00  0.00     0.018 C 
ENDBRANCH   1   8
TORSDOF 1
ENDMDL
