MODEL 1
REMARK minimizedAffinity 24.6624393
REMARK minimizedRMSD -1
REMARK  1 active torsions:
REMARK  status: ('A' for Active; 'I' for Inactive)
REMARK    1  A    between atoms: C1_2  and  C2_3 
ROOT
ATOM      1  C2  UNL d   1       3.414   2.596  -0.774  0.00  0.00    -0.073 A 
ATOM      2  C3  UNL d   1       3.608   2.372   0.593  0.00  0.00    -0.002 A 
ATOM      3  C4  UNL d   1       4.344   3.277   1.358  0.00  0.00     0.004 A 
ATOM      4  C5  UNL d   1       4.887   4.417   0.767  0.00  0.00    -0.004 A 
ATOM      5  C6  UNL d   1       4.694   4.665  -0.596  0.00  0.00    -0.075 A 
ATOM      6  C7  UNL d   1       5.274   5.886  -1.248  0.00  0.00     0.076 C 
ATOM      7  C8  UNL d   1       3.956   3.749  -1.358  0.00  0.00     0.001 A 
ENDROOT
BRANCH   1   8
ATOM      8  C1  UNL d   1       2.614   1.624  -1.603  0.00  0.00     0.053 C 
ATOM      9  C   UNL d   1       2.824   0.186  -1.157  0.00  0.00     0.018 C 
ENDBRANCH   1   8
TORSDOF 1
ENDMDL
