MODEL 1
REMARK minimizedAffinity 13.7625666
REMARK minimizedRMSD -1
REMARK  1 active torsions:
REMARK  status: ('A' for Active; 'I' for Inactive)
REMARK    1  A    between atoms: C1_2  and  C2_3 
ROOT
ATOM      1  C2  UNL d   1       4.585   3.178   5.375  0.00  0.00    -0.073 A 
ATOM      2  C3  UNL d   1       5.793   3.860   5.559  0.00  0.00    -0.002 A 
ATOM      3  C4  UNL d   1       5.796   5.228   5.832  0.00  0.00     0.004 A 
ATOM      4  C5  UNL d   1       4.593   5.927   5.929  0.00  0.00    -0.004 A 
ATOM      5  C6  UNL d   1       3.375   5.262   5.760  0.00  0.00    -0.075 A 
ATOM      6  C7  UNL d   1       2.072   5.999   5.859  0.00  0.00     0.076 C 
ATOM      7  C8  UNL d   1       3.380   3.888   5.484  0.00  0.00     0.001 A 
ENDROOT
BRANCH   1   8
ATOM      8  C1  UNL d   1       4.577   1.699   5.087  0.00  0.00     0.053 C 
ATOM      9  C   UNL d   1       3.367   1.007   5.695  0.00  0.00     0.018 C 
ENDBRANCH   1   8
TORSDOF 1
ENDMDL
