MODEL 1
REMARK minimizedAffinity 12.2251787
REMARK minimizedRMSD -1
REMARK  1 active torsions:
REMARK  status: ('A' for Active; 'I' for Inactive)
REMARK    1  A    between atoms: C1_2  and  C2_3 
ROOT
ATOM      1  C2  UNL d   1       4.551   2.948   5.963  0.00  0.00    -0.073 A 
ATOM      2  C3  UNL d   1       5.813   3.554   5.975  0.00  0.00    -0.002 A 
ATOM      3  C4  UNL d   1       5.926   4.945   5.986  0.00  0.00     0.004 A 
ATOM      4  C5  UNL d   1       4.782   5.743   5.993  0.00  0.00    -0.004 A 
ATOM      5  C6  UNL d   1       3.513   5.155   5.993  0.00  0.00    -0.075 A 
ATOM      6  C7  UNL d   1       2.272   5.999   5.998  0.00  0.00     0.076 C 
ATOM      7  C8  UNL d   1       3.407   3.758   5.979  0.00  0.00     0.001 A 
ENDROOT
BRANCH   1   8
ATOM      8  C1  UNL d   1       4.424   1.447   5.957  0.00  0.00     0.053 C 
ATOM      9  C   UNL d   1       2.972   0.998   5.998  0.00  0.00     0.018 C 
ENDBRANCH   1   8
TORSDOF 1
ENDMDL
