MODEL 1
REMARK minimizedAffinity 7.07788324
REMARK minimizedRMSD -1
REMARK  0 active torsions:
REMARK  status: ('A' for Active; 'I' for Inactive)
ROOT
ATOM      1  C   UNL d   1      -1.077  -3.909  -5.994  0.00  0.00     0.078 C 
ATOM      2  C1  UNL d   1      -0.828  -2.569  -5.368  0.00  0.00    -0.077 A 
ATOM      3  C2  UNL d   1      -0.019  -1.617  -6.000  0.00  0.00    -0.001 A 
ATOM      4  C3  UNL d   1       0.211  -0.377  -5.401  0.00  0.00     0.003 A 
ATOM      5  C4  UNL d   1      -0.363  -0.079  -4.167  0.00  0.00    -0.005 A 
ATOM      6  C5  UNL d   1      -1.168  -1.021  -3.530  0.00  0.00     0.003 A 
ATOM      7  C6  UNL d   1      -1.399  -2.261  -4.127  0.00  0.00    -0.001 A 
ENDROOT
TORSDOF 0
ENDMDL
