MODEL 1
REMARK minimizedAffinity 5.73379421
REMARK minimizedRMSD -1
REMARK  0 active torsions:
REMARK  status: ('A' for Active; 'I' for Inactive)
ROOT
ATOM      1  C   UNL d   1       0.738   0.206   2.908  0.00  0.00     0.078 C 
ATOM      2  C1  UNL d   1       1.766  -0.141   3.942  0.00  0.00    -0.077 A 
ATOM      3  C2  UNL d   1       2.660   0.825   4.422  0.00  0.00    -0.001 A 
ATOM      4  C3  UNL d   1       3.619   0.486   5.379  0.00  0.00     0.003 A 
ATOM      5  C4  UNL d   1       3.694  -0.819   5.862  0.00  0.00    -0.005 A 
ATOM      6  C5  UNL d   1       2.810  -1.787   5.389  0.00  0.00     0.003 A 
ATOM      7  C6  UNL d   1       1.851  -1.450   4.433  0.00  0.00    -0.001 A 
ENDROOT
TORSDOF 0
ENDMDL
