MODEL 1
REMARK minimizedAffinity 1.90986812
REMARK minimizedRMSD -1
REMARK  0 active torsions:
REMARK  status: ('A' for Active; 'I' for Inactive)
ROOT
ATOM      1  C   UNL d   1      -2.947   0.746   1.405  0.00  0.00     0.078 C 
ATOM      2  C1  UNL d   1      -1.615   0.270   1.905  0.00  0.00    -0.077 A 
ATOM      3  C2  UNL d   1      -0.848   1.055   2.774  0.00  0.00    -0.001 A 
ATOM      4  C3  UNL d   1       0.394   0.603   3.223  0.00  0.00     0.003 A 
ATOM      5  C4  UNL d   1       0.880  -0.635   2.808  0.00  0.00    -0.005 A 
ATOM      6  C5  UNL d   1       0.124  -1.422   1.941  0.00  0.00     0.003 A 
ATOM      7  C6  UNL d   1      -1.118  -0.972   1.491  0.00  0.00    -0.001 A 
ENDROOT
TORSDOF 0
ENDMDL
