MODEL 1
REMARK minimizedAffinity 3.86559415
REMARK minimizedRMSD -1
REMARK  0 active torsions:
REMARK  status: ('A' for Active; 'I' for Inactive)
ROOT
ATOM      1  C   UNL d   1       1.465  -3.002   4.730  0.00  0.00     0.078 C 
ATOM      2  C1  UNL d   1       0.935  -1.870   3.902  0.00  0.00    -0.077 A 
ATOM      3  C2  UNL d   1       1.727  -0.750   3.619  0.00  0.00    -0.001 A 
ATOM      4  C3  UNL d   1       1.217   0.301   2.855  0.00  0.00     0.003 A 
ATOM      5  C4  UNL d   1      -0.088   0.243   2.369  0.00  0.00    -0.005 A 
ATOM      6  C5  UNL d   1      -0.884  -0.866   2.647  0.00  0.00     0.003 A 
ATOM      7  C6  UNL d   1      -0.376  -1.918   3.411  0.00  0.00    -0.001 A 
ENDROOT
TORSDOF 0
ENDMDL
