MODEL 1
REMARK minimizedAffinity 9.66623974
REMARK minimizedRMSD -1
REMARK  0 active torsions:
REMARK  status: ('A' for Active; 'I' for Inactive)
ROOT
ATOM      1  C   UNL d   1       3.064   0.009  -4.091  0.00  0.00     0.078 C 
ATOM      2  C1  UNL d   1       1.662  -0.503  -3.948  0.00  0.00    -0.077 A 
ATOM      3  C2  UNL d   1       1.089  -0.693  -2.685  0.00  0.00    -0.001 A 
ATOM      4  C3  UNL d   1      -0.214  -1.179  -2.567  0.00  0.00     0.003 A 
ATOM      5  C4  UNL d   1      -0.955  -1.481  -3.708  0.00  0.00    -0.005 A 
ATOM      6  C5  UNL d   1      -0.392  -1.298  -4.969  0.00  0.00     0.003 A 
ATOM      7  C6  UNL d   1       0.911  -0.811  -5.089  0.00  0.00    -0.001 A 
ENDROOT
TORSDOF 0
ENDMDL
