MODEL 1
REMARK minimizedAffinity -5.79669237
REMARK minimizedRMSD -1
REMARK  1 active torsions:
REMARK  status: ('A' for Active; 'I' for Inactive)
REMARK    1  A    between atoms: N_2  and  C1_3 
ROOT
ATOM      1  C1  UNL d   1       0.239  -0.713  -0.220  0.00  0.00     0.143 A 
ATOM      2  C2  UNL d   1       0.428  -1.375  -1.438  0.00  0.00    -0.057 A 
ATOM      3  C3  UNL d   1       0.096  -2.727  -1.589  0.00  0.00     0.033 A 
ATOM      4  C4  UNL d   1      -0.405  -3.451  -0.512  0.00  0.00    -0.042 A 
ATOM      5  C5  UNL d   1      -0.578  -2.820   0.715  0.00  0.00     0.033 A 
ATOM      6  C6  UNL d   1      -0.251  -1.468   0.857  0.00  0.00    -0.057 A 
ENDROOT
BRANCH   1   7
ATOM      7  N   UNL d   1       0.641   0.603   0.021  0.00  0.00    -0.732 N 
ATOM      8  C   UNL d   1      -0.114   1.714  -0.517  0.00  0.00     0.284 C 
ATOM      9  H3  UNL d   1       0.962   0.742   0.976  0.00  0.00     0.395 HD
ENDBRANCH   1   7
TORSDOF 1
ENDMDL
