MODEL 1
REMARK minimizedAffinity -5.25020981
REMARK minimizedRMSD -1
REMARK  1 active torsions:
REMARK  status: ('A' for Active; 'I' for Inactive)
REMARK    1  A    between atoms: N_2  and  C1_3 
ROOT
ATOM      1  C1  UNL d   1      -0.008  -0.255  -0.024  0.00  0.00     0.143 A 
ATOM      2  C2  UNL d   1      -0.316  -0.858   1.201  0.00  0.00    -0.057 A 
ATOM      3  C3  UNL d   1      -0.188  -2.240   1.382  0.00  0.00     0.033 A 
ATOM      4  C4  UNL d   1       0.224  -3.050   0.329  0.00  0.00    -0.042 A 
ATOM      5  C5  UNL d   1       0.511  -2.476  -0.905  0.00  0.00     0.033 A 
ATOM      6  C6  UNL d   1       0.387  -1.094  -1.077  0.00  0.00    -0.057 A 
ENDROOT
BRANCH   1   7
ATOM      7  N   UNL d   1      -0.210   1.101  -0.296  0.00  0.00    -0.732 N 
ATOM      8  C   UNL d   1       0.794   2.081   0.060  0.00  0.00     0.284 C 
ATOM      9  H3  UNL d   1      -0.637   1.255  -1.206  0.00  0.00     0.395 HD
ENDBRANCH   1   7
TORSDOF 1
ENDMDL
