MODEL 1
REMARK minimizedAffinity -2.84467864
REMARK minimizedRMSD -1
REMARK  1 active torsions:
REMARK  status: ('A' for Active; 'I' for Inactive)
REMARK    1  A    between atoms: N_2  and  C1_3 
ROOT
ATOM      1  C1  UNL d   1      -0.449  -1.204   0.006  0.00  0.00     0.143 A 
ATOM      2  C2  UNL d   1      -0.020  -1.260  -1.324  0.00  0.00    -0.057 A 
ATOM      3  C3  UNL d   1       0.332  -0.099  -2.023  0.00  0.00     0.033 A 
ATOM      4  C4  UNL d   1       0.233   1.146  -1.411  0.00  0.00    -0.042 A 
ATOM      5  C5  UNL d   1      -0.215   1.228  -0.097  0.00  0.00     0.033 A 
ATOM      6  C6  UNL d   1      -0.559   0.064   0.598  0.00  0.00    -0.057 A 
ENDROOT
BRANCH   1   7
ATOM      7  N   UNL d   1      -0.906  -2.313   0.723  0.00  0.00    -0.732 N 
ATOM      8  C   UNL d   1      -1.439  -3.468   0.033  0.00  0.00     0.284 C 
ATOM      9  H3  UNL d   1      -0.305  -2.540   1.512  0.00  0.00     0.395 HD
ENDBRANCH   1   7
TORSDOF 1
ENDMDL
