MODEL 1
REMARK minimizedAffinity -4.49715424
REMARK minimizedRMSD -1
REMARK  1 active torsions:
REMARK  status: ('A' for Active; 'I' for Inactive)
REMARK    1  A    between atoms: N_2  and  C1_3 
ROOT
ATOM      1  C1  UNL d   1       0.513  -1.108  -0.443  0.00  0.00     0.143 A 
ATOM      2  C2  UNL d   1       0.008  -1.698   0.721  0.00  0.00    -0.057 A 
ATOM      3  C3  UNL d   1      -0.411  -3.034   0.734  0.00  0.00     0.033 A 
ATOM      4  C4  UNL d   1      -0.358  -3.798  -0.428  0.00  0.00    -0.042 A 
ATOM      5  C5  UNL d   1       0.117  -3.224  -1.602  0.00  0.00     0.033 A 
ATOM      6  C6  UNL d   1       0.539  -1.891  -1.607  0.00  0.00    -0.057 A 
ENDROOT
BRANCH   1   7
ATOM      7  N   UNL d   1       0.852   0.244  -0.545  0.00  0.00    -0.732 N 
ATOM      8  C   UNL d   1      -0.038   1.267  -0.042  0.00  0.00     0.284 C 
ATOM      9  H3  UNL d   1       1.835   0.413  -0.345  0.00  0.00     0.395 HD
ENDBRANCH   1   7
TORSDOF 1
ENDMDL
