MODEL 1
REMARK minimizedAffinity -5.27711773
REMARK minimizedRMSD -1
REMARK  1 active torsions:
REMARK  status: ('A' for Active; 'I' for Inactive)
REMARK    1  A    between atoms: N_2  and  C1_3 
ROOT
ATOM      1  C1  UNL d   1       0.015  -0.806  -0.671  0.00  0.00     0.143 A 
ATOM      2  C2  UNL d   1      -0.040  -1.419   0.585  0.00  0.00    -0.057 A 
ATOM      3  C3  UNL d   1       0.011  -2.812   0.715  0.00  0.00     0.033 A 
ATOM      4  C4  UNL d   1       0.089  -3.620  -0.414  0.00  0.00    -0.042 A 
ATOM      5  C5  UNL d   1       0.119  -3.033  -1.674  0.00  0.00     0.033 A 
ATOM      6  C6  UNL d   1       0.075  -1.641  -1.798  0.00  0.00    -0.057 A 
ENDROOT
BRANCH   1   7
ATOM      7  N   UNL d   1      -0.131   0.569  -0.873  0.00  0.00    -0.732 N 
ATOM      8  C   UNL d   1       0.609   1.515  -0.065  0.00  0.00     0.284 C 
ATOM      9  H3  UNL d   1      -0.181   0.814  -1.859  0.00  0.00     0.395 HD
ENDBRANCH   1   7
TORSDOF 1
ENDMDL
