MODEL 1
REMARK minimizedAffinity -5.28400946
REMARK minimizedRMSD -1
REMARK  1 active torsions:
REMARK  status: ('A' for Active; 'I' for Inactive)
REMARK    1  A    between atoms: N_2  and  C1_3 
ROOT
ATOM      1  C1  UNL d   1      -0.461   0.124   0.066  0.00  0.00     0.143 A 
ATOM      2  C2  UNL d   1       0.223  -1.007  -0.392  0.00  0.00    -0.057 A 
ATOM      3  C3  UNL d   1       0.272  -2.183   0.366  0.00  0.00     0.033 A 
ATOM      4  C4  UNL d   1      -0.339  -2.239   1.614  0.00  0.00    -0.042 A 
ATOM      5  C5  UNL d   1      -1.003  -1.119   2.102  0.00  0.00     0.033 A 
ATOM      6  C6  UNL d   1      -1.055   0.050   1.336  0.00  0.00    -0.057 A 
ENDROOT
BRANCH   1   7
ATOM      7  N   UNL d   1      -0.463   1.353  -0.596  0.00  0.00    -0.732 N 
ATOM      8  C   UNL d   1       0.264   2.482  -0.058  0.00  0.00     0.284 C 
ATOM      9  H3  UNL d   1      -0.384   1.251  -1.606  0.00  0.00     0.395 HD
ENDBRANCH   1   7
TORSDOF 1
ENDMDL
