MODEL 1
REMARK minimizedAffinity -5.57241297
REMARK minimizedRMSD -1
REMARK  1 active torsions:
REMARK  status: ('A' for Active; 'I' for Inactive)
REMARK    1  A    between atoms: N_2  and  C1_3 
ROOT
ATOM      1  C1  UNL d   1      -0.406  -0.350  -0.496  0.00  0.00     0.143 A 
ATOM      2  C2  UNL d   1      -0.660  -0.930   0.751  0.00  0.00    -0.057 A 
ATOM      3  C3  UNL d   1      -0.482  -2.303   0.963  0.00  0.00     0.033 A 
ATOM      4  C4  UNL d   1      -0.074  -3.126  -0.081  0.00  0.00    -0.042 A 
ATOM      5  C5  UNL d   1       0.161  -2.575  -1.336  0.00  0.00     0.033 A 
ATOM      6  C6  UNL d   1      -0.012  -1.203  -1.539  0.00  0.00    -0.057 A 
ENDROOT
BRANCH   1   7
ATOM      7  N   UNL d   1      -0.658   0.991  -0.796  0.00  0.00    -0.732 N 
ATOM      8  C   UNL d   1       0.148   2.042  -0.212  0.00  0.00     0.284 C 
ATOM      9  H3  UNL d   1      -0.880   1.135  -1.779  0.00  0.00     0.395 HD
ENDBRANCH   1   7
TORSDOF 1
ENDMDL
