MODEL 1
REMARK minimizedAffinity -4.92619801
REMARK minimizedRMSD -1
REMARK  1 active torsions:
REMARK  status: ('A' for Active; 'I' for Inactive)
REMARK    1  A    between atoms: N_2  and  C1_3 
ROOT
ATOM      1  C1  UNL d   1       0.437  -0.957  -0.754  0.00  0.00     0.143 A 
ATOM      2  C2  UNL d   1      -0.075  -1.571   0.394  0.00  0.00    -0.057 A 
ATOM      3  C3  UNL d   1      -0.224  -2.961   0.468  0.00  0.00     0.033 A 
ATOM      4  C4  UNL d   1       0.111  -3.762  -0.618  0.00  0.00    -0.042 A 
ATOM      5  C5  UNL d   1       0.599  -3.171  -1.779  0.00  0.00     0.033 A 
ATOM      6  C6  UNL d   1       0.751  -1.783  -1.845  0.00  0.00    -0.057 A 
ENDROOT
BRANCH   1   7
ATOM      7  N   UNL d   1       0.517   0.427  -0.927  0.00  0.00    -0.732 N 
ATOM      8  C   UNL d   1      -0.218   1.322  -0.058  0.00  0.00     0.284 C 
ATOM      9  H3  UNL d   1       1.462   0.739  -1.140  0.00  0.00     0.395 HD
ENDBRANCH   1   7
TORSDOF 1
ENDMDL
