MODEL 1
REMARK minimizedAffinity -3.2782414
REMARK minimizedRMSD -1
REMARK  1 active torsions:
REMARK  status: ('A' for Active; 'I' for Inactive)
REMARK    1  A    between atoms: N_2  and  C1_3 
ROOT
ATOM      1  C1  UNL d   1      -0.060  -0.955   0.010  0.00  0.00     0.143 A 
ATOM      2  C2  UNL d   1      -0.399  -2.157   0.640  0.00  0.00    -0.057 A 
ATOM      3  C3  UNL d   1      -0.405  -3.369  -0.061  0.00  0.00     0.033 A 
ATOM      4  C4  UNL d   1      -0.100  -3.395  -1.418  0.00  0.00    -0.042 A 
ATOM      5  C5  UNL d   1       0.216  -2.209  -2.071  0.00  0.00     0.033 A 
ATOM      6  C6  UNL d   1       0.227  -1.003  -1.363  0.00  0.00    -0.057 A 
ENDROOT
BRANCH   1   7
ATOM      7  N   UNL d   1      -0.132   0.295   0.629  0.00  0.00    -0.732 N 
ATOM      8  C   UNL d   1      -0.081   1.510  -0.155  0.00  0.00     0.284 C 
ATOM      9  H3  UNL d   1      -0.813   0.316   1.385  0.00  0.00     0.395 HD
ENDBRANCH   1   7
TORSDOF 1
ENDMDL
