MODEL 1
REMARK minimizedAffinity -0.527790606
REMARK minimizedRMSD -1
REMARK  1 active torsions:
REMARK  status: ('A' for Active; 'I' for Inactive)
REMARK    1  A    between atoms: C3_4  and  O_7 
ROOT
ATOM      1  C   UNL d   1       1.965  -2.035  -0.192  0.00  0.00    -0.033 A 
ATOM      2  C1  UNL d   1       0.601  -1.766  -0.324  0.00  0.00     0.039 A 
ATOM      3  C2  UNL d   1       0.132  -0.456  -0.211  0.00  0.00    -0.080 A 
ATOM      4  C3  UNL d   1       1.036   0.575   0.032  0.00  0.00     0.150 A 
ATOM      5  C4  UNL d   1       2.396   0.315   0.161  0.00  0.00    -0.007 A 
ATOM      6  C5  UNL d   1       2.862  -0.995   0.049  0.00  0.00     0.039 A 
ENDROOT
BRANCH   4   7
ATOM      7  O   UNL d   1       0.624   1.869   0.155  0.00  0.00    -0.526 OA
ATOM      8  H5  UNL d   1      -0.343   1.894   0.072  0.00  0.00     0.418 HD
ENDBRANCH   4   7
TORSDOF 1
ENDMDL
