MODEL 1
REMARK minimizedAffinity -0.48820281
REMARK minimizedRMSD -1
REMARK  1 active torsions:
REMARK  status: ('A' for Active; 'I' for Inactive)
REMARK    1  A    between atoms: C3_4  and  O_7 
ROOT
ATOM      1  C   UNL d   1       0.303   1.024   0.226  0.00  0.00    -0.033 A 
ATOM      2  C1  UNL d   1      -0.256   1.834   1.217  0.00  0.00     0.039 A 
ATOM      3  C2  UNL d   1      -1.606   1.704   1.548  0.00  0.00    -0.080 A 
ATOM      4  C3  UNL d   1      -2.385   0.761   0.882  0.00  0.00     0.150 A 
ATOM      5  C4  UNL d   1      -1.834  -0.051  -0.103  0.00  0.00    -0.007 A 
ATOM      6  C5  UNL d   1      -0.486   0.081  -0.433  0.00  0.00     0.039 A 
ENDROOT
BRANCH   4   7
ATOM      7  O   UNL d   1      -3.708   0.601   1.168  0.00  0.00    -0.526 OA
ATOM      8  H5  UNL d   1      -3.957   1.249   1.848  0.00  0.00     0.418 HD
ENDBRANCH   4   7
TORSDOF 1
ENDMDL
