MODEL 1
REMARK minimizedAffinity -0.0607766844
REMARK minimizedRMSD -1
REMARK  1 active torsions:
REMARK  status: ('A' for Active; 'I' for Inactive)
REMARK    1  A    between atoms: C3_4  and  O_7 
ROOT
ATOM      1  C   UNL d   1       0.277  -1.905  -0.642  0.00  0.00    -0.033 A 
ATOM      2  C1  UNL d   1      -0.748  -0.957  -0.655  0.00  0.00     0.039 A 
ATOM      3  C2  UNL d   1      -0.465   0.383  -0.388  0.00  0.00    -0.080 A 
ATOM      4  C3  UNL d   1       0.846   0.763  -0.110  0.00  0.00     0.150 A 
ATOM      5  C4  UNL d   1       1.873  -0.176  -0.100  0.00  0.00    -0.007 A 
ATOM      6  C5  UNL d   1       1.587  -1.514  -0.366  0.00  0.00     0.039 A 
ENDROOT
BRANCH   4   7
ATOM      7  O   UNL d   1       1.171   2.059   0.161  0.00  0.00    -0.526 OA
ATOM      8  H5  UNL d   1       0.356   2.589   0.146  0.00  0.00     0.418 HD
ENDBRANCH   4   7
TORSDOF 1
ENDMDL
