MODEL 1
REMARK minimizedAffinity -3.65453696
REMARK minimizedRMSD -1
REMARK  1 active torsions:
REMARK  status: ('A' for Active; 'I' for Inactive)
REMARK    1  A    between atoms: C3_4  and  O_7 
ROOT
ATOM      1  C   UNL d   1       0.006  -0.745  -0.346  0.00  0.00    -0.033 A 
ATOM      2  C1  UNL d   1       0.832  -1.532  -1.151  0.00  0.00     0.039 A 
ATOM      3  C2  UNL d   1       2.114  -1.872  -0.717  0.00  0.00    -0.080 A 
ATOM      4  C3  UNL d   1       2.559  -1.420   0.523  0.00  0.00     0.150 A 
ATOM      5  C4  UNL d   1       1.740  -0.638   1.331  0.00  0.00    -0.007 A 
ATOM      6  C5  UNL d   1       0.460  -0.299   0.896  0.00  0.00     0.039 A 
ENDROOT
BRANCH   4   7
ATOM      7  O   UNL d   1       3.805  -1.722   0.987  0.00  0.00    -0.526 OA
ATOM      8  H5  UNL d   1       4.267  -2.243   0.310  0.00  0.00     0.418 HD
ENDBRANCH   4   7
TORSDOF 1
ENDMDL
