MODEL 1
REMARK minimizedAffinity -3.24440074
REMARK minimizedRMSD -1
REMARK  1 active torsions:
REMARK  status: ('A' for Active; 'I' for Inactive)
REMARK    1  A    between atoms: C3_4  and  O_7 
ROOT
ATOM      1  C   UNL d   1      -1.189  -0.168  -0.584  0.00  0.00    -0.033 A 
ATOM      2  C1  UNL d   1      -0.649   0.005   0.692  0.00  0.00     0.039 A 
ATOM      3  C2  UNL d   1       0.609  -0.520   0.996  0.00  0.00    -0.080 A 
ATOM      4  C3  UNL d   1       1.315  -1.214   0.017  0.00  0.00     0.150 A 
ATOM      5  C4  UNL d   1       0.785  -1.386  -1.257  0.00  0.00    -0.007 A 
ATOM      6  C5  UNL d   1      -0.472  -0.861  -1.559  0.00  0.00     0.039 A 
ENDROOT
BRANCH   4   7
ATOM      7  O   UNL d   1       2.544  -1.748   0.269  0.00  0.00    -0.526 OA
ATOM      8  H5  UNL d   1       2.770  -1.576   1.198  0.00  0.00     0.418 HD
ENDBRANCH   4   7
TORSDOF 1
ENDMDL
