MODEL 1
REMARK minimizedAffinity -1.93768895
REMARK minimizedRMSD -1
REMARK  0 active torsions:
REMARK  status: ('A' for Active; 'I' for Inactive)
ROOT
ATOM      1  C   UNL d   1      -2.110   2.013   1.529  0.00  0.00     0.023 A 
ATOM      2  C1  UNL d   1      -1.401   1.024   2.211  0.00  0.00     0.003 A 
ATOM      3  C2  UNL d   1      -0.612   0.115   1.504  0.00  0.00     0.048 A 
ATOM      4  C3  UNL d   1      -0.535   0.201   0.114  0.00  0.00     0.023 A 
ATOM      5  C4  UNL d   1      -1.242   1.189  -0.573  0.00  0.00     0.048 A 
ATOM      6  C5  UNL d   1      -2.030   2.096   0.138  0.00  0.00     0.003 A 
ATOM      7  I   UNL d   1       0.639  -1.151  -0.941  0.00  0.00    -0.146 I 
ENDROOT
TORSDOF 0
ENDMDL
