MODEL 1
REMARK minimizedAffinity -5.22640085
REMARK minimizedRMSD -1
REMARK  0 active torsions:
REMARK  status: ('A' for Active; 'I' for Inactive)
ROOT
ATOM      1  C   UNL d   1      -1.445   1.992   1.358  0.00  0.00     0.023 A 
ATOM      2  C1  UNL d   1      -1.120   2.255   0.027  0.00  0.00     0.003 A 
ATOM      3  C2  UNL d   1      -0.500   1.273  -0.749  0.00  0.00     0.048 A 
ATOM      4  C3  UNL d   1      -0.211   0.030  -0.188  0.00  0.00     0.023 A 
ATOM      5  C4  UNL d   1      -0.535  -0.238   1.143  0.00  0.00     0.048 A 
ATOM      6  C5  UNL d   1      -1.153   0.747   1.915  0.00  0.00     0.003 A 
ATOM      7  I   UNL d   1       0.710  -1.434  -1.341  0.00  0.00    -0.146 I 
ENDROOT
TORSDOF 0
ENDMDL
