MODEL 1
REMARK minimizedAffinity -0.365621686
REMARK minimizedRMSD -1
REMARK  0 active torsions:
REMARK  status: ('A' for Active; 'I' for Inactive)
ROOT
ATOM      1  C   UNL d   1       0.778  -3.444  -4.192  0.00  0.00     0.023 A 
ATOM      2  C1  UNL d   1       0.572  -4.025  -2.941  0.00  0.00     0.003 A 
ATOM      3  C2  UNL d   1       0.521  -3.224  -1.798  0.00  0.00     0.048 A 
ATOM      4  C3  UNL d   1       0.676  -1.843  -1.914  0.00  0.00     0.023 A 
ATOM      5  C4  UNL d   1       0.881  -1.257  -3.164  0.00  0.00     0.048 A 
ATOM      6  C5  UNL d   1       0.932  -2.062  -4.304  0.00  0.00     0.003 A 
ATOM      7  I   UNL d   1       0.600  -0.649  -0.214  0.00  0.00    -0.146 I 
ENDROOT
TORSDOF 0
ENDMDL
