MODEL 1
REMARK minimizedAffinity -4.44705725
REMARK minimizedRMSD -1
REMARK  0 active torsions:
REMARK  status: ('A' for Active; 'I' for Inactive)
ROOT
ATOM      1  C   UNL d   1       1.378   0.112  -1.080  0.00  0.00     0.023 A 
ATOM      2  C1  UNL d   1       0.961   1.423  -1.310  0.00  0.00     0.003 A 
ATOM      3  C2  UNL d   1      -0.047   1.985  -0.524  0.00  0.00     0.048 A 
ATOM      4  C3  UNL d   1      -0.634   1.230   0.491  0.00  0.00     0.023 A 
ATOM      5  C4  UNL d   1      -0.219  -0.082   0.726  0.00  0.00     0.048 A 
ATOM      6  C5  UNL d   1       0.788  -0.640  -0.063  0.00  0.00     0.003 A 
ATOM      7  I   UNL d   1      -2.134   2.064   1.662  0.00  0.00    -0.146 I 
ENDROOT
TORSDOF 0
ENDMDL
