MODEL 1
REMARK minimizedAffinity -3.46872258
REMARK minimizedRMSD -1
REMARK  0 active torsions:
REMARK  status: ('A' for Active; 'I' for Inactive)
ROOT
ATOM      1  C   UNL d   1       0.331   2.923  -1.839  0.00  0.00     0.023 A 
ATOM      2  C1  UNL d   1      -0.860   2.537  -1.224  0.00  0.00     0.003 A 
ATOM      3  C2  UNL d   1      -0.893   1.397  -0.418  0.00  0.00     0.048 A 
ATOM      4  C3  UNL d   1       0.269   0.648  -0.231  0.00  0.00     0.023 A 
ATOM      5  C4  UNL d   1       1.463   1.032  -0.844  0.00  0.00     0.048 A 
ATOM      6  C5  UNL d   1       1.491   2.172  -1.650  0.00  0.00     0.003 A 
ATOM      7  I   UNL d   1       0.222  -1.049   0.967  0.00  0.00    -0.146 I 
ENDROOT
TORSDOF 0
ENDMDL
