MODEL 1
REMARK minimizedAffinity -1.62940288
REMARK minimizedRMSD -1
REMARK  0 active torsions:
REMARK  status: ('A' for Active; 'I' for Inactive)
ROOT
ATOM      1  C   UNL d   1      -1.607   2.844   1.540  0.00  0.00     0.023 A 
ATOM      2  C1  UNL d   1      -1.675   1.545   2.042  0.00  0.00     0.003 A 
ATOM      3  C2  UNL d   1      -1.008   0.506   1.389  0.00  0.00     0.048 A 
ATOM      4  C3  UNL d   1      -0.273   0.774   0.235  0.00  0.00     0.023 A 
ATOM      5  C4  UNL d   1      -0.201   2.073  -0.271  0.00  0.00     0.048 A 
ATOM      6  C5  UNL d   1      -0.871   3.108   0.385  0.00  0.00     0.003 A 
ATOM      7  I   UNL d   1       0.721  -0.769  -0.738  0.00  0.00    -0.146 I 
ENDROOT
TORSDOF 0
ENDMDL
