MODEL 1
REMARK minimizedAffinity -2.9198935
REMARK minimizedRMSD -1
REMARK  0 active torsions:
REMARK  status: ('A' for Active; 'I' for Inactive)
ROOT
ATOM      1  C   UNL d   1      -1.517  -0.435   2.175  0.00  0.00     0.023 A 
ATOM      2  C1  UNL d   1      -2.307   0.714   2.207  0.00  0.00     0.003 A 
ATOM      3  C2  UNL d   1      -1.950   1.831   1.448  0.00  0.00     0.048 A 
ATOM      4  C3  UNL d   1      -0.802   1.791   0.657  0.00  0.00     0.023 A 
ATOM      5  C4  UNL d   1      -0.009   0.643   0.621  0.00  0.00     0.048 A 
ATOM      6  C5  UNL d   1      -0.369  -0.471   1.383  0.00  0.00     0.003 A 
ATOM      7  I   UNL d   1      -0.268   3.451  -0.474  0.00  0.00    -0.146 I 
ENDROOT
TORSDOF 0
ENDMDL
