MODEL 1
REMARK minimizedAffinity -1.77620351
REMARK minimizedRMSD -1
REMARK  0 active torsions:
REMARK  status: ('A' for Active; 'I' for Inactive)
ROOT
ATOM      1  C   UNL d   1       1.003  -3.799  -3.010  0.00  0.00     0.023 A 
ATOM      2  C1  UNL d   1       1.616  -3.768  -1.757  0.00  0.00     0.003 A 
ATOM      3  C2  UNL d   1       1.375  -2.703  -0.886  0.00  0.00     0.048 A 
ATOM      4  C3  UNL d   1       0.519  -1.673  -1.274  0.00  0.00     0.023 A 
ATOM      5  C4  UNL d   1      -0.097  -1.700  -2.527  0.00  0.00     0.048 A 
ATOM      6  C5  UNL d   1       0.148  -2.766  -3.394  0.00  0.00     0.003 A 
ATOM      7  I   UNL d   1       0.158  -0.087   0.020  0.00  0.00    -0.146 I 
ENDROOT
TORSDOF 0
ENDMDL
