MODEL 1
REMARK minimizedAffinity -2.98475122
REMARK minimizedRMSD -1
REMARK  0 active torsions:
REMARK  status: ('A' for Active; 'I' for Inactive)
ROOT
ATOM      1  C   UNL d   1      -1.786   2.576   1.629  0.00  0.00     0.023 A 
ATOM      2  C1  UNL d   1      -2.049   2.152   0.326  0.00  0.00     0.003 A 
ATOM      3  C2  UNL d   1      -1.350   1.071  -0.213  0.00  0.00     0.048 A 
ATOM      4  C3  UNL d   1      -0.389   0.416   0.556  0.00  0.00     0.023 A 
ATOM      5  C4  UNL d   1      -0.122   0.836   1.861  0.00  0.00     0.048 A 
ATOM      6  C5  UNL d   1      -0.824   1.918   2.395  0.00  0.00     0.003 A 
ATOM      7  I   UNL d   1       0.654  -1.194  -0.244  0.00  0.00    -0.146 I 
ENDROOT
TORSDOF 0
ENDMDL
