MODEL 1
REMARK minimizedAffinity -4.43647575
REMARK minimizedRMSD -1
REMARK  0 active torsions:
REMARK  status: ('A' for Active; 'I' for Inactive)
ROOT
ATOM      1  C   UNL d   1      -1.532   1.344   1.623  0.00  0.00     0.023 A 
ATOM      2  C1  UNL d   1      -0.794   0.310   2.199  0.00  0.00     0.003 A 
ATOM      3  C2  UNL d   1      -0.039  -0.545   1.392  0.00  0.00     0.048 A 
ATOM      4  C3  UNL d   1      -0.027  -0.359   0.011  0.00  0.00     0.023 A 
ATOM      5  C4  UNL d   1      -0.763   0.675  -0.570  0.00  0.00     0.048 A 
ATOM      6  C5  UNL d   1      -1.517   1.526   0.240  0.00  0.00     0.003 A 
ATOM      7  I   UNL d   1       1.096  -1.629  -1.192  0.00  0.00    -0.146 I 
ENDROOT
TORSDOF 0
ENDMDL
