MODEL 1
REMARK minimizedAffinity -2.52011108
REMARK minimizedRMSD -1
REMARK  0 active torsions:
REMARK  status: ('A' for Active; 'I' for Inactive)
ROOT
ATOM      1  C   UNL d   1      -1.543   1.337   1.380  0.00  0.00     0.023 A 
ATOM      2  C1  UNL d   1      -1.415   1.638   0.024  0.00  0.00     0.003 A 
ATOM      3  C2  UNL d   1      -0.651   0.815  -0.806  0.00  0.00     0.048 A 
ATOM      4  C3  UNL d   1      -0.019  -0.308  -0.273  0.00  0.00     0.023 A 
ATOM      5  C4  UNL d   1      -0.145  -0.614   1.083  0.00  0.00     0.048 A 
ATOM      6  C5  UNL d   1      -0.909   0.213   1.909  0.00  0.00     0.003 A 
ATOM      7  I   UNL d   1       1.119  -1.535  -1.507  0.00  0.00    -0.146 I 
ENDROOT
TORSDOF 0
ENDMDL
