MODEL 1
REMARK minimizedAffinity -3.28677058
REMARK minimizedRMSD -1
REMARK  0 active torsions:
REMARK  status: ('A' for Active; 'I' for Inactive)
ROOT
ATOM      1  C   UNL d   1       0.782  -2.411  -2.416  0.00  0.00     0.023 A 
ATOM      2  C1  UNL d   1       1.655  -1.719  -1.576  0.00  0.00     0.003 A 
ATOM      3  C2  UNL d   1       1.160  -1.036  -0.463  0.00  0.00     0.048 A 
ATOM      4  C3  UNL d   1      -0.208  -1.050  -0.195  0.00  0.00     0.023 A 
ATOM      5  C4  UNL d   1      -1.085  -1.742  -1.032  0.00  0.00     0.048 A 
ATOM      6  C5  UNL d   1      -0.586  -2.423  -2.144  0.00  0.00     0.003 A 
ATOM      7  I   UNL d   1      -0.947  -0.035   1.461  0.00  0.00    -0.146 I 
ENDROOT
TORSDOF 0
ENDMDL
