MODEL 1
REMARK minimizedAffinity -4.10493183
REMARK minimizedRMSD -1
REMARK  2 active torsions:
REMARK  status: ('A' for Active; 'I' for Inactive)
REMARK    1  A    between atoms: C2'_3  and  C1'_4 
REMARK    2  A    between atoms: C1'_4  and  C1_5 
ROOT
ATOM      1  C1  I4B d   1       5.204   4.747  -4.543  0.00  0.00    -0.075 A 
ATOM      2  C2  I4B d   1       3.889   5.142  -4.533  0.00  0.00     0.003 A 
ATOM      3  C3  I4B d   1       3.330   5.728  -3.372  0.00  0.00     0.002 A 
ATOM      4  C4  I4B d   1       4.102   5.855  -2.235  0.00  0.00    -0.004 A 
ATOM      5  C5  I4B d   1       5.441   5.475  -2.255  0.00  0.00     0.002 A 
ATOM      6  C6  I4B d   1       6.000   4.929  -3.420  0.00  0.00     0.003 A 
ENDROOT
BRANCH   1   7
ATOM      7  C1' I4B d   1       5.753   4.101  -5.776  0.00  0.00     0.060 C 
BRANCH   7   8
ATOM      8  C2' I4B d   1       5.127   2.727  -5.900  0.00  0.00    -0.013 C 
ATOM      9  C4' I4B d   1       5.999   1.672  -5.271  0.00  0.00     0.013 C 
ATOM     10  C3' I4B d   1       3.777   2.772  -5.250  0.00  0.00     0.013 C 
ENDBRANCH   7   8
ENDBRANCH   1   7
TORSDOF 2
ENDMDL
