MODEL 1
REMARK minimizedAffinity -5.41020203
REMARK minimizedRMSD -1
REMARK  2 active torsions:
REMARK  status: ('A' for Active; 'I' for Inactive)
REMARK    1  A    between atoms: C2'_3  and  C1'_4 
REMARK    2  A    between atoms: C1'_4  and  C1_5 
ROOT
ATOM      1  C1  I4B d   1       4.946   4.594  -4.575  0.00  0.00    -0.075 A 
ATOM      2  C2  I4B d   1       6.000   4.475  -3.703  0.00  0.00     0.003 A 
ATOM      3  C3  I4B d   1       5.956   5.114  -2.441  0.00  0.00     0.002 A 
ATOM      4  C4  I4B d   1       4.869   5.899  -2.114  0.00  0.00    -0.004 A 
ATOM      5  C5  I4B d   1       3.792   6.000  -2.989  0.00  0.00     0.002 A 
ATOM      6  C6  I4B d   1       3.825   5.334  -4.223  0.00  0.00     0.003 A 
ENDROOT
BRANCH   1   7
ATOM      7  C1' I4B d   1       5.040   3.933  -5.914  0.00  0.00     0.060 C 
BRANCH   7   8
ATOM      8  C2' I4B d   1       4.264   2.633  -5.848  0.00  0.00    -0.013 C 
ATOM      9  C4' I4B d   1       5.138   1.499  -5.380  0.00  0.00     0.013 C 
ATOM     10  C3' I4B d   1       3.100   2.836  -4.924  0.00  0.00     0.013 C 
ENDBRANCH   7   8
ENDBRANCH   1   7
TORSDOF 2
ENDMDL
