MODEL 1
REMARK minimizedAffinity 12.205368
REMARK minimizedRMSD -1
REMARK  2 active torsions:
REMARK  status: ('A' for Active; 'I' for Inactive)
REMARK    1  A    between atoms: C2'_3  and  C1'_4 
REMARK    2  A    between atoms: C1'_4  and  C1_5 
ROOT
ATOM      1  C1  I4B d   1      -0.418  -2.286  -0.975  0.00  0.00    -0.075 A 
ATOM      2  C2  I4B d   1       0.221  -3.251  -0.237  0.00  0.00     0.003 A 
ATOM      3  C3  I4B d   1      -0.184  -3.516   1.094  0.00  0.00     0.002 A 
ATOM      4  C4  I4B d   1      -1.192  -2.763   1.660  0.00  0.00    -0.004 A 
ATOM      5  C5  I4B d   1      -1.855  -1.801   0.903  0.00  0.00     0.002 A 
ATOM      6  C6  I4B d   1      -1.474  -1.569  -0.427  0.00  0.00     0.003 A 
ENDROOT
BRANCH   1   7
ATOM      7  C1' I4B d   1       0.057  -2.009  -2.366  0.00  0.00     0.060 C 
BRANCH   7   8
ATOM      8  C2' I4B d   1      -0.011  -3.304  -3.149  0.00  0.00    -0.013 C 
ATOM      9  C4' I4B d   1      -1.148  -3.285  -4.136  0.00  0.00     0.013 C 
ATOM     10  C3' I4B d   1       1.305  -3.496  -3.842  0.00  0.00     0.013 C 
ENDBRANCH   7   8
ENDBRANCH   1   7
TORSDOF 2
ENDMDL
