MODEL 1
REMARK minimizedAffinity 2.54312015
REMARK minimizedRMSD -1
REMARK  2 active torsions:
REMARK  status: ('A' for Active; 'I' for Inactive)
REMARK    1  A    between atoms: C2'_3  and  C1'_4 
REMARK    2  A    between atoms: C1'_4  and  C1_5 
ROOT
ATOM      1  C1  I4B d   1       4.255  -3.009  -3.344  0.00  0.00    -0.075 A 
ATOM      2  C2  I4B d   1       4.121  -2.140  -2.289  0.00  0.00     0.003 A 
ATOM      3  C3  I4B d   1       4.947  -2.274  -1.146  0.00  0.00     0.002 A 
ATOM      4  C4  I4B d   1       5.850  -3.315  -1.079  0.00  0.00    -0.004 A 
ATOM      5  C5  I4B d   1       6.000  -4.181  -2.159  0.00  0.00     0.002 A 
ATOM      6  C6  I4B d   1       5.206  -4.020  -3.304  0.00  0.00     0.003 A 
ENDROOT
BRANCH   1   7
ATOM      7  C1' I4B d   1       3.344  -2.858  -4.521  0.00  0.00     0.060 C 
BRANCH   7   8
ATOM      8  C2' I4B d   1       2.078  -3.639  -4.235  0.00  0.00    -0.013 C 
ATOM      9  C4' I4B d   1       1.158  -2.871  -3.323  0.00  0.00     0.013 C 
ATOM     10  C3' I4B d   1       1.414  -3.941  -5.545  0.00  0.00     0.013 C 
ENDBRANCH   7   8
ENDBRANCH   1   7
TORSDOF 2
ENDMDL
