MODEL 1
REMARK minimizedAffinity 0.0694305822
REMARK minimizedRMSD -1
REMARK  2 active torsions:
REMARK  status: ('A' for Active; 'I' for Inactive)
REMARK    1  A    between atoms: C2'_3  and  C1'_4 
REMARK    2  A    between atoms: C1'_4  and  C1_5 
ROOT
ATOM      1  C1  I4B d   1       1.373  -1.272  -1.830  0.00  0.00    -0.075 A 
ATOM      2  C2  I4B d   1       1.679  -0.299  -0.911  0.00  0.00     0.003 A 
ATOM      3  C3  I4B d   1       3.028  -0.056  -0.554  0.00  0.00     0.002 A 
ATOM      4  C4  I4B d   1       4.027  -0.837  -1.099  0.00  0.00    -0.004 A 
ATOM      5  C5  I4B d   1       3.716  -1.807  -2.048  0.00  0.00     0.002 A 
ATOM      6  C6  I4B d   1       2.382  -2.018  -2.425  0.00  0.00     0.003 A 
ENDROOT
BRANCH   1   7
ATOM      7  C1' I4B d   1      -0.064  -1.524  -2.160  0.00  0.00     0.060 C 
BRANCH   7   8
ATOM      8  C2' I4B d   1      -0.303  -3.019  -2.092  0.00  0.00    -0.013 C 
ATOM      9  C4' I4B d   1      -0.652  -3.452  -0.692  0.00  0.00     0.013 C 
ATOM     10  C3' I4B d   1      -1.404  -3.356  -3.053  0.00  0.00     0.013 C 
ENDBRANCH   7   8
ENDBRANCH   1   7
TORSDOF 2
ENDMDL
