MODEL 1
REMARK minimizedAffinity 2.45790124
REMARK minimizedRMSD -1
REMARK  2 active torsions:
REMARK  status: ('A' for Active; 'I' for Inactive)
REMARK    1  A    between atoms: C2'_3  and  C1'_4 
REMARK    2  A    between atoms: C1'_4  and  C1_5 
ROOT
ATOM      1  C1  I4B d   1       4.947   4.547  -4.677  0.00  0.00    -0.075 A 
ATOM      2  C2  I4B d   1       3.784   5.240  -4.451  0.00  0.00     0.003 A 
ATOM      3  C3  I4B d   1       3.625   6.000  -3.268  0.00  0.00     0.002 A 
ATOM      4  C4  I4B d   1       4.628   5.999  -2.320  0.00  0.00    -0.004 A 
ATOM      5  C5  I4B d   1       5.816   5.315  -2.561  0.00  0.00     0.002 A 
ATOM      6  C6  I4B d   1       5.982   4.594  -3.752  0.00  0.00     0.003 A 
ENDROOT
BRANCH   1   7
ATOM      7  C1' I4B d   1       5.068   3.728  -5.923  0.00  0.00     0.060 C 
BRANCH   7   8
ATOM      8  C2' I4B d   1       4.184   2.507  -5.766  0.00  0.00    -0.013 C 
ATOM      9  C4' I4B d   1       4.996   1.239  -5.798  0.00  0.00     0.013 C 
ATOM     10  C3' I4B d   1       3.437   2.639  -4.473  0.00  0.00     0.013 C 
ENDBRANCH   7   8
ENDBRANCH   1   7
TORSDOF 2
ENDMDL
