MODEL 1
REMARK minimizedAffinity 14.4042835
REMARK minimizedRMSD -1
REMARK  2 active torsions:
REMARK  status: ('A' for Active; 'I' for Inactive)
REMARK    1  A    between atoms: C2'_3  and  C1'_4 
REMARK    2  A    between atoms: C1'_4  and  C1_5 
ROOT
ATOM      1  C1  I4B d   1       5.633  -2.651  -3.133  0.00  0.00    -0.075 A 
ATOM      2  C2  I4B d   1       5.654  -1.435  -2.495  0.00  0.00     0.003 A 
ATOM      3  C3  I4B d   1       5.864  -1.367  -1.097  0.00  0.00     0.002 A 
ATOM      4  C4  I4B d   1       5.998  -2.533  -0.372  0.00  0.00    -0.004 A 
ATOM      5  C5  I4B d   1       6.000  -3.763  -1.023  0.00  0.00     0.002 A 
ATOM      6  C6  I4B d   1       5.829  -3.823  -2.413  0.00  0.00     0.003 A 
ENDROOT
BRANCH   1   7
ATOM      7  C1' I4B d   1       5.376  -2.688  -4.606  0.00  0.00     0.060 C 
BRANCH   7   8
ATOM      8  C2' I4B d   1       4.020  -2.062  -4.859  0.00  0.00    -0.013 C 
ATOM      9  C4' I4B d   1       3.005  -2.534  -3.851  0.00  0.00     0.013 C 
ATOM     10  C3' I4B d   1       4.180  -0.572  -4.808  0.00  0.00     0.013 C 
ENDBRANCH   7   8
ENDBRANCH   1   7
TORSDOF 2
ENDMDL
