MODEL 1
REMARK minimizedAffinity 10.4069672
REMARK minimizedRMSD -1
REMARK  2 active torsions:
REMARK  status: ('A' for Active; 'I' for Inactive)
REMARK    1  A    between atoms: C2'_3  and  C1'_4 
REMARK    2  A    between atoms: C1'_4  and  C1_5 
ROOT
ATOM      1  C1  I4B d   1       3.981   4.993  -3.306  0.00  0.00    -0.075 A 
ATOM      2  C2  I4B d   1       4.921   5.992  -3.257  0.00  0.00     0.003 A 
ATOM      3  C3  I4B d   1       5.964   5.943  -2.301  0.00  0.00     0.002 A 
ATOM      4  C4  I4B d   1       6.000   4.910  -1.387  0.00  0.00    -0.004 A 
ATOM      5  C5  I4B d   1       5.060   3.886  -1.453  0.00  0.00     0.002 A 
ATOM      6  C6  I4B d   1       4.051   3.921  -2.426  0.00  0.00     0.003 A 
ENDROOT
BRANCH   1   7
ATOM      7  C1' I4B d   1       2.874   5.093  -4.307  0.00  0.00     0.060 C 
BRANCH   7   8
ATOM      8  C2' I4B d   1       1.651   4.419  -3.719  0.00  0.00    -0.013 C 
ATOM      9  C4' I4B d   1       1.885   2.946  -3.515  0.00  0.00     0.013 C 
ATOM     10  C3' I4B d   1       1.324   5.100  -2.424  0.00  0.00     0.013 C 
ENDBRANCH   7   8
ENDBRANCH   1   7
TORSDOF 2
ENDMDL
