MODEL 1
REMARK minimizedAffinity 9.08742714
REMARK minimizedRMSD -1
REMARK  2 active torsions:
REMARK  status: ('A' for Active; 'I' for Inactive)
REMARK    1  A    between atoms: C2'_3  and  C1'_4 
REMARK    2  A    between atoms: C1'_4  and  C1_5 
ROOT
ATOM      1  C1  I4B d   1       4.802  -2.542  -3.474  0.00  0.00    -0.075 A 
ATOM      2  C2  I4B d   1       5.417  -3.757  -3.299  0.00  0.00     0.003 A 
ATOM      3  C3  I4B d   1       6.000  -4.087  -2.052  0.00  0.00     0.002 A 
ATOM      4  C4  I4B d   1       5.991  -3.160  -1.030  0.00  0.00    -0.004 A 
ATOM      5  C5  I4B d   1       5.347  -1.938  -1.202  0.00  0.00     0.002 A 
ATOM      6  C6  I4B d   1       4.738  -1.631  -2.428  0.00  0.00     0.003 A 
ENDROOT
BRANCH   1   7
ATOM      7  C1' I4B d   1       4.225  -2.213  -4.814  0.00  0.00     0.060 C 
BRANCH   7   8
ATOM      8  C2' I4B d   1       2.725  -2.410  -4.738  0.00  0.00    -0.013 C 
ATOM      9  C4' I4B d   1       2.251  -3.393  -5.776  0.00  0.00     0.013 C 
ATOM     10  C3' I4B d   1       2.390  -2.881  -3.354  0.00  0.00     0.013 C 
ENDBRANCH   7   8
ENDBRANCH   1   7
TORSDOF 2
ENDMDL
