MODEL 1
REMARK minimizedAffinity 1.18210411
REMARK minimizedRMSD -1
REMARK  2 active torsions:
REMARK  status: ('A' for Active; 'I' for Inactive)
REMARK    1  A    between atoms: C2'_3  and  C1'_4 
REMARK    2  A    between atoms: C1'_4  and  C1_5 
ROOT
ATOM      1  C1  I4B d   1       4.896  -2.464  -2.582  0.00  0.00    -0.075 A 
ATOM      2  C2  I4B d   1       5.298  -2.187  -1.299  0.00  0.00     0.003 A 
ATOM      3  C3  I4B d   1       5.878  -3.202  -0.499  0.00  0.00     0.002 A 
ATOM      4  C4  I4B d   1       5.990  -4.482  -1.002  0.00  0.00    -0.004 A 
ATOM      5  C5  I4B d   1       5.604  -4.755  -2.311  0.00  0.00     0.002 A 
ATOM      6  C6  I4B d   1       5.065  -3.737  -3.111  0.00  0.00     0.003 A 
ENDROOT
BRANCH   1   7
ATOM      7  C1' I4B d   1       4.257  -1.377  -3.388  0.00  0.00     0.060 C 
BRANCH   7   8
ATOM      8  C2' I4B d   1       2.998  -1.940  -4.015  0.00  0.00    -0.013 C 
ATOM      9  C4' I4B d   1       3.326  -2.968  -5.066  0.00  0.00     0.013 C 
ATOM     10  C3' I4B d   1       2.161  -2.532  -2.922  0.00  0.00     0.013 C 
ENDBRANCH   7   8
ENDBRANCH   1   7
TORSDOF 2
ENDMDL
