MODEL 1
REMARK minimizedAffinity 19.6447163
REMARK minimizedRMSD -1
REMARK  2 active torsions:
REMARK  status: ('A' for Active; 'I' for Inactive)
REMARK    1  A    between atoms: C2'_3  and  C1'_4 
REMARK    2  A    between atoms: C1'_4  and  C1_5 
ROOT
ATOM      1  C1  I4B d   1      -2.480  -0.525  -0.072  0.00  0.00    -0.075 A 
ATOM      2  C2  I4B d   1      -1.459   0.302  -0.468  0.00  0.00     0.003 A 
ATOM      3  C3  I4B d   1      -1.631   1.708  -0.449  0.00  0.00     0.002 A 
ATOM      4  C4  I4B d   1      -2.850   2.238  -0.078  0.00  0.00    -0.004 A 
ATOM      5  C5  I4B d   1      -3.877   1.399   0.344  0.00  0.00     0.002 A 
ATOM      6  C6  I4B d   1      -3.688   0.009   0.359  0.00  0.00     0.003 A 
ENDROOT
BRANCH   1   7
ATOM      7  C1' I4B d   1      -2.275  -2.005  -0.136  0.00  0.00     0.060 C 
BRANCH   7   8
ATOM      8  C2' I4B d   1      -0.828  -2.260  -0.505  0.00  0.00    -0.013 C 
ATOM      9  C4' I4B d   1      -0.125  -3.056   0.563  0.00  0.00     0.013 C 
ATOM     10  C3' I4B d   1      -0.805  -2.980  -1.821  0.00  0.00     0.013 C 
ENDBRANCH   7   8
ENDBRANCH   1   7
TORSDOF 2
ENDMDL
