MODEL 1
REMARK minimizedAffinity 5.80052662
REMARK minimizedRMSD -1
REMARK  2 active torsions:
REMARK  status: ('A' for Active; 'I' for Inactive)
REMARK    1  A    between atoms: C2'_3  and  C1'_4 
REMARK    2  A    between atoms: C1'_4  and  C1_5 
ROOT
ATOM      1  C1  I4B d   1       3.223   4.826  -2.779  0.00  0.00    -0.075 A 
ATOM      2  C2  I4B d   1       2.778   3.598  -3.200  0.00  0.00     0.003 A 
ATOM      3  C3  I4B d   1       2.096   3.472  -4.435  0.00  0.00     0.002 A 
ATOM      4  C4  I4B d   1       1.839   4.600  -5.187  0.00  0.00    -0.004 A 
ATOM      5  C5  I4B d   1       2.311   5.841  -4.769  0.00  0.00     0.002 A 
ATOM      6  C6  I4B d   1       3.019   5.953  -3.563  0.00  0.00     0.003 A 
ENDROOT
BRANCH   1   7
ATOM      7  C1' I4B d   1       3.911   4.927  -1.454  0.00  0.00     0.060 C 
BRANCH   7   8
ATOM      8  C2' I4B d   1       5.141   5.794  -1.632  0.00  0.00    -0.013 C 
ATOM      9  C4' I4B d   1       5.895   5.942  -0.337  0.00  0.00     0.013 C 
ATOM     10  C3' I4B d   1       6.000   5.168  -2.690  0.00  0.00     0.013 C 
ENDBRANCH   7   8
ENDBRANCH   1   7
TORSDOF 2
ENDMDL
