MODEL 1
REMARK minimizedAffinity 2.19169712
REMARK minimizedRMSD -1
REMARK  2 active torsions:
REMARK  status: ('A' for Active; 'I' for Inactive)
REMARK    1  A    between atoms: C2'_3  and  C1'_4 
REMARK    2  A    between atoms: C1'_4  and  C1_5 
ROOT
ATOM      1  C1  I4B d   1       5.031   4.420  -3.432  0.00  0.00    -0.075 A 
ATOM      2  C2  I4B d   1       4.000   4.108  -2.582  0.00  0.00     0.003 A 
ATOM      3  C3  I4B d   1       3.920   4.714  -1.305  0.00  0.00     0.002 A 
ATOM      4  C4  I4B d   1       4.914   5.582  -0.902  0.00  0.00    -0.004 A 
ATOM      5  C5  I4B d   1       5.947   5.915  -1.774  0.00  0.00     0.002 A 
ATOM      6  C6  I4B d   1       5.999   5.340  -3.052  0.00  0.00     0.003 A 
ENDROOT
BRANCH   1   7
ATOM      7  C1' I4B d   1       5.102   3.736  -4.761  0.00  0.00     0.060 C 
BRANCH   7   8
ATOM      8  C2' I4B d   1       4.703   2.288  -4.563  0.00  0.00    -0.013 C 
ATOM      9  C4' I4B d   1       3.506   1.933  -5.405  0.00  0.00     0.013 C 
ATOM     10  C3' I4B d   1       5.883   1.431  -4.909  0.00  0.00     0.013 C 
ENDBRANCH   7   8
ENDBRANCH   1   7
TORSDOF 2
ENDMDL
