MODEL 1
REMARK minimizedAffinity 11.6302185
REMARK minimizedRMSD -1
REMARK  2 active torsions:
REMARK  status: ('A' for Active; 'I' for Inactive)
REMARK    1  A    between atoms: C2'_3  and  C1'_4 
REMARK    2  A    between atoms: C1'_4  and  C1_5 
ROOT
ATOM      1  C1  I4B d   1       3.071  -1.867  -3.670  0.00  0.00    -0.075 A 
ATOM      2  C2  I4B d   1       2.821  -0.707  -4.361  0.00  0.00     0.003 A 
ATOM      3  C3  I4B d   1       3.891   0.132  -4.756  0.00  0.00     0.002 A 
ATOM      4  C4  I4B d   1       5.182  -0.198  -4.397  0.00  0.00    -0.004 A 
ATOM      5  C5  I4B d   1       5.436  -1.385  -3.716  0.00  0.00     0.002 A 
ATOM      6  C6  I4B d   1       4.375  -2.231  -3.361  0.00  0.00     0.003 A 
ENDROOT
BRANCH   1   7
ATOM      7  C1' I4B d   1       1.915  -2.713  -3.240  0.00  0.00     0.060 C 
BRANCH   7   8
ATOM      8  C2' I4B d   1       0.908  -1.813  -2.554  0.00  0.00    -0.013 C 
ATOM      9  C4' I4B d   1      -0.498  -2.141  -2.984  0.00  0.00     0.013 C 
ATOM     10  C3' I4B d   1       1.073  -1.978  -1.072  0.00  0.00     0.013 C 
ENDBRANCH   7   8
ENDBRANCH   1   7
TORSDOF 2
ENDMDL
