MODEL 1
REMARK minimizedAffinity 12.4810543
REMARK minimizedRMSD -1
REMARK  2 active torsions:
REMARK  status: ('A' for Active; 'I' for Inactive)
REMARK    1  A    between atoms: C2'_3  and  C1'_4 
REMARK    2  A    between atoms: C1'_4  and  C1_5 
ROOT
ATOM      1  C1  I4B d   1       3.295   4.692  -1.879  0.00  0.00    -0.075 A 
ATOM      2  C2  I4B d   1       3.962   3.783  -2.660  0.00  0.00     0.003 A 
ATOM      3  C3  I4B d   1       5.342   3.950  -2.929  0.00  0.00     0.002 A 
ATOM      4  C4  I4B d   1       6.000   5.061  -2.442  0.00  0.00    -0.004 A 
ATOM      5  C5  I4B d   1       5.327   5.971  -1.630  0.00  0.00     0.002 A 
ATOM      6  C6  I4B d   1       3.970   5.779  -1.337  0.00  0.00     0.003 A 
ENDROOT
BRANCH   1   7
ATOM      7  C1' I4B d   1       1.831   4.502  -1.642  0.00  0.00     0.060 C 
BRANCH   7   8
ATOM      8  C2' I4B d   1       1.632   4.187  -0.173  0.00  0.00    -0.013 C 
ATOM      9  C4' I4B d   1       0.451   4.934   0.390  0.00  0.00     0.013 C 
ATOM     10  C3' I4B d   1       1.451   2.705  -0.038  0.00  0.00     0.013 C 
ENDBRANCH   7   8
ENDBRANCH   1   7
TORSDOF 2
ENDMDL
