MODEL 1
REMARK minimizedAffinity -0.691965818
REMARK minimizedRMSD -1
REMARK  0 active torsions:
REMARK  status: ('A' for Active; 'I' for Inactive)
ROOT
ATOM      1  O1  BZF d   1      -0.690  -0.220  -0.964  0.00  0.00    -0.204 OA
ATOM      2  C2  BZF d   1      -1.797  -0.263  -0.139  0.00  0.00     0.174 A 
ATOM      3  C3  BZF d   1      -1.426  -0.359   1.154  0.00  0.00    -0.012 A 
ATOM      4  C3A BZF d   1       0.003  -0.283   1.142  0.00  0.00    -0.107 A 
ATOM      5  C4  BZF d   1       0.953  -0.306   2.123  0.00  0.00     0.055 A 
ATOM      6  C5  BZF d   1       2.266  -0.286   1.772  0.00  0.00    -0.016 A 
ATOM      7  C6  BZF d   1       2.664  -0.249   0.452  0.00  0.00     0.022 A 
ATOM      8  C7  BZF d   1       1.758  -0.220  -0.556  0.00  0.00     0.029 A 
ATOM      9  C7A BZF d   1       0.431  -0.207  -0.203  0.00  0.00     0.058 A 
ENDROOT
TORSDOF 0
ENDMDL
