MODEL 1
REMARK minimizedAffinity 0.384739757
REMARK minimizedRMSD -1
REMARK  0 active torsions:
REMARK  status: ('A' for Active; 'I' for Inactive)
ROOT
ATOM      1  O1  BZF d   1      -1.036   0.469   0.185  0.00  0.00    -0.204 OA
ATOM      2  C2  BZF d   1      -1.592   0.473  -1.080  0.00  0.00     0.174 A 
ATOM      3  C3  BZF d   1      -0.665   0.163  -2.010  0.00  0.00    -0.012 A 
ATOM      4  C3A BZF d   1       0.523  -0.138  -1.272  0.00  0.00    -0.107 A 
ATOM      5  C4  BZF d   1       1.780  -0.528  -1.635  0.00  0.00     0.055 A 
ATOM      6  C5  BZF d   1       2.732  -0.668  -0.675  0.00  0.00    -0.016 A 
ATOM      7  C6  BZF d   1       2.463  -0.419   0.655  0.00  0.00     0.022 A 
ATOM      8  C7  BZF d   1       1.230  -0.035   1.064  0.00  0.00     0.029 A 
ATOM      9  C7A BZF d   1       0.257   0.075   0.101  0.00  0.00     0.058 A 
ENDROOT
TORSDOF 0
ENDMDL
