MODEL 1
REMARK minimizedAffinity -3.20757365
REMARK minimizedRMSD -1
REMARK  0 active torsions:
REMARK  status: ('A' for Active; 'I' for Inactive)
ROOT
ATOM      1  O1  BZF d   1       4.677   5.997   4.002  0.00  0.00    -0.204 OA
ATOM      2  C2  BZF d   1       4.617   5.982   2.622  0.00  0.00     0.174 A 
ATOM      3  C3  BZF d   1       3.339   5.887   2.200  0.00  0.00    -0.012 A 
ATOM      4  C3A BZF d   1       2.546   5.933   3.390  0.00  0.00    -0.107 A 
ATOM      5  C4  BZF d   1       1.201   5.897   3.624  0.00  0.00     0.055 A 
ATOM      6  C5  BZF d   1       0.753   5.888   4.907  0.00  0.00    -0.016 A 
ATOM      7  C6  BZF d   1       1.622   5.908   5.979  0.00  0.00     0.022 A 
ATOM      8  C7  BZF d   1       2.964   5.949   5.797  0.00  0.00     0.029 A 
ATOM      9  C7A BZF d   1       3.418   5.992   4.501  0.00  0.00     0.058 A 
ENDROOT
TORSDOF 0
ENDMDL
