MODEL 1
REMARK minimizedAffinity -5.94109344
REMARK minimizedRMSD -1
REMARK  0 active torsions:
REMARK  status: ('A' for Active; 'I' for Inactive)
ROOT
ATOM      1  O1  BZF d   1       0.332  -0.452  -0.859  0.00  0.00    -0.204 OA
ATOM      2  C2  BZF d   1      -0.781   0.188  -0.347  0.00  0.00     0.174 A 
ATOM      3  C3  BZF d   1      -0.909  -0.058   0.973  0.00  0.00    -0.012 A 
ATOM      4  C3A BZF d   1       0.243  -0.829   1.326  0.00  0.00    -0.107 A 
ATOM      5  C4  BZF d   1       0.692  -1.364   2.499  0.00  0.00     0.055 A 
ATOM      6  C5  BZF d   1       1.817  -2.125   2.491  0.00  0.00    -0.016 A 
ATOM      7  C6  BZF d   1       2.516  -2.376   1.328  0.00  0.00     0.022 A 
ATOM      8  C7  BZF d   1       2.113  -1.862   0.140  0.00  0.00     0.029 A 
ATOM      9  C7A BZF d   1       0.994  -1.065   0.151  0.00  0.00     0.058 A 
ENDROOT
TORSDOF 0
ENDMDL
