MODEL 1
REMARK minimizedAffinity -2.26661372
REMARK minimizedRMSD -1
REMARK  0 active torsions:
REMARK  status: ('A' for Active; 'I' for Inactive)
ROOT
ATOM      1  O1  BZF d   1      -0.718  -1.570   2.463  0.00  0.00    -0.204 OA
ATOM      2  C2  BZF d   1       0.533  -1.778   3.010  0.00  0.00     0.174 A 
ATOM      3  C3  BZF d   1       1.498  -1.337   2.178  0.00  0.00    -0.012 A 
ATOM      4  C3A BZF d   1       0.803  -0.738   1.080  0.00  0.00    -0.107 A 
ATOM      5  C4  BZF d   1       1.214  -0.109  -0.060  0.00  0.00     0.055 A 
ATOM      6  C5  BZF d   1       0.283   0.297  -0.963  0.00  0.00    -0.016 A 
ATOM      7  C6  BZF d   1      -1.065   0.086  -0.761  0.00  0.00     0.022 A 
ATOM      8  C7  BZF d   1      -1.521  -0.530   0.358  0.00  0.00     0.029 A 
ATOM      9  C7A BZF d   1      -0.585  -0.911   1.287  0.00  0.00     0.058 A 
ENDROOT
TORSDOF 0
ENDMDL
