MODEL 1
REMARK minimizedAffinity -4.95359516
REMARK minimizedRMSD -1
REMARK  0 active torsions:
REMARK  status: ('A' for Active; 'I' for Inactive)
ROOT
ATOM      1  O1  BZF d   1       1.532   0.382  -1.099  0.00  0.00    -0.204 OA
ATOM      2  C2  BZF d   1       0.997  -0.227   0.020  0.00  0.00     0.174 A 
ATOM      3  C3  BZF d   1      -0.202   0.306   0.328  0.00  0.00    -0.012 A 
ATOM      4  C3A BZF d   1      -0.474   1.248  -0.715  0.00  0.00    -0.107 A 
ATOM      5  C4  BZF d   1      -1.522   2.083  -0.975  0.00  0.00     0.055 A 
ATOM      6  C5  BZF d   1      -1.445   2.929  -2.036  0.00  0.00    -0.016 A 
ATOM      7  C6  BZF d   1      -0.334   2.969  -2.853  0.00  0.00     0.022 A 
ATOM      8  C7  BZF d   1       0.728   2.155  -2.638  0.00  0.00     0.029 A 
ATOM      9  C7A BZF d   1       0.639   1.276  -1.586  0.00  0.00     0.058 A 
ENDROOT
TORSDOF 0
ENDMDL
