MODEL 1
REMARK minimizedAffinity 1.58211839
REMARK minimizedRMSD -1
REMARK  0 active torsions:
REMARK  status: ('A' for Active; 'I' for Inactive)
ROOT
ATOM      1  O1  BZF d   1      -0.512  -1.009  -0.217  0.00  0.00    -0.204 OA
ATOM      2  C2  BZF d   1       0.124  -1.033  -1.443  0.00  0.00     0.174 A 
ATOM      3  C3  BZF d   1       1.463  -1.083  -1.287  0.00  0.00    -0.012 A 
ATOM      4  C3A BZF d   1       1.674  -1.184   0.124  0.00  0.00    -0.107 A 
ATOM      5  C4  BZF d   1       2.792  -1.284   0.901  0.00  0.00     0.055 A 
ATOM      6  C5  BZF d   1       2.658  -1.291   2.254  0.00  0.00    -0.016 A 
ATOM      7  C6  BZF d   1       1.424  -1.195   2.861  0.00  0.00     0.022 A 
ATOM      8  C7  BZF d   1       0.285  -1.099   2.132  0.00  0.00     0.029 A 
ATOM      9  C7A BZF d   1       0.415  -1.125   0.765  0.00  0.00     0.058 A 
ENDROOT
TORSDOF 0
ENDMDL
