MODEL 1
REMARK minimizedAffinity 3.58532238
REMARK minimizedRMSD -1
REMARK  0 active torsions:
REMARK  status: ('A' for Active; 'I' for Inactive)
ROOT
ATOM      1  C   UNL d   1      -5.997  -0.279  -1.042  0.00  0.00     0.020 A 
ATOM      2  C1  UNL d   1      -4.915  -0.753  -0.301  0.00  0.00     0.020 A 
ATOM      3  C2  UNL d   1      -3.613  -0.572  -0.773  0.00  0.00     0.034 A 
ATOM      4  C3  UNL d   1      -3.390   0.085  -1.989  0.00  0.00     0.017 A 
ATOM      5  C4  UNL d   1      -4.477   0.560  -2.732  0.00  0.00     0.017 A 
ATOM      6  C5  UNL d   1      -5.779   0.376  -2.254  0.00  0.00     0.034 A 
ATOM      7 Cl   UNL d   1      -4.282   1.380  -4.241  0.00  0.00    -0.070 Cl
ATOM      8 Cl1  UNL d   1      -1.754   0.274  -2.512  0.00  0.00    -0.070 Cl
ENDROOT
TORSDOF 0
ENDMDL
