MODEL 1
REMARK minimizedAffinity 3.31071925
REMARK minimizedRMSD -1
REMARK  0 active torsions:
REMARK  status: ('A' for Active; 'I' for Inactive)
ROOT
ATOM      1  C   UNL d   1       4.248   0.380  -0.933  0.00  0.00     0.020 A 
ATOM      2  C1  UNL d   1       3.238   0.484   0.022  0.00  0.00     0.020 A 
ATOM      3  C2  UNL d   1       2.389  -0.599   0.261  0.00  0.00     0.034 A 
ATOM      4  C3  UNL d   1       2.549  -1.790  -0.457  0.00  0.00     0.017 A 
ATOM      5  C4  UNL d   1       3.564  -1.893  -1.415  0.00  0.00     0.017 A 
ATOM      6  C5  UNL d   1       4.411  -0.806  -1.650  0.00  0.00     0.034 A 
ATOM      7 Cl   UNL d   1       3.823  -3.331  -2.339  0.00  0.00    -0.070 Cl
ATOM      8 Cl1  UNL d   1       1.463  -3.089  -0.110  0.00  0.00    -0.070 Cl
ENDROOT
TORSDOF 0
ENDMDL
