MODEL 1
REMARK minimizedAffinity 1.9403429
REMARK minimizedRMSD -1
REMARK  0 active torsions:
REMARK  status: ('A' for Active; 'I' for Inactive)
ROOT
ATOM      1  C   UNL d   1       3.401   1.535   0.142  0.00  0.00     0.020 A 
ATOM      2  C1  UNL d   1       4.268   1.752  -0.928  0.00  0.00     0.020 A 
ATOM      3  C2  UNL d   1       4.650   0.685  -1.745  0.00  0.00     0.034 A 
ATOM      4  C3  UNL d   1       4.164  -0.603  -1.493  0.00  0.00     0.017 A 
ATOM      5  C4  UNL d   1       3.294  -0.819  -0.418  0.00  0.00     0.017 A 
ATOM      6  C5  UNL d   1       2.915   0.252   0.396  0.00  0.00     0.034 A 
ATOM      7 Cl   UNL d   1       2.653  -2.381  -0.045  0.00  0.00    -0.070 Cl
ATOM      8 Cl1  UNL d   1       4.677  -1.875  -2.544  0.00  0.00    -0.070 Cl
ENDROOT
TORSDOF 0
ENDMDL
