MODEL 1
REMARK minimizedAffinity 3.67101288
REMARK minimizedRMSD -1
REMARK  0 active torsions:
REMARK  status: ('A' for Active; 'I' for Inactive)
ROOT
ATOM      1  C   UNL d   1       0.895   0.646   3.347  0.00  0.00     0.020 A 
ATOM      2  C1  UNL d   1      -0.478   0.766   3.136  0.00  0.00     0.020 A 
ATOM      3  C2  UNL d   1      -0.978   0.877   1.837  0.00  0.00     0.034 A 
ATOM      4  C3  UNL d   1      -0.104   0.870   0.744  0.00  0.00     0.017 A 
ATOM      5  C4  UNL d   1       1.274   0.750   0.957  0.00  0.00     0.017 A 
ATOM      6  C5  UNL d   1       1.769   0.638   2.260  0.00  0.00     0.034 A 
ATOM      7 Cl   UNL d   1       2.415   0.732  -0.342  0.00  0.00    -0.070 Cl
ATOM      8 Cl1  UNL d   1      -0.791   1.011  -0.835  0.00  0.00    -0.070 Cl
ENDROOT
TORSDOF 0
ENDMDL
