MODEL 1
REMARK minimizedAffinity 3.57514334
REMARK minimizedRMSD -1
REMARK  0 active torsions:
REMARK  status: ('A' for Active; 'I' for Inactive)
ROOT
ATOM      1  C   UNL d   1       5.253   1.327  -0.569  0.00  0.00     0.020 A 
ATOM      2  C1  UNL d   1       4.528   2.462  -0.208  0.00  0.00     0.020 A 
ATOM      3  C2  UNL d   1       3.175   2.351   0.121  0.00  0.00     0.034 A 
ATOM      4  C3  UNL d   1       2.543   1.103   0.089  0.00  0.00     0.017 A 
ATOM      5  C4  UNL d   1       3.272  -0.036  -0.274  0.00  0.00     0.017 A 
ATOM      6  C5  UNL d   1       4.626   0.081  -0.602  0.00  0.00     0.034 A 
ATOM      7 Cl   UNL d   1       2.561  -1.610  -0.336  0.00  0.00    -0.070 Cl
ATOM      8 Cl1  UNL d   1       0.868   1.039   0.507  0.00  0.00    -0.070 Cl
ENDROOT
TORSDOF 0
ENDMDL
