MODEL 1
REMARK minimizedAffinity 2.03465271
REMARK minimizedRMSD -1
REMARK  0 active torsions:
REMARK  status: ('A' for Active; 'I' for Inactive)
ROOT
ATOM      1  C   UNL d   1      -0.782   1.517   3.284  0.00  0.00     0.020 A 
ATOM      2  C1  UNL d   1       0.575   1.342   3.554  0.00  0.00     0.020 A 
ATOM      3  C2  UNL d   1       1.489   1.245   2.503  0.00  0.00     0.034 A 
ATOM      4  C3  UNL d   1       1.048   1.322   1.177  0.00  0.00     0.017 A 
ATOM      5  C4  UNL d   1      -0.314   1.497   0.907  0.00  0.00     0.017 A 
ATOM      6  C5  UNL d   1      -1.225   1.594   1.963  0.00  0.00     0.034 A 
ATOM      7 Cl   UNL d   1      -0.934   1.600  -0.703  0.00  0.00    -0.070 Cl
ATOM      8 Cl1  UNL d   1       2.234   1.194  -0.073  0.00  0.00    -0.070 Cl
ENDROOT
TORSDOF 0
ENDMDL
