MODEL 1
REMARK minimizedAffinity 2.28965616
REMARK minimizedRMSD -1
REMARK  0 active torsions:
REMARK  status: ('A' for Active; 'I' for Inactive)
ROOT
ATOM      1  C   UNL d   1      -0.948   2.068   0.045  0.00  0.00     0.020 A 
ATOM      2  C1  UNL d   1      -1.545   1.880   1.291  0.00  0.00     0.020 A 
ATOM      3  C2  UNL d   1      -0.958   1.024   2.225  0.00  0.00     0.034 A 
ATOM      4  C3  UNL d   1       0.229   0.352   1.915  0.00  0.00     0.017 A 
ATOM      5  C4  UNL d   1       0.828   0.540   0.664  0.00  0.00     0.017 A 
ATOM      6  C5  UNL d   1       0.236   1.399  -0.268  0.00  0.00     0.034 A 
ATOM      7 Cl   UNL d   1       2.294  -0.255   0.208  0.00  0.00    -0.070 Cl
ATOM      8 Cl1  UNL d   1       0.900  -0.692   3.118  0.00  0.00    -0.070 Cl
ENDROOT
TORSDOF 0
ENDMDL
