MODEL 1
REMARK minimizedAffinity 9.91365623
REMARK minimizedRMSD -1
REMARK  0 active torsions:
REMARK  status: ('A' for Active; 'I' for Inactive)
ROOT
ATOM      1  C   UNL d   1      -1.948   2.410   0.223  0.00  0.00     0.020 A 
ATOM      2  C1  UNL d   1      -2.368   2.458   1.552  0.00  0.00     0.020 A 
ATOM      3  C2  UNL d   1      -1.506   2.047   2.571  0.00  0.00     0.034 A 
ATOM      4  C3  UNL d   1      -0.221   1.586   2.263  0.00  0.00     0.017 A 
ATOM      5  C4  UNL d   1       0.199   1.538   0.929  0.00  0.00     0.017 A 
ATOM      6  C5  UNL d   1      -0.668   1.951  -0.088  0.00  0.00     0.034 A 
ATOM      7 Cl   UNL d   1       1.770   0.981   0.471  0.00  0.00    -0.070 Cl
ATOM      8 Cl1  UNL d   1       0.791   1.093   3.574  0.00  0.00    -0.070 Cl
ENDROOT
TORSDOF 0
ENDMDL
