MODEL 1
REMARK minimizedAffinity 1.0493722
REMARK minimizedRMSD -1
REMARK  0 active torsions:
REMARK  status: ('A' for Active; 'I' for Inactive)
ROOT
ATOM      1  C   UNL d   1       0.466   0.334   3.345  0.00  0.00     0.020 A 
ATOM      2  C1  UNL d   1      -0.881   0.649   3.170  0.00  0.00     0.020 A 
ATOM      3  C2  UNL d   1      -1.356   1.005   1.905  0.00  0.00     0.034 A 
ATOM      4  C3  UNL d   1      -0.483   1.046   0.812  0.00  0.00     0.017 A 
ATOM      5  C4  UNL d   1       0.869   0.730   0.989  0.00  0.00     0.017 A 
ATOM      6  C5  UNL d   1       1.339   0.374   2.257  0.00  0.00     0.034 A 
ATOM      7 Cl   UNL d   1       2.006   0.759  -0.312  0.00  0.00    -0.070 Cl
ATOM      8 Cl1  UNL d   1      -1.139   1.494  -0.723  0.00  0.00    -0.070 Cl
ENDROOT
TORSDOF 0
ENDMDL
