MODEL 1
REMARK minimizedAffinity 4.14335442
REMARK minimizedRMSD -1
REMARK  0 active torsions:
REMARK  status: ('A' for Active; 'I' for Inactive)
ROOT
ATOM      1  C   UNL d   1       4.617  -0.317  -0.760  0.00  0.00     0.020 A 
ATOM      2  C1  UNL d   1       4.105   0.970  -0.597  0.00  0.00     0.020 A 
ATOM      3  C2  UNL d   1       2.802   1.148  -0.127  0.00  0.00     0.034 A 
ATOM      4  C3  UNL d   1       2.006   0.039   0.180  0.00  0.00     0.017 A 
ATOM      5  C4  UNL d   1       2.521  -1.252   0.015  0.00  0.00     0.017 A 
ATOM      6  C5  UNL d   1       3.826  -1.426  -0.455  0.00  0.00     0.034 A 
ATOM      7 Cl   UNL d   1       1.599  -2.670   0.373  0.00  0.00    -0.070 Cl
ATOM      8 Cl1  UNL d   1       0.404   0.334   0.756  0.00  0.00    -0.070 Cl
ENDROOT
TORSDOF 0
ENDMDL
