MODEL 1
REMARK minimizedAffinity 8.48510551
REMARK minimizedRMSD -1
REMARK  0 active torsions:
REMARK  status: ('A' for Active; 'I' for Inactive)
ROOT
ATOM      1  C   UNL d   1       2.741   0.060   0.669  0.00  0.00     0.020 A 
ATOM      2  C1  UNL d   1       3.954  -0.023  -0.013  0.00  0.00     0.020 A 
ATOM      3  C2  UNL d   1       4.184  -1.074  -0.902  0.00  0.00     0.034 A 
ATOM      4  C3  UNL d   1       3.199  -2.047  -1.113  0.00  0.00     0.017 A 
ATOM      5  C4  UNL d   1       1.982  -1.962  -0.428  0.00  0.00     0.017 A 
ATOM      6  C5  UNL d   1       1.757  -0.907   0.462  0.00  0.00     0.034 A 
ATOM      7 Cl   UNL d   1       0.719  -3.124  -0.635  0.00  0.00    -0.070 Cl
ATOM      8 Cl1  UNL d   1       3.552  -3.319  -2.228  0.00  0.00    -0.070 Cl
ENDROOT
TORSDOF 0
ENDMDL
