MODEL 1
REMARK minimizedAffinity 4.65252638
REMARK minimizedRMSD -1
REMARK  0 active torsions:
REMARK  status: ('A' for Active; 'I' for Inactive)
ROOT
ATOM      1  C   UNL d   1       3.154   0.230   0.379  0.00  0.00    -0.002 A 
ATOM      2  C1  UNL d   1       1.895   0.658   0.775  0.00  0.00     0.010 A 
ATOM      3  C2  UNL d   1       1.595   0.827   2.128  0.00  0.00     0.041 A 
ATOM      4  C3  UNL d   1       2.593   0.559   3.086  0.00  0.00    -0.075 A 
ATOM      5  S   UNL d   1       2.453   0.697   4.798  0.00  0.00     0.015 SA
ATOM      6  C4  UNL d   1       4.063   0.193   5.045  0.00  0.00     0.022 A 
ATOM      7  C5  UNL d   1       4.705  -0.079   3.860  0.00  0.00     0.026 A 
ATOM      8  C6  UNL d   1       3.869   0.128   2.711  0.00  0.00    -0.082 A 
ATOM      9  C7  UNL d   1       4.141  -0.035   1.332  0.00  0.00     0.045 A 
ENDROOT
TORSDOF 0
ENDMDL
