MODEL 1
REMARK minimizedAffinity 8.63561344
REMARK minimizedRMSD -1
REMARK  0 active torsions:
REMARK  status: ('A' for Active; 'I' for Inactive)
ROOT
ATOM      1  C   UNL d   1       3.241   0.495   0.274  0.00  0.00    -0.002 A 
ATOM      2  C1  UNL d   1       1.933   0.770   0.647  0.00  0.00     0.010 A 
ATOM      3  C2  UNL d   1       1.584   0.866   1.996  0.00  0.00     0.041 A 
ATOM      4  C3  UNL d   1       2.583   0.682   2.973  0.00  0.00    -0.075 A 
ATOM      5  S   UNL d   1       2.389   0.755   4.684  0.00  0.00     0.015 SA
ATOM      6  C4  UNL d   1       4.038   0.424   4.960  0.00  0.00     0.022 A 
ATOM      7  C5  UNL d   1       4.735   0.259   3.786  0.00  0.00     0.026 A 
ATOM      8  C6  UNL d   1       3.907   0.406   2.621  0.00  0.00    -0.082 A 
ATOM      9  C7  UNL d   1       4.228   0.314   1.245  0.00  0.00     0.045 A 
ENDROOT
TORSDOF 0
ENDMDL
