MODEL 1
REMARK minimizedAffinity 2.57201648
REMARK minimizedRMSD -1
REMARK  0 active torsions:
REMARK  status: ('A' for Active; 'I' for Inactive)
ROOT
ATOM      1  C   UNL d   1      -1.479   5.937  -1.555  0.00  0.00    -0.002 A 
ATOM      2  C1  UNL d   1      -2.595   5.972  -2.379  0.00  0.00     0.010 A 
ATOM      3  C2  UNL d   1      -2.453   5.994  -3.768  0.00  0.00     0.041 A 
ATOM      4  C3  UNL d   1      -1.157   5.978  -4.320  0.00  0.00    -0.075 A 
ATOM      5  S   UNL d   1      -0.740   5.999  -5.993  0.00  0.00     0.015 SA
ATOM      6  C4  UNL d   1       0.930   5.962  -5.654  0.00  0.00     0.022 A 
ATOM      7  C5  UNL d   1       1.181   5.935  -4.302  0.00  0.00     0.026 A 
ATOM      8  C6  UNL d   1      -0.017   5.943  -3.512  0.00  0.00    -0.082 A 
ATOM      9  C7  UNL d   1      -0.195   5.922  -2.107  0.00  0.00     0.045 A 
ENDROOT
TORSDOF 0
ENDMDL
