MODEL 1
REMARK minimizedAffinity 10.5768833
REMARK minimizedRMSD -1
REMARK  0 active torsions:
REMARK  status: ('A' for Active; 'I' for Inactive)
ROOT
ATOM      1  C   UNL d   1       1.802   1.835  -1.861  0.00  0.00    -0.002 A 
ATOM      2  C1  UNL d   1       1.969   2.736  -0.819  0.00  0.00     0.010 A 
ATOM      3  C2  UNL d   1       1.480   2.446   0.456  0.00  0.00     0.041 A 
ATOM      4  C3  UNL d   1       0.815   1.223   0.670  0.00  0.00    -0.075 A 
ATOM      5  S   UNL d   1       0.134   0.654   2.148  0.00  0.00     0.015 SA
ATOM      6  C4  UNL d   1      -0.394  -0.800   1.431  0.00  0.00     0.022 A 
ATOM      7  C5  UNL d   1      -0.067  -0.866   0.098  0.00  0.00     0.026 A 
ATOM      8  C6  UNL d   1       0.636   0.298  -0.363  0.00  0.00    -0.082 A 
ATOM      9  C7  UNL d   1       1.142   0.622  -1.645  0.00  0.00     0.045 A 
ENDROOT
TORSDOF 0
ENDMDL
