MODEL 1
REMARK minimizedAffinity 7.10389471
REMARK minimizedRMSD -1
REMARK  0 active torsions:
REMARK  status: ('A' for Active; 'I' for Inactive)
ROOT
ATOM      1  C   UNL d   1       0.221   5.829  -3.499  0.00  0.00    -0.002 A 
ATOM      2  C1  UNL d   1      -0.422   5.843  -4.729  0.00  0.00     0.010 A 
ATOM      3  C2  UNL d   1      -1.816   5.889  -4.801  0.00  0.00     0.041 A 
ATOM      4  C3  UNL d   1      -2.560   5.923  -3.605  0.00  0.00    -0.075 A 
ATOM      5  S   UNL d   1      -4.276   5.982  -3.450  0.00  0.00     0.015 SA
ATOM      6  C4  UNL d   1      -4.196   5.992  -1.747  0.00  0.00     0.022 A 
ATOM      7  C5  UNL d   1      -2.899   5.951  -1.292  0.00  0.00     0.026 A 
ATOM      8  C6  UNL d   1      -1.935   5.911  -2.355  0.00  0.00    -0.082 A 
ATOM      9  C7  UNL d   1      -0.520   5.863  -2.315  0.00  0.00     0.045 A 
ENDROOT
TORSDOF 0
ENDMDL
