MODEL 1
REMARK minimizedAffinity 8.49557114
REMARK minimizedRMSD -1
REMARK  0 active torsions:
REMARK  status: ('A' for Active; 'I' for Inactive)
ROOT
ATOM      1  C   UNL d   1       5.263   4.095  -5.002  0.00  0.00    -0.002 A 
ATOM      2  C1  UNL d   1       5.301   5.340  -5.614  0.00  0.00     0.010 A 
ATOM      3  C2  UNL d   1       4.119   5.998  -5.957  0.00  0.00     0.041 A 
ATOM      4  C3  UNL d   1       2.886   5.379  -5.671  0.00  0.00    -0.075 A 
ATOM      5  S   UNL d   1       1.311   5.999  -6.000  0.00  0.00     0.015 SA
ATOM      6  C4  UNL d   1       0.551   4.626  -5.335  0.00  0.00     0.022 A 
ATOM      7  C5  UNL d   1       1.462   3.707  -4.869  0.00  0.00     0.026 A 
ATOM      8  C6  UNL d   1       2.822   4.127  -5.054  0.00  0.00    -0.082 A 
ATOM      9  C7  UNL d   1       4.039   3.484  -4.719  0.00  0.00     0.045 A 
ENDROOT
TORSDOF 0
ENDMDL
