MODEL 1
REMARK minimizedAffinity 1.92371571
REMARK minimizedRMSD -1
REMARK  0 active torsions:
REMARK  status: ('A' for Active; 'I' for Inactive)
ROOT
ATOM      1  C   UNL d   1       0.574   5.232  -5.995  0.00  0.00    -0.002 A 
ATOM      2  C1  UNL d   1       1.285   5.329  -4.807  0.00  0.00     0.010 A 
ATOM      3  C2  UNL d   1       0.623   5.567  -3.601  0.00  0.00     0.041 A 
ATOM      4  C3  UNL d   1      -0.779   5.704  -3.608  0.00  0.00    -0.075 A 
ATOM      5  S   UNL d   1      -1.802   5.998  -2.252  0.00  0.00     0.015 SA
ATOM      6  C4  UNL d   1      -3.206   6.000  -3.217  0.00  0.00     0.022 A 
ATOM      7  C5  UNL d   1      -2.920   5.783  -4.544  0.00  0.00     0.026 A 
ATOM      8  C6  UNL d   1      -1.517   5.609  -4.792  0.00  0.00    -0.082 A 
ATOM      9  C7  UNL d   1      -0.816   5.369  -5.998  0.00  0.00     0.045 A 
ENDROOT
TORSDOF 0
ENDMDL
