MODEL 1
REMARK minimizedAffinity 4.17450714
REMARK minimizedRMSD -1
REMARK  0 active torsions:
REMARK  status: ('A' for Active; 'I' for Inactive)
ROOT
ATOM      1  C   UNL d   1      -4.135   5.995  -4.030  0.00  0.00    -0.002 A 
ATOM      2  C1  UNL d   1      -5.216   5.997  -3.161  0.00  0.00     0.010 A 
ATOM      3  C2  UNL d   1      -5.017   5.997  -1.779  0.00  0.00     0.041 A 
ATOM      4  C3  UNL d   1      -3.699   5.998  -1.280  0.00  0.00    -0.075 A 
ATOM      5  S   UNL d   1      -3.213   5.999   0.374  0.00  0.00     0.015 SA
ATOM      6  C4  UNL d   1      -1.559   5.999  -0.034  0.00  0.00     0.022 A 
ATOM      7  C5  UNL d   1      -1.363   5.997  -1.395  0.00  0.00     0.026 A 
ATOM      8  C6  UNL d   1      -2.594   5.997  -2.136  0.00  0.00    -0.082 A 
ATOM      9  C7  UNL d   1      -2.829   5.996  -3.532  0.00  0.00     0.045 A 
ENDROOT
TORSDOF 0
ENDMDL
