MODEL 1
REMARK minimizedAffinity 10.5856438
REMARK minimizedRMSD -1
REMARK  0 active torsions:
REMARK  status: ('A' for Active; 'I' for Inactive)
ROOT
ATOM      1  C   UNL d   1       1.554   1.752   0.466  0.00  0.00    -0.002 A 
ATOM      2  C1  UNL d   1       1.884   0.713  -0.393  0.00  0.00     0.010 A 
ATOM      3  C2  UNL d   1       1.271  -0.535  -0.267  0.00  0.00     0.041 A 
ATOM      4  C3  UNL d   1       0.308  -0.722   0.745  0.00  0.00    -0.075 A 
ATOM      5  S   UNL d   1      -0.573  -2.164   1.087  0.00  0.00     0.015 SA
ATOM      6  C4  UNL d   1      -1.411  -1.434   2.380  0.00  0.00     0.022 A 
ATOM      7  C5  UNL d   1      -1.038  -0.123   2.560  0.00  0.00     0.026 A 
ATOM      8  C6  UNL d   1      -0.042   0.309   1.621  0.00  0.00    -0.082 A 
ATOM      9  C7  UNL d   1       0.599   1.562   1.468  0.00  0.00     0.045 A 
ENDROOT
TORSDOF 0
ENDMDL
