MODEL 1
REMARK minimizedAffinity 0.399600387
REMARK minimizedRMSD -1
REMARK  0 active torsions:
REMARK  status: ('A' for Active; 'I' for Inactive)
ROOT
ATOM      1  C   UNL d   1       1.800   2.179  -0.003  0.00  0.00    -0.002 A 
ATOM      2  C1  UNL d   1       2.044   1.132  -0.880  0.00  0.00     0.010 A 
ATOM      3  C2  UNL d   1       1.269  -0.029  -0.833  0.00  0.00     0.041 A 
ATOM      4  C3  UNL d   1       0.233  -0.118   0.118  0.00  0.00    -0.075 A 
ATOM      5  S   UNL d   1      -0.845  -1.442   0.359  0.00  0.00     0.015 SA
ATOM      6  C4  UNL d   1      -1.656  -0.647   1.630  0.00  0.00     0.022 A 
ATOM      7  C5  UNL d   1      -1.129   0.598   1.878  0.00  0.00     0.026 A 
ATOM      8  C6  UNL d   1      -0.033   0.924   1.010  0.00  0.00    -0.082 A 
ATOM      9  C7  UNL d   1       0.772   2.087   0.938  0.00  0.00     0.045 A 
ENDROOT
TORSDOF 0
ENDMDL
