MODEL 1
REMARK minimizedAffinity 3.58232808
REMARK minimizedRMSD -1
REMARK  0 active torsions:
REMARK  status: ('A' for Active; 'I' for Inactive)
ROOT
ATOM      1  C   UNL d   1       1.494   2.339   0.764  0.00  0.00    -0.002 A 
ATOM      2  C1  UNL d   1       1.726   1.072   0.247  0.00  0.00     0.010 A 
ATOM      3  C2  UNL d   1       0.884   0.007   0.573  0.00  0.00     0.041 A 
ATOM      4  C3  UNL d   1      -0.207   0.239   1.434  0.00  0.00    -0.075 A 
ATOM      5  S   UNL d   1      -1.372  -0.913   1.971  0.00  0.00     0.015 SA
ATOM      6  C4  UNL d   1      -2.204   0.249   2.898  0.00  0.00     0.022 A 
ATOM      7  C5  UNL d   1      -1.622   1.491   2.812  0.00  0.00     0.026 A 
ATOM      8  C6  UNL d   1      -0.461   1.506   1.967  0.00  0.00    -0.082 A 
ATOM      9  C7  UNL d   1       0.411   2.565   1.618  0.00  0.00     0.045 A 
ENDROOT
TORSDOF 0
ENDMDL
