MODEL 1
REMARK minimizedAffinity 4.17403412
REMARK minimizedRMSD -1
REMARK  0 active torsions:
REMARK  status: ('A' for Active; 'I' for Inactive)
ROOT
ATOM      1  C   UNL d   1       5.973   4.451  -4.557  0.00  0.00    -0.002 A 
ATOM      2  C1  UNL d   1       5.993   5.463  -5.506  0.00  0.00     0.010 A 
ATOM      3  C2  UNL d   1       4.801   5.998  -5.999  0.00  0.00     0.041 A 
ATOM      4  C3  UNL d   1       3.577   5.496  -5.516  0.00  0.00    -0.075 A 
ATOM      5  S   UNL d   1       1.993   5.999  -5.974  0.00  0.00     0.015 SA
ATOM      6  C4  UNL d   1       1.253   4.883  -4.920  0.00  0.00     0.022 A 
ATOM      7  C5  UNL d   1       2.176   4.137  -4.228  0.00  0.00     0.026 A 
ATOM      8  C6  UNL d   1       3.531   4.477  -4.559  0.00  0.00    -0.082 A 
ATOM      9  C7  UNL d   1       4.757   3.955  -4.080  0.00  0.00     0.045 A 
ENDROOT
TORSDOF 0
ENDMDL
