MODEL 1
REMARK minimizedAffinity 10.8105974
REMARK minimizedRMSD -1
REMARK  0 active torsions:
REMARK  status: ('A' for Active; 'I' for Inactive)
ROOT
ATOM      1  C   UNL d   1       1.620   2.781  -0.781  0.00  0.00    -0.002 A 
ATOM      2  C1  UNL d   1       1.903   1.555  -1.367  0.00  0.00     0.010 A 
ATOM      3  C2  UNL d   1       1.276   0.391  -0.916  0.00  0.00     0.041 A 
ATOM      4  C3  UNL d   1       0.349   0.482   0.141  0.00  0.00    -0.075 A 
ATOM      5  S   UNL d   1      -0.541  -0.810   0.856  0.00  0.00     0.015 SA
ATOM      6  C4  UNL d   1      -1.319   0.236   1.955  0.00  0.00     0.022 A 
ATOM      7  C5  UNL d   1      -0.921   1.542   1.794  0.00  0.00     0.026 A 
ATOM      8  C6  UNL d   1       0.047   1.705   0.746  0.00  0.00    -0.082 A 
ATOM      9  C7  UNL d   1       0.700   2.867   0.267  0.00  0.00     0.045 A 
ENDROOT
TORSDOF 0
ENDMDL
