MODEL 1
REMARK minimizedAffinity 10.0815353
REMARK minimizedRMSD -1
REMARK  0 active torsions:
REMARK  status: ('A' for Active; 'I' for Inactive)
ROOT
ATOM      1  C   UNL d   1       1.846   0.977  -1.034  0.00  0.00    -0.002 A 
ATOM      2  C1  UNL d   1       3.095   0.511  -0.647  0.00  0.00     0.010 A 
ATOM      3  C2  UNL d   1       3.346   0.174   0.685  0.00  0.00     0.041 A 
ATOM      4  C3  UNL d   1       2.310   0.313   1.630  0.00  0.00    -0.075 A 
ATOM      5  S   UNL d   1       2.387  -0.039   3.316  0.00  0.00     0.015 SA
ATOM      6  C4  UNL d   1       0.764   0.420   3.562  0.00  0.00     0.022 A 
ATOM      7  C5  UNL d   1       0.163   0.835   2.397  0.00  0.00     0.026 A 
ATOM      8  C6  UNL d   1       1.044   0.780   1.264  0.00  0.00    -0.082 A 
ATOM      9  C7  UNL d   1       0.822   1.114  -0.093  0.00  0.00     0.045 A 
ENDROOT
TORSDOF 0
ENDMDL
