MODEL 1
REMARK minimizedAffinity 9.84550762
REMARK minimizedRMSD -1
REMARK  0 active torsions:
REMARK  status: ('A' for Active; 'I' for Inactive)
ROOT
ATOM      1  O1  BZF d   1      -2.884  -5.996  -2.698  0.00  0.00    -0.204 OA
ATOM      2  C2  BZF d   1      -4.049  -6.000  -1.955  0.00  0.00     0.174 A 
ATOM      3  C3  BZF d   1      -4.342  -4.758  -1.518  0.00  0.00    -0.012 A 
ATOM      4  C3A BZF d   1      -3.345  -3.911  -2.095  0.00  0.00    -0.107 A 
ATOM      5  C4  BZF d   1      -3.111  -2.566  -2.044  0.00  0.00     0.055 A 
ATOM      6  C5  BZF d   1      -2.009  -2.064  -2.660  0.00  0.00    -0.016 A 
ATOM      7  C6  BZF d   1      -1.118  -2.876  -3.331  0.00  0.00     0.022 A 
ATOM      8  C7  BZF d   1      -1.311  -4.215  -3.414  0.00  0.00     0.029 A 
ATOM      9  C7A BZF d   1      -2.441  -4.721  -2.821  0.00  0.00     0.058 A 
ENDROOT
TORSDOF 0
ENDMDL
