MODEL 1
REMARK minimizedAffinity 8.74783516
REMARK minimizedRMSD -1
REMARK  0 active torsions:
REMARK  status: ('A' for Active; 'I' for Inactive)
ROOT
ATOM      1  O1  BZF d   1       2.405   0.018   1.609  0.00  0.00    -0.204 OA
ATOM      2  C2  BZF d   1       1.592   1.078   1.256  0.00  0.00     0.174 A 
ATOM      3  C3  BZF d   1       2.323   2.099   0.767  0.00  0.00    -0.012 A 
ATOM      4  C3A BZF d   1       3.669   1.615   0.730  0.00  0.00    -0.107 A 
ATOM      5  C4  BZF d   1       4.853   2.163   0.326  0.00  0.00     0.055 A 
ATOM      6  C5  BZF d   1       5.999   1.452   0.490  0.00  0.00    -0.016 A 
ATOM      7  C6  BZF d   1       5.999   0.194   1.057  0.00  0.00     0.022 A 
ATOM      8  C7  BZF d   1       4.849  -0.392   1.469  0.00  0.00     0.029 A 
ATOM      9  C7A BZF d   1       3.685   0.310   1.275  0.00  0.00     0.058 A 
ENDROOT
TORSDOF 0
ENDMDL
