MODEL 1
REMARK minimizedAffinity 13.0558929
REMARK minimizedRMSD -1
REMARK  0 active torsions:
REMARK  status: ('A' for Active; 'I' for Inactive)
ROOT
ATOM      1  O1  BZF d   1       4.458  -0.774   2.546  0.00  0.00    -0.204 OA
ATOM      2  C2  BZF d   1       5.778  -0.378   2.637  0.00  0.00     0.174 A 
ATOM      3  C3  BZF d   1       5.997   0.731   1.902  0.00  0.00    -0.012 A 
ATOM      4  C3A BZF d   1       4.715   1.101   1.387  0.00  0.00    -0.107 A 
ATOM      5  C4  BZF d   1       4.280   2.127   0.598  0.00  0.00     0.055 A 
ATOM      6  C5  BZF d   1       2.976   2.161   0.217  0.00  0.00    -0.016 A 
ATOM      7  C6  BZF d   1       2.082   1.183   0.602  0.00  0.00     0.022 A 
ATOM      8  C7  BZF d   1       2.465   0.148   1.389  0.00  0.00     0.029 A 
ATOM      9  C7A BZF d   1       3.775   0.130   1.803  0.00  0.00     0.058 A 
ENDROOT
TORSDOF 0
ENDMDL
