MODEL 1
REMARK minimizedAffinity 5.64004087
REMARK minimizedRMSD -1
REMARK  0 active torsions:
REMARK  status: ('A' for Active; 'I' for Inactive)
ROOT
ATOM      1  O1  BZF d   1      -0.536   2.780   1.970  0.00  0.00    -0.204 OA
ATOM      2  C2  BZF d   1       0.759   2.299   1.957  0.00  0.00     0.174 A 
ATOM      3  C3  BZF d   1       0.802   1.026   2.399  0.00  0.00    -0.012 A 
ATOM      4  C3A BZF d   1      -0.563   0.659   2.620  0.00  0.00    -0.107 A 
ATOM      5  C4  BZF d   1      -1.170  -0.488   3.047  0.00  0.00     0.055 A 
ATOM      6  C5  BZF d   1      -2.517  -0.495   3.226  0.00  0.00    -0.016 A 
ATOM      7  C6  BZF d   1      -3.287   0.626   2.994  0.00  0.00     0.022 A 
ATOM      8  C7  BZF d   1      -2.731   1.785   2.564  0.00  0.00     0.029 A 
ATOM      9  C7A BZF d   1      -1.374   1.786   2.351  0.00  0.00     0.058 A 
ENDROOT
TORSDOF 0
ENDMDL
