MODEL 1
REMARK minimizedAffinity 6.67965746
REMARK minimizedRMSD -1
REMARK  0 active torsions:
REMARK  status: ('A' for Active; 'I' for Inactive)
ROOT
ATOM      1  O1  BZF d   1       1.087   0.724   2.570  0.00  0.00    -0.204 OA
ATOM      2  C2  BZF d   1       0.522   1.966   2.355  0.00  0.00     0.174 A 
ATOM      3  C3  BZF d   1       1.343   2.746   1.623  0.00  0.00    -0.012 A 
ATOM      4  C3A BZF d   1       2.454   1.910   1.285  0.00  0.00    -0.107 A 
ATOM      5  C4  BZF d   1       3.592   2.109   0.557  0.00  0.00     0.055 A 
ATOM      6  C5  BZF d   1       4.510   1.110   0.480  0.00  0.00    -0.016 A 
ATOM      7  C6  BZF d   1       4.325  -0.097   1.122  0.00  0.00     0.022 A 
ATOM      8  C7  BZF d   1       3.210  -0.343   1.851  0.00  0.00     0.029 A 
ATOM      9  C7A BZF d   1       2.265   0.652   1.904  0.00  0.00     0.058 A 
ENDROOT
TORSDOF 0
ENDMDL
