MODEL 1
REMARK minimizedAffinity 13.2778206
REMARK minimizedRMSD -1
REMARK  0 active torsions:
REMARK  status: ('A' for Active; 'I' for Inactive)
ROOT
ATOM      1  O1  BZF d   1       0.156   2.848   1.617  0.00  0.00    -0.204 OA
ATOM      2  C2  BZF d   1      -0.804   2.209   2.377  0.00  0.00     0.174 A 
ATOM      3  C3  BZF d   1      -0.400   0.968   2.714  0.00  0.00    -0.012 A 
ATOM      4  C3A BZF d   1       0.933   0.855   2.206  0.00  0.00    -0.107 A 
ATOM      5  C4  BZF d   1       1.870  -0.138   2.237  0.00  0.00     0.055 A 
ATOM      6  C5  BZF d   1       3.047   0.043   1.583  0.00  0.00    -0.016 A 
ATOM      7  C6  BZF d   1       3.318   1.200   0.883  0.00  0.00     0.022 A 
ATOM      8  C7  BZF d   1       2.422   2.215   0.826  0.00  0.00     0.029 A 
ATOM      9  C7A BZF d   1       1.245   2.049   1.515  0.00  0.00     0.058 A 
ENDROOT
TORSDOF 0
ENDMDL
