MODEL 1
REMARK minimizedAffinity 3.5764358
REMARK minimizedRMSD -1
REMARK  0 active torsions:
REMARK  status: ('A' for Active; 'I' for Inactive)
ROOT
ATOM      1  O1  BZF d   1      -4.300  -4.442  -4.293  0.00  0.00    -0.204 OA
ATOM      2  C2  BZF d   1      -5.233  -4.971  -3.423  0.00  0.00     0.174 A 
ATOM      3  C3  BZF d   1      -4.979  -4.585  -2.156  0.00  0.00    -0.012 A 
ATOM      4  C3A BZF d   1      -3.868  -3.688  -2.251  0.00  0.00    -0.107 A 
ATOM      5  C4  BZF d   1      -3.165  -2.963  -1.332  0.00  0.00     0.055 A 
ATOM      6  C5  BZF d   1      -2.088  -2.243  -1.743  0.00  0.00    -0.016 A 
ATOM      7  C6  BZF d   1      -1.685  -2.229  -3.062  0.00  0.00     0.022 A 
ATOM      8  C7  BZF d   1      -2.354  -2.928  -4.011  0.00  0.00     0.029 A 
ATOM      9  C7A BZF d   1      -3.462  -3.630  -3.604  0.00  0.00     0.058 A 
ENDROOT
TORSDOF 0
ENDMDL
