MODEL 1
REMARK minimizedAffinity 3.07400703
REMARK minimizedRMSD -1
REMARK  0 active torsions:
REMARK  status: ('A' for Active; 'I' for Inactive)
ROOT
ATOM      1  O1  BZF d   1       4.738  -0.615   2.308  0.00  0.00    -0.204 OA
ATOM      2  C2  BZF d   1       5.998  -0.049   2.319  0.00  0.00     0.174 A 
ATOM      3  C3  BZF d   1       6.000   1.128   1.661  0.00  0.00    -0.012 A 
ATOM      4  C3A BZF d   1       4.636   1.354   1.291  0.00  0.00    -0.107 A 
ATOM      5  C4  BZF d   1       3.998   2.364   0.629  0.00  0.00     0.055 A 
ATOM      6  C5  BZF d   1       2.670   2.245   0.366  0.00  0.00    -0.016 A 
ATOM      7  C6  BZF d   1       1.952   1.130   0.744  0.00  0.00     0.022 A 
ATOM      8  C7  BZF d   1       2.540   0.105   1.407  0.00  0.00     0.029 A 
ATOM      9  C7A BZF d   1       3.875   0.236   1.704  0.00  0.00     0.058 A 
ENDROOT
TORSDOF 0
ENDMDL
