MODEL 1
REMARK minimizedAffinity -3.80801368
REMARK minimizedRMSD -1
REMARK  0 active torsions:
REMARK  status: ('A' for Active; 'I' for Inactive)
ROOT
ATOM      1  O1  BZF d   1       2.575  -0.273   0.894  0.00  0.00    -0.204 OA
ATOM      2  C2  BZF d   1       1.789   0.749   0.396  0.00  0.00     0.174 A 
ATOM      3  C3  BZF d   1       2.455   1.921   0.423  0.00  0.00    -0.012 A 
ATOM      4  C3A BZF d   1       3.769   1.597   0.886  0.00  0.00    -0.107 A 
ATOM      5  C4  BZF d   1       4.895   2.337   1.108  0.00  0.00     0.055 A 
ATOM      6  C5  BZF d   1       5.993   1.729   1.631  0.00  0.00    -0.016 A 
ATOM      7  C6  BZF d   1       5.997   0.386   1.947  0.00  0.00     0.022 A 
ATOM      8  C7  BZF d   1       4.906  -0.390   1.739  0.00  0.00     0.029 A 
ATOM      9  C7A BZF d   1       3.806   0.215   1.180  0.00  0.00     0.058 A 
ENDROOT
TORSDOF 0
ENDMDL
