MODEL 1
REMARK minimizedAffinity -3.37744498
REMARK minimizedRMSD -1
REMARK  0 active torsions:
REMARK  status: ('A' for Active; 'I' for Inactive)
ROOT
ATOM      1  O1  BZF d   1      -5.665   4.956   3.780  0.00  0.00    -0.204 OA
ATOM      2  C2  BZF d   1      -5.981   5.608   4.956  0.00  0.00     0.174 A 
ATOM      3  C3  BZF d   1      -5.950   4.754   6.000  0.00  0.00    -0.012 A 
ATOM      4  C3A BZF d   1      -5.501   3.509   5.455  0.00  0.00    -0.107 A 
ATOM      5  C4  BZF d   1      -5.254   2.281   5.998  0.00  0.00     0.055 A 
ATOM      6  C5  BZF d   1      -4.897   1.257   5.179  0.00  0.00    -0.016 A 
ATOM      7  C6  BZF d   1      -4.783   1.424   3.814  0.00  0.00     0.022 A 
ATOM      8  C7  BZF d   1      -5.013   2.625   3.230  0.00  0.00     0.029 A 
ATOM      9  C7A BZF d   1      -5.342   3.670   4.059  0.00  0.00     0.058 A 
ENDROOT
TORSDOF 0
ENDMDL
