MODEL 1
REMARK minimizedAffinity 8.44300556
REMARK minimizedRMSD -1
REMARK  0 active torsions:
REMARK  status: ('A' for Active; 'I' for Inactive)
ROOT
ATOM      1  O1  BZF d   1      -4.448   0.063   2.623  0.00  0.00    -0.204 OA
ATOM      2  C2  BZF d   1      -4.118   1.331   3.060  0.00  0.00     0.174 A 
ATOM      3  C3  BZF d   1      -4.489   1.506   4.345  0.00  0.00    -0.012 A 
ATOM      4  C3A BZF d   1      -5.005   0.239   4.763  0.00  0.00    -0.107 A 
ATOM      5  C4  BZF d   1      -5.515  -0.224   5.943  0.00  0.00     0.055 A 
ATOM      6  C5  BZF d   1      -5.999  -1.493   6.000  0.00  0.00    -0.016 A 
ATOM      7  C6  BZF d   1      -5.994  -2.322   4.898  0.00  0.00     0.022 A 
ATOM      8  C7  BZF d   1      -5.493  -1.910   3.708  0.00  0.00     0.029 A 
ATOM      9  C7A BZF d   1      -4.973  -0.639   3.655  0.00  0.00     0.058 A 
ENDROOT
TORSDOF 0
ENDMDL
