MODEL 1
REMARK minimizedAffinity 12.5362492
REMARK minimizedRMSD -1
REMARK  0 active torsions:
REMARK  status: ('A' for Active; 'I' for Inactive)
ROOT
ATOM      1  O1  BZF d   1       1.021  -3.570  -1.144  0.00  0.00    -0.204 OA
ATOM      2  C2  BZF d   1       1.102  -2.744  -0.040  0.00  0.00     0.174 A 
ATOM      3  C3  BZF d   1      -0.048  -2.062   0.132  0.00  0.00    -0.012 A 
ATOM      4  C3A BZF d   1      -0.934  -2.555  -0.877  0.00  0.00    -0.107 A 
ATOM      5  C4  BZF d   1      -2.229  -2.276  -1.209  0.00  0.00     0.055 A 
ATOM      6  C5  BZF d   1      -2.778  -2.881  -2.295  0.00  0.00    -0.016 A 
ATOM      7  C6  BZF d   1      -2.060  -3.764  -3.074  0.00  0.00     0.022 A 
ATOM      8  C7  BZF d   1      -0.774  -4.077  -2.782  0.00  0.00     0.029 A 
ATOM      9  C7A BZF d   1      -0.227  -3.493  -1.666  0.00  0.00     0.058 A 
ENDROOT
TORSDOF 0
ENDMDL
