MODEL 1
REMARK minimizedAffinity 18.7715282
REMARK minimizedRMSD -1
REMARK  0 active torsions:
REMARK  status: ('A' for Active; 'I' for Inactive)
ROOT
ATOM      1  O1  BZF d   1       3.242   0.057   3.487  0.00  0.00    -0.204 OA
ATOM      2  C2  BZF d   1       2.008   0.294   4.061  0.00  0.00     0.174 A 
ATOM      3  C3  BZF d   1       1.143   0.783   3.150  0.00  0.00    -0.012 A 
ATOM      4  C3A BZF d   1       1.855   0.769   1.909  0.00  0.00    -0.107 A 
ATOM      5  C4  BZF d   1       1.523   1.122   0.632  0.00  0.00     0.055 A 
ATOM      6  C5  BZF d   1       2.472   1.057  -0.339  0.00  0.00    -0.016 A 
ATOM      7  C6  BZF d   1       3.761   0.649  -0.068  0.00  0.00     0.022 A 
ATOM      8  C7  BZF d   1       4.136   0.285   1.183  0.00  0.00     0.029 A 
ATOM      9  C7A BZF d   1       3.171   0.318   2.159  0.00  0.00     0.058 A 
ENDROOT
TORSDOF 0
ENDMDL
