MODEL 1
REMARK minimizedAffinity 10.464241
REMARK minimizedRMSD -1
REMARK  0 active torsions:
REMARK  status: ('A' for Active; 'I' for Inactive)
ROOT
ATOM      1  O1  BZF d   1      -0.665  -3.994  -2.979  0.00  0.00    -0.204 OA
ATOM      2  C2  BZF d   1      -1.820  -3.720  -3.685  0.00  0.00     0.174 A 
ATOM      3  C3  BZF d   1      -2.780  -3.243  -2.866  0.00  0.00    -0.012 A 
ATOM      4  C3A BZF d   1      -2.157  -3.130  -1.582  0.00  0.00    -0.107 A 
ATOM      5  C4  BZF d   1      -2.592  -2.699  -0.362  0.00  0.00     0.055 A 
ATOM      6  C5  BZF d   1      -1.756  -2.785   0.706  0.00  0.00    -0.016 A 
ATOM      7  C6  BZF d   1      -0.482  -3.300   0.590  0.00  0.00     0.022 A 
ATOM      8  C7  BZF d   1      -0.003  -3.735  -0.601  0.00  0.00     0.029 A 
ATOM      9  C7A BZF d   1      -0.834  -3.619  -1.688  0.00  0.00     0.058 A 
ENDROOT
TORSDOF 0
ENDMDL
