MODEL 1
REMARK minimizedAffinity 14.5349731
REMARK minimizedRMSD -1
REMARK  0 active torsions:
REMARK  status: ('A' for Active; 'I' for Inactive)
ROOT
ATOM      1  O1  BZF d   1      -2.235  -1.756  -3.891  0.00  0.00    -0.204 OA
ATOM      2  C2  BZF d   1      -2.147  -1.856  -2.516  0.00  0.00     0.174 A 
ATOM      3  C3  BZF d   1      -0.999  -2.465  -2.153  0.00  0.00    -0.012 A 
ATOM      4  C3A BZF d   1      -0.285  -2.681  -3.374  0.00  0.00    -0.107 A 
ATOM      5  C4  BZF d   1       0.929  -3.233  -3.666  0.00  0.00     0.055 A 
ATOM      6  C5  BZF d   1       1.301  -3.360  -4.967  0.00  0.00    -0.016 A 
ATOM      7  C6  BZF d   1       0.482  -2.951  -5.999  0.00  0.00     0.022 A 
ATOM      8  C7  BZF d   1      -0.729  -2.394  -5.759  0.00  0.00     0.029 A 
ATOM      9  C7A BZF d   1      -1.094  -2.234  -4.444  0.00  0.00     0.058 A 
ENDROOT
TORSDOF 0
ENDMDL
