MODEL 1
REMARK minimizedAffinity 16.9436836
REMARK minimizedRMSD -1
REMARK  0 active torsions:
REMARK  status: ('A' for Active; 'I' for Inactive)
ROOT
ATOM      1  O1  BZF d   1       3.506  -0.197   2.581  0.00  0.00    -0.204 OA
ATOM      2  C2  BZF d   1       3.600   0.433   1.355  0.00  0.00     0.174 A 
ATOM      3  C3  BZF d   1       2.553   1.260   1.161  0.00  0.00    -0.012 A 
ATOM      4  C3A BZF d   1       1.802   1.209   2.379  0.00  0.00    -0.107 A 
ATOM      5  C4  BZF d   1       0.662   1.827   2.805  0.00  0.00     0.055 A 
ATOM      6  C5  BZF d   1       0.151   1.504   4.022  0.00  0.00    -0.016 A 
ATOM      7  C6  BZF d   1       0.751   0.565   4.835  0.00  0.00     0.022 A 
ATOM      8  C7  BZF d   1       1.887  -0.071   4.458  0.00  0.00     0.029 A 
ATOM      9  C7A BZF d   1       2.424   0.278   3.242  0.00  0.00     0.058 A 
ENDROOT
TORSDOF 0
ENDMDL
