MODEL 1
REMARK minimizedAffinity 8.41665173
REMARK minimizedRMSD -1
REMARK  0 active torsions:
REMARK  status: ('A' for Active; 'I' for Inactive)
ROOT
ATOM      1  O1  BZF d   1       4.242  -0.681   3.121  0.00  0.00    -0.204 OA
ATOM      2  C2  BZF d   1       5.374  -0.620   2.331  0.00  0.00     0.174 A 
ATOM      3  C3  BZF d   1       5.117   0.027   1.176  0.00  0.00    -0.012 A 
ATOM      4  C3A BZF d   1       3.762   0.473   1.288  0.00  0.00    -0.107 A 
ATOM      5  C4  BZF d   1       2.937   1.187   0.466  0.00  0.00     0.055 A 
ATOM      6  C5  BZF d   1       1.647   1.391   0.840  0.00  0.00    -0.016 A 
ATOM      7  C6  BZF d   1       1.147   0.892   2.025  0.00  0.00     0.022 A 
ATOM      8  C7  BZF d   1       1.928   0.183   2.876  0.00  0.00     0.029 A 
ATOM      9  C7A BZF d   1       3.241   0.003   2.516  0.00  0.00     0.058 A 
ENDROOT
TORSDOF 0
ENDMDL
