MODEL 1
REMARK minimizedAffinity 14.304924
REMARK minimizedRMSD -1
REMARK  0 active torsions:
REMARK  status: ('A' for Active; 'I' for Inactive)
ROOT
ATOM      1  O1  BZF d   1      -3.543  -3.027  -1.174  0.00  0.00    -0.204 OA
ATOM      2  C2  BZF d   1      -2.943  -2.903  -2.412  0.00  0.00     0.174 A 
ATOM      3  C3  BZF d   1      -1.626  -2.643  -2.281  0.00  0.00    -0.012 A 
ATOM      4  C3A BZF d   1      -1.370  -2.694  -0.874  0.00  0.00    -0.107 A 
ATOM      5  C4  BZF d   1      -0.244  -2.535  -0.119  0.00  0.00     0.055 A 
ATOM      6  C5  BZF d   1      -0.346  -2.574   1.236  0.00  0.00    -0.016 A 
ATOM      7  C6  BZF d   1      -1.558  -2.766   1.867  0.00  0.00     0.022 A 
ATOM      8  C7  BZF d   1      -2.702  -2.934   1.160  0.00  0.00     0.029 A 
ATOM      9  C7A BZF d   1      -2.596  -2.927  -0.210  0.00  0.00     0.058 A 
ENDROOT
TORSDOF 0
ENDMDL
