MODEL 1
REMARK minimizedAffinity 8.16813946
REMARK minimizedRMSD -1
REMARK  0 active torsions:
REMARK  status: ('A' for Active; 'I' for Inactive)
ROOT
ATOM      1  O1  BZF d   1      -0.805  -3.825  -2.464  0.00  0.00    -0.204 OA
ATOM      2  C2  BZF d   1      -2.019  -3.657  -3.101  0.00  0.00     0.174 A 
ATOM      3  C3  BZF d   1      -2.974  -3.287  -2.223  0.00  0.00    -0.012 A 
ATOM      4  C3A BZF d   1      -2.294  -3.130  -0.973  0.00  0.00    -0.107 A 
ATOM      5  C4  BZF d   1      -2.702  -2.761   0.277  0.00  0.00     0.055 A 
ATOM      6  C5  BZF d   1      -1.803  -2.778   1.296  0.00  0.00    -0.016 A 
ATOM      7  C6  BZF d   1      -0.493  -3.164   1.103  0.00  0.00     0.022 A 
ATOM      8  C7  BZF d   1      -0.041  -3.534  -0.120  0.00  0.00     0.029 A 
ATOM      9  C7A BZF d   1      -0.938  -3.486  -1.159  0.00  0.00     0.058 A 
ENDROOT
TORSDOF 0
ENDMDL
