MODEL 1
REMARK minimizedAffinity 0.580184579
REMARK minimizedRMSD -1
REMARK  0 active torsions:
REMARK  status: ('A' for Active; 'I' for Inactive)
ROOT
ATOM      1  C2' OXE d   1       2.050   1.485   0.819  0.00  0.00     0.078 C 
ATOM      2  C1' OXE d   1       3.377   2.044  -1.590  0.00  0.00     0.078 C 
ATOM      3  C1  OXE d   1       4.014   1.051  -0.651  0.00  0.00    -0.078 A 
ATOM      4  C2  OXE d   1       3.381   0.818   0.547  0.00  0.00    -0.078 A 
ATOM      5  C3  OXE d   1       3.897  -0.130   1.426  0.00  0.00     0.003 A 
ATOM      6  C4  OXE d   1       5.134  -0.735   1.171  0.00  0.00    -0.002 A 
ATOM      7  C5  OXE d   1       5.814  -0.482  -0.025  0.00  0.00    -0.002 A 
ATOM      8  C6  OXE d   1       5.248   0.374  -0.964  0.00  0.00     0.003 A 
ENDROOT
TORSDOF 0
ENDMDL
