MODEL 1
REMARK minimizedAffinity 8.17699528
REMARK minimizedRMSD -1
REMARK  0 active torsions:
REMARK  status: ('A' for Active; 'I' for Inactive)
ROOT
ATOM      1  C2' OXE d   1       5.637  -0.830   0.791  0.00  0.00     0.078 C 
ATOM      2  C1' OXE d   1       4.070  -0.863   3.119  0.00  0.00     0.078 C 
ATOM      3  C1  OXE d   1       3.637   0.042   1.993  0.00  0.00    -0.078 A 
ATOM      4  C2  OXE d   1       4.436   0.086   0.876  0.00  0.00    -0.078 A 
ATOM      5  C3  OXE d   1       4.054   0.863  -0.214  0.00  0.00     0.003 A 
ATOM      6  C4  OXE d   1       2.947   1.716  -0.124  0.00  0.00    -0.002 A 
ATOM      7  C5  OXE d   1       2.142   1.715   1.020  0.00  0.00    -0.002 A 
ATOM      8  C6  OXE d   1       2.448   0.855   2.068  0.00  0.00     0.003 A 
ENDROOT
TORSDOF 0
ENDMDL
