MODEL 1
REMARK minimizedAffinity 8.20218563
REMARK minimizedRMSD -1
REMARK  0 active torsions:
REMARK  status: ('A' for Active; 'I' for Inactive)
ROOT
ATOM      1  C2' OXE d   1       5.890  -1.271   0.943  0.00  0.00     0.078 C 
ATOM      2  C1' OXE d   1       4.677  -0.978   3.458  0.00  0.00     0.078 C 
ATOM      3  C1  OXE d   1       4.068  -0.240   2.293  0.00  0.00    -0.078 A 
ATOM      4  C2  OXE d   1       4.695  -0.351   1.075  0.00  0.00    -0.078 A 
ATOM      5  C3  OXE d   1       4.144   0.265  -0.044  0.00  0.00     0.003 A 
ATOM      6  C4  OXE d   1       3.044   1.122   0.089  0.00  0.00    -0.002 A 
ATOM      7  C5  OXE d   1       2.414   1.281   1.327  0.00  0.00    -0.002 A 
ATOM      8  C6  OXE d   1       2.886   0.576   2.428  0.00  0.00     0.003 A 
ENDROOT
TORSDOF 0
ENDMDL
