MODEL 1
REMARK minimizedAffinity 16.1076031
REMARK minimizedRMSD -1
REMARK  0 active torsions:
REMARK  status: ('A' for Active; 'I' for Inactive)
ROOT
ATOM      1  C2' OXE d   1      -1.610  -2.789  -4.659  0.00  0.00     0.078 C 
ATOM      2  C1' OXE d   1      -2.427  -2.400  -2.002  0.00  0.00     0.078 C 
ATOM      3  C1  OXE d   1      -3.496  -2.635  -3.039  0.00  0.00    -0.078 A 
ATOM      4  C2  OXE d   1      -3.090  -2.778  -4.344  0.00  0.00    -0.078 A 
ATOM      5  C3  OXE d   1      -4.031  -3.051  -5.333  0.00  0.00     0.003 A 
ATOM      6  C4  OXE d   1      -5.399  -3.029  -5.035  0.00  0.00    -0.002 A 
ATOM      7  C5  OXE d   1      -5.836  -2.845  -3.719  0.00  0.00    -0.002 A 
ATOM      8  C6  OXE d   1      -4.898  -2.690  -2.705  0.00  0.00     0.003 A 
ENDROOT
TORSDOF 0
ENDMDL
