MODEL 1
REMARK minimizedAffinity 7.74936295
REMARK minimizedRMSD -1
REMARK  0 active torsions:
REMARK  status: ('A' for Active; 'I' for Inactive)
ROOT
ATOM      1  C2' OXE d   1      -3.441   2.967   3.428  0.00  0.00     0.078 C 
ATOM      2  C1' OXE d   1      -4.862   3.649   5.751  0.00  0.00     0.078 C 
ATOM      3  C1  OXE d   1      -4.929   2.218   5.280  0.00  0.00    -0.078 A 
ATOM      4  C2  OXE d   1      -4.269   1.903   4.117  0.00  0.00    -0.078 A 
ATOM      5  C3  OXE d   1      -4.253   0.586   3.668  0.00  0.00     0.003 A 
ATOM      6  C4  OXE d   1      -5.029  -0.390   4.305  0.00  0.00    -0.002 A 
ATOM      7  C5  OXE d   1      -5.741  -0.082   5.469  0.00  0.00    -0.002 A 
ATOM      8  C6  OXE d   1      -5.667   1.204   5.993  0.00  0.00     0.003 A 
ENDROOT
TORSDOF 0
ENDMDL
