MODEL 1
REMARK minimizedAffinity 11.8204317
REMARK minimizedRMSD -1
REMARK  0 active torsions:
REMARK  status: ('A' for Active; 'I' for Inactive)
ROOT
ATOM      1  C2' OXE d   1       2.492  -0.808   3.858  0.00  0.00     0.078 C 
ATOM      2  C1' OXE d   1       5.143  -0.905   4.779  0.00  0.00     0.078 C 
ATOM      3  C1  OXE d   1       4.914  -0.943   3.288  0.00  0.00    -0.078 A 
ATOM      4  C2  OXE d   1       3.612  -0.942   2.849  0.00  0.00    -0.078 A 
ATOM      5  C3  OXE d   1       3.346  -0.921   1.482  0.00  0.00     0.003 A 
ATOM      6  C4  OXE d   1       4.386  -1.056   0.555  0.00  0.00    -0.002 A 
ATOM      7  C5  OXE d   1       5.718  -1.099   0.984  0.00  0.00    -0.002 A 
ATOM      8  C6  OXE d   1       6.000  -1.001   2.342  0.00  0.00     0.003 A 
ENDROOT
TORSDOF 0
ENDMDL
