MODEL 1
REMARK minimizedAffinity 10.1930599
REMARK minimizedRMSD -1
REMARK  0 active torsions:
REMARK  status: ('A' for Active; 'I' for Inactive)
ROOT
ATOM      1  C2' OXE d   1      -4.423  -0.427   2.993  0.00  0.00     0.078 C 
ATOM      2  C1' OXE d   1      -5.999  -0.968   5.252  0.00  0.00     0.078 C 
ATOM      3  C1  OXE d   1      -5.485   0.439   5.073  0.00  0.00    -0.078 A 
ATOM      4  C2  OXE d   1      -4.676   0.683   3.990  0.00  0.00    -0.078 A 
ATOM      5  C3  OXE d   1      -4.220   1.976   3.748  0.00  0.00     0.003 A 
ATOM      6  C4  OXE d   1      -4.451   2.995   4.680  0.00  0.00    -0.002 A 
ATOM      7  C5  OXE d   1      -5.239   2.758   5.811  0.00  0.00    -0.002 A 
ATOM      8  C6  OXE d   1      -5.798   1.498   6.000  0.00  0.00     0.003 A 
ENDROOT
TORSDOF 0
ENDMDL
