MODEL 1
REMARK minimizedAffinity 9.46175575
REMARK minimizedRMSD -1
REMARK  0 active torsions:
REMARK  status: ('A' for Active; 'I' for Inactive)
ROOT
ATOM      1  C2' OXE d   1       2.097   1.412   0.792  0.00  0.00     0.078 C 
ATOM      2  C1' OXE d   1       4.069   1.568  -1.199  0.00  0.00     0.078 C 
ATOM      3  C1  OXE d   1       4.272   0.573  -0.084  0.00  0.00    -0.078 A 
ATOM      4  C2  OXE d   1       3.325   0.536   0.911  0.00  0.00    -0.078 A 
ATOM      5  C3  OXE d   1       3.436  -0.401   1.934  0.00  0.00     0.003 A 
ATOM      6  C4  OXE d   1       4.580  -1.201   2.042  0.00  0.00    -0.002 A 
ATOM      7  C5  OXE d   1       5.576  -1.151   1.060  0.00  0.00    -0.002 A 
ATOM      8  C6  OXE d   1       5.417  -0.302  -0.030  0.00  0.00     0.003 A 
ENDROOT
TORSDOF 0
ENDMDL
