MODEL 1
REMARK minimizedAffinity 16.1185722
REMARK minimizedRMSD -1
REMARK  0 active torsions:
REMARK  status: ('A' for Active; 'I' for Inactive)
ROOT
ATOM      1  C2' OXE d   1       4.721  -0.571   1.132  0.00  0.00     0.078 C 
ATOM      2  C1' OXE d   1       4.361   1.868  -0.210  0.00  0.00     0.078 C 
ATOM      3  C1  OXE d   1       3.185   1.301   0.545  0.00  0.00    -0.078 A 
ATOM      4  C2  OXE d   1       3.356   0.084   1.160  0.00  0.00    -0.078 A 
ATOM      5  C3  OXE d   1       2.321  -0.459   1.915  0.00  0.00     0.003 A 
ATOM      6  C4  OXE d   1       1.059   0.148   1.927  0.00  0.00    -0.002 A 
ATOM      7  C5  OXE d   1       0.852   1.368   1.275  0.00  0.00    -0.002 A 
ATOM      8  C6  OXE d   1       1.914   1.978   0.616  0.00  0.00     0.003 A 
ENDROOT
TORSDOF 0
ENDMDL
