MODEL 1
REMARK minimizedAffinity 18.1518345
REMARK minimizedRMSD -1
REMARK  0 active torsions:
REMARK  status: ('A' for Active; 'I' for Inactive)
ROOT
ATOM      1  C2' OXE d   1      -3.161  -2.089  -0.232  0.00  0.00     0.078 C 
ATOM      2  C1' OXE d   1      -4.285  -3.536  -2.358  0.00  0.00     0.078 C 
ATOM      3  C1  OXE d   1      -2.927  -2.915  -2.570  0.00  0.00    -0.078 A 
ATOM      4  C2  OXE d   1      -2.405  -2.169  -1.540  0.00  0.00    -0.078 A 
ATOM      5  C3  OXE d   1      -1.132  -1.619  -1.663  0.00  0.00     0.003 A 
ATOM      6  C4  OXE d   1      -0.445  -1.690  -2.881  0.00  0.00    -0.002 A 
ATOM      7  C5  OXE d   1      -0.976  -2.411  -3.956  0.00  0.00    -0.002 A 
ATOM      8  C6  OXE d   1      -2.194  -3.063  -3.803  0.00  0.00     0.003 A 
ENDROOT
TORSDOF 0
ENDMDL
