MODEL 1
REMARK minimizedAffinity 4.72242403
REMARK minimizedRMSD -1
REMARK  0 active torsions:
REMARK  status: ('A' for Active; 'I' for Inactive)
ROOT
ATOM      1  C2' OXE d   1      -4.520   3.385   5.901  0.00  0.00     0.078 C 
ATOM      2  C1' OXE d   1      -3.763   2.844   3.253  0.00  0.00     0.078 C 
ATOM      3  C1  OXE d   1      -4.562   1.795   3.985  0.00  0.00    -0.078 A 
ATOM      4  C2  OXE d   1      -4.888   2.048   5.295  0.00  0.00    -0.078 A 
ATOM      5  C3  OXE d   1      -5.670   1.137   6.000  0.00  0.00     0.003 A 
ATOM      6  C4  OXE d   1      -5.998  -0.101   5.435  0.00  0.00    -0.002 A 
ATOM      7  C5  OXE d   1      -5.642  -0.396   4.115  0.00  0.00    -0.002 A 
ATOM      8  C6  OXE d   1      -4.962   0.556   3.363  0.00  0.00     0.003 A 
ENDROOT
TORSDOF 0
ENDMDL
