MODEL 1
REMARK minimizedAffinity 9.69349957
REMARK minimizedRMSD -1
REMARK  0 active torsions:
REMARK  status: ('A' for Active; 'I' for Inactive)
ROOT
ATOM      1  C2' OXE d   1      -5.999  -5.132  -2.574  0.00  0.00     0.078 C 
ATOM      2  C1' OXE d   1      -5.999  -2.739  -4.041  0.00  0.00     0.078 C 
ATOM      3  C1  OXE d   1      -4.833  -3.000  -3.122  0.00  0.00    -0.078 A 
ATOM      4  C2  OXE d   1      -4.864  -4.151  -2.372  0.00  0.00    -0.078 A 
ATOM      5  C3  OXE d   1      -3.787  -4.467  -1.549  0.00  0.00     0.003 A 
ATOM      6  C4  OXE d   1      -2.745  -3.550  -1.361  0.00  0.00    -0.002 A 
ATOM      7  C5  OXE d   1      -2.714  -2.353  -2.084  0.00  0.00    -0.002 A 
ATOM      8  C6  OXE d   1      -3.727  -2.083  -2.998  0.00  0.00     0.003 A 
ENDROOT
TORSDOF 0
ENDMDL
