MODEL 1
REMARK minimizedAffinity 3.99978757
REMARK minimizedRMSD -1
REMARK  0 active torsions:
REMARK  status: ('A' for Active; 'I' for Inactive)
ROOT
ATOM      1  C2' OXE d   1      -2.315   5.561  -1.840  0.00  0.00     0.078 C 
ATOM      2  C1' OXE d   1      -4.772   6.000  -3.126  0.00  0.00     0.078 C 
ATOM      3  C1  OXE d   1      -4.785   5.807  -1.630  0.00  0.00    -0.078 A 
ATOM      4  C2  OXE d   1      -3.584   5.547  -1.015  0.00  0.00    -0.078 A 
ATOM      5  C3  OXE d   1      -3.533   5.416   0.370  0.00  0.00     0.003 A 
ATOM      6  C4  OXE d   1      -4.712   5.394   1.124  0.00  0.00    -0.002 A 
ATOM      7  C5  OXE d   1      -5.950   5.618   0.512  0.00  0.00    -0.002 A 
ATOM      8  C6  OXE d   1      -6.000   5.868  -0.855  0.00  0.00     0.003 A 
ENDROOT
TORSDOF 0
ENDMDL
