MODEL 1
REMARK minimizedAffinity 22.7289753
REMARK minimizedRMSD -1
REMARK  0 active torsions:
REMARK  status: ('A' for Active; 'I' for Inactive)
ROOT
ATOM      1  C2' OXE d   1      -2.680  -2.506  -2.504  0.00  0.00     0.078 C 
ATOM      2  C1' OXE d   1      -3.205  -5.252  -2.244  0.00  0.00     0.078 C 
ATOM      3  C1  OXE d   1      -2.031  -4.837  -3.096  0.00  0.00    -0.078 A 
ATOM      4  C2  OXE d   1      -1.810  -3.490  -3.255  0.00  0.00    -0.078 A 
ATOM      5  C3  OXE d   1      -0.709  -3.054  -3.986  0.00  0.00     0.003 A 
ATOM      6  C4  OXE d   1       0.085  -3.971  -4.686  0.00  0.00    -0.002 A 
ATOM      7  C5  OXE d   1      -0.147  -5.345  -4.570  0.00  0.00    -0.002 A 
ATOM      8  C6  OXE d   1      -1.172  -5.796  -3.746  0.00  0.00     0.003 A 
ENDROOT
TORSDOF 0
ENDMDL
