MODEL 1
REMARK minimizedAffinity -0.339696348
REMARK minimizedRMSD -1
REMARK  0 active torsions:
REMARK  status: ('A' for Active; 'I' for Inactive)
ROOT
ATOM      1  C2' OXE d   1      -4.473  -0.371   2.823  0.00  0.00     0.078 C 
ATOM      2  C1' OXE d   1      -6.000  -1.236   5.013  0.00  0.00     0.078 C 
ATOM      3  C1  OXE d   1      -5.599   0.217   4.966  0.00  0.00    -0.078 A 
ATOM      4  C2  OXE d   1      -4.812   0.621   3.914  0.00  0.00    -0.078 A 
ATOM      5  C3  OXE d   1      -4.460   1.962   3.793  0.00  0.00     0.003 A 
ATOM      6  C4  OXE d   1      -4.769   2.872   4.812  0.00  0.00    -0.002 A 
ATOM      7  C5  OXE d   1      -5.536   2.472   5.911  0.00  0.00    -0.002 A 
ATOM      8  C6  OXE d   1      -5.994   1.160   5.982  0.00  0.00     0.003 A 
ENDROOT
TORSDOF 0
ENDMDL
