MODEL 1
REMARK minimizedAffinity 10.7323627
REMARK minimizedRMSD -1
REMARK  0 active torsions:
REMARK  status: ('A' for Active; 'I' for Inactive)
ROOT
ATOM      1  C2' OXE d   1      -5.995  -0.259   5.401  0.00  0.00     0.078 C 
ATOM      2  C1' OXE d   1      -4.522  -0.135   3.015  0.00  0.00     0.078 C 
ATOM      3  C1  OXE d   1      -4.461   1.053   3.941  0.00  0.00    -0.078 A 
ATOM      4  C2  OXE d   1      -5.222   1.003   5.084  0.00  0.00    -0.078 A 
ATOM      5  C3  OXE d   1      -5.160   2.050   6.000  0.00  0.00     0.003 A 
ATOM      6  C4  OXE d   1      -4.450   3.218   5.695  0.00  0.00    -0.002 A 
ATOM      7  C5  OXE d   1      -3.700   3.305   4.517  0.00  0.00    -0.002 A 
ATOM      8  C6  OXE d   1      -3.660   2.218   3.652  0.00  0.00     0.003 A 
ENDROOT
TORSDOF 0
ENDMDL
