MODEL 1
REMARK minimizedAffinity 18.1413975
REMARK minimizedRMSD -1
REMARK  0 active torsions:
REMARK  status: ('A' for Active; 'I' for Inactive)
ROOT
ATOM      1  C2' OXE d   1       2.004   1.240   1.820  0.00  0.00     0.078 C 
ATOM      2  C1' OXE d   1       0.258   0.751   3.963  0.00  0.00     0.078 C 
ATOM      3  C1  OXE d   1       0.251  -0.225   2.813  0.00  0.00    -0.078 A 
ATOM      4  C2  OXE d   1       1.075   0.047   1.748  0.00  0.00    -0.078 A 
ATOM      5  C3  OXE d   1       1.147  -0.850   0.686  0.00  0.00     0.003 A 
ATOM      6  C4  OXE d   1       0.277  -1.945   0.622  0.00  0.00    -0.002 A 
ATOM      7  C5  OXE d   1      -0.598  -2.219   1.679  0.00  0.00    -0.002 A 
ATOM      8  C6  OXE d   1      -0.594  -1.394   2.798  0.00  0.00     0.003 A 
ENDROOT
TORSDOF 0
ENDMDL
