MODEL 1
REMARK minimizedAffinity 6.99016762
REMARK minimizedRMSD -1
REMARK  0 active torsions:
REMARK  status: ('A' for Active; 'I' for Inactive)
ROOT
ATOM      1  C2' OXE d   1       4.395   2.190  -2.550  0.00  0.00     0.078 C 
ATOM      2  C1' OXE d   1       4.375   1.483  -5.267  0.00  0.00     0.078 C 
ATOM      3  C1  OXE d   1       3.666   2.752  -4.865  0.00  0.00    -0.078 A 
ATOM      4  C2  OXE d   1       3.641   3.066  -3.527  0.00  0.00    -0.078 A 
ATOM      5  C3  OXE d   1       3.048   4.254  -3.108  0.00  0.00     0.003 A 
ATOM      6  C4  OXE d   1       2.345   5.054  -4.017  0.00  0.00    -0.002 A 
ATOM      7  C5  OXE d   1       2.324   4.731  -5.378  0.00  0.00    -0.002 A 
ATOM      8  C6  OXE d   1       3.014   3.609  -5.824  0.00  0.00     0.003 A 
ENDROOT
TORSDOF 0
ENDMDL
