MODEL 1
REMARK minimizedAffinity 10.5671282
REMARK minimizedRMSD -1
REMARK  2 active torsions:
REMARK  status: ('A' for Active; 'I' for Inactive)
REMARK    1  A    between atoms: C1_2  and  C2_3 
REMARK    2  A    between atoms: C2_3  and  C3_4 
ROOT
ATOM      1  C3  UNL d   1       1.587   4.148  -5.369  0.00  0.00    -0.075 A 
ATOM      2  C4  UNL d   1       2.703   3.300  -5.339  0.00  0.00     0.002 A 
ATOM      3  C5  UNL d   1       3.980   3.799  -5.598  0.00  0.00     0.002 A 
ATOM      4  C6  UNL d   1       4.156   5.147  -5.899  0.00  0.00    -0.004 A 
ATOM      5  C7  UNL d   1       3.052   5.996  -5.949  0.00  0.00     0.002 A 
ATOM      6  C8  UNL d   1       1.774   5.501  -5.686  0.00  0.00     0.002 A 
ENDROOT
BRANCH   1   7
ATOM      7  C2  UNL d   1       0.206   3.621  -5.061  0.00  0.00     0.056 C 
BRANCH   7   8
ATOM      8  C1  UNL d   1      -0.154   3.647  -3.572  0.00  0.00     0.007 C 
ATOM      9  C   UNL d   1      -1.516   3.035  -3.272  0.00  0.00     0.009 C 
ENDBRANCH   7   8
ENDBRANCH   1   7
TORSDOF 2
ENDMDL
