MODEL 1
REMARK minimizedAffinity 9.48909473
REMARK minimizedRMSD -1
REMARK  2 active torsions:
REMARK  status: ('A' for Active; 'I' for Inactive)
REMARK    1  A    between atoms: C1_2  and  C2_3 
REMARK    2  A    between atoms: C2_3  and  C3_4 
ROOT
ATOM      1  C3  UNL d   1       3.003  -2.130   3.761  0.00  0.00    -0.075 A 
ATOM      2  C4  UNL d   1       1.997  -1.165   3.909  0.00  0.00     0.002 A 
ATOM      3  C5  UNL d   1       0.928  -1.112   3.013  0.00  0.00     0.002 A 
ATOM      4  C6  UNL d   1       0.859  -2.014   1.954  0.00  0.00    -0.004 A 
ATOM      5  C7  UNL d   1       1.862  -2.966   1.787  0.00  0.00     0.002 A 
ATOM      6  C8  UNL d   1       2.930  -3.024   2.685  0.00  0.00     0.002 A 
ENDROOT
BRANCH   1   7
ATOM      7  C2  UNL d   1       4.147  -2.211   4.744  0.00  0.00     0.056 C 
BRANCH   7   8
ATOM      8  C1  UNL d   1       3.841  -3.053   5.988  0.00  0.00     0.007 C 
ATOM      9  C   UNL d   1       4.566  -4.392   5.999  0.00  0.00     0.009 C 
ENDBRANCH   7   8
ENDBRANCH   1   7
TORSDOF 2
ENDMDL
