MODEL 1
REMARK minimizedAffinity 3.12337613
REMARK minimizedRMSD -1
REMARK  2 active torsions:
REMARK  status: ('A' for Active; 'I' for Inactive)
REMARK    1  A    between atoms: C1_2  and  C2_3 
REMARK    2  A    between atoms: C2_3  and  C3_4 
ROOT
ATOM      1  C3  UNL d   1       0.863  -2.336   2.155  0.00  0.00    -0.075 A 
ATOM      2  C4  UNL d   1       0.690  -3.727   2.105  0.00  0.00     0.002 A 
ATOM      3  C5  UNL d   1       1.458  -4.505   1.238  0.00  0.00     0.002 A 
ATOM      4  C6  UNL d   1       2.399  -3.903   0.406  0.00  0.00    -0.004 A 
ATOM      5  C7  UNL d   1       2.567  -2.520   0.435  0.00  0.00     0.002 A 
ATOM      6  C8  UNL d   1       1.803  -1.740   1.305  0.00  0.00     0.002 A 
ENDROOT
BRANCH   1   7
ATOM      7  C2  UNL d   1       0.055  -1.491   3.112  0.00  0.00     0.056 C 
BRANCH   7   8
ATOM      8  C1  UNL d   1      -1.441  -1.819   3.123  0.00  0.00     0.007 C 
ATOM      9  C   UNL d   1      -1.733  -3.284   3.420  0.00  0.00     0.009 C 
ENDBRANCH   7   8
ENDBRANCH   1   7
TORSDOF 2
ENDMDL
