MODEL 1
REMARK minimizedAffinity 5.58058739
REMARK minimizedRMSD -1
REMARK  2 active torsions:
REMARK  status: ('A' for Active; 'I' for Inactive)
REMARK    1  A    between atoms: C1_2  and  C2_3 
REMARK    2  A    between atoms: C2_3  and  C3_4 
ROOT
ATOM      1  C3  UNL d   1      -3.840   2.467   4.908  0.00  0.00    -0.075 A 
ATOM      2  C4  UNL d   1      -4.053   1.612   5.999  0.00  0.00     0.002 A 
ATOM      3  C5  UNL d   1      -5.124   0.718   6.000  0.00  0.00     0.002 A 
ATOM      4  C6  UNL d   1      -6.000   0.675   4.917  0.00  0.00    -0.004 A 
ATOM      5  C7  UNL d   1      -5.807   1.531   3.835  0.00  0.00     0.002 A 
ATOM      6  C8  UNL d   1      -4.734   2.423   3.830  0.00  0.00     0.002 A 
ENDROOT
BRANCH   1   7
ATOM      7  C2  UNL d   1      -2.665   3.416   4.888  0.00  0.00     0.056 C 
BRANCH   7   8
ATOM      8  C1  UNL d   1      -3.007   4.841   5.337  0.00  0.00     0.007 C 
ATOM      9  C   UNL d   1      -1.777   5.690   5.627  0.00  0.00     0.009 C 
ENDBRANCH   7   8
ENDBRANCH   1   7
TORSDOF 2
ENDMDL
