MODEL 1
REMARK minimizedAffinity 7.41088629
REMARK minimizedRMSD -1
REMARK  2 active torsions:
REMARK  status: ('A' for Active; 'I' for Inactive)
REMARK    1  A    between atoms: C1_2  and  C2_3 
REMARK    2  A    between atoms: C2_3  and  C3_4 
ROOT
ATOM      1  C3  UNL d   1      -4.057  -0.176  -2.822  0.00  0.00    -0.075 A 
ATOM      2  C4  UNL d   1      -4.249  -1.551  -2.624  0.00  0.00     0.002 A 
ATOM      3  C5  UNL d   1      -5.211  -2.244  -3.359  0.00  0.00     0.002 A 
ATOM      4  C6  UNL d   1      -5.999  -1.572  -4.291  0.00  0.00    -0.004 A 
ATOM      5  C7  UNL d   1      -5.828  -0.202  -4.483  0.00  0.00     0.002 A 
ATOM      6  C8  UNL d   1      -4.863   0.493  -3.752  0.00  0.00     0.002 A 
ENDROOT
BRANCH   1   7
ATOM      7  C2  UNL d   1      -2.998   0.575  -2.051  0.00  0.00     0.056 C 
BRANCH   7   8
ATOM      8  C1  UNL d   1      -2.652   1.947  -2.639  0.00  0.00     0.007 C 
ATOM      9  C   UNL d   1      -1.160   2.250  -2.621  0.00  0.00     0.009 C 
ENDBRANCH   7   8
ENDBRANCH   1   7
TORSDOF 2
ENDMDL
