MODEL 1
REMARK minimizedAffinity 10.1485939
REMARK minimizedRMSD -1
REMARK  2 active torsions:
REMARK  status: ('A' for Active; 'I' for Inactive)
REMARK    1  A    between atoms: C1_2  and  C2_3 
REMARK    2  A    between atoms: C2_3  and  C3_4 
ROOT
ATOM      1  C3  UNL d   1       2.238  -1.487   2.976  0.00  0.00    -0.075 A 
ATOM      2  C4  UNL d   1       0.866  -1.264   2.794  0.00  0.00     0.002 A 
ATOM      3  C5  UNL d   1       0.250  -1.584   1.583  0.00  0.00     0.002 A 
ATOM      4  C6  UNL d   1       0.999  -2.121   0.538  0.00  0.00    -0.004 A 
ATOM      5  C7  UNL d   1       2.366  -2.331   0.702  0.00  0.00     0.002 A 
ATOM      6  C8  UNL d   1       2.984  -2.016   1.914  0.00  0.00     0.002 A 
ENDROOT
BRANCH   1   7
ATOM      7  C2  UNL d   1       2.904  -1.171   4.293  0.00  0.00     0.056 C 
BRANCH   7   8
ATOM      8  C1  UNL d   1       4.170  -1.990   4.565  0.00  0.00     0.007 C 
ATOM      9  C   UNL d   1       4.147  -2.702   5.911  0.00  0.00     0.009 C 
ENDBRANCH   7   8
ENDBRANCH   1   7
TORSDOF 2
ENDMDL
