MODEL 1
REMARK minimizedAffinity 14.4502344
REMARK minimizedRMSD -1
REMARK  2 active torsions:
REMARK  status: ('A' for Active; 'I' for Inactive)
REMARK    1  A    between atoms: C1_2  and  C2_3 
REMARK    2  A    between atoms: C2_3  and  C3_4 
ROOT
ATOM      1  C3  UNL d   1       2.779  -1.791   2.406  0.00  0.00    -0.075 A 
ATOM      2  C4  UNL d   1       1.502  -1.573   1.869  0.00  0.00     0.002 A 
ATOM      3  C5  UNL d   1       1.106  -2.220   0.698  0.00  0.00     0.002 A 
ATOM      4  C6  UNL d   1       1.982  -3.084   0.046  0.00  0.00    -0.004 A 
ATOM      5  C7  UNL d   1       3.259  -3.296   0.561  0.00  0.00     0.002 A 
ATOM      6  C8  UNL d   1       3.657  -2.652   1.734  0.00  0.00     0.002 A 
ENDROOT
BRANCH   1   7
ATOM      7  C2  UNL d   1       3.204  -1.116   3.688  0.00  0.00     0.056 C 
BRANCH   7   8
ATOM      8  C1  UNL d   1       4.354  -1.822   4.414  0.00  0.00     0.007 C 
ATOM      9  C   UNL d   1       3.899  -2.609   5.635  0.00  0.00     0.009 C 
ENDBRANCH   7   8
ENDBRANCH   1   7
TORSDOF 2
ENDMDL
