MODEL 1
REMARK minimizedAffinity -5.6057725
REMARK minimizedRMSD -1
REMARK  1 active torsions:
REMARK  status: ('A' for Active; 'I' for Inactive)
REMARK    1  A    between atoms: C1_2  and  C2_3 
ROOT
ATOM      1  C2  UNL d   1       0.512  -0.279   0.445  0.00  0.00    -0.076 A 
ATOM      2  C3  UNL d   1       1.823  -0.784   0.504  0.00  0.00     0.004 A 
ATOM      3  C4  UNL d   1       2.349  -1.274   1.698  0.00  0.00    -0.003 A 
ATOM      4  C5  UNL d   1       1.573  -1.268   2.852  0.00  0.00     0.000 A 
ATOM      5  C6  UNL d   1       0.265  -0.787   2.807  0.00  0.00     0.000 A 
ATOM      6  C7  UNL d   1      -0.287  -0.304   1.608  0.00  0.00    -0.073 A 
ATOM      7  C8  UNL d   1      -1.701   0.208   1.618  0.00  0.00     0.078 C 
ENDROOT
BRANCH   1   8
ATOM      8  C1  UNL d   1       0.005   0.265  -0.872  0.00  0.00     0.053 C 
ATOM      9  C   UNL d   1       0.277  -0.676  -2.035  0.00  0.00     0.018 C 
ENDBRANCH   1   8
TORSDOF 1
ENDMDL
