MODEL 1
REMARK minimizedAffinity -4.88208294
REMARK minimizedRMSD -1
REMARK  1 active torsions:
REMARK  status: ('A' for Active; 'I' for Inactive)
REMARK    1  A    between atoms: C1_2  and  C2_3 
ROOT
ATOM      1  C2  UNL d   1      -0.162  -0.382   0.277  0.00  0.00    -0.076 A 
ATOM      2  C3  UNL d   1       1.135   0.065   0.584  0.00  0.00     0.004 A 
ATOM      3  C4  UNL d   1       1.687  -0.147   1.847  0.00  0.00    -0.003 A 
ATOM      4  C5  UNL d   1       0.950  -0.811   2.822  0.00  0.00     0.000 A 
ATOM      5  C6  UNL d   1      -0.331  -1.277   2.529  0.00  0.00     0.000 A 
ATOM      6  C7  UNL d   1      -0.895  -1.085   1.256  0.00  0.00    -0.073 A 
ATOM      7  C8  UNL d   1      -2.283  -1.603   0.996  0.00  0.00     0.078 C 
ENDROOT
BRANCH   1   8
ATOM      8  C1  UNL d   1      -0.717  -0.099  -1.101  0.00  0.00     0.053 C 
ATOM      9  C   UNL d   1      -0.343   1.286  -1.607  0.00  0.00     0.018 C 
ENDBRANCH   1   8
TORSDOF 1
ENDMDL
