MODEL 1
REMARK minimizedAffinity -5.11729574
REMARK minimizedRMSD -1
REMARK  1 active torsions:
REMARK  status: ('A' for Active; 'I' for Inactive)
REMARK    1  A    between atoms: C1_2  and  C2_3 
ROOT
ATOM      1  C2  UNL d   1       0.042  -0.447   0.004  0.00  0.00    -0.076 A 
ATOM      2  C3  UNL d   1      -0.984  -0.089   0.895  0.00  0.00     0.004 A 
ATOM      3  C4  UNL d   1      -0.835  -0.268   2.270  0.00  0.00    -0.003 A 
ATOM      4  C5  UNL d   1       0.343  -0.806   2.775  0.00  0.00     0.000 A 
ATOM      5  C6  UNL d   1       1.378  -1.150   1.906  0.00  0.00     0.000 A 
ATOM      6  C7  UNL d   1       1.251  -0.962   0.519  0.00  0.00    -0.073 A 
ATOM      7  C8  UNL d   1       2.397  -1.356  -0.372  0.00  0.00     0.078 C 
ENDROOT
BRANCH   1   8
ATOM      8  C1  UNL d   1      -0.187  -0.255  -1.479  0.00  0.00     0.053 C 
ATOM      9  C   UNL d   1      -0.742   1.122  -1.809  0.00  0.00     0.018 C 
ENDBRANCH   1   8
TORSDOF 1
ENDMDL
