MODEL 1
REMARK minimizedAffinity -6.42016411
REMARK minimizedRMSD -1
REMARK  1 active torsions:
REMARK  status: ('A' for Active; 'I' for Inactive)
REMARK    1  A    between atoms: C1_2  and  C2_3 
ROOT
ATOM      1  C2  UNL d   1       0.674  -0.510   1.078  0.00  0.00    -0.076 A 
ATOM      2  C3  UNL d   1       0.919  -0.857  -0.262  0.00  0.00     0.004 A 
ATOM      3  C4  UNL d   1       1.929  -1.757  -0.598  0.00  0.00    -0.003 A 
ATOM      4  C5  UNL d   1       2.710  -2.326   0.402  0.00  0.00     0.000 A 
ATOM      5  C6  UNL d   1       2.470  -2.007   1.738  0.00  0.00     0.000 A 
ATOM      6  C7  UNL d   1       1.445  -1.114   2.094  0.00  0.00    -0.073 A 
ATOM      7  C8  UNL d   1       1.234  -0.801   3.550  0.00  0.00     0.078 C 
ENDROOT
BRANCH   1   8
ATOM      8  C1  UNL d   1      -0.417   0.492   1.379  0.00  0.00     0.053 C 
ATOM      9  C   UNL d   1      -1.610   0.353   0.446  0.00  0.00     0.018 C 
ENDBRANCH   1   8
TORSDOF 1
ENDMDL
