MODEL 1
REMARK minimizedAffinity 3.02634287
REMARK minimizedRMSD -1
REMARK  3 active torsions:
REMARK  status: ('A' for Active; 'I' for Inactive)
REMARK    1  A    between atoms: C3'_2  and  C2'_3 
REMARK    2  A    between atoms: C2'_3  and  C1'_4 
REMARK    3  A    between atoms: C1'_4  and  C1_5 
ROOT
ATOM      1  C1  N4B d   1      -1.008  -0.382  -1.074  0.00  0.00    -0.075 A 
ATOM      2  C2  N4B d   1      -0.300   0.790  -0.730  0.00  0.00     0.002 A 
ATOM      3  C3  N4B d   1       0.987   0.702  -0.259  0.00  0.00     0.002 A 
ATOM      4  C4  N4B d   1       1.577  -0.544  -0.105  0.00  0.00    -0.004 A 
ATOM      5  C5  N4B d   1       0.895  -1.670  -0.464  0.00  0.00     0.002 A 
ATOM      6  C6  N4B d   1      -0.398  -1.596  -0.943  0.00  0.00     0.002 A 
ENDROOT
BRANCH   1   7
ATOM      7  C1' N4B d   1      -2.447  -0.341  -1.512  0.00  0.00     0.057 C 
BRANCH   7   8
ATOM      8  C2' N4B d   1      -3.336  -0.782  -0.353  0.00  0.00     0.009 C 
BRANCH   8   9
ATOM      9  C3' N4B d   1      -4.789  -0.398  -0.574  0.00  0.00     0.004 C 
ATOM     10  C4' N4B d   1      -5.501  -1.328  -1.510  0.00  0.00     0.003 C 
ENDBRANCH   8   9
ENDBRANCH   7   8
ENDBRANCH   1   7
TORSDOF 3
ENDMDL
