MODEL 1
REMARK minimizedAffinity 1.18306506
REMARK minimizedRMSD -1
REMARK  3 active torsions:
REMARK  status: ('A' for Active; 'I' for Inactive)
REMARK    1  A    between atoms: C3'_2  and  C2'_3 
REMARK    2  A    between atoms: C2'_3  and  C1'_4 
REMARK    3  A    between atoms: C1'_4  and  C1_5 
ROOT
ATOM      1  C1  N4B d   1      -3.307   2.734   1.699  0.00  0.00    -0.075 A 
ATOM      2  C2  N4B d   1      -2.248   2.574   0.778  0.00  0.00     0.002 A 
ATOM      3  C3  N4B d   1      -0.977   2.968   1.118  0.00  0.00     0.002 A 
ATOM      4  C4  N4B d   1      -0.746   3.540   2.361  0.00  0.00    -0.004 A 
ATOM      5  C5  N4B d   1      -1.769   3.667   3.254  0.00  0.00     0.002 A 
ATOM      6  C6  N4B d   1      -3.051   3.271   2.927  0.00  0.00     0.002 A 
ENDROOT
BRANCH   1   7
ATOM      7  C1' N4B d   1      -4.728   2.397   1.340  0.00  0.00     0.057 C 
BRANCH   7   8
ATOM      8  C2' N4B d   1      -4.991   0.928   1.661  0.00  0.00     0.009 C 
BRANCH   8   9
ATOM      9  C3' N4B d   1      -4.552   0.013   0.530  0.00  0.00     0.004 C 
ATOM     10  C4' N4B d   1      -5.704  -0.507  -0.277  0.00  0.00     0.003 C 
ENDBRANCH   8   9
ENDBRANCH   7   8
ENDBRANCH   1   7
TORSDOF 3
ENDMDL
