MODEL 1
REMARK minimizedAffinity 4.72061014
REMARK minimizedRMSD -1
REMARK  3 active torsions:
REMARK  status: ('A' for Active; 'I' for Inactive)
REMARK    1  A    between atoms: C3'_2  and  C2'_3 
REMARK    2  A    between atoms: C2'_3  and  C1'_4 
REMARK    3  A    between atoms: C1'_4  and  C1_5 
ROOT
ATOM      1  C1  N4B d   1       1.016  -0.897   5.235  0.00  0.00    -0.075 A 
ATOM      2  C2  N4B d   1       1.371   0.276   5.937  0.00  0.00     0.002 A 
ATOM      3  C3  N4B d   1       1.886   1.352   5.257  0.00  0.00     0.002 A 
ATOM      4  C4  N4B d   1       2.073   1.272   3.885  0.00  0.00    -0.004 A 
ATOM      5  C5  N4B d   1       1.703   0.145   3.212  0.00  0.00     0.002 A 
ATOM      6  C6  N4B d   1       1.180  -0.943   3.881  0.00  0.00     0.002 A 
ENDROOT
BRANCH   1   7
ATOM      7  C1' N4B d   1       0.529  -2.130   5.946  0.00  0.00     0.057 C 
BRANCH   7   8
ATOM      8  C2' N4B d   1       1.607  -3.207   5.877  0.00  0.00     0.009 C 
BRANCH   8   9
ATOM      9  C3' N4B d   1       1.021  -4.606   5.965  0.00  0.00     0.004 C 
ATOM     10  C4' N4B d   1      -0.477  -4.613   5.896  0.00  0.00     0.003 C 
ENDBRANCH   8   9
ENDBRANCH   7   8
ENDBRANCH   1   7
TORSDOF 3
ENDMDL
