MODEL 1
REMARK minimizedAffinity 2.81090021
REMARK minimizedRMSD -1
REMARK  3 active torsions:
REMARK  status: ('A' for Active; 'I' for Inactive)
REMARK    1  A    between atoms: C3'_2  and  C2'_3 
REMARK    2  A    between atoms: C2'_3  and  C1'_4 
REMARK    3  A    between atoms: C1'_4  and  C1_5 
ROOT
ATOM      1  C1  N4B d   1       0.246  -2.977   5.931  0.00  0.00    -0.075 A 
ATOM      2  C2  N4B d   1       1.529  -3.565   5.975  0.00  0.00     0.002 A 
ATOM      3  C3  N4B d   1       1.657  -4.932   5.999  0.00  0.00     0.002 A 
ATOM      4  C4  N4B d   1       0.521  -5.728   6.000  0.00  0.00    -0.004 A 
ATOM      5  C5  N4B d   1      -0.714  -5.153   5.931  0.00  0.00     0.002 A 
ATOM      6  C6  N4B d   1      -0.858  -3.780   5.902  0.00  0.00     0.002 A 
ENDROOT
BRANCH   1   7
ATOM      7  C1' N4B d   1       0.053  -1.486   5.990  0.00  0.00     0.057 C 
BRANCH   7   8
ATOM      8  C2' N4B d   1       1.417  -0.803   5.954  0.00  0.00     0.009 C 
BRANCH   8   9
ATOM      9  C3' N4B d   1       1.296   0.710   5.998  0.00  0.00     0.004 C 
ATOM     10  C4' N4B d   1      -0.129   1.179   5.985  0.00  0.00     0.003 C 
ENDBRANCH   8   9
ENDBRANCH   7   8
ENDBRANCH   1   7
TORSDOF 3
ENDMDL
