MODEL 1
REMARK minimizedAffinity 1.26805544
REMARK minimizedRMSD -1
REMARK  3 active torsions:
REMARK  status: ('A' for Active; 'I' for Inactive)
REMARK    1  A    between atoms: C3'_2  and  C2'_3 
REMARK    2  A    between atoms: C2'_3  and  C1'_4 
REMARK    3  A    between atoms: C1'_4  and  C1_5 
ROOT
ATOM      1  C1  N4B d   1       0.906   0.064  -0.379  0.00  0.00    -0.075 A 
ATOM      2  C2  N4B d   1       1.040   0.562   0.935  0.00  0.00     0.002 A 
ATOM      3  C3  N4B d   1       2.068   0.124   1.734  0.00  0.00     0.002 A 
ATOM      4  C4  N4B d   1       2.959  -0.821   1.248  0.00  0.00    -0.004 A 
ATOM      5  C5  N4B d   1       2.837  -1.279  -0.031  0.00  0.00     0.002 A 
ATOM      6  C6  N4B d   1       1.811  -0.844  -0.846  0.00  0.00     0.002 A 
ENDROOT
BRANCH   1   7
ATOM      7  C1' N4B d   1      -0.252   0.448  -1.260  0.00  0.00     0.057 C 
BRANCH   7   8
ATOM      8  C2' N4B d   1      -1.354  -0.598  -1.123  0.00  0.00     0.009 C 
BRANCH   8   9
ATOM      9  C3' N4B d   1      -2.726  -0.020  -1.425  0.00  0.00     0.004 C 
ATOM     10  C4' N4B d   1      -3.802  -0.593  -0.553  0.00  0.00     0.003 C 
ENDBRANCH   8   9
ENDBRANCH   7   8
ENDBRANCH   1   7
TORSDOF 3
ENDMDL
