MODEL 1
REMARK minimizedAffinity 4.15262794
REMARK minimizedRMSD -1
REMARK  3 active torsions:
REMARK  status: ('A' for Active; 'I' for Inactive)
REMARK    1  A    between atoms: C3'_2  and  C2'_3 
REMARK    2  A    between atoms: C2'_3  and  C1'_4 
REMARK    3  A    between atoms: C1'_4  and  C1_5 
ROOT
ATOM      1  C1  N4B d   1      -0.045  -1.101  -0.989  0.00  0.00    -0.075 A 
ATOM      2  C2  N4B d   1      -0.614  -0.064  -0.217  0.00  0.00     0.002 A 
ATOM      3  C3  N4B d   1       0.161   0.628   0.680  0.00  0.00     0.002 A 
ATOM      4  C4  N4B d   1       1.497   0.290   0.837  0.00  0.00    -0.004 A 
ATOM      5  C5  N4B d   1       2.045  -0.696   0.070  0.00  0.00     0.002 A 
ATOM      6  C6  N4B d   1       1.279  -1.397  -0.839  0.00  0.00     0.002 A 
ENDROOT
BRANCH   1   7
ATOM      7  C1' N4B d   1      -0.873  -1.943  -1.921  0.00  0.00     0.057 C 
BRANCH   7   8
ATOM      8  C2' N4B d   1      -0.749  -3.409  -1.516  0.00  0.00     0.009 C 
BRANCH   8   9
ATOM      9  C3' N4B d   1      -1.521  -4.324  -2.450  0.00  0.00     0.004 C 
ATOM     10  C4' N4B d   1      -1.970  -3.631  -3.702  0.00  0.00     0.003 C 
ENDBRANCH   8   9
ENDBRANCH   7   8
ENDBRANCH   1   7
TORSDOF 3
ENDMDL
