MODEL 1
REMARK minimizedAffinity 5.4610815
REMARK minimizedRMSD -1
REMARK  3 active torsions:
REMARK  status: ('A' for Active; 'I' for Inactive)
REMARK    1  A    between atoms: C3'_2  and  C2'_3 
REMARK    2  A    between atoms: C2'_3  and  C1'_4 
REMARK    3  A    between atoms: C1'_4  and  C1_5 
ROOT
ATOM      1  C1  N4B d   1       1.054  -2.612   5.712  0.00  0.00    -0.075 A 
ATOM      2  C2  N4B d   1       1.040  -1.200   5.724  0.00  0.00     0.002 A 
ATOM      3  C3  N4B d   1      -0.156  -0.526   5.761  0.00  0.00     0.002 A 
ATOM      4  C4  N4B d   1      -1.346  -1.240   5.767  0.00  0.00    -0.004 A 
ATOM      5  C5  N4B d   1      -1.322  -2.604   5.782  0.00  0.00     0.002 A 
ATOM      6  C6  N4B d   1      -0.128  -3.294   5.749  0.00  0.00     0.002 A 
ENDROOT
BRANCH   1   7
ATOM      7  C1' N4B d   1       2.334  -3.392   5.586  0.00  0.00     0.057 C 
BRANCH   7   8
ATOM      8  C2' N4B d   1       2.218  -4.359   4.411  0.00  0.00     0.009 C 
BRANCH   8   9
ATOM      9  C3' N4B d   1       2.531  -5.789   4.818  0.00  0.00     0.004 C 
ATOM     10  C4' N4B d   1       3.451  -5.867   6.000  0.00  0.00     0.003 C 
ENDBRANCH   8   9
ENDBRANCH   7   8
ENDBRANCH   1   7
TORSDOF 3
ENDMDL
