MODEL 1
REMARK minimizedAffinity 8.13084412
REMARK minimizedRMSD -1
REMARK  1 active torsions:
REMARK  status: ('A' for Active; 'I' for Inactive)
REMARK    1  A    between atoms: C3_4  and  O_7 
ROOT
ATOM      1  C   UNL d   1      -1.430   0.781   0.842  0.00  0.00    -0.033 A 
ATOM      2  C1  UNL d   1      -0.994   1.605   1.882  0.00  0.00     0.039 A 
ATOM      3  C2  UNL d   1      -0.497   2.880   1.603  0.00  0.00    -0.080 A 
ATOM      4  C3  UNL d   1      -0.443   3.318   0.283  0.00  0.00     0.150 A 
ATOM      5  C4  UNL d   1      -0.879   2.504  -0.757  0.00  0.00    -0.007 A 
ATOM      6  C5  UNL d   1      -1.374   1.231  -0.477  0.00  0.00     0.039 A 
ENDROOT
BRANCH   4   7
ATOM      7  O   UNL d   1       0.039   4.552  -0.039  0.00  0.00    -0.526 OA
ATOM      8  H5  UNL d   1       0.330   4.991   0.777  0.00  0.00     0.418 HD
ENDBRANCH   4   7
TORSDOF 1
ENDMDL
