MODEL 1
REMARK minimizedAffinity 1.97760665
REMARK minimizedRMSD -1
REMARK  1 active torsions:
REMARK  status: ('A' for Active; 'I' for Inactive)
REMARK    1  A    between atoms: C3_4  and  O_7 
ROOT
ATOM      1  C   UNL d   1       0.532   2.266   3.387  0.00  0.00    -0.033 A 
ATOM      2  C1  UNL d   1      -0.593   2.074   2.582  0.00  0.00     0.039 A 
ATOM      3  C2  UNL d   1      -0.588   2.511   1.256  0.00  0.00    -0.080 A 
ATOM      4  C3  UNL d   1       0.547   3.137   0.747  0.00  0.00     0.150 A 
ATOM      5  C4  UNL d   1       1.672   3.328   1.542  0.00  0.00    -0.007 A 
ATOM      6  C5  UNL d   1       1.665   2.892   2.866  0.00  0.00     0.039 A 
ENDROOT
BRANCH   4   7
ATOM      7  O   UNL d   1       0.597   3.586  -0.539  0.00  0.00    -0.526 OA
ATOM      8  H5  UNL d   1      -0.261   3.411  -0.960  0.00  0.00     0.418 HD
ENDBRANCH   4   7
TORSDOF 1
ENDMDL
