MODEL 1
REMARK minimizedAffinity 3.57527161
REMARK minimizedRMSD -1
REMARK  1 active torsions:
REMARK  status: ('A' for Active; 'I' for Inactive)
REMARK    1  A    between atoms: C3_4  and  O_7 
ROOT
ATOM      1  C   UNL d   1      -0.586   3.679  -1.410  0.00  0.00    -0.033 A 
ATOM      2  C1  UNL d   1      -0.528   2.291  -1.270  0.00  0.00     0.039 A 
ATOM      3  C2  UNL d   1      -0.306   1.723  -0.014  0.00  0.00    -0.080 A 
ATOM      4  C3  UNL d   1      -0.145   2.553   1.092  0.00  0.00     0.150 A 
ATOM      5  C4  UNL d   1      -0.205   3.936   0.960  0.00  0.00    -0.007 A 
ATOM      6  C5  UNL d   1      -0.426   4.501  -0.295  0.00  0.00     0.039 A 
ENDROOT
BRANCH   4   7
ATOM      7  O   UNL d   1       0.079   2.045   2.337  0.00  0.00    -0.526 OA
ATOM      8  H5  UNL d   1       0.124   1.077   2.271  0.00  0.00     0.418 HD
ENDBRANCH   4   7
TORSDOF 1
ENDMDL
