MODEL 1
REMARK minimizedAffinity 0.449904352
REMARK minimizedRMSD -1
REMARK  1 active torsions:
REMARK  status: ('A' for Active; 'I' for Inactive)
REMARK    1  A    between atoms: C3_4  and  O_7 
ROOT
ATOM      1  C   UNL d   1       0.995   3.825  -0.006  0.00  0.00    -0.033 A 
ATOM      2  C1  UNL d   1      -0.151   3.043  -0.156  0.00  0.00     0.039 A 
ATOM      3  C2  UNL d   1      -0.715   2.408   0.953  0.00  0.00    -0.080 A 
ATOM      4  C3  UNL d   1      -0.123   2.564   2.203  0.00  0.00     0.150 A 
ATOM      5  C4  UNL d   1       1.017   3.345   2.360  0.00  0.00    -0.007 A 
ATOM      6  C5  UNL d   1       1.579   3.978   1.252  0.00  0.00     0.039 A 
ENDROOT
BRANCH   4   7
ATOM      7  O   UNL d   1      -0.634   1.960   3.313  0.00  0.00    -0.526 OA
ATOM      8  H5  UNL d   1      -1.404   1.430   3.048  0.00  0.00     0.418 HD
ENDBRANCH   4   7
TORSDOF 1
ENDMDL
