MODEL 1
REMARK minimizedAffinity 8.99616337
REMARK minimizedRMSD -1
REMARK  1 active torsions:
REMARK  status: ('A' for Active; 'I' for Inactive)
REMARK    1  A    between atoms: C3_4  and  O_7 
ROOT
ATOM      1  C   UNL d   1      -2.645  -0.366  -1.230  0.00  0.00    -0.033 A 
ATOM      2  C1  UNL d   1      -1.267  -0.504  -1.052  0.00  0.00     0.039 A 
ATOM      3  C2  UNL d   1      -0.448   0.627  -1.026  0.00  0.00    -0.080 A 
ATOM      4  C3  UNL d   1      -1.019   1.888  -1.179  0.00  0.00     0.150 A 
ATOM      5  C4  UNL d   1      -2.392   2.032  -1.353  0.00  0.00    -0.007 A 
ATOM      6  C5  UNL d   1      -3.208   0.902  -1.379  0.00  0.00     0.039 A 
ENDROOT
BRANCH   4   7
ATOM      7  O   UNL d   1      -0.261   3.020  -1.166  0.00  0.00    -0.526 OA
ATOM      8  H5  UNL d   1       0.672   2.765  -1.066  0.00  0.00     0.418 HD
ENDBRANCH   4   7
TORSDOF 1
ENDMDL
