MODEL 1
REMARK minimizedAffinity -1.00498736
REMARK minimizedRMSD -1
REMARK  1 active torsions:
REMARK  status: ('A' for Active; 'I' for Inactive)
REMARK    1  A    between atoms: C3_4  and  O_7 
ROOT
ATOM      1  C   UNL d   1      -0.569   1.486  -0.373  0.00  0.00    -0.033 A 
ATOM      2  C1  UNL d   1      -0.897   2.019  -1.621  0.00  0.00     0.039 A 
ATOM      3  C2  UNL d   1      -0.839   3.398  -1.831  0.00  0.00    -0.080 A 
ATOM      4  C3  UNL d   1      -0.452   4.233  -0.786  0.00  0.00     0.150 A 
ATOM      5  C4  UNL d   1      -0.121   3.709   0.459  0.00  0.00    -0.007 A 
ATOM      6  C5  UNL d   1      -0.179   2.331   0.667  0.00  0.00     0.039 A 
ENDROOT
BRANCH   4   7
ATOM      7  O   UNL d   1      -0.386   5.585  -0.941  0.00  0.00    -0.526 OA
ATOM      8  H5  UNL d   1      -0.671   5.806  -1.844  0.00  0.00     0.418 HD
ENDBRANCH   4   7
TORSDOF 1
ENDMDL
