MODEL 1
REMARK minimizedAffinity 6.81955242
REMARK minimizedRMSD -1
REMARK  1 active torsions:
REMARK  status: ('A' for Active; 'I' for Inactive)
REMARK    1  A    between atoms: C3_4  and  O_7 
ROOT
ATOM      1  C   UNL d   1       3.710  -3.726  -0.068  0.00  0.00    -0.033 A 
ATOM      2  C1  UNL d   1       3.371  -2.372  -0.059  0.00  0.00     0.039 A 
ATOM      3  C2  UNL d   1       4.119  -1.458  -0.804  0.00  0.00    -0.080 A 
ATOM      4  C3  UNL d   1       5.200  -1.911  -1.554  0.00  0.00     0.150 A 
ATOM      5  C4  UNL d   1       5.541  -3.259  -1.571  0.00  0.00    -0.007 A 
ATOM      6  C5  UNL d   1       4.794  -4.170  -0.826  0.00  0.00     0.039 A 
ENDROOT
BRANCH   4   7
ATOM      7  O   UNL d   1       5.962  -1.056  -2.294  0.00  0.00    -0.526 OA
ATOM      8  H5  UNL d   1       5.627  -0.153  -2.163  0.00  0.00     0.418 HD
ENDBRANCH   4   7
TORSDOF 1
ENDMDL
