MODEL 1
REMARK minimizedAffinity 5.67185688
REMARK minimizedRMSD -1
REMARK  1 active torsions:
REMARK  status: ('A' for Active; 'I' for Inactive)
REMARK    1  A    between atoms: C3_4  and  O_7 
ROOT
ATOM      1  C   UNL d   1      -0.193  -0.311  -1.567  0.00  0.00    -0.033 A 
ATOM      2  C1  UNL d   1      -0.936  -1.449  -1.889  0.00  0.00     0.039 A 
ATOM      3  C2  UNL d   1      -2.327  -1.432  -1.775  0.00  0.00    -0.080 A 
ATOM      4  C3  UNL d   1      -2.963  -0.273  -1.339  0.00  0.00     0.150 A 
ATOM      5  C4  UNL d   1      -2.230   0.865  -1.020  0.00  0.00    -0.007 A 
ATOM      6  C5  UNL d   1      -0.840   0.846  -1.134  0.00  0.00     0.039 A 
ENDROOT
BRANCH   4   7
ATOM      7  O   UNL d   1      -4.318  -0.210  -1.207  0.00  0.00    -0.526 OA
ATOM      8  H5  UNL d   1      -4.690  -1.079  -1.435  0.00  0.00     0.418 HD
ENDBRANCH   4   7
TORSDOF 1
ENDMDL
