MODEL 1
REMARK minimizedAffinity -5.25141382
REMARK minimizedRMSD -1
REMARK  1 active torsions:
REMARK  status: ('A' for Active; 'I' for Inactive)
REMARK    1  A    between atoms: N_2  and  C1_3 
ROOT
ATOM      1  C1  UNL d   1      -0.106  -0.279   0.783  0.00  0.00     0.143 A 
ATOM      2  C2  UNL d   1      -1.101  -0.001  -0.160  0.00  0.00    -0.057 A 
ATOM      3  C3  UNL d   1      -2.281  -0.752  -0.215  0.00  0.00     0.033 A 
ATOM      4  C4  UNL d   1      -2.475  -1.818   0.658  0.00  0.00    -0.042 A 
ATOM      5  C5  UNL d   1      -1.489  -2.129   1.587  0.00  0.00     0.033 A 
ATOM      6  C6  UNL d   1      -0.315  -1.370   1.641  0.00  0.00    -0.057 A 
ENDROOT
BRANCH   1   7
ATOM      7  N   UNL d   1       1.131   0.368   0.823  0.00  0.00    -0.732 N 
ATOM      8  C   UNL d   1       1.566   1.053   2.022  0.00  0.00     0.284 C 
ATOM      9  H3  UNL d   1       1.864  -0.165   0.360  0.00  0.00     0.395 HD
ENDBRANCH   1   7
TORSDOF 1
ENDMDL
