MODEL 1
REMARK minimizedAffinity -3.95664668
REMARK minimizedRMSD -1
REMARK  1 active torsions:
REMARK  status: ('A' for Active; 'I' for Inactive)
REMARK    1  A    between atoms: N_2  and  C1_3 
ROOT
ATOM      1  C1  UNL d   1       1.043   0.261   1.235  0.00  0.00     0.143 A 
ATOM      2  C2  UNL d   1       0.911   0.911   2.467  0.00  0.00    -0.057 A 
ATOM      3  C3  UNL d   1       1.383   2.216   2.653  0.00  0.00     0.033 A 
ATOM      4  C4  UNL d   1       2.024   2.885   1.616  0.00  0.00    -0.042 A 
ATOM      5  C5  UNL d   1       2.188   2.250   0.390  0.00  0.00     0.033 A 
ATOM      6  C6  UNL d   1       1.708   0.949   0.208  0.00  0.00    -0.057 A 
ENDROOT
BRANCH   1   7
ATOM      7  N   UNL d   1       0.682  -1.071   1.015  0.00  0.00    -0.732 N 
ATOM      8  C   UNL d   1       0.729  -2.034   2.094  0.00  0.00     0.284 C 
ATOM      9  H3  UNL d   1      -0.134  -1.158   0.414  0.00  0.00     0.395 HD
ENDBRANCH   1   7
TORSDOF 1
ENDMDL
