MODEL 1
REMARK minimizedAffinity 2.40988183
REMARK minimizedRMSD -1
REMARK  1 active torsions:
REMARK  status: ('A' for Active; 'I' for Inactive)
REMARK    1  A    between atoms: N_2  and  C1_3 
ROOT
ATOM      1  C1  UNL d   1       0.195  -0.113  -1.225  0.00  0.00     0.143 A 
ATOM      2  C2  UNL d   1       1.205  -0.190  -0.260  0.00  0.00    -0.057 A 
ATOM      3  C3  UNL d   1       0.994  -0.840   0.962  0.00  0.00     0.033 A 
ATOM      4  C4  UNL d   1      -0.245  -1.401   1.253  0.00  0.00    -0.042 A 
ATOM      5  C5  UNL d   1      -1.271  -1.315   0.320  0.00  0.00     0.033 A 
ATOM      6  C6  UNL d   1      -1.053  -0.670  -0.902  0.00  0.00    -0.057 A 
ENDROOT
BRANCH   1   7
ATOM      7  N   UNL d   1       0.311   0.605  -2.418  0.00  0.00    -0.732 N 
ATOM      8  C   UNL d   1      -0.477   1.798  -2.640  0.00  0.00     0.284 C 
ATOM      9  H3  UNL d   1       1.276   0.678  -2.734  0.00  0.00     0.395 HD
ENDBRANCH   1   7
TORSDOF 1
ENDMDL
