MODEL 1
REMARK minimizedAffinity -2.54624534
REMARK minimizedRMSD -1
REMARK  1 active torsions:
REMARK  status: ('A' for Active; 'I' for Inactive)
REMARK    1  A    between atoms: N_2  and  C1_3 
ROOT
ATOM      1  C1  UNL d   1       0.049  -1.091   0.047  0.00  0.00     0.143 A 
ATOM      2  C2  UNL d   1       0.683   0.038  -0.484  0.00  0.00    -0.057 A 
ATOM      3  C3  UNL d   1       0.053   0.841  -1.443  0.00  0.00     0.033 A 
ATOM      4  C4  UNL d   1      -1.215   0.511  -1.910  0.00  0.00    -0.042 A 
ATOM      5  C5  UNL d   1      -1.854  -0.620  -1.415  0.00  0.00     0.033 A 
ATOM      6  C6  UNL d   1      -1.222  -1.414  -0.453  0.00  0.00    -0.057 A 
ENDROOT
BRANCH   1   7
ATOM      7  N   UNL d   1       0.662  -1.984   0.929  0.00  0.00    -0.732 N 
ATOM      8  C   UNL d   1       0.092  -2.238   2.235  0.00  0.00     0.284 C 
ATOM      9  H3  UNL d   1       1.011  -2.816   0.459  0.00  0.00     0.395 HD
ENDBRANCH   1   7
TORSDOF 1
ENDMDL
