MODEL 1
REMARK minimizedAffinity -3.64968371
REMARK minimizedRMSD -1
REMARK  1 active torsions:
REMARK  status: ('A' for Active; 'I' for Inactive)
REMARK    1  A    between atoms: N_2  and  C1_3 
ROOT
ATOM      1  C1  UNL d   1       0.603  -0.043   0.068  0.00  0.00     0.143 A 
ATOM      2  C2  UNL d   1       1.544   0.992   0.061  0.00  0.00    -0.057 A 
ATOM      3  C3  UNL d   1       2.023   1.546   1.255  0.00  0.00     0.033 A 
ATOM      4  C4  UNL d   1       1.544   1.092   2.480  0.00  0.00    -0.042 A 
ATOM      5  C5  UNL d   1       0.589   0.082   2.510  0.00  0.00     0.033 A 
ATOM      6  C6  UNL d   1       0.121  -0.472   1.314  0.00  0.00    -0.057 A 
ENDROOT
BRANCH   1   7
ATOM      7  N   UNL d   1       0.015  -0.567  -1.087  0.00  0.00    -0.732 N 
ATOM      8  C   UNL d   1      -1.407  -0.429  -1.318  0.00  0.00     0.284 C 
ATOM      9  H3  UNL d   1       0.587  -0.419  -1.915  0.00  0.00     0.395 HD
ENDBRANCH   1   7
TORSDOF 1
ENDMDL
