MODEL 1
REMARK minimizedAffinity -0.118091121
REMARK minimizedRMSD -1
REMARK  1 active torsions:
REMARK  status: ('A' for Active; 'I' for Inactive)
REMARK    1  A    between atoms: N_2  and  C1_3 
ROOT
ATOM      1  C1  UNL d   1      -0.879   0.215  -0.903  0.00  0.00     0.143 A 
ATOM      2  C2  UNL d   1      -1.152   1.458  -0.322  0.00  0.00    -0.057 A 
ATOM      3  C3  UNL d   1      -0.164   2.168   0.371  0.00  0.00     0.033 A 
ATOM      4  C4  UNL d   1       1.111   1.632   0.521  0.00  0.00    -0.042 A 
ATOM      5  C5  UNL d   1       1.397   0.387  -0.027  0.00  0.00     0.033 A 
ATOM      6  C6  UNL d   1       0.409  -0.315  -0.723  0.00  0.00    -0.057 A 
ENDROOT
BRANCH   1   7
ATOM      7  N   UNL d   1      -1.845  -0.585  -1.519  0.00  0.00    -0.732 N 
ATOM      8  C   UNL d   1      -2.884  -1.220  -0.737  0.00  0.00     0.284 C 
ATOM      9  H3  UNL d   1      -2.168  -0.193  -2.401  0.00  0.00     0.395 HD
ENDBRANCH   1   7
TORSDOF 1
ENDMDL
