MODEL 1
REMARK minimizedAffinity -1.4072262
REMARK minimizedRMSD -1
REMARK  1 active torsions:
REMARK  status: ('A' for Active; 'I' for Inactive)
REMARK    1  A    between atoms: N_2  and  C1_3 
ROOT
ATOM      1  C1  UNL d   1      -0.431  -0.550   0.494  0.00  0.00     0.143 A 
ATOM      2  C2  UNL d   1      -1.613  -1.030  -0.079  0.00  0.00    -0.057 A 
ATOM      3  C3  UNL d   1      -2.016  -0.627  -1.358  0.00  0.00     0.033 A 
ATOM      4  C4  UNL d   1      -1.255   0.289  -2.077  0.00  0.00    -0.042 A 
ATOM      5  C5  UNL d   1      -0.089   0.799  -1.517  0.00  0.00     0.033 A 
ATOM      6  C6  UNL d   1       0.311   0.387  -0.242  0.00  0.00    -0.057 A 
ENDROOT
BRANCH   1   7
ATOM      7  N   UNL d   1      -0.028  -0.836   1.801  0.00  0.00    -0.732 N 
ATOM      8  C   UNL d   1      -0.018  -2.199   2.288  0.00  0.00     0.284 C 
ATOM      9  H3  UNL d   1       0.780  -0.287   2.087  0.00  0.00     0.395 HD
ENDBRANCH   1   7
TORSDOF 1
ENDMDL
