MODEL 1
REMARK minimizedAffinity -4.05908442
REMARK minimizedRMSD -1
REMARK  1 active torsions:
REMARK  status: ('A' for Active; 'I' for Inactive)
REMARK    1  A    between atoms: N_2  and  C1_3 
ROOT
ATOM      1  C1  UNL d   1       1.254   1.633   1.432  0.00  0.00     0.143 A 
ATOM      2  C2  UNL d   1       1.880   0.443   1.044  0.00  0.00    -0.057 A 
ATOM      3  C3  UNL d   1       1.142  -0.632   0.535  0.00  0.00     0.033 A 
ATOM      4  C4  UNL d   1      -0.243  -0.547   0.433  0.00  0.00    -0.042 A 
ATOM      5  C5  UNL d   1      -0.888   0.617   0.836  0.00  0.00     0.033 A 
ATOM      6  C6  UNL d   1      -0.145   1.690   1.336  0.00  0.00    -0.057 A 
ENDROOT
BRANCH   1   7
ATOM      7  N   UNL d   1       1.922   2.701   2.036  0.00  0.00    -0.732 N 
ATOM      8  C   UNL d   1       2.977   3.402   1.337  0.00  0.00     0.284 C 
ATOM      9  H3  UNL d   1       1.292   3.309   2.555  0.00  0.00     0.395 HD
ENDBRANCH   1   7
TORSDOF 1
ENDMDL
