MODEL 1
REMARK minimizedAffinity -5.55701733
REMARK minimizedRMSD -1
REMARK  1 active torsions:
REMARK  status: ('A' for Active; 'I' for Inactive)
REMARK    1  A    between atoms: N_2  and  C1_3 
ROOT
ATOM      1  C1  UNL d   1      -0.793  -0.861   1.125  0.00  0.00     0.143 A 
ATOM      2  C2  UNL d   1      -1.544  -0.378   0.047  0.00  0.00    -0.057 A 
ATOM      3  C3  UNL d   1      -2.608  -1.116  -0.485  0.00  0.00     0.033 A 
ATOM      4  C4  UNL d   1      -2.922  -2.368   0.034  0.00  0.00    -0.042 A 
ATOM      5  C5  UNL d   1      -2.174  -2.879   1.088  0.00  0.00     0.033 A 
ATOM      6  C6  UNL d   1      -1.117  -2.134   1.620  0.00  0.00    -0.057 A 
ENDROOT
BRANCH   1   7
ATOM      7  N   UNL d   1       0.339  -0.220   1.634  0.00  0.00    -0.732 N 
ATOM      8  C   UNL d   1       1.548  -0.121   0.845  0.00  0.00     0.284 C 
ATOM      9  H3  UNL d   1       0.107   0.628   2.147  0.00  0.00     0.395 HD
ENDBRANCH   1   7
TORSDOF 1
ENDMDL
