MODEL 1
REMARK minimizedAffinity -4.92954206
REMARK minimizedRMSD -1
REMARK  1 active torsions:
REMARK  status: ('A' for Active; 'I' for Inactive)
REMARK    1  A    between atoms: N_2  and  C1_3 
ROOT
ATOM      1  C1  UNL d   1      -1.172   0.058  -0.110  0.00  0.00     0.143 A 
ATOM      2  C2  UNL d   1      -0.595  -0.341   1.100  0.00  0.00    -0.057 A 
ATOM      3  C3  UNL d   1       0.776  -0.182   1.337  0.00  0.00     0.033 A 
ATOM      4  C4  UNL d   1       1.601   0.354   0.354  0.00  0.00    -0.042 A 
ATOM      5  C5  UNL d   1       1.053   0.735  -0.865  0.00  0.00     0.033 A 
ATOM      6  C6  UNL d   1      -0.318   0.580  -1.094  0.00  0.00    -0.057 A 
ENDROOT
BRANCH   1   7
ATOM      7  N   UNL d   1      -2.511  -0.164  -0.444  0.00  0.00    -0.732 N 
ATOM      8  C   UNL d   1      -3.154  -1.418  -0.115  0.00  0.00     0.284 C 
ATOM      9  H3  UNL d   1      -3.092   0.656  -0.285  0.00  0.00     0.395 HD
ENDBRANCH   1   7
TORSDOF 1
ENDMDL
