MODEL 1
REMARK minimizedAffinity -4.51887703
REMARK minimizedRMSD -1
REMARK  1 active torsions:
REMARK  status: ('A' for Active; 'I' for Inactive)
REMARK    1  A    between atoms: N_2  and  C1_3 
ROOT
ATOM      1  C1  UNL d   1       0.210  -0.243   0.902  0.00  0.00     0.143 A 
ATOM      2  C2  UNL d   1      -1.029  -0.771   1.283  0.00  0.00    -0.057 A 
ATOM      3  C3  UNL d   1      -2.116  -0.781   0.400  0.00  0.00     0.033 A 
ATOM      4  C4  UNL d   1      -1.990  -0.236  -0.874  0.00  0.00    -0.042 A 
ATOM      5  C5  UNL d   1      -0.776   0.317  -1.264  0.00  0.00     0.033 A 
ATOM      6  C6  UNL d   1       0.308   0.318  -0.381  0.00  0.00    -0.057 A 
ENDROOT
BRANCH   1   7
ATOM      7  N   UNL d   1       1.299  -0.114   1.767  0.00  0.00    -0.732 N 
ATOM      8  C   UNL d   1       1.752   1.192   2.193  0.00  0.00     0.284 C 
ATOM      9  H3  UNL d   1       1.293  -0.813   2.507  0.00  0.00     0.395 HD
ENDBRANCH   1   7
TORSDOF 1
ENDMDL
