MODEL 1
REMARK minimizedAffinity -5.16710997
REMARK minimizedRMSD -1
REMARK  1 active torsions:
REMARK  status: ('A' for Active; 'I' for Inactive)
REMARK    1  A    between atoms: N_2  and  C1_3 
ROOT
ATOM      1  C1  UNL d   1      -0.503  -0.367   0.388  0.00  0.00     0.143 A 
ATOM      2  C2  UNL d   1      -1.155  -1.157   1.341  0.00  0.00    -0.057 A 
ATOM      3  C3  UNL d   1      -2.455  -1.630   1.126  0.00  0.00     0.033 A 
ATOM      4  C4  UNL d   1      -3.140  -1.296  -0.038  0.00  0.00    -0.042 A 
ATOM      5  C5  UNL d   1      -2.521  -0.491  -0.988  0.00  0.00     0.033 A 
ATOM      6  C6  UNL d   1      -1.220  -0.027  -0.770  0.00  0.00    -0.057 A 
ENDROOT
BRANCH   1   7
ATOM      7  N   UNL d   1       0.751   0.215   0.586  0.00  0.00    -0.732 N 
ATOM      8  C   UNL d   1       1.608   0.520  -0.539  0.00  0.00     0.284 C 
ATOM      9  H3  UNL d   1       0.736   0.935   1.304  0.00  0.00     0.395 HD
ENDBRANCH   1   7
TORSDOF 1
ENDMDL
