MODEL 1
REMARK minimizedAffinity -4.64835072
REMARK minimizedRMSD -1
REMARK  1 active torsions:
REMARK  status: ('A' for Active; 'I' for Inactive)
REMARK    1  A    between atoms: N_2  and  C1_3 
ROOT
ATOM      1  C1  UNL d   1       0.499  -0.128   0.282  0.00  0.00     0.143 A 
ATOM      2  C2  UNL d   1       0.225  -1.235   1.092  0.00  0.00    -0.057 A 
ATOM      3  C3  UNL d   1      -0.916  -2.020   0.888  0.00  0.00     0.033 A 
ATOM      4  C4  UNL d   1      -1.822  -1.692  -0.115  0.00  0.00    -0.042 A 
ATOM      5  C5  UNL d   1      -1.584  -0.581  -0.916  0.00  0.00     0.033 A 
ATOM      6  C6  UNL d   1      -0.439   0.194  -0.711  0.00  0.00    -0.057 A 
ENDROOT
BRANCH   1   7
ATOM      7  N   UNL d   1       1.565   0.749   0.498  0.00  0.00    -0.732 N 
ATOM      8  C   UNL d   1       1.653   1.516   1.722  0.00  0.00     0.284 C 
ATOM      9  H3  UNL d   1       2.453   0.366   0.182  0.00  0.00     0.395 HD
ENDBRANCH   1   7
TORSDOF 1
ENDMDL
