MODEL 1
REMARK minimizedAffinity -3.20449805
REMARK minimizedRMSD -1
REMARK  1 active torsions:
REMARK  status: ('A' for Active; 'I' for Inactive)
REMARK    1  A    between atoms: N_2  and  C1_3 
ROOT
ATOM      1  C1  UNL d   1       1.655   0.182   1.323  0.00  0.00     0.143 A 
ATOM      2  C2  UNL d   1       1.512   1.239   2.229  0.00  0.00    -0.057 A 
ATOM      3  C3  UNL d   1       1.963   2.528   1.918  0.00  0.00     0.033 A 
ATOM      4  C4  UNL d   1       2.593   2.776   0.703  0.00  0.00    -0.042 A 
ATOM      5  C5  UNL d   1       2.768   1.736  -0.203  0.00  0.00     0.033 A 
ATOM      6  C6  UNL d   1       2.309   0.453   0.111  0.00  0.00    -0.057 A 
ENDROOT
BRANCH   1   7
ATOM      7  N   UNL d   1       1.316  -1.142   1.613  0.00  0.00    -0.732 N 
ATOM      8  C   UNL d   1      -0.069  -1.563   1.623  0.00  0.00     0.284 C 
ATOM      9  H3  UNL d   1       1.950  -1.809   1.179  0.00  0.00     0.395 HD
ENDBRANCH   1   7
TORSDOF 1
ENDMDL
