MODEL 1
REMARK minimizedAffinity 0.52479142
REMARK minimizedRMSD -1
REMARK  1 active torsions:
REMARK  status: ('A' for Active; 'I' for Inactive)
REMARK    1  A    between atoms: N_2  and  C1_3 
ROOT
ATOM      1  C1  UNL d   1      -0.721  -1.677  -0.032  0.00  0.00     0.143 A 
ATOM      2  C2  UNL d   1      -1.864  -1.536  -0.827  0.00  0.00    -0.057 A 
ATOM      3  C3  UNL d   1      -1.966  -0.512  -1.777  0.00  0.00     0.033 A 
ATOM      4  C4  UNL d   1      -0.935   0.409  -1.928  0.00  0.00    -0.042 A 
ATOM      5  C5  UNL d   1       0.199   0.304  -1.131  0.00  0.00     0.033 A 
ATOM      6  C6  UNL d   1       0.298  -0.725  -0.189  0.00  0.00    -0.057 A 
ENDROOT
BRANCH   1   7
ATOM      7  N   UNL d   1      -0.601  -2.614   0.998  0.00  0.00    -0.732 N 
ATOM      8  C   UNL d   1       0.396  -2.446   2.033  0.00  0.00     0.284 C 
ATOM      9  H3  UNL d   1      -1.504  -2.935   1.338  0.00  0.00     0.395 HD
ENDBRANCH   1   7
TORSDOF 1
ENDMDL
