MODEL 1
REMARK minimizedAffinity -4.94548655
REMARK minimizedRMSD -1
REMARK  1 active torsions:
REMARK  status: ('A' for Active; 'I' for Inactive)
REMARK    1  A    between atoms: N_2  and  C1_3 
ROOT
ATOM      1  C1  UNL d   1      -0.164  -0.190   0.041  0.00  0.00     0.143 A 
ATOM      2  C2  UNL d   1       0.203  -1.116   1.023  0.00  0.00    -0.057 A 
ATOM      3  C3  UNL d   1      -0.649  -2.168   1.383  0.00  0.00     0.033 A 
ATOM      4  C4  UNL d   1      -1.899  -2.294   0.786  0.00  0.00    -0.042 A 
ATOM      5  C5  UNL d   1      -2.294  -1.370  -0.175  0.00  0.00     0.033 A 
ATOM      6  C6  UNL d   1      -1.437  -0.326  -0.535  0.00  0.00    -0.057 A 
ENDROOT
BRANCH   1   7
ATOM      7  N   UNL d   1       0.597   0.934  -0.291  0.00  0.00    -0.732 N 
ATOM      8  C   UNL d   1       1.544   1.488   0.653  0.00  0.00     0.284 C 
ATOM      9  H3  UNL d   1       0.934   0.905  -1.250  0.00  0.00     0.395 HD
ENDBRANCH   1   7
TORSDOF 1
ENDMDL
