MODEL 1
REMARK minimizedAffinity 13.8589611
REMARK minimizedRMSD -1
REMARK  0 active torsions:
REMARK  status: ('A' for Active; 'I' for Inactive)
ROOT
ATOM      1  C4' PXY d   1      -2.186   3.075  -1.742  0.00  0.00     0.077 C 
ATOM      2  C1' PXY d   1       1.666   0.804   1.920  0.00  0.00     0.077 C 
ATOM      3  C1  PXY d   1       0.646   1.396   0.968  0.00  0.00    -0.082 A 
ATOM      4  C2  PXY d   1       0.958   1.556  -0.308  0.00  0.00     0.003 A 
ATOM      5  C3  PXY d   1       0.059   2.119  -1.177  0.00  0.00     0.003 A 
ATOM      6  C4  PXY d   1      -1.192   2.473  -0.746  0.00  0.00    -0.082 A 
ATOM      7  C5  PXY d   1      -1.522   2.303   0.551  0.00  0.00     0.003 A 
ATOM      8  C6  PXY d   1      -0.580   1.767   1.426  0.00  0.00     0.003 A 
ENDROOT
TORSDOF 0
ENDMDL
