MODEL 1
REMARK minimizedAffinity 12.118948
REMARK minimizedRMSD -1
REMARK  0 active torsions:
REMARK  status: ('A' for Active; 'I' for Inactive)
ROOT
ATOM      1  C4' PXY d   1      -0.825   1.462   1.142  0.00  0.00     0.077 C 
ATOM      2  C1' PXY d   1       0.515   5.999  -2.180  0.00  0.00     0.077 C 
ATOM      3  C1  PXY d   1       0.168   4.801  -1.318  0.00  0.00    -0.082 A 
ATOM      4  C2  PXY d   1      -0.769   4.912  -0.390  0.00  0.00     0.003 A 
ATOM      5  C3  PXY d   1      -1.072   3.848   0.419  0.00  0.00     0.003 A 
ATOM      6  C4  PXY d   1      -0.448   2.642   0.242  0.00  0.00    -0.082 A 
ATOM      7  C5  PXY d   1       0.501   2.518  -0.710  0.00  0.00     0.003 A 
ATOM      8  C6  PXY d   1       0.824   3.622  -1.494  0.00  0.00     0.003 A 
ENDROOT
TORSDOF 0
ENDMDL
