MODEL 1
REMARK minimizedAffinity 15.6988611
REMARK minimizedRMSD -1
REMARK  0 active torsions:
REMARK  status: ('A' for Active; 'I' for Inactive)
ROOT
ATOM      1  C4' PXY d   1       1.286   5.650  -2.354  0.00  0.00     0.077 C 
ATOM      2  C1' PXY d   1      -1.050   1.418   0.816  0.00  0.00     0.077 C 
ATOM      3  C1  PXY d   1      -0.430   2.532  -0.005  0.00  0.00    -0.082 A 
ATOM      4  C2  PXY d   1      -1.073   3.000  -1.063  0.00  0.00     0.003 A 
ATOM      5  C3  PXY d   1      -0.512   3.984  -1.835  0.00  0.00     0.003 A 
ATOM      6  C4  PXY d   1       0.694   4.532  -1.491  0.00  0.00    -0.082 A 
ATOM      7  C5  PXY d   1       1.351   4.068  -0.407  0.00  0.00     0.003 A 
ATOM      8  C6  PXY d   1       0.784   3.039   0.340  0.00  0.00     0.003 A 
ENDROOT
TORSDOF 0
ENDMDL
