MODEL 1
REMARK minimizedAffinity 12.8247604
REMARK minimizedRMSD -1
REMARK  0 active torsions:
REMARK  status: ('A' for Active; 'I' for Inactive)
ROOT
ATOM      1  C4' PXY d   1      -3.017   6.000   2.248  0.00  0.00     0.077 C 
ATOM      2  C1' PXY d   1      -3.774   4.564  -3.300  0.00  0.00     0.077 C 
ATOM      3  C1  PXY d   1      -3.588   4.946  -1.845  0.00  0.00    -0.082 A 
ATOM      4  C2  PXY d   1      -2.368   5.136  -1.370  0.00  0.00     0.003 A 
ATOM      5  C3  PXY d   1      -2.179   5.450  -0.048  0.00  0.00     0.003 A 
ATOM      6  C4  PXY d   1      -3.253   5.623   0.783  0.00  0.00    -0.082 A 
ATOM      7  C5  PXY d   1      -4.502   5.441   0.303  0.00  0.00     0.003 A 
ATOM      8  C6  PXY d   1      -4.670   5.082  -1.031  0.00  0.00     0.003 A 
ENDROOT
TORSDOF 0
ENDMDL
