MODEL 1
REMARK minimizedAffinity 12.7097645
REMARK minimizedRMSD -1
REMARK  0 active torsions:
REMARK  status: ('A' for Active; 'I' for Inactive)
ROOT
ATOM      1  C4' PXY d   1      -5.788  -5.668  -5.999  0.00  0.00     0.077 C 
ATOM      2  C1' PXY d   1      -0.532  -3.765  -4.525  0.00  0.00     0.077 C 
ATOM      3  C1  PXY d   1      -1.906  -4.276  -4.910  0.00  0.00    -0.082 A 
ATOM      4  C2  PXY d   1      -2.715  -3.506  -5.619  0.00  0.00     0.003 A 
ATOM      5  C3  PXY d   1      -3.974  -3.940  -5.949  0.00  0.00     0.003 A 
ATOM      6  C4  PXY d   1      -4.388  -5.196  -5.595  0.00  0.00    -0.082 A 
ATOM      7  C5  PXY d   1      -3.564  -5.992  -4.881  0.00  0.00     0.003 A 
ATOM      8  C6  PXY d   1      -2.307  -5.517  -4.521  0.00  0.00     0.003 A 
ENDROOT
TORSDOF 0
ENDMDL
