MODEL 1
REMARK minimizedAffinity 7.52758837
REMARK minimizedRMSD -1
REMARK  0 active torsions:
REMARK  status: ('A' for Active; 'I' for Inactive)
ROOT
ATOM      1  C4' PXY d   1       1.515   4.832  -2.117  0.00  0.00     0.077 C 
ATOM      2  C1' PXY d   1      -1.541   1.114   1.085  0.00  0.00     0.077 C 
ATOM      3  C1  PXY d   1      -0.730   2.089   0.255  0.00  0.00    -0.082 A 
ATOM      4  C2  PXY d   1      -1.343   2.869  -0.621  0.00  0.00     0.003 A 
ATOM      5  C3  PXY d   1      -0.621   3.734  -1.403  0.00  0.00     0.003 A 
ATOM      6  C4  PXY d   1       0.735   3.839  -1.250  0.00  0.00    -0.082 A 
ATOM      7  C5  PXY d   1       1.366   3.054  -0.352  0.00  0.00     0.003 A 
ATOM      8  C6  PXY d   1       0.621   2.153   0.403  0.00  0.00     0.003 A 
ENDROOT
TORSDOF 0
ENDMDL
