MODEL 1
REMARK minimizedAffinity 9.10821342
REMARK minimizedRMSD -1
REMARK  0 active torsions:
REMARK  status: ('A' for Active; 'I' for Inactive)
ROOT
ATOM      1  C4' PXY d   1       0.853   4.542  -2.086  0.00  0.00     0.077 C 
ATOM      2  C1' PXY d   1       0.172   1.246   2.613  0.00  0.00     0.077 C 
ATOM      3  C1  PXY d   1       0.340   2.105   1.376  0.00  0.00    -0.082 A 
ATOM      4  C2  PXY d   1       1.543   2.541   1.040  0.00  0.00     0.003 A 
ATOM      5  C3  PXY d   1       1.708   3.346  -0.058  0.00  0.00     0.003 A 
ATOM      6  C4  PXY d   1       0.638   3.664  -0.851  0.00  0.00    -0.082 A 
ATOM      7  C5  PXY d   1      -0.591   3.214  -0.521  0.00  0.00     0.003 A 
ATOM      8  C6  PXY d   1      -0.744   2.432   0.620  0.00  0.00     0.003 A 
ENDROOT
TORSDOF 0
ENDMDL
