MODEL 1
REMARK minimizedAffinity 19.686142
REMARK minimizedRMSD -1
REMARK  0 active torsions:
REMARK  status: ('A' for Active; 'I' for Inactive)
ROOT
ATOM      1  C4' PXY d   1       3.403  -0.369   1.116  0.00  0.00     0.077 C 
ATOM      2  C1' PXY d   1       1.226  -5.247  -1.091  0.00  0.00     0.077 C 
ATOM      3  C1  PXY d   1       1.807  -3.974  -0.508  0.00  0.00    -0.082 A 
ATOM      4  C2  PXY d   1       1.001  -2.982  -0.169  0.00  0.00     0.003 A 
ATOM      5  C3  PXY d   1       1.512  -1.812   0.330  0.00  0.00     0.003 A 
ATOM      6  C4  PXY d   1       2.859  -1.676   0.533  0.00  0.00    -0.082 A 
ATOM      7  C5  PXY d   1       3.688  -2.688   0.199  0.00  0.00     0.003 A 
ATOM      8  C6  PXY d   1       3.153  -3.852  -0.344  0.00  0.00     0.003 A 
ENDROOT
TORSDOF 0
ENDMDL
