MODEL 1
REMARK minimizedAffinity 10.4864216
REMARK minimizedRMSD -1
REMARK  0 active torsions:
REMARK  status: ('A' for Active; 'I' for Inactive)
ROOT
ATOM      1  C4' PXY d   1       2.736   2.013   3.051  0.00  0.00     0.077 C 
ATOM      2  C1' PXY d   1       1.082   3.527  -2.278  0.00  0.00     0.077 C 
ATOM      3  C1  PXY d   1       1.504   3.128  -0.877  0.00  0.00    -0.082 A 
ATOM      4  C2  PXY d   1       2.672   3.532  -0.405  0.00  0.00     0.003 A 
ATOM      5  C3  PXY d   1       3.082   3.154   0.847  0.00  0.00     0.003 A 
ATOM      6  C4  PXY d   1       2.265   2.399   1.646  0.00  0.00    -0.082 A 
ATOM      7  C5  PXY d   1       1.067   1.992   1.176  0.00  0.00     0.003 A 
ATOM      8  C6  PXY d   1       0.687   2.352  -0.114  0.00  0.00     0.003 A 
ENDROOT
TORSDOF 0
ENDMDL
