MODEL 1
REMARK minimizedAffinity 11.4418802
REMARK minimizedRMSD -1
REMARK  0 active torsions:
REMARK  status: ('A' for Active; 'I' for Inactive)
ROOT
ATOM      1  C4' PXY d   1       1.085  -3.466  -5.604  0.00  0.00     0.077 C 
ATOM      2  C1' PXY d   1       1.150  -6.000  -0.409  0.00  0.00     0.077 C 
ATOM      3  C1  PXY d   1       1.146  -5.335  -1.772  0.00  0.00    -0.082 A 
ATOM      4  C2  PXY d   1       0.081  -4.656  -2.165  0.00  0.00     0.003 A 
ATOM      5  C3  PXY d   1       0.048  -4.075  -3.407  0.00  0.00     0.003 A 
ATOM      6  C4  PXY d   1       1.137  -4.145  -4.233  0.00  0.00    -0.082 A 
ATOM      7  C5  PXY d   1       2.231  -4.828  -3.835  0.00  0.00     0.003 A 
ATOM      8  C6  PXY d   1       2.229  -5.445  -2.588  0.00  0.00     0.003 A 
ENDROOT
TORSDOF 0
ENDMDL
