MODEL 1
REMARK minimizedAffinity 6.55969763
REMARK minimizedRMSD -1
REMARK  0 active torsions:
REMARK  status: ('A' for Active; 'I' for Inactive)
ROOT
ATOM      1  C4' PXY d   1      -6.000  -0.206   2.902  0.00  0.00     0.077 C 
ATOM      2  C1' PXY d   1      -3.104   1.409  -1.833  0.00  0.00     0.077 C 
ATOM      3  C1  PXY d   1      -3.863   0.997  -0.586  0.00  0.00    -0.082 A 
ATOM      4  C2  PXY d   1      -3.845  -0.267  -0.197  0.00  0.00     0.003 A 
ATOM      5  C3  PXY d   1      -4.552  -0.662   0.910  0.00  0.00     0.003 A 
ATOM      6  C4  PXY d   1      -5.241   0.256   1.656  0.00  0.00    -0.082 A 
ATOM      7  C5  PXY d   1      -5.255   1.550   1.271  0.00  0.00     0.003 A 
ATOM      8  C6  PXY d   1      -4.565   1.923   0.122  0.00  0.00     0.003 A 
ENDROOT
TORSDOF 0
ENDMDL
