MODEL 1
REMARK minimizedAffinity 9.198452
REMARK minimizedRMSD -1
REMARK  0 active torsions:
REMARK  status: ('A' for Active; 'I' for Inactive)
ROOT
ATOM      1  C1  DEN d   1      -1.327  -3.231  -1.963  0.00  0.00     0.130 A 
ATOM      2  C2  DEN d   1      -0.794  -1.965  -2.458  0.00  0.00    -0.031 A 
ATOM      3  C3  DEN d   1      -0.699  -2.053  -3.929  0.00  0.00     0.027 A 
ATOM      4  C4  DEN d   1      -1.325  -4.015  -5.481  0.00  0.00     0.027 A 
ATOM      5  C5  DEN d   1      -1.807  -5.305  -5.521  0.00  0.00    -0.003 A 
ATOM      6  C6  DEN d   1      -2.128  -6.000  -4.386  0.00  0.00     0.001 A 
ATOM      7  C7  DEN d   1      -2.014  -5.393  -3.163  0.00  0.00     0.017 A 
ATOM      8  C8  DEN d   1      -1.521  -4.095  -3.114  0.00  0.00    -0.094 A 
ATOM      9  C9  DEN d   1      -1.213  -3.405  -4.274  0.00  0.00    -0.072 A 
ENDROOT
TORSDOF 0
ENDMDL
