MODEL 1
REMARK minimizedAffinity 10.6237946
REMARK minimizedRMSD -1
REMARK  0 active torsions:
REMARK  status: ('A' for Active; 'I' for Inactive)
ROOT
ATOM      1  C1  DEN d   1       0.773  -3.176   4.203  0.00  0.00     0.130 A 
ATOM      2  C2  DEN d   1       1.864  -3.309   5.165  0.00  0.00    -0.031 A 
ATOM      3  C3  DEN d   1       2.597  -2.027   5.204  0.00  0.00     0.027 A 
ATOM      4  C4  DEN d   1       2.148   0.140   3.880  0.00  0.00     0.027 A 
ATOM      5  C5  DEN d   1       1.339   0.730   2.934  0.00  0.00    -0.003 A 
ATOM      6  C6  DEN d   1       0.315   0.055   2.325  0.00  0.00     0.001 A 
ATOM      7  C7  DEN d   1       0.044  -1.238   2.688  0.00  0.00     0.017 A 
ATOM      8  C8  DEN d   1       0.859  -1.842   3.636  0.00  0.00    -0.094 A 
ATOM      9  C9  DEN d   1       1.882  -1.139   4.249  0.00  0.00    -0.072 A 
ENDROOT
TORSDOF 0
ENDMDL
