MODEL 1
REMARK minimizedAffinity 8.37263107
REMARK minimizedRMSD -1
REMARK  0 active torsions:
REMARK  status: ('A' for Active; 'I' for Inactive)
ROOT
ATOM      1  C1  DEN d   1       0.905   0.793   5.619  0.00  0.00     0.130 A 
ATOM      2  C2  DEN d   1       0.145   2.040   5.592  0.00  0.00    -0.031 A 
ATOM      3  C3  DEN d   1      -0.510   2.147   4.273  0.00  0.00     0.027 A 
ATOM      4  C4  DEN d   1      -0.426   0.510   2.282  0.00  0.00     0.027 A 
ATOM      5  C5  DEN d   1       0.098  -0.681   1.829  0.00  0.00    -0.003 A 
ATOM      6  C6  DEN d   1       0.948  -1.440   2.588  0.00  0.00     0.001 A 
ATOM      7  C7  DEN d   1       1.263  -1.040   3.860  0.00  0.00     0.017 A 
ATOM      8  C8  DEN d   1       0.745   0.163   4.321  0.00  0.00    -0.094 A 
ATOM      9  C9  DEN d   1      -0.123   0.910   3.543  0.00  0.00    -0.072 A 
ENDROOT
TORSDOF 0
ENDMDL
