MODEL 1
REMARK minimizedAffinity 13.3977537
REMARK minimizedRMSD -1
REMARK  0 active torsions:
REMARK  status: ('A' for Active; 'I' for Inactive)
ROOT
ATOM      1  C1  DEN d   1       2.136  -2.774   4.013  0.00  0.00     0.130 A 
ATOM      2  C2  DEN d   1       1.031  -3.640   4.415  0.00  0.00    -0.031 A 
ATOM      3  C3  DEN d   1      -0.221  -3.053   3.898  0.00  0.00     0.027 A 
ATOM      4  C4  DEN d   1      -0.555  -0.900   2.517  0.00  0.00     0.027 A 
ATOM      5  C5  DEN d   1       0.086   0.175   1.941  0.00  0.00    -0.003 A 
ATOM      6  C6  DEN d   1       1.439   0.358   2.044  0.00  0.00     0.001 A 
ATOM      7  C7  DEN d   1       2.203  -0.571   2.700  0.00  0.00     0.017 A 
ATOM      8  C8  DEN d   1       1.563  -1.653   3.289  0.00  0.00    -0.094 A 
ATOM      9  C9  DEN d   1       0.195  -1.828   3.164  0.00  0.00    -0.072 A 
ENDROOT
TORSDOF 0
ENDMDL
