MODEL 1
REMARK minimizedAffinity 18.5190048
REMARK minimizedRMSD -1
REMARK  0 active torsions:
REMARK  status: ('A' for Active; 'I' for Inactive)
ROOT
ATOM      1  C1  DEN d   1      -0.419  -3.744  -5.998  0.00  0.00     0.130 A 
ATOM      2  C2  DEN d   1      -1.493  -4.732  -5.974  0.00  0.00    -0.031 A 
ATOM      3  C3  DEN d   1      -2.243  -4.560  -4.714  0.00  0.00     0.027 A 
ATOM      4  C4  DEN d   1      -1.850  -2.865  -2.810  0.00  0.00     0.027 A 
ATOM      5  C5  DEN d   1      -1.050  -1.832  -2.374  0.00  0.00    -0.003 A 
ATOM      6  C6  DEN d   1       0.028  -1.390  -3.094  0.00  0.00     0.001 A 
ATOM      7  C7  DEN d   1       0.309  -1.953  -4.311  0.00  0.00     0.017 A 
ATOM      8  C8  DEN d   1      -0.489  -3.000  -4.753  0.00  0.00    -0.094 A 
ATOM      9  C9  DEN d   1      -1.581  -3.425  -4.017  0.00  0.00    -0.072 A 
ENDROOT
TORSDOF 0
ENDMDL
