MODEL 1
REMARK minimizedAffinity 7.98967695
REMARK minimizedRMSD -1
REMARK  0 active torsions:
REMARK  status: ('A' for Active; 'I' for Inactive)
ROOT
ATOM      1  C1  DEN d   1       0.908  -0.038  -3.013  0.00  0.00     0.130 A 
ATOM      2  C2  DEN d   1       0.974  -0.073  -4.472  0.00  0.00    -0.031 A 
ATOM      3  C3  DEN d   1       0.007  -1.082  -4.949  0.00  0.00     0.027 A 
ATOM      4  C4  DEN d   1      -1.581  -2.583  -3.578  0.00  0.00     0.027 A 
ATOM      5  C5  DEN d   1      -1.987  -2.920  -2.306  0.00  0.00    -0.003 A 
ATOM      6  C6  DEN d   1      -1.437  -2.350  -1.189  0.00  0.00     0.001 A 
ATOM      7  C7  DEN d   1      -0.481  -1.378  -1.323  0.00  0.00     0.017 A 
ATOM      8  C8  DEN d   1      -0.061  -1.038  -2.602  0.00  0.00    -0.094 A 
ATOM      9  C9  DEN d   1      -0.638  -1.617  -3.720  0.00  0.00    -0.072 A 
ENDROOT
TORSDOF 0
ENDMDL
