MODEL 1
REMARK minimizedAffinity 8.51482391
REMARK minimizedRMSD -1
REMARK  0 active torsions:
REMARK  status: ('A' for Active; 'I' for Inactive)
ROOT
ATOM      1  C1  DEN d   1      -1.883   0.742   2.223  0.00  0.00     0.130 A 
ATOM      2  C2  DEN d   1      -2.930  -0.275   2.258  0.00  0.00    -0.031 A 
ATOM      3  C3  DEN d   1      -2.366  -1.491   2.879  0.00  0.00     0.027 A 
ATOM      4  C4  DEN d   1       0.013  -1.893   3.790  0.00  0.00     0.027 A 
ATOM      5  C5  DEN d   1       1.257  -1.328   3.969  0.00  0.00    -0.003 A 
ATOM      6  C6  DEN d   1       1.548  -0.056   3.552  0.00  0.00     0.001 A 
ATOM      7  C7  DEN d   1       0.570   0.710   2.975  0.00  0.00     0.017 A 
ATOM      8  C8  DEN d   1      -0.684   0.145   2.784  0.00  0.00    -0.094 A 
ATOM      9  C9  DEN d   1      -0.962  -1.138   3.223  0.00  0.00    -0.072 A 
ENDROOT
TORSDOF 0
ENDMDL
