MODEL 1
REMARK minimizedAffinity 15.8531675
REMARK minimizedRMSD -1
REMARK  0 active torsions:
REMARK  status: ('A' for Active; 'I' for Inactive)
ROOT
ATOM      1  C1  DEN d   1       0.228   0.009  -3.501  0.00  0.00     0.130 A 
ATOM      2  C2  DEN d   1       0.434  -0.321  -4.909  0.00  0.00    -0.031 A 
ATOM      3  C3  DEN d   1      -0.141  -1.659  -5.153  0.00  0.00     0.027 A 
ATOM      4  C4  DEN d   1      -1.328  -3.242  -3.498  0.00  0.00     0.027 A 
ATOM      5  C5  DEN d   1      -1.729  -3.402  -2.191  0.00  0.00    -0.003 A 
ATOM      6  C6  DEN d   1      -1.478  -2.460  -1.229  0.00  0.00     0.001 A 
ATOM      7  C7  DEN d   1      -0.847  -1.293  -1.570  0.00  0.00     0.017 A 
ATOM      8  C8  DEN d   1      -0.433  -1.127  -2.885  0.00  0.00    -0.094 A 
ATOM      9  C9  DEN d   1      -0.706  -2.086  -3.845  0.00  0.00    -0.072 A 
ENDROOT
TORSDOF 0
ENDMDL
