MODEL 1
REMARK minimizedAffinity 16.9865246
REMARK minimizedRMSD -1
REMARK  0 active torsions:
REMARK  status: ('A' for Active; 'I' for Inactive)
ROOT
ATOM      1  C1  DEN d   1       0.259  -1.950   2.704  0.00  0.00     0.130 A 
ATOM      2  C2  DEN d   1       1.548  -1.374   3.079  0.00  0.00    -0.031 A 
ATOM      3  C3  DEN d   1       1.403   0.095   3.098  0.00  0.00     0.027 A 
ATOM      4  C4  DEN d   1      -0.682   1.527   2.593  0.00  0.00     0.027 A 
ATOM      5  C5  DEN d   1      -2.007   1.487   2.218  0.00  0.00    -0.003 A 
ATOM      6  C6  DEN d   1      -2.655   0.311   1.949  0.00  0.00     0.001 A 
ATOM      7  C7  DEN d   1      -1.991  -0.879   2.094  0.00  0.00     0.017 A 
ATOM      8  C8  DEN d   1      -0.653  -0.846   2.464  0.00  0.00    -0.094 A 
ATOM      9  C9  DEN d   1      -0.019   0.352   2.744  0.00  0.00    -0.072 A 
ENDROOT
TORSDOF 0
ENDMDL
