MODEL 1
REMARK minimizedAffinity 2.79402757
REMARK minimizedRMSD -1
REMARK  0 active torsions:
REMARK  status: ('A' for Active; 'I' for Inactive)
ROOT
ATOM      1  C   UNL d   1       1.695   2.053   0.629  0.00  0.00     0.077 C 
ATOM      2  C1  UNL d   1       1.511   0.845  -0.241  0.00  0.00    -0.074 A 
ATOM      3  C2  UNL d   1       2.183   0.729  -1.462  0.00  0.00    -0.005 A 
ATOM      4  C3  UNL d   1       2.009  -0.405  -2.255  0.00  0.00     0.006 A 
ATOM      5  C4  UNL d   1       1.162  -1.432  -1.837  0.00  0.00    -0.005 A 
ATOM      6  C5  UNL d   1       0.482  -1.334  -0.619  0.00  0.00    -0.074 A 
ATOM      7  C6  UNL d   1      -0.424  -2.433  -0.149  0.00  0.00     0.077 C 
ATOM      8  C7  UNL d   1       0.668  -0.194   0.176  0.00  0.00    -0.001 A 
ENDROOT
TORSDOF 0
ENDMDL
