MODEL 1
REMARK minimizedAffinity -2.31504059
REMARK minimizedRMSD -1
REMARK  0 active torsions:
REMARK  status: ('A' for Active; 'I' for Inactive)
ROOT
ATOM      1  C   UNL d   1       5.997   1.492   5.762  0.00  0.00     0.077 C 
ATOM      2  C1  UNL d   1       5.885   0.115   5.179  0.00  0.00    -0.074 A 
ATOM      3  C2  UNL d   1       5.663  -0.997   5.998  0.00  0.00    -0.005 A 
ATOM      4  C3  UNL d   1       5.551  -2.270   5.441  0.00  0.00     0.006 A 
ATOM      5  C4  UNL d   1       5.660  -2.445   4.061  0.00  0.00    -0.005 A 
ATOM      6  C5  UNL d   1       5.881  -1.346   3.225  0.00  0.00    -0.074 A 
ATOM      7  C6  UNL d   1       5.991  -1.515   1.739  0.00  0.00     0.077 C 
ATOM      8  C7  UNL d   1       5.986  -0.068   3.793  0.00  0.00    -0.001 A 
ENDROOT
TORSDOF 0
ENDMDL
