MODEL 1
REMARK minimizedAffinity 8.82308483
REMARK minimizedRMSD -1
REMARK  0 active torsions:
REMARK  status: ('A' for Active; 'I' for Inactive)
ROOT
ATOM      1  C   UNL d   1       1.390  -0.034  -3.570  0.00  0.00     0.077 C 
ATOM      2  C1  UNL d   1       0.505  -0.239  -2.377  0.00  0.00    -0.074 A 
ATOM      3  C2  UNL d   1       0.038   0.849  -1.632  0.00  0.00    -0.005 A 
ATOM      4  C3  UNL d   1      -0.793   0.643  -0.531  0.00  0.00     0.006 A 
ATOM      5  C4  UNL d   1      -1.165  -0.651  -0.164  0.00  0.00    -0.005 A 
ATOM      6  C5  UNL d   1      -0.709  -1.751  -0.897  0.00  0.00    -0.074 A 
ATOM      7  C6  UNL d   1      -1.107  -3.148  -0.522  0.00  0.00     0.077 C 
ATOM      8  C7  UNL d   1       0.120  -1.535  -2.007  0.00  0.00    -0.001 A 
ENDROOT
TORSDOF 0
ENDMDL
