MODEL 1
REMARK minimizedAffinity 1.85014927
REMARK minimizedRMSD -1
REMARK  0 active torsions:
REMARK  status: ('A' for Active; 'I' for Inactive)
ROOT
ATOM      1  C   UNL d   1       6.000   4.487   5.709  0.00  0.00     0.077 C 
ATOM      2  C1  UNL d   1       5.992   3.155   5.018  0.00  0.00    -0.074 A 
ATOM      3  C2  UNL d   1       5.997   3.070   3.622  0.00  0.00    -0.005 A 
ATOM      4  C3  UNL d   1       5.999   1.825   2.993  0.00  0.00     0.006 A 
ATOM      5  C4  UNL d   1       5.996   0.654   3.753  0.00  0.00    -0.005 A 
ATOM      6  C5  UNL d   1       5.992   0.720   5.150  0.00  0.00    -0.074 A 
ATOM      7  C6  UNL d   1       5.999  -0.528   5.981  0.00  0.00     0.077 C 
ATOM      8  C7  UNL d   1       5.997   1.975   5.774  0.00  0.00    -0.001 A 
ENDROOT
TORSDOF 0
ENDMDL
