MODEL 1
REMARK minimizedAffinity -0.963337958
REMARK minimizedRMSD -1
REMARK  0 active torsions:
REMARK  status: ('A' for Active; 'I' for Inactive)
ROOT
ATOM      1  C   UNL d   1       4.676   3.750   4.607  0.00  0.00     0.077 C 
ATOM      2  C1  UNL d   1       5.133   2.366   4.251  0.00  0.00    -0.074 A 
ATOM      3  C2  UNL d   1       5.537   2.055   2.949  0.00  0.00    -0.005 A 
ATOM      4  C3  UNL d   1       5.968   0.767   2.635  0.00  0.00     0.006 A 
ATOM      5  C4  UNL d   1       5.999  -0.223   3.619  0.00  0.00    -0.005 A 
ATOM      6  C5  UNL d   1       5.600   0.070   4.927  0.00  0.00    -0.074 A 
ATOM      7  C6  UNL d   1       5.637  -0.979   5.998  0.00  0.00     0.077 C 
ATOM      8  C7  UNL d   1       5.174   1.369   5.236  0.00  0.00    -0.001 A 
ENDROOT
TORSDOF 0
ENDMDL
