MODEL 1
REMARK minimizedAffinity -4.36287165
REMARK minimizedRMSD -1
REMARK  0 active torsions:
REMARK  status: ('A' for Active; 'I' for Inactive)
ROOT
ATOM      1  C   UNL d   1       5.965   4.084   4.508  0.00  0.00     0.077 C 
ATOM      2  C1  UNL d   1       5.874   2.688   3.968  0.00  0.00    -0.074 A 
ATOM      3  C2  UNL d   1       5.993   2.439   2.597  0.00  0.00    -0.005 A 
ATOM      4  C3  UNL d   1       5.916   1.134   2.110  0.00  0.00     0.006 A 
ATOM      5  C4  UNL d   1       5.720   0.067   2.987  0.00  0.00    -0.005 A 
ATOM      6  C5  UNL d   1       5.600   0.296   4.361  0.00  0.00    -0.074 A 
ATOM      7  C6  UNL d   1       5.398  -0.840   5.319  0.00  0.00     0.077 C 
ATOM      8  C7  UNL d   1       5.685   1.610   4.844  0.00  0.00    -0.001 A 
ENDROOT
TORSDOF 0
ENDMDL
