MODEL 1
REMARK minimizedAffinity -0.0596031249
REMARK minimizedRMSD -1
REMARK  0 active torsions:
REMARK  status: ('A' for Active; 'I' for Inactive)
ROOT
ATOM      1  C   UNL d   1       3.375   6.000  -1.767  0.00  0.00     0.077 C 
ATOM      2  C1  UNL d   1       3.499   4.518  -1.570  0.00  0.00    -0.074 A 
ATOM      3  C2  UNL d   1       3.127   3.920  -0.362  0.00  0.00    -0.005 A 
ATOM      4  C3  UNL d   1       3.239   2.540  -0.197  0.00  0.00     0.006 A 
ATOM      5  C4  UNL d   1       3.725   1.745  -1.236  0.00  0.00    -0.005 A 
ATOM      6  C5  UNL d   1       4.101   2.325  -2.451  0.00  0.00    -0.074 A 
ATOM      7  C6  UNL d   1       4.615   1.484  -3.582  0.00  0.00     0.077 C 
ATOM      8  C7  UNL d   1       3.979   3.712  -2.612  0.00  0.00    -0.001 A 
ENDROOT
TORSDOF 0
ENDMDL
