MODEL 1
REMARK minimizedAffinity -4.21718025
REMARK minimizedRMSD -1
REMARK  0 active torsions:
REMARK  status: ('A' for Active; 'I' for Inactive)
ROOT
ATOM      1  C   UNL d   1       6.000   5.207   2.466  0.00  0.00     0.077 C 
ATOM      2  C1  UNL d   1       5.989   4.237   3.610  0.00  0.00    -0.074 A 
ATOM      3  C2  UNL d   1       5.951   4.687   4.934  0.00  0.00    -0.005 A 
ATOM      4  C3  UNL d   1       5.932   3.773   5.987  0.00  0.00     0.006 A 
ATOM      5  C4  UNL d   1       5.950   2.402   5.728  0.00  0.00    -0.005 A 
ATOM      6  C5  UNL d   1       5.986   1.933   4.411  0.00  0.00    -0.074 A 
ATOM      7  C6  UNL d   1       5.996   0.463   4.115  0.00  0.00     0.077 C 
ATOM      8  C7  UNL d   1       5.999   2.858   3.358  0.00  0.00    -0.001 A 
ENDROOT
TORSDOF 0
ENDMDL
