MODEL 1
REMARK minimizedAffinity -2.23573232
REMARK minimizedRMSD -1
REMARK  0 active torsions:
REMARK  status: ('A' for Active; 'I' for Inactive)
ROOT
ATOM      1  C   UNL d   1       5.952   4.699   4.426  0.00  0.00     0.077 C 
ATOM      2  C1  UNL d   1       5.566   3.265   4.214  0.00  0.00    -0.074 A 
ATOM      3  C2  UNL d   1       4.851   2.873   3.078  0.00  0.00    -0.005 A 
ATOM      4  C3  UNL d   1       4.507   1.535   2.890  0.00  0.00     0.006 A 
ATOM      5  C4  UNL d   1       4.874   0.576   3.835  0.00  0.00    -0.005 A 
ATOM      6  C5  UNL d   1       5.589   0.949   4.977  0.00  0.00    -0.074 A 
ATOM      7  C6  UNL d   1       6.000  -0.071   5.998  0.00  0.00     0.077 C 
ATOM      8  C7  UNL d   1       5.937   2.295   5.155  0.00  0.00    -0.001 A 
ENDROOT
TORSDOF 0
ENDMDL
