MODEL 1
REMARK minimizedAffinity -1.31536472
REMARK minimizedRMSD -1
REMARK  0 active torsions:
REMARK  status: ('A' for Active; 'I' for Inactive)
ROOT
ATOM      1  C   UNL d   1       5.958   0.572   6.000  0.00  0.00     0.077 C 
ATOM      2  C1  UNL d   1       5.787   1.538   4.866  0.00  0.00    -0.074 A 
ATOM      3  C2  UNL d   1       5.434   1.092   3.588  0.00  0.00    -0.005 A 
ATOM      4  C3  UNL d   1       5.269   2.003   2.545  0.00  0.00     0.006 A 
ATOM      5  C4  UNL d   1       5.454   3.368   2.769  0.00  0.00    -0.005 A 
ATOM      6  C5  UNL d   1       5.806   3.833   4.040  0.00  0.00    -0.074 A 
ATOM      7  C6  UNL d   1       6.000   5.298   4.299  0.00  0.00     0.077 C 
ATOM      8  C7  UNL d   1       5.964   2.912   5.084  0.00  0.00    -0.001 A 
ENDROOT
TORSDOF 0
ENDMDL
