MODEL 1
REMARK minimizedAffinity -0.571602523
REMARK minimizedRMSD -1
REMARK  0 active torsions:
REMARK  status: ('A' for Active; 'I' for Inactive)
ROOT
ATOM      1  C   UNL d   1       6.000   1.599   3.299  0.00  0.00     0.077 C 
ATOM      2  C1  UNL d   1       5.988   3.099   3.294  0.00  0.00    -0.074 A 
ATOM      3  C2  UNL d   1       6.000   3.823   4.491  0.00  0.00    -0.005 A 
ATOM      4  C3  UNL d   1       5.998   5.217   4.469  0.00  0.00     0.006 A 
ATOM      5  C4  UNL d   1       5.986   5.901   3.253  0.00  0.00    -0.005 A 
ATOM      6  C5  UNL d   1       5.976   5.195   2.047  0.00  0.00    -0.074 A 
ATOM      7  C6  UNL d   1       5.972   5.915   0.731  0.00  0.00     0.077 C 
ATOM      8  C7  UNL d   1       5.984   3.794   2.076  0.00  0.00    -0.001 A 
ENDROOT
TORSDOF 0
ENDMDL
