MODEL 1
REMARK minimizedAffinity -4.01264763
REMARK minimizedRMSD -1
REMARK  0 active torsions:
REMARK  status: ('A' for Active; 'I' for Inactive)
ROOT
ATOM      1  C   UNL d   1       6.000   5.251   5.515  0.00  0.00     0.077 C 
ATOM      2  C1  UNL d   1       5.855   4.080   4.589  0.00  0.00    -0.074 A 
ATOM      3  C2  UNL d   1       5.779   4.263   3.205  0.00  0.00    -0.005 A 
ATOM      4  C3  UNL d   1       5.654   3.163   2.356  0.00  0.00     0.006 A 
ATOM      5  C4  UNL d   1       5.604   1.872   2.882  0.00  0.00    -0.005 A 
ATOM      6  C5  UNL d   1       5.679   1.669   4.264  0.00  0.00    -0.074 A 
ATOM      7  C6  UNL d   1       5.637   0.287   4.845  0.00  0.00     0.077 C 
ATOM      8  C7  UNL d   1       5.812   2.779   5.110  0.00  0.00    -0.001 A 
ENDROOT
TORSDOF 0
ENDMDL
