MODEL 1
REMARK minimizedAffinity -1.08279538
REMARK minimizedRMSD -1
REMARK  0 active torsions:
REMARK  status: ('A' for Active; 'I' for Inactive)
ROOT
ATOM      1  C   UNL d   1       5.455  -0.571   4.192  0.00  0.00     0.077 C 
ATOM      2  C1  UNL d   1       5.639   0.893   4.462  0.00  0.00    -0.074 A 
ATOM      3  C2  UNL d   1       5.819   1.367   5.765  0.00  0.00    -0.005 A 
ATOM      4  C3  UNL d   1       5.998   2.730   6.000  0.00  0.00     0.006 A 
ATOM      5  C4  UNL d   1       5.999   3.632   4.935  0.00  0.00    -0.005 A 
ATOM      6  C5  UNL d   1       5.821   3.177   3.625  0.00  0.00    -0.074 A 
ATOM      7  C6  UNL d   1       5.829   4.131   2.468  0.00  0.00     0.077 C 
ATOM      8  C7  UNL d   1       5.649   1.804   3.396  0.00  0.00    -0.001 A 
ENDROOT
TORSDOF 0
ENDMDL
