MODEL 1
REMARK minimizedAffinity -4.6230402
REMARK minimizedRMSD -1
REMARK  0 active torsions:
REMARK  status: ('A' for Active; 'I' for Inactive)
ROOT
ATOM      1  C   UNL d   1       5.996   1.491   6.000  0.00  0.00     0.077 C 
ATOM      2  C1  UNL d   1       5.750   0.293   5.132  0.00  0.00    -0.074 A 
ATOM      3  C2  UNL d   1       5.668   0.417   3.741  0.00  0.00    -0.005 A 
ATOM      4  C3  UNL d   1       5.449  -0.708   2.947  0.00  0.00     0.006 A 
ATOM      5  C4  UNL d   1       5.310  -1.967   3.533  0.00  0.00    -0.005 A 
ATOM      6  C5  UNL d   1       5.389  -2.110   4.922  0.00  0.00    -0.074 A 
ATOM      7  C6  UNL d   1       5.252  -3.457   5.568  0.00  0.00     0.077 C 
ATOM      8  C7  UNL d   1       5.617  -0.976   5.713  0.00  0.00    -0.001 A 
ENDROOT
TORSDOF 0
ENDMDL
