MODEL 1
REMARK minimizedAffinity -0.799731433
REMARK minimizedRMSD -1
REMARK  0 active torsions:
REMARK  status: ('A' for Active; 'I' for Inactive)
ROOT
ATOM      1  C   UNL d   1       5.909   0.008   5.979  0.00  0.00     0.077 C 
ATOM      2  C1  UNL d   1       5.944   1.094   4.944  0.00  0.00    -0.074 A 
ATOM      3  C2  UNL d   1       5.947   0.786   3.580  0.00  0.00    -0.005 A 
ATOM      4  C3  UNL d   1       5.970   1.807   2.629  0.00  0.00     0.006 A 
ATOM      5  C4  UNL d   1       5.991   3.142   3.032  0.00  0.00    -0.005 A 
ATOM      6  C5  UNL d   1       5.988   3.469   4.392  0.00  0.00    -0.074 A 
ATOM      7  C6  UNL d   1       6.000   4.900   4.843  0.00  0.00     0.077 C 
ATOM      8  C7  UNL d   1       5.957   2.438   5.341  0.00  0.00    -0.001 A 
ENDROOT
TORSDOF 0
ENDMDL
