MODEL 1
REMARK minimizedAffinity -2.54495907
REMARK minimizedRMSD -1
REMARK  0 active torsions:
REMARK  status: ('A' for Active; 'I' for Inactive)
ROOT
ATOM      1  C   UNL d   1       5.999   5.854   0.525  0.00  0.00     0.077 C 
ATOM      2  C1  UNL d   1       6.000   5.218   1.883  0.00  0.00    -0.074 A 
ATOM      3  C2  UNL d   1       5.999   6.000   3.043  0.00  0.00    -0.005 A 
ATOM      4  C3  UNL d   1       5.991   5.394   4.299  0.00  0.00     0.006 A 
ATOM      5  C4  UNL d   1       5.983   4.003   4.409  0.00  0.00    -0.005 A 
ATOM      6  C5  UNL d   1       5.983   3.205   3.260  0.00  0.00    -0.074 A 
ATOM      7  C6  UNL d   1       5.965   1.709   3.360  0.00  0.00     0.077 C 
ATOM      8  C7  UNL d   1       5.984   3.821   2.001  0.00  0.00    -0.001 A 
ENDROOT
TORSDOF 0
ENDMDL
