MODEL 1
REMARK minimizedAffinity 2.40026188
REMARK minimizedRMSD -1
REMARK  3 active torsions:
REMARK  status: ('A' for Active; 'I' for Inactive)
REMARK    1  A    between atoms: C3'_2  and  C2'_3 
REMARK    2  A    between atoms: C2'_3  and  C1'_4 
REMARK    3  A    between atoms: C1'_4  and  C1_5 
ROOT
ATOM      1  C1  N4B d   1       1.886  -2.646   3.355  0.00  0.00    -0.075 A 
ATOM      2  C2  N4B d   1       2.894  -2.501   2.376  0.00  0.00     0.002 A 
ATOM      3  C3  N4B d   1       3.063  -1.297   1.738  0.00  0.00     0.002 A 
ATOM      4  C4  N4B d   1       2.229  -0.233   2.047  0.00  0.00    -0.004 A 
ATOM      5  C5  N4B d   1       1.274  -0.374   3.012  0.00  0.00     0.002 A 
ATOM      6  C6  N4B d   1       1.095  -1.577   3.664  0.00  0.00     0.002 A 
ENDROOT
BRANCH   1   7
ATOM      7  C1' N4B d   1       1.607  -3.967   4.018  0.00  0.00     0.057 C 
BRANCH   7   8
ATOM      8  C2' N4B d   1       0.763  -3.732   5.267  0.00  0.00     0.009 C 
BRANCH   8   9
ATOM      9  C3' N4B d   1       0.457  -5.028   5.998  0.00  0.00     0.004 C 
ATOM     10  C4' N4B d   1       1.600  -5.999   5.962  0.00  0.00     0.003 C 
ENDBRANCH   8   9
ENDBRANCH   7   8
ENDBRANCH   1   7
TORSDOF 3
ENDMDL
