MODEL 1
REMARK minimizedAffinity 6.14913321
REMARK minimizedRMSD -1
REMARK  3 active torsions:
REMARK  status: ('A' for Active; 'I' for Inactive)
REMARK    1  A    between atoms: C3'_2  and  C2'_3 
REMARK    2  A    between atoms: C2'_3  and  C1'_4 
REMARK    3  A    between atoms: C1'_4  and  C1_5 
ROOT
ATOM      1  C1  N4B d   1      -2.752   1.622  -0.519  0.00  0.00    -0.075 A 
ATOM      2  C2  N4B d   1      -3.345   1.506  -1.796  0.00  0.00     0.002 A 
ATOM      3  C3  N4B d   1      -2.992   0.470  -2.625  0.00  0.00     0.002 A 
ATOM      4  C4  N4B d   1      -2.038  -0.448  -2.209  0.00  0.00    -0.004 A 
ATOM      5  C5  N4B d   1      -1.489  -0.343  -0.964  0.00  0.00     0.002 A 
ATOM      6  C6  N4B d   1      -1.837   0.691  -0.119  0.00  0.00     0.002 A 
ENDROOT
BRANCH   1   7
ATOM      7  C1' N4B d   1      -3.042   2.786   0.388  0.00  0.00     0.057 C 
BRANCH   7   8
ATOM      8  C2' N4B d   1      -4.334   2.514   1.154  0.00  0.00     0.009 C 
BRANCH   8   9
ATOM      9  C3' N4B d   1      -5.264   3.715   1.143  0.00  0.00     0.004 C 
ATOM     10  C4' N4B d   1      -5.998   3.869  -0.155  0.00  0.00     0.003 C 
ENDBRANCH   8   9
ENDBRANCH   7   8
ENDBRANCH   1   7
TORSDOF 3
ENDMDL
