MODEL 1
REMARK minimizedAffinity 6.0712409
REMARK minimizedRMSD -1
REMARK  3 active torsions:
REMARK  status: ('A' for Active; 'I' for Inactive)
REMARK    1  A    between atoms: C3'_2  and  C2'_3 
REMARK    2  A    between atoms: C2'_3  and  C1'_4 
REMARK    3  A    between atoms: C1'_4  and  C1_5 
ROOT
ATOM      1  C1  N4B d   1       2.008  -3.432   1.856  0.00  0.00    -0.075 A 
ATOM      2  C2  N4B d   1       0.874  -3.045   2.604  0.00  0.00     0.002 A 
ATOM      3  C3  N4B d   1       0.702  -1.730   2.960  0.00  0.00     0.002 A 
ATOM      4  C4  N4B d   1       1.656  -0.791   2.597  0.00  0.00    -0.004 A 
ATOM      5  C5  N4B d   1       2.736  -1.168   1.853  0.00  0.00     0.002 A 
ATOM      6  C6  N4B d   1       2.919  -2.486   1.484  0.00  0.00     0.002 A 
ENDROOT
BRANCH   1   7
ATOM      7  C1' N4B d   1       2.283  -4.871   1.517  0.00  0.00     0.057 C 
BRANCH   7   8
ATOM      8  C2' N4B d   1       2.827  -4.956   0.094  0.00  0.00     0.009 C 
BRANCH   8   9
ATOM      9  C3' N4B d   1       2.015  -5.908  -0.768  0.00  0.00     0.004 C 
ATOM     10  C4' N4B d   1       2.530  -6.000  -2.174  0.00  0.00     0.003 C 
ENDBRANCH   8   9
ENDBRANCH   7   8
ENDBRANCH   1   7
TORSDOF 3
ENDMDL
