MODEL 1
REMARK minimizedAffinity 5.29294491
REMARK minimizedRMSD -1
REMARK  3 active torsions:
REMARK  status: ('A' for Active; 'I' for Inactive)
REMARK    1  A    between atoms: C3'_2  and  C2'_3 
REMARK    2  A    between atoms: C2'_3  and  C1'_4 
REMARK    3  A    between atoms: C1'_4  and  C1_5 
ROOT
ATOM      1  C1  N4B d   1       1.119  -3.301   3.370  0.00  0.00    -0.075 A 
ATOM      2  C2  N4B d   1       1.128  -1.902   3.179  0.00  0.00     0.002 A 
ATOM      3  C3  N4B d   1       1.961  -1.342   2.242  0.00  0.00     0.002 A 
ATOM      4  C4  N4B d   1       2.804  -2.156   1.500  0.00  0.00    -0.004 A 
ATOM      5  C5  N4B d   1       2.771  -3.509   1.673  0.00  0.00     0.002 A 
ATOM      6  C6  N4B d   1       1.936  -4.086   2.609  0.00  0.00     0.002 A 
ENDROOT
BRANCH   1   7
ATOM      7  C1' N4B d   1       0.287  -3.951   4.442  0.00  0.00     0.057 C 
BRANCH   7   8
ATOM      8  C2' N4B d   1       1.212  -4.561   5.492  0.00  0.00     0.009 C 
BRANCH   8   9
ATOM      9  C3' N4B d   1       0.695  -5.898   5.995  0.00  0.00     0.004 C 
ATOM     10  C4' N4B d   1      -0.802  -5.978   6.000  0.00  0.00     0.003 C 
ENDBRANCH   8   9
ENDBRANCH   7   8
ENDBRANCH   1   7
TORSDOF 3
ENDMDL
