MODEL 1
REMARK minimizedAffinity 4.44448185
REMARK minimizedRMSD -1
REMARK  3 active torsions:
REMARK  status: ('A' for Active; 'I' for Inactive)
REMARK    1  A    between atoms: C3'_2  and  C2'_3 
REMARK    2  A    between atoms: C2'_3  and  C1'_4 
REMARK    3  A    between atoms: C1'_4  and  C1_5 
ROOT
ATOM      1  C1  N4B d   1       1.927  -1.686   2.859  0.00  0.00    -0.075 A 
ATOM      2  C2  N4B d   1       1.986  -1.402   4.241  0.00  0.00     0.002 A 
ATOM      3  C3  N4B d   1       2.160  -2.422   5.144  0.00  0.00     0.002 A 
ATOM      4  C4  N4B d   1       2.257  -3.730   4.692  0.00  0.00    -0.004 A 
ATOM      5  C5  N4B d   1       2.224  -3.992   3.353  0.00  0.00     0.002 A 
ATOM      6  C6  N4B d   1       2.054  -2.976   2.434  0.00  0.00     0.002 A 
ENDROOT
BRANCH   1   7
ATOM      7  C1' N4B d   1       1.652  -0.614   1.840  0.00  0.00     0.057 C 
BRANCH   7   8
ATOM      8  C2' N4B d   1       2.847   0.332   1.773  0.00  0.00     0.009 C 
BRANCH   8   9
ATOM      9  C3' N4B d   1       4.035  -0.302   1.069  0.00  0.00     0.004 C 
ATOM     10  C4' N4B d   1       4.158   0.127  -0.362  0.00  0.00     0.003 C 
ENDBRANCH   8   9
ENDBRANCH   7   8
ENDBRANCH   1   7
TORSDOF 3
ENDMDL
