MODEL 1
REMARK minimizedAffinity 4.61758089
REMARK minimizedRMSD -1
REMARK  3 active torsions:
REMARK  status: ('A' for Active; 'I' for Inactive)
REMARK    1  A    between atoms: C3'_2  and  C2'_3 
REMARK    2  A    between atoms: C2'_3  and  C1'_4 
REMARK    3  A    between atoms: C1'_4  and  C1_5 
ROOT
ATOM      1  C1  N4B d   1       1.987  -2.136   2.975  0.00  0.00    -0.075 A 
ATOM      2  C2  N4B d   1       1.763  -3.489   2.638  0.00  0.00     0.002 A 
ATOM      3  C3  N4B d   1       2.157  -4.484   3.498  0.00  0.00     0.002 A 
ATOM      4  C4  N4B d   1       2.791  -4.153   4.687  0.00  0.00    -0.004 A 
ATOM      5  C5  N4B d   1       2.980  -2.843   5.016  0.00  0.00     0.002 A 
ATOM      6  C6  N4B d   1       2.586  -1.832   4.163  0.00  0.00     0.002 A 
ENDROOT
BRANCH   1   7
ATOM      7  C1' N4B d   1       1.651  -1.016   2.028  0.00  0.00     0.057 C 
BRANCH   7   8
ATOM      8  C2' N4B d   1       2.883  -0.137   1.835  0.00  0.00     0.009 C 
BRANCH   8   9
ATOM      9  C3' N4B d   1       2.524   1.338   1.766  0.00  0.00     0.004 C 
ATOM     10  C4' N4B d   1       3.060   2.009   0.537  0.00  0.00     0.003 C 
ENDBRANCH   8   9
ENDBRANCH   7   8
ENDBRANCH   1   7
TORSDOF 3
ENDMDL
