MODEL 1
REMARK minimizedAffinity 11.9984665
REMARK minimizedRMSD -1
REMARK  3 active torsions:
REMARK  status: ('A' for Active; 'I' for Inactive)
REMARK    1  A    between atoms: C3'_2  and  C2'_3 
REMARK    2  A    between atoms: C2'_3  and  C1'_4 
REMARK    3  A    between atoms: C1'_4  and  C1_5 
ROOT
ATOM      1  C1  N4B d   1       1.761  -0.780   2.627  0.00  0.00    -0.075 A 
ATOM      2  C2  N4B d   1       2.911  -1.520   2.274  0.00  0.00     0.002 A 
ATOM      3  C3  N4B d   1       2.935  -2.881   2.461  0.00  0.00     0.002 A 
ATOM      4  C4  N4B d   1       1.834  -3.517   3.014  0.00  0.00    -0.004 A 
ATOM      5  C5  N4B d   1       0.718  -2.798   3.329  0.00  0.00     0.002 A 
ATOM      6  C6  N4B d   1       0.678  -1.431   3.143  0.00  0.00     0.002 A 
ENDROOT
BRANCH   1   7
ATOM      7  C1' N4B d   1       1.719   0.720   2.522  0.00  0.00     0.057 C 
BRANCH   7   8
ATOM      8  C2' N4B d   1       2.573   1.163   1.337  0.00  0.00     0.009 C 
BRANCH   8   9
ATOM      9  C3' N4B d   1       2.561   2.671   1.160  0.00  0.00     0.004 C 
ATOM     10  C4' N4B d   1       2.807   3.092  -0.258  0.00  0.00     0.003 C 
ENDBRANCH   8   9
ENDBRANCH   7   8
ENDBRANCH   1   7
TORSDOF 3
ENDMDL
