MODEL 1
REMARK minimizedAffinity -6.0731988
REMARK minimizedRMSD -1
REMARK  1 active torsions:
REMARK  status: ('A' for Active; 'I' for Inactive)
REMARK    1  A    between atoms: C1_2  and  C2_3 
ROOT
ATOM      1  C2  UNL d   1       0.072   0.086  -0.087  0.00  0.00    -0.076 A 
ATOM      2  C3  UNL d   1       0.307  -1.227   0.356  0.00  0.00     0.004 A 
ATOM      3  C4  UNL d   1       1.550  -1.602   0.862  0.00  0.00    -0.003 A 
ATOM      4  C5  UNL d   1       2.579  -0.669   0.934  0.00  0.00     0.000 A 
ATOM      5  C6  UNL d   1       2.359   0.642   0.515  0.00  0.00     0.000 A 
ATOM      6  C7  UNL d   1       1.106   1.041   0.018  0.00  0.00    -0.073 A 
ATOM      7  C8  UNL d   1       0.926   2.467  -0.425  0.00  0.00     0.078 C 
ENDROOT
BRANCH   1   8
ATOM      8  C1  UNL d   1      -1.288   0.428  -0.652  0.00  0.00     0.053 C 
ATOM      9  C   UNL d   1      -1.569  -0.284  -1.967  0.00  0.00     0.018 C 
ENDBRANCH   1   8
TORSDOF 1
ENDMDL
