MODEL 1
REMARK minimizedAffinity -5.95650816
REMARK minimizedRMSD -1
REMARK  1 active torsions:
REMARK  status: ('A' for Active; 'I' for Inactive)
REMARK    1  A    between atoms: C1_2  and  C2_3 
ROOT
ATOM      1  C2  UNL d   1       0.248  -0.077   0.661  0.00  0.00    -0.076 A 
ATOM      2  C3  UNL d   1       1.461   0.619   0.520  0.00  0.00     0.004 A 
ATOM      3  C4  UNL d   1       2.672   0.028   0.875  0.00  0.00    -0.003 A 
ATOM      4  C5  UNL d   1       2.691  -1.269   1.377  0.00  0.00     0.000 A 
ATOM      5  C6  UNL d   1       1.498  -1.980   1.507  0.00  0.00     0.000 A 
ATOM      6  C7  UNL d   1       0.270  -1.405   1.138  0.00  0.00    -0.073 A 
ATOM      7  C8  UNL d   1      -0.986  -2.216   1.305  0.00  0.00     0.078 C 
ENDROOT
BRANCH   1   8
ATOM      8  C1  UNL d   1      -1.038   0.625   0.285  0.00  0.00     0.053 C 
ATOM      9  C   UNL d   1      -1.554   0.203  -1.082  0.00  0.00     0.018 C 
ENDBRANCH   1   8
TORSDOF 1
ENDMDL
