MODEL 1
REMARK minimizedAffinity -2.28911614
REMARK minimizedRMSD -1
REMARK  1 active torsions:
REMARK  status: ('A' for Active; 'I' for Inactive)
REMARK    1  A    between atoms: C1_2  and  C2_3 
ROOT
ATOM      1  C2  UNL d   1      -0.479   0.051   0.304  0.00  0.00    -0.076 A 
ATOM      2  C3  UNL d   1      -0.106   1.367  -0.019  0.00  0.00     0.004 A 
ATOM      3  C4  UNL d   1       1.179   1.835   0.250  0.00  0.00    -0.003 A 
ATOM      4  C5  UNL d   1       2.112   0.994   0.847  0.00  0.00     0.000 A 
ATOM      5  C6  UNL d   1       1.764  -0.320   1.158  0.00  0.00     0.000 A 
ATOM      6  C7  UNL d   1       0.478  -0.813   0.878  0.00  0.00    -0.073 A 
ATOM      7  C8  UNL d   1       0.155  -2.236   1.240  0.00  0.00     0.078 C 
ENDROOT
BRANCH   1   8
ATOM      8  C1  UNL d   1      -1.895  -0.392   0.013  0.00  0.00     0.053 C 
ATOM      9  C   UNL d   1      -2.451   0.231  -1.259  0.00  0.00     0.018 C 
ENDBRANCH   1   8
TORSDOF 1
ENDMDL
