MODEL 1
REMARK minimizedAffinity -4.03115702
REMARK minimizedRMSD -1
REMARK  1 active torsions:
REMARK  status: ('A' for Active; 'I' for Inactive)
REMARK    1  A    between atoms: C1_2  and  C2_3 
ROOT
ATOM      1  C2  UNL d   1       0.397  -0.581   0.450  0.00  0.00    -0.076 A 
ATOM      2  C3  UNL d   1       0.750  -1.753   1.141  0.00  0.00     0.004 A 
ATOM      3  C4  UNL d   1       1.890  -1.797   1.942  0.00  0.00    -0.003 A 
ATOM      4  C5  UNL d   1       2.695  -0.670   2.065  0.00  0.00     0.000 A 
ATOM      5  C6  UNL d   1       2.350   0.506   1.400  0.00  0.00     0.000 A 
ATOM      6  C7  UNL d   1       1.195   0.572   0.602  0.00  0.00    -0.073 A 
ATOM      7  C8  UNL d   1       0.874   1.865  -0.097  0.00  0.00     0.078 C 
ENDROOT
BRANCH   1   8
ATOM      8  C1  UNL d   1      -0.836  -0.601  -0.426  0.00  0.00     0.053 C 
ATOM      9  C   UNL d   1      -2.115  -0.370   0.364  0.00  0.00     0.018 C 
ENDBRANCH   1   8
TORSDOF 1
ENDMDL
