MODEL 1
REMARK minimizedAffinity -5.0894618
REMARK minimizedRMSD -1
REMARK  1 active torsions:
REMARK  status: ('A' for Active; 'I' for Inactive)
REMARK    1  A    between atoms: C1_2  and  C2_3 
ROOT
ATOM      1  C2  UNL d   1       0.998  -0.625   0.174  0.00  0.00    -0.076 A 
ATOM      2  C3  UNL d   1       1.196  -1.924   0.672  0.00  0.00     0.004 A 
ATOM      3  C4  UNL d   1       2.320  -2.236   1.435  0.00  0.00    -0.003 A 
ATOM      4  C5  UNL d   1       3.264  -1.254   1.713  0.00  0.00     0.000 A 
ATOM      5  C6  UNL d   1       3.075   0.045   1.241  0.00  0.00     0.000 A 
ATOM      6  C7  UNL d   1       1.939   0.380   0.484  0.00  0.00    -0.073 A 
ATOM      7  C8  UNL d   1       1.789   1.795  -0.005  0.00  0.00     0.078 C 
ENDROOT
BRANCH   1   8
ATOM      8  C1  UNL d   1      -0.226  -0.352  -0.671  0.00  0.00     0.053 C 
ATOM      9  C   UNL d   1      -1.454  -0.032   0.169  0.00  0.00     0.018 C 
ENDBRANCH   1   8
TORSDOF 1
ENDMDL
