MODEL 1
REMARK minimizedAffinity -1.03038442
REMARK minimizedRMSD -1
REMARK  0 active torsions:
REMARK  status: ('A' for Active; 'I' for Inactive)
ROOT
ATOM      1  C1  BNZ d   1      -2.651  -2.290  -2.255  0.00  0.00     0.000 A 
ATOM      2  C2  BNZ d   1      -1.352  -2.372  -2.682  0.00  0.00     0.000 A 
ATOM      3  C3  BNZ d   1      -0.318  -2.340  -1.789  0.00  0.00     0.000 A 
ATOM      4  C4  BNZ d   1      -0.581  -2.187  -0.475  0.00  0.00     0.000 A 
ATOM      5  C5  BNZ d   1      -1.884  -2.094  -0.029  0.00  0.00     0.000 A 
ATOM      6  C6  BNZ d   1      -2.924  -2.166  -0.927  0.00  0.00     0.000 A 
ENDROOT
TORSDOF 0
ENDMDL
