MODEL 1
REMARK minimizedAffinity -2.00594831
REMARK minimizedRMSD -1
REMARK  0 active torsions:
REMARK  status: ('A' for Active; 'I' for Inactive)
ROOT
ATOM      1  C1  BNZ d   1       5.995  -3.661   5.985  0.00  0.00     0.000 A 
ATOM      2  C2  BNZ d   1       4.814  -4.354   5.959  0.00  0.00     0.000 A 
ATOM      3  C3  BNZ d   1       3.617  -3.696   5.926  0.00  0.00     0.000 A 
ATOM      4  C4  BNZ d   1       3.600  -2.348   5.961  0.00  0.00     0.000 A 
ATOM      5  C5  BNZ d   1       4.782  -1.635   5.997  0.00  0.00     0.000 A 
ATOM      6  C6  BNZ d   1       5.987  -2.301   5.990  0.00  0.00     0.000 A 
ENDROOT
TORSDOF 0
ENDMDL
