MODEL 1
REMARK minimizedAffinity -2.12281895
REMARK minimizedRMSD -1
REMARK  0 active torsions:
REMARK  status: ('A' for Active; 'I' for Inactive)
ROOT
ATOM      1  C1  BNZ d   1      -1.210   0.399   1.834  0.00  0.00     0.000 A 
ATOM      2  C2  BNZ d   1      -1.335  -0.953   2.013  0.00  0.00     0.000 A 
ATOM      3  C3  BNZ d   1      -1.148  -1.817   0.970  0.00  0.00     0.000 A 
ATOM      4  C4  BNZ d   1      -0.877  -1.327  -0.257  0.00  0.00     0.000 A 
ATOM      5  C5  BNZ d   1      -0.758   0.034  -0.455  0.00  0.00     0.000 A 
ATOM      6  C6  BNZ d   1      -0.908   0.899   0.605  0.00  0.00     0.000 A 
ENDROOT
TORSDOF 0
ENDMDL
