MODEL 1
REMARK minimizedAffinity -4.33693886
REMARK minimizedRMSD -1
REMARK  0 active torsions:
REMARK  status: ('A' for Active; 'I' for Inactive)
ROOT
ATOM      1  C1  BNZ d   1      -0.100   1.023  -0.023  0.00  0.00     0.000 A 
ATOM      2  C2  BNZ d   1      -0.565   0.230   0.992  0.00  0.00     0.000 A 
ATOM      3  C3  BNZ d   1      -0.339  -1.118   0.988  0.00  0.00     0.000 A 
ATOM      4  C4  BNZ d   1       0.318  -1.676  -0.049  0.00  0.00     0.000 A 
ATOM      5  C5  BNZ d   1       0.785  -0.892  -1.085  0.00  0.00     0.000 A 
ATOM      6  C6  BNZ d   1       0.589   0.470  -1.058  0.00  0.00     0.000 A 
ENDROOT
TORSDOF 0
ENDMDL
