MODEL 1
REMARK minimizedAffinity -3.62829518
REMARK minimizedRMSD -1
REMARK  0 active torsions:
REMARK  status: ('A' for Active; 'I' for Inactive)
ROOT
ATOM      1  C1  BNZ d   1       0.501   0.429  -1.463  0.00  0.00     0.000 A 
ATOM      2  C2  BNZ d   1       0.423  -0.931  -1.609  0.00  0.00     0.000 A 
ATOM      3  C3  BNZ d   1      -0.093  -1.713  -0.614  0.00  0.00     0.000 A 
ATOM      4  C4  BNZ d   1      -0.492  -1.141   0.540  0.00  0.00     0.000 A 
ATOM      5  C5  BNZ d   1      -0.411   0.228   0.706  0.00  0.00     0.000 A 
ATOM      6  C6  BNZ d   1       0.073   1.016  -0.313  0.00  0.00     0.000 A 
ENDROOT
TORSDOF 0
ENDMDL
