MODEL 1
REMARK minimizedAffinity 1.86248755
REMARK minimizedRMSD -1
REMARK  0 active torsions:
REMARK  status: ('A' for Active; 'I' for Inactive)
ROOT
ATOM      1  C1  BNZ d   1       4.832  -1.428   5.949  0.00  0.00     0.000 A 
ATOM      2  C2  BNZ d   1       5.985  -1.999   5.479  0.00  0.00     0.000 A 
ATOM      3  C3  BNZ d   1       5.998  -3.295   5.046  0.00  0.00     0.000 A 
ATOM      4  C4  BNZ d   1       4.870  -4.031   5.120  0.00  0.00     0.000 A 
ATOM      5  C5  BNZ d   1       3.702  -3.472   5.600  0.00  0.00     0.000 A 
ATOM      6  C6  BNZ d   1       3.683  -2.156   5.999  0.00  0.00     0.000 A 
ENDROOT
TORSDOF 0
ENDMDL
