MODEL 1
REMARK minimizedAffinity -0.137220919
REMARK minimizedRMSD -1
REMARK  0 active torsions:
REMARK  status: ('A' for Active; 'I' for Inactive)
ROOT
ATOM      1  C1  BNZ d   1       1.998   1.184  -0.442  0.00  0.00     0.000 A 
ATOM      2  C2  BNZ d   1       2.956   1.190  -1.421  0.00  0.00     0.000 A 
ATOM      3  C3  BNZ d   1       2.667   0.755  -2.685  0.00  0.00     0.000 A 
ATOM      4  C4  BNZ d   1       1.436   0.277  -2.956  0.00  0.00     0.000 A 
ATOM      5  C5  BNZ d   1       0.462   0.256  -1.977  0.00  0.00     0.000 A 
ATOM      6  C6  BNZ d   1       0.745   0.731  -0.717  0.00  0.00     0.000 A 
ENDROOT
TORSDOF 0
ENDMDL
