MODEL 1
REMARK minimizedAffinity 2.84898663
REMARK minimizedRMSD -1
REMARK  0 active torsions:
REMARK  status: ('A' for Active; 'I' for Inactive)
ROOT
ATOM      1  C1  BNZ d   1       5.992  -1.978   4.976  0.00  0.00     0.000 A 
ATOM      2  C2  BNZ d   1       5.998  -3.341   5.109  0.00  0.00     0.000 A 
ATOM      3  C3  BNZ d   1       4.906  -4.001   5.599  0.00  0.00     0.000 A 
ATOM      4  C4  BNZ d   1       3.826  -3.296   5.992  0.00  0.00     0.000 A 
ATOM      5  C5  BNZ d   1       3.808  -1.921   5.873  0.00  0.00     0.000 A 
ATOM      6  C6  BNZ d   1       4.894  -1.263   5.343  0.00  0.00     0.000 A 
ENDROOT
TORSDOF 0
ENDMDL
