MODEL 1
REMARK minimizedAffinity -3.68385935
REMARK minimizedRMSD -1
REMARK  0 active torsions:
REMARK  status: ('A' for Active; 'I' for Inactive)
ROOT
ATOM      1  C1  BNZ d   1       2.696   2.672  -0.504  0.00  0.00     0.000 A 
ATOM      2  C2  BNZ d   1       2.059   1.619  -1.105  0.00  0.00     0.000 A 
ATOM      3  C3  BNZ d   1       0.742   1.359  -0.850  0.00  0.00     0.000 A 
ATOM      4  C4  BNZ d   1       0.074   2.127   0.035  0.00  0.00     0.000 A 
ATOM      5  C5  BNZ d   1       0.704   3.186   0.657  0.00  0.00     0.000 A 
ATOM      6  C6  BNZ d   1       2.019   3.468   0.368  0.00  0.00     0.000 A 
ENDROOT
TORSDOF 0
ENDMDL
