MODEL 1
REMARK minimizedAffinity -3.72505689
REMARK minimizedRMSD -1
REMARK  0 active torsions:
REMARK  status: ('A' for Active; 'I' for Inactive)
ROOT
ATOM      1  C1  BNZ d   1      -0.230  -0.144  -0.223  0.00  0.00     0.000 A 
ATOM      2  C2  BNZ d   1      -0.672  -1.388  -0.588  0.00  0.00     0.000 A 
ATOM      3  C3  BNZ d   1      -1.098  -2.284   0.353  0.00  0.00     0.000 A 
ATOM      4  C4  BNZ d   1      -1.043  -1.950   1.658  0.00  0.00     0.000 A 
ATOM      5  C5  BNZ d   1      -0.591  -0.704   2.043  0.00  0.00     0.000 A 
ATOM      6  C6  BNZ d   1      -0.200   0.210   1.091  0.00  0.00     0.000 A 
ENDROOT
TORSDOF 0
ENDMDL
