MODEL 1
REMARK minimizedAffinity -4.74334955
REMARK minimizedRMSD -1
REMARK  0 active torsions:
REMARK  status: ('A' for Active; 'I' for Inactive)
ROOT
ATOM      1  C1  BNZ d   1       1.365   1.765   0.227  0.00  0.00     0.000 A 
ATOM      2  C2  BNZ d   1       2.080   1.375  -0.874  0.00  0.00     0.000 A 
ATOM      3  C3  BNZ d   1       1.484   0.672  -1.883  0.00  0.00     0.000 A 
ATOM      4  C4  BNZ d   1       0.186   0.324  -1.772  0.00  0.00     0.000 A 
ATOM      5  C5  BNZ d   1      -0.547   0.701  -0.664  0.00  0.00     0.000 A 
ATOM      6  C6  BNZ d   1       0.047   1.443   0.332  0.00  0.00     0.000 A 
ENDROOT
TORSDOF 0
ENDMDL
