MODEL 1
REMARK minimizedAffinity -4.37878561
REMARK minimizedRMSD -1
REMARK  0 active torsions:
REMARK  status: ('A' for Active; 'I' for Inactive)
ROOT
ATOM      1  C1  BNZ d   1       0.295  -1.504  -0.022  0.00  0.00     0.000 A 
ATOM      2  C2  BNZ d   1       0.693  -0.525  -0.892  0.00  0.00     0.000 A 
ATOM      3  C3  BNZ d   1       0.364   0.784  -0.672  0.00  0.00     0.000 A 
ATOM      4  C4  BNZ d   1      -0.395   1.105   0.396  0.00  0.00     0.000 A 
ATOM      5  C5  BNZ d   1      -0.812   0.128   1.277  0.00  0.00     0.000 A 
ATOM      6  C6  BNZ d   1      -0.446  -1.182   1.073  0.00  0.00     0.000 A 
ENDROOT
TORSDOF 0
ENDMDL
