MODEL 1
REMARK minimizedAffinity -0.281950712
REMARK minimizedRMSD -1
REMARK  0 active torsions:
REMARK  status: ('A' for Active; 'I' for Inactive)
ROOT
ATOM      1  C1  BNZ d   1      -1.146   0.882   1.537  0.00  0.00     0.000 A 
ATOM      2  C2  BNZ d   1      -1.433   0.066   2.599  0.00  0.00     0.000 A 
ATOM      3  C3  BNZ d   1      -1.257  -1.286   2.510  0.00  0.00     0.000 A 
ATOM      4  C4  BNZ d   1      -0.833  -1.824   1.348  0.00  0.00     0.000 A 
ATOM      5  C5  BNZ d   1      -0.548  -1.016   0.266  0.00  0.00     0.000 A 
ATOM      6  C6  BNZ d   1      -0.690   0.349   0.372  0.00  0.00     0.000 A 
ENDROOT
TORSDOF 0
ENDMDL
