MODEL 1
REMARK minimizedAffinity 2.63850379
REMARK minimizedRMSD -1
REMARK  0 active torsions:
REMARK  status: ('A' for Active; 'I' for Inactive)
ROOT
ATOM      1  C1  BNZ d   1      -0.835  -3.091   1.381  0.00  0.00     0.000 A 
ATOM      2  C2  BNZ d   1      -0.088  -2.202   2.108  0.00  0.00     0.000 A 
ATOM      3  C3  BNZ d   1      -0.404  -0.873   2.127  0.00  0.00     0.000 A 
ATOM      4  C4  BNZ d   1      -1.442  -0.427   1.388  0.00  0.00     0.000 A 
ATOM      5  C5  BNZ d   1      -2.199  -1.309   0.643  0.00  0.00     0.000 A 
ATOM      6  C6  BNZ d   1      -1.901  -2.653   0.658  0.00  0.00     0.000 A 
ENDROOT
TORSDOF 0
ENDMDL
