MODEL 1
REMARK minimizedAffinity -4.31960964
REMARK minimizedRMSD -1
REMARK  0 active torsions:
REMARK  status: ('A' for Active; 'I' for Inactive)
ROOT
ATOM      1  C1  BNZ d   1      -0.895  -0.604   0.996  0.00  0.00     0.000 A 
ATOM      2  C2  BNZ d   1      -0.329   0.146  -0.000  0.00  0.00     0.000 A 
ATOM      3  C3  BNZ d   1       0.332  -0.453  -1.037  0.00  0.00     0.000 A 
ATOM      4  C4  BNZ d   1       0.460  -1.795  -1.054  0.00  0.00     0.000 A 
ATOM      5  C5  BNZ d   1      -0.097  -2.564  -0.052  0.00  0.00     0.000 A 
ATOM      6  C6  BNZ d   1      -0.795  -1.961   0.969  0.00  0.00     0.000 A 
ENDROOT
TORSDOF 0
ENDMDL
