MODEL 1
REMARK minimizedAffinity -1.44349432
REMARK minimizedRMSD -1
REMARK  3 active torsions:
REMARK  status: ('A' for Active; 'I' for Inactive)
REMARK    1  A    between atoms: C3'_2  and  C2'_3 
REMARK    2  A    between atoms: C2'_3  and  C1'_4 
REMARK    3  A    between atoms: C1'_4  and  C1_5 
ROOT
ATOM      1  C1  N4B d   1      -0.043   0.827  -0.324  0.00  0.00    -0.075 A 
ATOM      2  C2  N4B d   1       0.840   1.769   0.248  0.00  0.00     0.002 A 
ATOM      3  C3  N4B d   1       1.686   2.493  -0.555  0.00  0.00     0.002 A 
ATOM      4  C4  N4B d   1       1.681   2.280  -1.925  0.00  0.00    -0.004 A 
ATOM      5  C5  N4B d   1       0.807   1.386  -2.473  0.00  0.00     0.002 A 
ATOM      6  C6  N4B d   1      -0.052   0.654  -1.678  0.00  0.00     0.002 A 
ENDROOT
BRANCH   1   7
ATOM      7  C1' N4B d   1      -0.926  -0.050   0.522  0.00  0.00     0.057 C 
BRANCH   7   8
ATOM      8  C2' N4B d   1      -0.420  -1.487   0.451  0.00  0.00     0.009 C 
BRANCH   8   9
ATOM      9  C3' N4B d   1      -0.720  -2.259   1.725  0.00  0.00     0.004 C 
ATOM     10  C4' N4B d   1      -1.596  -3.453   1.488  0.00  0.00     0.003 C 
ENDBRANCH   8   9
ENDBRANCH   7   8
ENDBRANCH   1   7
TORSDOF 3
ENDMDL
