MODEL 1
REMARK minimizedAffinity -3.63694859
REMARK minimizedRMSD -1
REMARK  3 active torsions:
REMARK  status: ('A' for Active; 'I' for Inactive)
REMARK    1  A    between atoms: C3'_2  and  C2'_3 
REMARK    2  A    between atoms: C2'_3  and  C1'_4 
REMARK    3  A    between atoms: C1'_4  and  C1_5 
ROOT
ATOM      1  C1  N4B d   1      -0.802  -0.557   0.161  0.00  0.00    -0.075 A 
ATOM      2  C2  N4B d   1       0.469  -0.276  -0.387  0.00  0.00     0.002 A 
ATOM      3  C3  N4B d   1       0.959   1.006  -0.364  0.00  0.00     0.002 A 
ATOM      4  C4  N4B d   1       0.191   2.024   0.181  0.00  0.00    -0.004 A 
ATOM      5  C5  N4B d   1      -1.025   1.741   0.731  0.00  0.00     0.002 A 
ATOM      6  C6  N4B d   1      -1.529   0.455   0.718  0.00  0.00     0.002 A 
ENDROOT
BRANCH   1   7
ATOM      7  C1' N4B d   1      -1.416  -1.928   0.082  0.00  0.00     0.057 C 
BRANCH   7   8
ATOM      8  C2' N4B d   1      -1.322  -2.598   1.449  0.00  0.00     0.009 C 
BRANCH   8   9
ATOM      9  C3' N4B d   1       0.074  -2.494   2.038  0.00  0.00     0.004 C 
ATOM     10  C4' N4B d   1       0.104  -2.763   3.513  0.00  0.00     0.003 C 
ENDBRANCH   8   9
ENDBRANCH   7   8
ENDBRANCH   1   7
TORSDOF 3
ENDMDL
