MODEL 1
REMARK minimizedAffinity -1.94967806
REMARK minimizedRMSD -1
REMARK  3 active torsions:
REMARK  status: ('A' for Active; 'I' for Inactive)
REMARK    1  A    between atoms: C3'_2  and  C2'_3 
REMARK    2  A    between atoms: C2'_3  and  C1'_4 
REMARK    3  A    between atoms: C1'_4  and  C1_5 
ROOT
ATOM      1  C1  N4B d   1       0.263   1.891  -1.342  0.00  0.00    -0.075 A 
ATOM      2  C2  N4B d   1       1.551   1.932  -1.920  0.00  0.00     0.002 A 
ATOM      3  C3  N4B d   1       1.724   2.460  -3.175  0.00  0.00     0.002 A 
ATOM      4  C4  N4B d   1       0.627   2.935  -3.877  0.00  0.00    -0.004 A 
ATOM      5  C5  N4B d   1      -0.610   2.915  -3.303  0.00  0.00     0.002 A 
ATOM      6  C6  N4B d   1      -0.799   2.391  -2.040  0.00  0.00     0.002 A 
ENDROOT
BRANCH   1   7
ATOM      7  C1' N4B d   1       0.011   1.245  -0.008  0.00  0.00     0.057 C 
BRANCH   7   8
ATOM      8  C2' N4B d   1      -0.279  -0.238  -0.216  0.00  0.00     0.009 C 
BRANCH   8   9
ATOM      9  C3' N4B d   1       0.441  -1.106   0.801  0.00  0.00     0.004 C 
ATOM     10  C4' N4B d   1      -0.475  -2.071   1.494  0.00  0.00     0.003 C 
ENDBRANCH   8   9
ENDBRANCH   7   8
ENDBRANCH   1   7
TORSDOF 3
ENDMDL
