MODEL 1
REMARK minimizedAffinity -5.55302906
REMARK minimizedRMSD -1
REMARK  3 active torsions:
REMARK  status: ('A' for Active; 'I' for Inactive)
REMARK    1  A    between atoms: C3'_2  and  C2'_3 
REMARK    2  A    between atoms: C2'_3  and  C1'_4 
REMARK    3  A    between atoms: C1'_4  and  C1_5 
ROOT
ATOM      1  C1  N4B d   1      -0.077  -0.746   0.088  0.00  0.00    -0.075 A 
ATOM      2  C2  N4B d   1       0.154  -2.083   0.482  0.00  0.00     0.002 A 
ATOM      3  C3  N4B d   1      -0.773  -2.742   1.251  0.00  0.00     0.002 A 
ATOM      4  C4  N4B d   1      -1.925  -2.082   1.652  0.00  0.00    -0.004 A 
ATOM      5  C5  N4B d   1      -2.153  -0.800   1.246  0.00  0.00     0.002 A 
ATOM      6  C6  N4B d   1      -1.231  -0.126   0.470  0.00  0.00     0.002 A 
ENDROOT
BRANCH   1   7
ATOM      7  C1' N4B d   1       0.947   0.043  -0.681  0.00  0.00     0.057 C 
BRANCH   7   8
ATOM      8  C2' N4B d   1       0.378   1.422  -1.003  0.00  0.00     0.009 C 
BRANCH   8   9
ATOM      9  C3' N4B d   1       1.109   2.083  -2.159  0.00  0.00     0.004 C 
ATOM     10  C4' N4B d   1       0.186   2.514  -3.259  0.00  0.00     0.003 C 
ENDBRANCH   8   9
ENDBRANCH   7   8
ENDBRANCH   1   7
TORSDOF 3
ENDMDL
