MODEL 1
REMARK minimizedAffinity -6.32999516
REMARK minimizedRMSD -1
REMARK  3 active torsions:
REMARK  status: ('A' for Active; 'I' for Inactive)
REMARK    1  A    between atoms: C3'_2  and  C2'_3 
REMARK    2  A    between atoms: C2'_3  and  C1'_4 
REMARK    3  A    between atoms: C1'_4  and  C1_5 
ROOT
ATOM      1  C1  N4B d   1      -0.587  -0.942  -0.627  0.00  0.00    -0.075 A 
ATOM      2  C2  N4B d   1      -1.299  -0.432   0.481  0.00  0.00     0.002 A 
ATOM      3  C3  N4B d   1      -1.738  -1.283   1.466  0.00  0.00     0.002 A 
ATOM      4  C4  N4B d   1      -1.493  -2.643   1.356  0.00  0.00    -0.004 A 
ATOM      5  C5  N4B d   1      -0.783  -3.124   0.295  0.00  0.00     0.002 A 
ATOM      6  C6  N4B d   1      -0.332  -2.280  -0.700  0.00  0.00     0.002 A 
ENDROOT
BRANCH   1   7
ATOM      7  C1' N4B d   1      -0.163  -0.062  -1.771  0.00  0.00     0.057 C 
BRANCH   7   8
ATOM      8  C2' N4B d   1       0.756   1.037  -1.244  0.00  0.00     0.009 C 
BRANCH   8   9
ATOM      9  C3' N4B d   1       1.372   1.850  -2.369  0.00  0.00     0.004 C 
ATOM     10  C4' N4B d   1       0.582   1.774  -3.641  0.00  0.00     0.003 C 
ENDBRANCH   8   9
ENDBRANCH   7   8
ENDBRANCH   1   7
TORSDOF 3
ENDMDL
