MODEL 1
REMARK minimizedAffinity -5.89506817
REMARK minimizedRMSD -1
REMARK  3 active torsions:
REMARK  status: ('A' for Active; 'I' for Inactive)
REMARK    1  A    between atoms: C3'_2  and  C2'_3 
REMARK    2  A    between atoms: C2'_3  and  C1'_4 
REMARK    3  A    between atoms: C1'_4  and  C1_5 
ROOT
ATOM      1  C1  N4B d   1       0.159   0.687  -0.942  0.00  0.00    -0.075 A 
ATOM      2  C2  N4B d   1       0.154   2.098  -0.897  0.00  0.00     0.002 A 
ATOM      3  C3  N4B d   1       0.624   2.822  -1.965  0.00  0.00     0.002 A 
ATOM      4  C4  N4B d   1       1.121   2.158  -3.077  0.00  0.00    -0.004 A 
ATOM      5  C5  N4B d   1       1.099   0.795  -3.124  0.00  0.00     0.002 A 
ATOM      6  C6  N4B d   1       0.625   0.055  -2.059  0.00  0.00     0.002 A 
ENDROOT
BRANCH   1   7
ATOM      7  C1' N4B d   1      -0.265  -0.147   0.235  0.00  0.00     0.057 C 
BRANCH   7   8
ATOM      8  C2' N4B d   1       0.632  -1.378   0.326  0.00  0.00     0.009 C 
BRANCH   8   9
ATOM      9  C3' N4B d   1       0.130  -2.372   1.360  0.00  0.00     0.004 C 
ATOM     10  C4' N4B d   1      -1.295  -2.779   1.130  0.00  0.00     0.003 C 
ENDBRANCH   8   9
ENDBRANCH   7   8
ENDBRANCH   1   7
TORSDOF 3
ENDMDL
