MODEL 1
REMARK minimizedAffinity -6.96133184
REMARK minimizedRMSD -1
REMARK  3 active torsions:
REMARK  status: ('A' for Active; 'I' for Inactive)
REMARK    1  A    between atoms: C3'_2  and  C2'_3 
REMARK    2  A    between atoms: C2'_3  and  C1'_4 
REMARK    3  A    between atoms: C1'_4  and  C1_5 
ROOT
ATOM      1  C1  N4B d   1      -0.111   0.096   0.060  0.00  0.00    -0.075 A 
ATOM      2  C2  N4B d   1      -1.368  -0.434   0.427  0.00  0.00     0.002 A 
ATOM      3  C3  N4B d   1      -1.480  -1.756   0.779  0.00  0.00     0.002 A 
ATOM      4  C4  N4B d   1      -0.357  -2.570   0.753  0.00  0.00    -0.004 A 
ATOM      5  C5  N4B d   1       0.858  -2.045   0.422  0.00  0.00     0.002 A 
ATOM      6  C6  N4B d   1       0.986  -0.716   0.070  0.00  0.00     0.002 A 
ENDROOT
BRANCH   1   7
ATOM      7  C1' N4B d   1       0.045   1.515  -0.415  0.00  0.00     0.057 C 
BRANCH   7   8
ATOM      8  C2' N4B d   1       1.439   1.694  -1.008  0.00  0.00     0.009 C 
BRANCH   8   9
ATOM      9  C3' N4B d   1       1.388   2.035  -2.487  0.00  0.00     0.004 C 
ATOM     10  C4' N4B d   1      -0.008   2.033  -3.035  0.00  0.00     0.003 C 
ENDBRANCH   8   9
ENDBRANCH   7   8
ENDBRANCH   1   7
TORSDOF 3
ENDMDL
