MODEL 1
REMARK minimizedAffinity -1.22810817
REMARK minimizedRMSD -1
REMARK  3 active torsions:
REMARK  status: ('A' for Active; 'I' for Inactive)
REMARK    1  A    between atoms: C3'_2  and  C2'_3 
REMARK    2  A    between atoms: C2'_3  and  C1'_4 
REMARK    3  A    between atoms: C1'_4  and  C1_5 
ROOT
ATOM      1  C1  N4B d   1       0.434  -0.223   0.353  0.00  0.00    -0.075 A 
ATOM      2  C2  N4B d   1      -0.680  -0.686   1.086  0.00  0.00     0.002 A 
ATOM      3  C3  N4B d   1      -0.794  -2.020   1.393  0.00  0.00     0.002 A 
ATOM      4  C4  N4B d   1       0.180  -2.908   0.963  0.00  0.00    -0.004 A 
ATOM      5  C5  N4B d   1       1.267  -2.449   0.277  0.00  0.00     0.002 A 
ATOM      6  C6  N4B d   1       1.396  -1.110  -0.035  0.00  0.00     0.002 A 
ENDROOT
BRANCH   1   7
ATOM      7  C1' N4B d   1       0.559   1.212  -0.079  0.00  0.00     0.057 C 
BRANCH   7   8
ATOM      8  C2' N4B d   1       0.490   1.284  -1.602  0.00  0.00     0.009 C 
BRANCH   8   9
ATOM      9  C3' N4B d   1       1.743   1.901  -2.199  0.00  0.00     0.004 C 
ATOM     10  C4' N4B d   1       1.803   1.765  -3.691  0.00  0.00     0.003 C 
ENDBRANCH   8   9
ENDBRANCH   7   8
ENDBRANCH   1   7
TORSDOF 3
ENDMDL
