MODEL 1
REMARK minimizedAffinity 5.16038513
REMARK minimizedRMSD -1
REMARK  0 active torsions:
REMARK  status: ('A' for Active; 'I' for Inactive)
ROOT
ATOM      1  N1  IND d   1       1.879   1.609  -0.221  0.00  0.00    -0.196 N 
ATOM      2  C2  IND d   1       1.025   1.969   0.783  0.00  0.00     0.054 A 
ATOM      3  C3  IND d   1       0.686   0.890   1.523  0.00  0.00    -0.031 A 
ATOM      4  C4  IND d   1       1.495  -1.546   1.327  0.00  0.00     0.051 A 
ATOM      5  C5  IND d   1       2.252  -2.370   0.542  0.00  0.00    -0.031 A 
ATOM      6  C6  IND d   1       2.939  -1.900  -0.558  0.00  0.00     0.015 A 
ATOM      7  C7  IND d   1       2.904  -0.580  -0.909  0.00  0.00    -0.016 A 
ATOM      8  C8  IND d   1       2.131   0.258  -0.119  0.00  0.00    -0.047 A 
ATOM      9  C9  IND d   1       1.397  -0.221   0.974  0.00  0.00    -0.096 A 
ATOM     10  HN1 IND d   1       2.204   2.136  -0.817  0.00  0.00     0.298 HD
ENDROOT
TORSDOF 0
ENDMDL
