MODEL 1
REMARK minimizedAffinity 4.9519043
REMARK minimizedRMSD -1
REMARK  0 active torsions:
REMARK  status: ('A' for Active; 'I' for Inactive)
ROOT
ATOM      1  N1  IND d   1      -1.037  -2.845  -1.193  0.00  0.00    -0.196 N 
ATOM      2  C2  IND d   1      -0.922  -4.202  -1.068  0.00  0.00     0.054 A 
ATOM      3  C3  IND d   1       0.311  -4.530  -0.619  0.00  0.00    -0.031 A 
ATOM      4  C4  IND d   1       2.260  -2.997   0.072  0.00  0.00     0.051 A 
ATOM      5  C5  IND d   1       2.642  -1.685   0.100  0.00  0.00    -0.031 A 
ATOM      6  C6  IND d   1       1.798  -0.672  -0.308  0.00  0.00     0.015 A 
ATOM      7  C7  IND d   1       0.532  -0.934  -0.750  0.00  0.00    -0.016 A 
ATOM      8  C8  IND d   1       0.144  -2.266  -0.786  0.00  0.00    -0.047 A 
ATOM      9  C9  IND d   1       1.011  -3.301  -0.413  0.00  0.00    -0.096 A 
ATOM     10  HN1 IND d   1      -1.731  -2.425  -1.478  0.00  0.00     0.298 HD
ENDROOT
TORSDOF 0
ENDMDL
