MODEL 1
REMARK minimizedAffinity 2.4433434
REMARK minimizedRMSD -1
REMARK  0 active torsions:
REMARK  status: ('A' for Active; 'I' for Inactive)
ROOT
ATOM      1  N1  IND d   1       1.270  -1.431   0.016  0.00  0.00    -0.196 N 
ATOM      2  C2  IND d   1       1.847  -2.666   0.119  0.00  0.00     0.054 A 
ATOM      3  C3  IND d   1       3.184  -2.577  -0.057  0.00  0.00    -0.031 A 
ATOM      4  C4  IND d   1       4.650  -0.493  -0.425  0.00  0.00     0.051 A 
ATOM      5  C5  IND d   1       4.573   0.856  -0.627  0.00  0.00    -0.031 A 
ATOM      6  C6  IND d   1       3.367   1.526  -0.623  0.00  0.00     0.015 A 
ATOM      7  C7  IND d   1       2.188   0.870  -0.403  0.00  0.00    -0.016 A 
ATOM      8  C8  IND d   1       2.262  -0.501  -0.205  0.00  0.00    -0.047 A 
ATOM      9  C9  IND d   1       3.480  -1.193  -0.250  0.00  0.00    -0.096 A 
ATOM     10  HN1 IND d   1       0.429  -1.263   0.078  0.00  0.00     0.298 HD
ENDROOT
TORSDOF 0
ENDMDL
