MODEL 1
REMARK minimizedAffinity 7.2707715
REMARK minimizedRMSD -1
REMARK  0 active torsions:
REMARK  status: ('A' for Active; 'I' for Inactive)
ROOT
ATOM      1  N1  IND d   1      -0.098   0.832   4.773  0.00  0.00    -0.196 N 
ATOM      2  C2  IND d   1       1.170   0.329   4.679  0.00  0.00     0.054 A 
ATOM      3  C3  IND d   1       1.672   0.548   3.443  0.00  0.00    -0.031 A 
ATOM      4  C4  IND d   1       0.628   1.800   1.451  0.00  0.00     0.051 A 
ATOM      5  C5  IND d   1      -0.529   2.405   1.046  0.00  0.00    -0.031 A 
ATOM      6  C6  IND d   1      -1.622   2.522   1.880  0.00  0.00     0.015 A 
ATOM      7  C7  IND d   1      -1.595   2.045   3.160  0.00  0.00    -0.016 A 
ATOM      8  C8  IND d   1      -0.425   1.424   3.573  0.00  0.00    -0.047 A 
ATOM      9  C9  IND d   1       0.673   1.265   2.717  0.00  0.00    -0.096 A 
ATOM     10  HN1 IND d   1      -0.605   0.787   5.465  0.00  0.00     0.298 HD
ENDROOT
TORSDOF 0
ENDMDL
