MODEL 1
REMARK minimizedAffinity -3.43988252
REMARK minimizedRMSD -1
REMARK  0 active torsions:
REMARK  status: ('A' for Active; 'I' for Inactive)
ROOT
ATOM      1  N1  IND d   1       2.124   1.446   0.195  0.00  0.00    -0.196 N 
ATOM      2  C2  IND d   1       1.020   2.221   0.418  0.00  0.00     0.054 A 
ATOM      3  C3  IND d   1      -0.100   1.463   0.389  0.00  0.00    -0.031 A 
ATOM      4  C4  IND d   1      -0.345  -1.082   0.094  0.00  0.00     0.051 A 
ATOM      5  C5  IND d   1       0.378  -2.210  -0.177  0.00  0.00    -0.031 A 
ATOM      6  C6  IND d   1       1.748  -2.176  -0.338  0.00  0.00     0.015 A 
ATOM      7  C7  IND d   1       2.451  -1.010  -0.223  0.00  0.00    -0.016 A 
ATOM      8  C8  IND d   1       1.719   0.138   0.045  0.00  0.00    -0.047 A 
ATOM      9  C9  IND d   1       0.324   0.117   0.168  0.00  0.00    -0.096 A 
ATOM     10  HN1 IND d   1       2.935   1.728   0.155  0.00  0.00     0.298 HD
ENDROOT
TORSDOF 0
ENDMDL
