MODEL 1
REMARK minimizedAffinity 5.21481276
REMARK minimizedRMSD -1
REMARK  0 active torsions:
REMARK  status: ('A' for Active; 'I' for Inactive)
ROOT
ATOM      1  N1  IND d   1       1.307   2.939  -0.122  0.00  0.00    -0.196 N 
ATOM      2  C2  IND d   1       0.089   2.426  -0.472  0.00  0.00     0.054 A 
ATOM      3  C3  IND d   1       0.151   1.078  -0.550  0.00  0.00    -0.031 A 
ATOM      4  C4  IND d   1       2.121  -0.500  -0.044  0.00  0.00     0.051 A 
ATOM      5  C5  IND d   1       3.449  -0.497   0.276  0.00  0.00    -0.031 A 
ATOM      6  C6  IND d   1       4.145   0.676   0.488  0.00  0.00     0.015 A 
ATOM      7  C7  IND d   1       3.532   1.894   0.397  0.00  0.00    -0.016 A 
ATOM      8  C8  IND d   1       2.185   1.894   0.065  0.00  0.00    -0.047 A 
ATOM      9  C9  IND d   1       1.484   0.709  -0.193  0.00  0.00    -0.096 A 
ATOM     10  HN1 IND d   1       1.493   3.774  -0.032  0.00  0.00     0.298 HD
ENDROOT
TORSDOF 0
ENDMDL
