MODEL 1
REMARK minimizedAffinity 5.46687174
REMARK minimizedRMSD -1
REMARK  0 active torsions:
REMARK  status: ('A' for Active; 'I' for Inactive)
ROOT
ATOM      1  N1  IND d   1       1.773   1.755  -0.436  0.00  0.00    -0.196 N 
ATOM      2  C2  IND d   1       1.705   2.396   0.769  0.00  0.00     0.054 A 
ATOM      3  C3  IND d   1       1.962   1.531   1.777  0.00  0.00    -0.031 A 
ATOM      4  C4  IND d   1       2.618  -0.956   1.670  0.00  0.00     0.051 A 
ATOM      5  C5  IND d   1       2.773  -1.992   0.793  0.00  0.00    -0.031 A 
ATOM      6  C6  IND d   1       2.602  -1.829  -0.566  0.00  0.00     0.015 A 
ATOM      7  C7  IND d   1       2.279  -0.615  -1.103  0.00  0.00    -0.016 A 
ATOM      8  C8  IND d   1       2.114   0.439  -0.214  0.00  0.00    -0.047 A 
ATOM      9  C9  IND d   1       2.245   0.269   1.170  0.00  0.00    -0.096 A 
ATOM     10  HN1 IND d   1       1.628   2.114  -1.204  0.00  0.00     0.298 HD
ENDROOT
TORSDOF 0
ENDMDL
