MODEL 1
REMARK minimizedAffinity -1.95271516
REMARK minimizedRMSD -1
REMARK  0 active torsions:
REMARK  status: ('A' for Active; 'I' for Inactive)
ROOT
ATOM      1  N1  IND d   1      -0.546   0.049  -0.643  0.00  0.00    -0.196 N 
ATOM      2  C2  IND d   1       0.592   0.598  -0.120  0.00  0.00     0.054 A 
ATOM      3  C3  IND d   1       0.293   1.373   0.947  0.00  0.00    -0.031 A 
ATOM      4  C4  IND d   1      -1.983   1.800   2.072  0.00  0.00     0.051 A 
ATOM      5  C5  IND d   1      -3.318   1.545   1.933  0.00  0.00    -0.031 A 
ATOM      6  C6  IND d   1      -3.807   0.760   0.909  0.00  0.00     0.015 A 
ATOM      7  C7  IND d   1      -2.975   0.189  -0.012  0.00  0.00    -0.016 A 
ATOM      8  C8  IND d   1      -1.619   0.452   0.123  0.00  0.00    -0.047 A 
ATOM      9  C9  IND d   1      -1.120   1.282   1.135  0.00  0.00    -0.096 A 
ATOM     10  HN1 IND d   1      -0.586  -0.462  -1.333  0.00  0.00     0.298 HD
ENDROOT
TORSDOF 0
ENDMDL
