MODEL 1
REMARK minimizedAffinity 8.88534832
REMARK minimizedRMSD -1
REMARK  0 active torsions:
REMARK  status: ('A' for Active; 'I' for Inactive)
ROOT
ATOM      1  N1  IND d   1       0.774   0.249   0.254  0.00  0.00    -0.196 N 
ATOM      2  C2  IND d   1       1.617  -0.575   0.947  0.00  0.00     0.054 A 
ATOM      3  C3  IND d   1       1.570  -1.828   0.441  0.00  0.00    -0.031 A 
ATOM      4  C4  IND d   1       0.259  -2.726  -1.585  0.00  0.00     0.051 A 
ATOM      5  C5  IND d   1      -0.674  -2.358  -2.513  0.00  0.00    -0.031 A 
ATOM      6  C6  IND d   1      -1.180  -1.076  -2.570  0.00  0.00     0.015 A 
ATOM      7  C7  IND d   1      -0.762  -0.106  -1.703  0.00  0.00    -0.016 A 
ATOM      8  C8  IND d   1       0.180  -0.478  -0.754  0.00  0.00    -0.047 A 
ATOM      9  C9  IND d   1       0.666  -1.789  -0.665  0.00  0.00    -0.096 A 
ATOM     10  HN1 IND d   1       0.638   1.082   0.420  0.00  0.00     0.298 HD
ENDROOT
TORSDOF 0
ENDMDL
