MODEL 1
REMARK minimizedAffinity 5.22220945
REMARK minimizedRMSD -1
REMARK  0 active torsions:
REMARK  status: ('A' for Active; 'I' for Inactive)
ROOT
ATOM      1  N1  IND d   1      -2.121  -3.787   5.721  0.00  0.00    -0.196 N 
ATOM      2  C2  IND d   1      -2.774  -4.955   5.998  0.00  0.00     0.054 A 
ATOM      3  C3  IND d   1      -1.912  -5.996   5.965  0.00  0.00    -0.031 A 
ATOM      4  C4  IND d   1       0.633  -5.999   5.578  0.00  0.00     0.051 A 
ATOM      5  C5  IND d   1       1.674  -5.176   5.247  0.00  0.00    -0.031 A 
ATOM      6  C6  IND d   1       1.499  -3.821   5.057  0.00  0.00     0.015 A 
ATOM      7  C7  IND d   1       0.274  -3.233   5.201  0.00  0.00    -0.016 A 
ATOM      8  C8  IND d   1      -0.786  -4.066   5.530  0.00  0.00    -0.047 A 
ATOM      9  C9  IND d   1      -0.622  -5.449   5.683  0.00  0.00    -0.096 A 
ATOM     10  HN1 IND d   1      -2.483  -3.009   5.673  0.00  0.00     0.298 HD
ENDROOT
TORSDOF 0
ENDMDL
