MODEL 1
REMARK minimizedAffinity 2.83602238
REMARK minimizedRMSD -1
REMARK  0 active torsions:
REMARK  status: ('A' for Active; 'I' for Inactive)
ROOT
ATOM      1  N1  IND d   1       1.439   1.277  -0.436  0.00  0.00    -0.196 N 
ATOM      2  C2  IND d   1       0.806   2.154   0.399  0.00  0.00     0.054 A 
ATOM      3  C3  IND d   1      -0.276   1.571   0.961  0.00  0.00    -0.031 A 
ATOM      4  C4  IND d   1      -1.135  -0.845   0.732  0.00  0.00     0.051 A 
ATOM      5  C5  IND d   1      -0.910  -2.009   0.052  0.00  0.00    -0.031 A 
ATOM      6  C6  IND d   1       0.133  -2.140  -0.842  0.00  0.00     0.015 A 
ATOM      7  C7  IND d   1       1.000  -1.112  -1.081  0.00  0.00    -0.016 A 
ATOM      8  C8  IND d   1       0.770   0.074  -0.398  0.00  0.00    -0.047 A 
ATOM      9  C9  IND d   1      -0.312   0.226   0.479  0.00  0.00    -0.096 A 
ATOM     10  HN1 IND d   1       2.138   1.448  -0.907  0.00  0.00     0.298 HD
ENDROOT
TORSDOF 0
ENDMDL
