MODEL 1
REMARK minimizedAffinity -4.20615768
REMARK minimizedRMSD -1
REMARK  0 active torsions:
REMARK  status: ('A' for Active; 'I' for Inactive)
ROOT
ATOM      1  C2' OXE d   1       0.743  -2.019  -0.466  0.00  0.00     0.078 C 
ATOM      2  C1' OXE d   1      -0.657   0.379  -0.051  0.00  0.00     0.078 C 
ATOM      3  C1  OXE d   1       0.841   0.456  -0.200  0.00  0.00    -0.078 A 
ATOM      4  C2  OXE d   1       1.523  -0.726  -0.356  0.00  0.00    -0.078 A 
ATOM      5  C3  OXE d   1       2.901  -0.707  -0.554  0.00  0.00     0.003 A 
ATOM      6  C4  OXE d   1       3.616   0.491  -0.441  0.00  0.00    -0.002 A 
ATOM      7  C5  OXE d   1       2.945   1.703  -0.242  0.00  0.00    -0.002 A 
ATOM      8  C6  OXE d   1       1.557   1.708  -0.163  0.00  0.00     0.003 A 
ENDROOT
TORSDOF 0
ENDMDL
