MODEL 1
REMARK minimizedAffinity -3.21486115
REMARK minimizedRMSD -1
REMARK  0 active torsions:
REMARK  status: ('A' for Active; 'I' for Inactive)
ROOT
ATOM      1  C2' OXE d   1       3.451  -1.233   1.021  0.00  0.00     0.078 C 
ATOM      2  C1' OXE d   1       1.601  -1.971  -0.956  0.00  0.00     0.078 C 
ATOM      3  C1  OXE d   1       1.388  -0.656  -0.250  0.00  0.00    -0.078 A 
ATOM      4  C2  OXE d   1       2.272  -0.324   0.749  0.00  0.00    -0.078 A 
ATOM      5  C3  OXE d   1       2.154   0.903   1.395  0.00  0.00     0.003 A 
ATOM      6  C4  OXE d   1       1.055   1.733   1.144  0.00  0.00    -0.002 A 
ATOM      7  C5  OXE d   1       0.121   1.396   0.158  0.00  0.00    -0.002 A 
ATOM      8  C6  OXE d   1       0.296   0.228  -0.576  0.00  0.00     0.003 A 
ENDROOT
TORSDOF 0
ENDMDL
