MODEL 1
REMARK minimizedAffinity -4.28310633
REMARK minimizedRMSD -1
REMARK  0 active torsions:
REMARK  status: ('A' for Active; 'I' for Inactive)
ROOT
ATOM      1  C2' OXE d   1       2.840  -1.174   1.214  0.00  0.00     0.078 C 
ATOM      2  C1' OXE d   1       2.236   1.563   1.373  0.00  0.00     0.078 C 
ATOM      3  C1  OXE d   1       1.363   0.700   0.498  0.00  0.00    -0.078 A 
ATOM      4  C2  OXE d   1       1.693  -0.629   0.389  0.00  0.00    -0.078 A 
ATOM      5  C3  OXE d   1       0.888  -1.481  -0.362  0.00  0.00     0.003 A 
ATOM      6  C4  OXE d   1      -0.164  -0.967  -1.130  0.00  0.00    -0.002 A 
ATOM      7  C5  OXE d   1      -0.494   0.391  -1.064  0.00  0.00    -0.002 A 
ATOM      8  C6  OXE d   1       0.232   1.228  -0.224  0.00  0.00     0.003 A 
ENDROOT
TORSDOF 0
ENDMDL
