MODEL 1
REMARK minimizedAffinity 0.609127402
REMARK minimizedRMSD -1
REMARK  0 active torsions:
REMARK  status: ('A' for Active; 'I' for Inactive)
ROOT
ATOM      1  C2' OXE d   1      -1.032   0.212   0.547  0.00  0.00     0.078 C 
ATOM      2  C1' OXE d   1      -0.551  -1.148  -1.861  0.00  0.00     0.078 C 
ATOM      3  C1  OXE d   1       0.559  -1.110  -0.840  0.00  0.00    -0.078 A 
ATOM      4  C2  OXE d   1       0.331  -0.402   0.316  0.00  0.00    -0.078 A 
ATOM      5  C3  OXE d   1       1.302  -0.381   1.313  0.00  0.00     0.003 A 
ATOM      6  C4  OXE d   1       2.564  -0.943   1.087  0.00  0.00    -0.002 A 
ATOM      7  C5  OXE d   1       2.830  -1.634  -0.099  0.00  0.00    -0.002 A 
ATOM      8  C6  OXE d   1       1.827  -1.763  -1.053  0.00  0.00     0.003 A 
ENDROOT
TORSDOF 0
ENDMDL
