MODEL 1
REMARK minimizedAffinity -2.62824488
REMARK minimizedRMSD -1
REMARK  0 active torsions:
REMARK  status: ('A' for Active; 'I' for Inactive)
ROOT
ATOM      1  C2' OXE d   1       2.272  -2.339  -1.334  0.00  0.00     0.078 C 
ATOM      2  C1' OXE d   1       2.512  -1.229   1.234  0.00  0.00     0.078 C 
ATOM      3  C1  OXE d   1       1.339  -0.800   0.389  0.00  0.00    -0.078 A 
ATOM      4  C2  OXE d   1       1.255  -1.313  -0.883  0.00  0.00    -0.078 A 
ATOM      5  C3  OXE d   1       0.163  -0.992  -1.685  0.00  0.00     0.003 A 
ATOM      6  C4  OXE d   1      -0.768  -0.035  -1.265  0.00  0.00    -0.002 A 
ATOM      7  C5  OXE d   1      -0.679   0.529   0.012  0.00  0.00    -0.002 A 
ATOM      8  C6  OXE d   1       0.342   0.126   0.866  0.00  0.00     0.003 A 
ENDROOT
TORSDOF 0
ENDMDL
