MODEL 1
REMARK minimizedAffinity 4.87284565
REMARK minimizedRMSD -1
REMARK  0 active torsions:
REMARK  status: ('A' for Active; 'I' for Inactive)
ROOT
ATOM      1  C2' OXE d   1      -0.192  -1.670  -0.701  0.00  0.00     0.078 C 
ATOM      2  C1' OXE d   1       2.495  -1.064  -0.158  0.00  0.00     0.078 C 
ATOM      3  C1  OXE d   1       1.482   0.047  -0.028  0.00  0.00    -0.078 A 
ATOM      4  C2  OXE d   1       0.177  -0.248  -0.340  0.00  0.00    -0.078 A 
ATOM      5  C3  OXE d   1      -0.805   0.726  -0.184  0.00  0.00     0.003 A 
ATOM      6  C4  OXE d   1      -0.454   2.042   0.140  0.00  0.00    -0.002 A 
ATOM      7  C5  OXE d   1       0.875   2.373   0.424  0.00  0.00    -0.002 A 
ATOM      8  C6  OXE d   1       1.847   1.379   0.386  0.00  0.00     0.003 A 
ENDROOT
TORSDOF 0
ENDMDL
