MODEL 1
REMARK minimizedAffinity 2.37390471
REMARK minimizedRMSD -1
REMARK  0 active torsions:
REMARK  status: ('A' for Active; 'I' for Inactive)
ROOT
ATOM      1  C2' OXE d   1      -0.356   0.083   0.377  0.00  0.00     0.078 C 
ATOM      2  C1' OXE d   1      -3.037   0.554   1.064  0.00  0.00     0.078 C 
ATOM      3  C1  OXE d   1      -2.730   0.193  -0.368  0.00  0.00    -0.078 A 
ATOM      4  C2  OXE d   1      -1.411   0.010  -0.705  0.00  0.00    -0.078 A 
ATOM      5  C3  OXE d   1      -1.078  -0.379  -2.000  0.00  0.00     0.003 A 
ATOM      6  C4  OXE d   1      -2.059  -0.435  -2.998  0.00  0.00    -0.002 A 
ATOM      7  C5  OXE d   1      -3.404  -0.213  -2.684  0.00  0.00    -0.002 A 
ATOM      8  C6  OXE d   1      -3.761   0.060  -1.368  0.00  0.00     0.003 A 
ENDROOT
TORSDOF 0
ENDMDL
