MODEL 1
REMARK minimizedAffinity -1.68416822
REMARK minimizedRMSD -1
REMARK  1 active torsions:
REMARK  status: ('A' for Active; 'I' for Inactive)
REMARK    1  A    between atoms: C3_4  and  O_7 
ROOT
ATOM      1  C   UNL d   1       2.903  -0.024   0.562  0.00  0.00    -0.033 A 
ATOM      2  C1  UNL d   1       2.905  -0.509  -0.748  0.00  0.00     0.039 A 
ATOM      3  C2  UNL d   1       1.709  -0.905  -1.349  0.00  0.00    -0.080 A 
ATOM      4  C3  UNL d   1       0.519  -0.809  -0.633  0.00  0.00     0.150 A 
ATOM      5  C4  UNL d   1       0.509  -0.322   0.670  0.00  0.00    -0.007 A 
ATOM      6  C5  UNL d   1       1.705   0.071   1.270  0.00  0.00     0.039 A 
ENDROOT
BRANCH   4   7
ATOM      7  O   UNL d   1      -0.672  -1.187  -1.177  0.00  0.00    -0.526 OA
ATOM      8  H5  UNL d   1      -0.508  -1.529  -2.071  0.00  0.00     0.418 HD
ENDBRANCH   4   7
TORSDOF 1
ENDMDL
