MODEL 1
REMARK minimizedAffinity 0.164542794
REMARK minimizedRMSD -1
REMARK  1 active torsions:
REMARK  status: ('A' for Active; 'I' for Inactive)
REMARK    1  A    between atoms: C3_4  and  O_7 
ROOT
ATOM      1  C   UNL d   1      -2.205   0.363   1.639  0.00  0.00    -0.033 A 
ATOM      2  C1  UNL d   1      -1.716  -0.365   0.552  0.00  0.00     0.039 A 
ATOM      3  C2  UNL d   1      -0.382  -0.777   0.529  0.00  0.00    -0.080 A 
ATOM      4  C3  UNL d   1       0.450  -0.458   1.598  0.00  0.00     0.150 A 
ATOM      5  C4  UNL d   1      -0.031   0.263   2.686  0.00  0.00    -0.007 A 
ATOM      6  C5  UNL d   1      -1.363   0.675   2.706  0.00  0.00     0.039 A 
ENDROOT
BRANCH   4   7
ATOM      7  O   UNL d   1       1.760  -0.834   1.619  0.00  0.00    -0.526 OA
ATOM      8  H5  UNL d   1       1.959  -1.300   0.789  0.00  0.00     0.418 HD
ENDBRANCH   4   7
TORSDOF 1
ENDMDL
