MODEL 1
REMARK minimizedAffinity 3.16612029
REMARK minimizedRMSD -1
REMARK  1 active torsions:
REMARK  status: ('A' for Active; 'I' for Inactive)
REMARK    1  A    between atoms: C3_4  and  O_7 
ROOT
ATOM      1  C   UNL d   1      -2.361  -4.361  -5.733  0.00  0.00    -0.033 A 
ATOM      2  C1  UNL d   1      -1.185  -3.653  -5.989  0.00  0.00     0.039 A 
ATOM      3  C2  UNL d   1      -0.016  -3.963  -5.293  0.00  0.00    -0.080 A 
ATOM      4  C3  UNL d   1      -0.034  -4.983  -4.346  0.00  0.00     0.150 A 
ATOM      5  C4  UNL d   1      -1.201  -5.696  -4.088  0.00  0.00    -0.007 A 
ATOM      6  C5  UNL d   1      -2.369  -5.384  -4.784  0.00  0.00     0.039 A 
ENDROOT
BRANCH   4   7
ATOM      7  O   UNL d   1       1.081  -5.319  -3.638  0.00  0.00    -0.526 OA
ATOM      8  H5  UNL d   1       1.803  -4.724  -3.901  0.00  0.00     0.418 HD
ENDBRANCH   4   7
TORSDOF 1
ENDMDL
