MODEL 1
REMARK minimizedAffinity 0.0564859957
REMARK minimizedRMSD -1
REMARK  1 active torsions:
REMARK  status: ('A' for Active; 'I' for Inactive)
REMARK    1  A    between atoms: C3_4  and  O_7 
ROOT
ATOM      1  C   UNL d   1       0.340  -2.743  -4.627  0.00  0.00    -0.033 A 
ATOM      2  C1  UNL d   1      -0.736  -2.435  -3.792  0.00  0.00     0.039 A 
ATOM      3  C2  UNL d   1      -1.855  -3.269  -3.757  0.00  0.00    -0.080 A 
ATOM      4  C3  UNL d   1      -1.885  -4.407  -4.559  0.00  0.00     0.150 A 
ATOM      5  C4  UNL d   1      -0.815  -4.722  -5.389  0.00  0.00    -0.007 A 
ATOM      6  C5  UNL d   1       0.302  -3.888  -5.424  0.00  0.00     0.039 A 
ENDROOT
BRANCH   4   7
ATOM      7  O   UNL d   1      -2.957  -5.249  -4.562  0.00  0.00    -0.526 OA
ATOM      8  H5  UNL d   1      -3.632  -4.890  -3.962  0.00  0.00     0.418 HD
ENDBRANCH   4   7
TORSDOF 1
ENDMDL
