MODEL 1
REMARK minimizedAffinity 14.4993353
REMARK minimizedRMSD -1
REMARK  3 active torsions:
REMARK  status: ('A' for Active; 'I' for Inactive)
REMARK    1  A    between atoms: C3'_2  and  C2'_3 
REMARK    2  A    between atoms: C2'_3  and  C1'_4 
REMARK    3  A    between atoms: C1'_4  and  C1_5 
ROOT
ATOM      1  C1  N4B d   1       4.279   3.633   1.621  0.00  0.00    -0.075 A 
ATOM      2  C2  N4B d   1       4.005   4.791   0.860  0.00  0.00     0.002 A 
ATOM      3  C3  N4B d   1       4.677   5.959   1.122  0.00  0.00     0.002 A 
ATOM      4  C4  N4B d   1       5.609   6.000   2.148  0.00  0.00    -0.004 A 
ATOM      5  C5  N4B d   1       5.886   4.871   2.862  0.00  0.00     0.002 A 
ATOM      6  C6  N4B d   1       5.221   3.688   2.607  0.00  0.00     0.002 A 
ENDROOT
BRANCH   1   7
ATOM      7  C1' N4B d   1       3.509   2.355   1.429  0.00  0.00     0.057 C 
BRANCH   7   8
ATOM      8  C2' N4B d   1       2.035   2.608   1.733  0.00  0.00     0.009 C 
BRANCH   8   9
ATOM      9  C3' N4B d   1       1.167   1.415   1.371  0.00  0.00     0.004 C 
ATOM     10  C4' N4B d   1       1.908   0.375   0.585  0.00  0.00     0.003 C 
ENDBRANCH   8   9
ENDBRANCH   7   8
ENDBRANCH   1   7
TORSDOF 3
ENDMDL
