MODEL 1
REMARK minimizedAffinity 0.22010912
REMARK minimizedRMSD -1
REMARK  3 active torsions:
REMARK  status: ('A' for Active; 'I' for Inactive)
REMARK    1  A    between atoms: C3'_2  and  C2'_3 
REMARK    2  A    between atoms: C2'_3  and  C1'_4 
REMARK    3  A    between atoms: C1'_4  and  C1_5 
ROOT
ATOM      1  C1  N4B d   1       3.502   4.807   3.251  0.00  0.00    -0.075 A 
ATOM      2  C2  N4B d   1       3.199   5.887   4.108  0.00  0.00     0.002 A 
ATOM      3  C3  N4B d   1       3.831   6.000   5.322  0.00  0.00     0.002 A 
ATOM      4  C4  N4B d   1       4.753   5.037   5.707  0.00  0.00    -0.004 A 
ATOM      5  C5  N4B d   1       5.059   4.010   4.863  0.00  0.00     0.002 A 
ATOM      6  C6  N4B d   1       4.434   3.887   3.638  0.00  0.00     0.002 A 
ENDROOT
BRANCH   1   7
ATOM      7  C1' N4B d   1       2.774   4.595   1.952  0.00  0.00     0.057 C 
BRANCH   7   8
ATOM      8  C2' N4B d   1       3.699   4.960   0.795  0.00  0.00     0.009 C 
BRANCH   8   9
ATOM      9  C3' N4B d   1       4.036   3.755  -0.066  0.00  0.00     0.004 C 
ATOM     10  C4' N4B d   1       2.897   2.787  -0.182  0.00  0.00     0.003 C 
ENDBRANCH   8   9
ENDBRANCH   7   8
ENDBRANCH   1   7
TORSDOF 3
ENDMDL
