MODEL 1
REMARK minimizedAffinity 11.5529127
REMARK minimizedRMSD -1
REMARK  3 active torsions:
REMARK  status: ('A' for Active; 'I' for Inactive)
REMARK    1  A    between atoms: C3'_2  and  C2'_3 
REMARK    2  A    between atoms: C2'_3  and  C1'_4 
REMARK    3  A    between atoms: C1'_4  and  C1_5 
ROOT
ATOM      1  C1  N4B d   1       3.415  -0.146  -2.393  0.00  0.00    -0.075 A 
ATOM      2  C2  N4B d   1       4.520   0.724  -2.259  0.00  0.00     0.002 A 
ATOM      3  C3  N4B d   1       5.741   0.228  -1.871  0.00  0.00     0.002 A 
ATOM      4  C4  N4B d   1       5.876  -1.124  -1.596  0.00  0.00    -0.004 A 
ATOM      5  C5  N4B d   1       4.810  -1.961  -1.752  0.00  0.00     0.002 A 
ATOM      6  C6  N4B d   1       3.578  -1.478  -2.145  0.00  0.00     0.002 A 
ENDROOT
BRANCH   1   7
ATOM      7  C1' N4B d   1       2.040   0.363  -2.730  0.00  0.00     0.057 C 
BRANCH   7   8
ATOM      8  C2' N4B d   1       1.811   0.228  -4.233  0.00  0.00     0.009 C 
BRANCH   8   9
ATOM      9  C3' N4B d   1       0.498   0.856  -4.666  0.00  0.00     0.004 C 
ATOM     10  C4' N4B d   1       0.684   1.972  -5.650  0.00  0.00     0.003 C 
ENDBRANCH   8   9
ENDBRANCH   7   8
ENDBRANCH   1   7
TORSDOF 3
ENDMDL
