MODEL 1
REMARK minimizedAffinity 1.88108194
REMARK minimizedRMSD -1
REMARK  3 active torsions:
REMARK  status: ('A' for Active; 'I' for Inactive)
REMARK    1  A    between atoms: C3'_2  and  C2'_3 
REMARK    2  A    between atoms: C2'_3  and  C1'_4 
REMARK    3  A    between atoms: C1'_4  and  C1_5 
ROOT
ATOM      1  C1  N4B d   1      -1.582   0.161   1.087  0.00  0.00    -0.075 A 
ATOM      2  C2  N4B d   1      -0.656   1.216   0.934  0.00  0.00     0.002 A 
ATOM      3  C3  N4B d   1       0.689   0.946   0.873  0.00  0.00     0.002 A 
ATOM      4  C4  N4B d   1       1.131  -0.364   0.981  0.00  0.00    -0.004 A 
ATOM      5  C5  N4B d   1       0.228  -1.380   1.103  0.00  0.00     0.002 A 
ATOM      6  C6  N4B d   1      -1.127  -1.123   1.161  0.00  0.00     0.002 A 
ENDROOT
BRANCH   1   7
ATOM      7  C1' N4B d   1      -3.056   0.415   1.245  0.00  0.00     0.057 C 
BRANCH   7   8
ATOM      8  C2' N4B d   1      -3.802  -0.217   0.073  0.00  0.00     0.009 C 
BRANCH   8   9
ATOM      9  C3' N4B d   1      -5.099   0.511  -0.234  0.00  0.00     0.004 C 
ATOM     10  C4' N4B d   1      -5.979   0.664   0.971  0.00  0.00     0.003 C 
ENDBRANCH   8   9
ENDBRANCH   7   8
ENDBRANCH   1   7
TORSDOF 3
ENDMDL
