MODEL 1
REMARK minimizedAffinity -1.78009999
REMARK minimizedRMSD -1
REMARK  3 active torsions:
REMARK  status: ('A' for Active; 'I' for Inactive)
REMARK    1  A    between atoms: C3'_2  and  C2'_3 
REMARK    2  A    between atoms: C2'_3  and  C1'_4 
REMARK    3  A    between atoms: C1'_4  and  C1_5 
ROOT
ATOM      1  C1  N4B d   1      -0.553   3.013  -5.634  0.00  0.00    -0.075 A 
ATOM      2  C2  N4B d   1      -1.611   2.080  -5.706  0.00  0.00     0.002 A 
ATOM      3  C3  N4B d   1      -2.899   2.517  -5.896  0.00  0.00     0.002 A 
ATOM      4  C4  N4B d   1      -3.155   3.876  -5.998  0.00  0.00    -0.004 A 
ATOM      5  C5  N4B d   1      -2.124   4.769  -5.953  0.00  0.00     0.002 A 
ATOM      6  C6  N4B d   1      -0.824   4.344  -5.766  0.00  0.00     0.002 A 
ENDROOT
BRANCH   1   7
ATOM      7  C1' N4B d   1       0.860   2.589  -5.341  0.00  0.00     0.057 C 
BRANCH   7   8
ATOM      8  C2' N4B d   1       0.841   1.250  -4.610  0.00  0.00     0.009 C 
BRANCH   8   9
ATOM      9  C3' N4B d   1       2.127   1.003  -3.841  0.00  0.00     0.004 C 
ATOM     10  C4' N4B d   1       2.370   2.026  -2.772  0.00  0.00     0.003 C 
ENDBRANCH   8   9
ENDBRANCH   7   8
ENDBRANCH   1   7
TORSDOF 3
ENDMDL
