MODEL 1
REMARK minimizedAffinity 2.72997236
REMARK minimizedRMSD -1
REMARK  3 active torsions:
REMARK  status: ('A' for Active; 'I' for Inactive)
REMARK    1  A    between atoms: C3'_2  and  C2'_3 
REMARK    2  A    between atoms: C2'_3  and  C1'_4 
REMARK    3  A    between atoms: C1'_4  and  C1_5 
ROOT
ATOM      1  C1  N4B d   1      -1.263   3.228  -5.993  0.00  0.00    -0.075 A 
ATOM      2  C2  N4B d   1      -1.656   1.871  -5.998  0.00  0.00     0.002 A 
ATOM      3  C3  N4B d   1      -2.990   1.544  -5.999  0.00  0.00     0.002 A 
ATOM      4  C4  N4B d   1      -3.944   2.550  -5.976  0.00  0.00    -0.004 A 
ATOM      5  C5  N4B d   1      -3.555   3.858  -5.997  0.00  0.00     0.002 A 
ATOM      6  C6  N4B d   1      -2.218   4.202  -5.999  0.00  0.00     0.002 A 
ENDROOT
BRANCH   1   7
ATOM      7  C1' N4B d   1       0.183   3.635  -5.904  0.00  0.00     0.057 C 
BRANCH   7   8
ATOM      8  C2' N4B d   1       1.055   2.383  -5.879  0.00  0.00     0.009 C 
BRANCH   8   9
ATOM      9  C3' N4B d   1       1.477   2.013  -4.467  0.00  0.00     0.004 C 
ATOM     10  C4' N4B d   1       1.826   0.561  -4.327  0.00  0.00     0.003 C 
ENDBRANCH   8   9
ENDBRANCH   7   8
ENDBRANCH   1   7
TORSDOF 3
ENDMDL
