MODEL 1
REMARK minimizedAffinity 0.0980693772
REMARK minimizedRMSD -1
REMARK  3 active torsions:
REMARK  status: ('A' for Active; 'I' for Inactive)
REMARK    1  A    between atoms: C3'_2  and  C2'_3 
REMARK    2  A    between atoms: C2'_3  and  C1'_4 
REMARK    3  A    between atoms: C1'_4  and  C1_5 
ROOT
ATOM      1  C1  N4B d   1       0.559   2.058  -0.317  0.00  0.00    -0.075 A 
ATOM      2  C2  N4B d   1       1.537   1.956   0.697  0.00  0.00     0.002 A 
ATOM      3  C3  N4B d   1       2.839   1.669   0.368  0.00  0.00     0.002 A 
ATOM      4  C4  N4B d   1       3.182   1.463  -0.960  0.00  0.00    -0.004 A 
ATOM      5  C5  N4B d   1       2.237   1.589  -1.935  0.00  0.00     0.002 A 
ATOM      6  C6  N4B d   1       0.925   1.881  -1.620  0.00  0.00     0.002 A 
ENDROOT
BRANCH   1   7
ATOM      7  C1' N4B d   1      -0.893   2.285   0.000  0.00  0.00     0.057 C 
BRANCH   7   8
ATOM      8  C2' N4B d   1      -1.376   1.189   0.946  0.00  0.00     0.009 C 
BRANCH   8   9
ATOM      9  C3' N4B d   1      -2.664   0.546   0.460  0.00  0.00     0.004 C 
ATOM     10  C4' N4B d   1      -3.031  -0.680   1.242  0.00  0.00     0.003 C 
ENDBRANCH   8   9
ENDBRANCH   7   8
ENDBRANCH   1   7
TORSDOF 3
ENDMDL
