MODEL 1
REMARK minimizedAffinity -3.97621727
REMARK minimizedRMSD -1
REMARK  3 active torsions:
REMARK  status: ('A' for Active; 'I' for Inactive)
REMARK    1  A    between atoms: C3'_2  and  C2'_3 
REMARK    2  A    between atoms: C2'_3  and  C1'_4 
REMARK    3  A    between atoms: C1'_4  and  C1_5 
ROOT
ATOM      1  C1  N4B d   1      -2.462   3.047  -5.873  0.00  0.00    -0.075 A 
ATOM      2  C2  N4B d   1      -3.819   2.654  -5.846  0.00  0.00     0.002 A 
ATOM      3  C3  N4B d   1      -4.809   3.604  -5.893  0.00  0.00     0.002 A 
ATOM      4  C4  N4B d   1      -4.469   4.947  -5.948  0.00  0.00    -0.004 A 
ATOM      5  C5  N4B d   1      -3.157   5.317  -6.000  0.00  0.00     0.002 A 
ATOM      6  C6  N4B d   1      -2.151   4.373  -5.957  0.00  0.00     0.002 A 
ENDROOT
BRANCH   1   7
ATOM      7  C1' N4B d   1      -1.344   2.050  -5.737  0.00  0.00     0.057 C 
BRANCH   7   8
ATOM      8  C2' N4B d   1      -0.022   2.797  -5.587  0.00  0.00     0.009 C 
BRANCH   8   9
ATOM      9  C3' N4B d   1       1.165   1.851  -5.557  0.00  0.00     0.004 C 
ATOM     10  C4' N4B d   1       1.044   0.800  -4.494  0.00  0.00     0.003 C 
ENDBRANCH   8   9
ENDBRANCH   7   8
ENDBRANCH   1   7
TORSDOF 3
ENDMDL
