MODEL 1
REMARK minimizedAffinity 2.89942527
REMARK minimizedRMSD -1
REMARK  3 active torsions:
REMARK  status: ('A' for Active; 'I' for Inactive)
REMARK    1  A    between atoms: C3'_2  and  C2'_3 
REMARK    2  A    between atoms: C2'_3  and  C1'_4 
REMARK    3  A    between atoms: C1'_4  and  C1_5 
ROOT
ATOM      1  C1  N4B d   1       0.601   1.855  -5.316  0.00  0.00    -0.075 A 
ATOM      2  C2  N4B d   1      -0.764   1.510  -5.430  0.00  0.00     0.002 A 
ATOM      3  C3  N4B d   1      -1.688   2.468  -5.770  0.00  0.00     0.002 A 
ATOM      4  C4  N4B d   1      -1.275   3.775  -5.981  0.00  0.00    -0.004 A 
ATOM      5  C5  N4B d   1       0.048   4.094  -5.893  0.00  0.00     0.002 A 
ATOM      6  C6  N4B d   1       0.988   3.141  -5.556  0.00  0.00     0.002 A 
ENDROOT
BRANCH   1   7
ATOM      7  C1' N4B d   1       1.635   0.861  -4.862  0.00  0.00     0.057 C 
BRANCH   7   8
ATOM      8  C2' N4B d   1       1.727   0.893  -3.340  0.00  0.00     0.009 C 
BRANCH   8   9
ATOM      9  C3' N4B d   1       1.745   2.314  -2.801  0.00  0.00     0.004 C 
ATOM     10  C4' N4B d   1       1.622   2.370  -1.308  0.00  0.00     0.003 C 
ENDBRANCH   8   9
ENDBRANCH   7   8
ENDBRANCH   1   7
TORSDOF 3
ENDMDL
