MODEL 1
REMARK minimizedAffinity 1.83376741
REMARK minimizedRMSD -1
REMARK  3 active torsions:
REMARK  status: ('A' for Active; 'I' for Inactive)
REMARK    1  A    between atoms: C3'_2  and  C2'_3 
REMARK    2  A    between atoms: C2'_3  and  C1'_4 
REMARK    3  A    between atoms: C1'_4  and  C1_5 
ROOT
ATOM      1  C1  N4B d   1      -1.198   3.481  -5.726  0.00  0.00    -0.075 A 
ATOM      2  C2  N4B d   1      -2.274   2.567  -5.749  0.00  0.00     0.002 A 
ATOM      3  C3  N4B d   1      -3.561   3.026  -5.892  0.00  0.00     0.002 A 
ATOM      4  C4  N4B d   1      -3.796   4.388  -5.994  0.00  0.00    -0.004 A 
ATOM      5  C5  N4B d   1      -2.749   5.263  -5.997  0.00  0.00     0.002 A 
ATOM      6  C6  N4B d   1      -1.450   4.816  -5.858  0.00  0.00     0.002 A 
ENDROOT
BRANCH   1   7
ATOM      7  C1' N4B d   1       0.218   3.034  -5.486  0.00  0.00     0.057 C 
BRANCH   7   8
ATOM      8  C2' N4B d   1       0.234   2.003  -4.361  0.00  0.00     0.009 C 
BRANCH   8   9
ATOM      9  C3' N4B d   1       1.498   1.160  -4.380  0.00  0.00     0.004 C 
ATOM     10  C4' N4B d   1       2.076   0.949  -3.013  0.00  0.00     0.003 C 
ENDBRANCH   8   9
ENDBRANCH   7   8
ENDBRANCH   1   7
TORSDOF 3
ENDMDL
