MODEL 1
REMARK minimizedAffinity 3.22133064
REMARK minimizedRMSD -1
REMARK  0 active torsions:
REMARK  status: ('A' for Active; 'I' for Inactive)
ROOT
ATOM      1  C   UNL d   1      -0.414  -0.302  -0.500  0.00  0.00     0.124 A 
ATOM      2  C1  UNL d   1       0.432  -1.335  -0.119  0.00  0.00     0.062 A 
ATOM      3  C2  UNL d   1       0.275  -2.606  -0.665  0.00  0.00     0.162 A 
ATOM      4  C3  UNL d   1      -0.732  -2.851  -1.599  0.00  0.00    -0.034 A 
ATOM      5  C4  UNL d   1      -1.579  -1.808  -1.976  0.00  0.00     0.162 A 
ATOM      6  C5  UNL d   1      -1.419  -0.540  -1.428  0.00  0.00     0.062 A 
ATOM      7  F   UNL d   1      -2.237   0.456  -1.797  0.00  0.00    -0.097 F 
ATOM      8  F1  UNL d   1      -2.558  -2.010  -2.871  0.00  0.00    -0.096 F 
ATOM      9  I   UNL d   1      -0.969  -4.750  -2.418  0.00  0.00    -0.060 I 
ATOM     10  F2  UNL d   1       1.107  -3.584  -0.279  0.00  0.00    -0.096 F 
ATOM     11  F3  UNL d   1       1.402  -1.108   0.777  0.00  0.00    -0.097 F 
ATOM     12  F4  UNL d   1      -0.262   0.919   0.027  0.00  0.00    -0.092 F 
ENDROOT
TORSDOF 0
ENDMDL
