MODEL 1
REMARK minimizedAffinity 12.455718
REMARK minimizedRMSD -1
REMARK  0 active torsions:
REMARK  status: ('A' for Active; 'I' for Inactive)
ROOT
ATOM      1  C   UNL d   1       2.443   1.609  -4.615  0.00  0.00     0.124 A 
ATOM      2  C1  UNL d   1       1.349   0.794  -4.871  0.00  0.00     0.062 A 
ATOM      3  C2  UNL d   1       1.510  -0.586  -4.961  0.00  0.00     0.162 A 
ATOM      4  C3  UNL d   1       2.771  -1.159  -4.794  0.00  0.00    -0.034 A 
ATOM      5  C4  UNL d   1       3.866  -0.332  -4.538  0.00  0.00     0.162 A 
ATOM      6  C5  UNL d   1       3.700   1.046  -4.449  0.00  0.00     0.062 A 
ATOM      7  F   UNL d   1       4.758   1.832  -4.202  0.00  0.00    -0.097 F 
ATOM      8  F1  UNL d   1       5.092  -0.851  -4.373  0.00  0.00    -0.096 F 
ATOM      9  I   UNL d   1       3.017  -3.222  -4.929  0.00  0.00    -0.060 I 
ATOM     10  F2  UNL d   1       0.436  -1.350  -5.209  0.00  0.00    -0.096 F 
ATOM     11  F3  UNL d   1       0.133   1.336  -5.033  0.00  0.00    -0.097 F 
ATOM     12  F4  UNL d   1       2.284   2.936  -4.530  0.00  0.00    -0.092 F 
ENDROOT
TORSDOF 0
ENDMDL
