MODEL 1
REMARK minimizedAffinity 4.95722961
REMARK minimizedRMSD -1
REMARK  0 active torsions:
REMARK  status: ('A' for Active; 'I' for Inactive)
ROOT
ATOM      1  C   UNL d   1       2.019   0.004   0.055  0.00  0.00     0.124 A 
ATOM      2  C1  UNL d   1       0.816  -0.686   0.102  0.00  0.00     0.062 A 
ATOM      3  C2  UNL d   1       0.063  -0.701   1.273  0.00  0.00     0.162 A 
ATOM      4  C3  UNL d   1       0.510  -0.022   2.406  0.00  0.00    -0.034 A 
ATOM      5  C4  UNL d   1       1.722   0.669   2.352  0.00  0.00     0.162 A 
ATOM      6  C5  UNL d   1       2.471   0.680   1.180  0.00  0.00     0.062 A 
ATOM      7  F   UNL d   1       3.633   1.348   1.136  0.00  0.00    -0.097 F 
ATOM      8  F1  UNL d   1       2.181   1.332   3.423  0.00  0.00    -0.096 F 
ATOM      9  I   UNL d   1      -0.613  -0.042   4.158  0.00  0.00    -0.060 I 
ATOM     10  F2  UNL d   1      -1.096  -1.376   1.290  0.00  0.00    -0.096 F 
ATOM     11  F3  UNL d   1       0.378  -1.342  -0.982  0.00  0.00    -0.097 F 
ATOM     12  F4  UNL d   1       2.742   0.016  -1.072  0.00  0.00    -0.092 F 
ENDROOT
TORSDOF 0
ENDMDL
