MODEL 1
REMARK minimizedAffinity 9.43617058
REMARK minimizedRMSD -1
REMARK  0 active torsions:
REMARK  status: ('A' for Active; 'I' for Inactive)
ROOT
ATOM      1  C   UNL d   1      -0.803  -1.038  -0.861  0.00  0.00     0.124 A 
ATOM      2  C1  UNL d   1       0.269  -1.735  -0.321  0.00  0.00     0.062 A 
ATOM      3  C2  UNL d   1       1.226  -1.069   0.439  0.00  0.00     0.162 A 
ATOM      4  C3  UNL d   1       1.115   0.304   0.664  0.00  0.00    -0.034 A 
ATOM      5  C4  UNL d   1       0.035   0.998   0.116  0.00  0.00     0.162 A 
ATOM      6  C5  UNL d   1      -0.919   0.328  -0.642  0.00  0.00     0.062 A 
ATOM      7  F   UNL d   1      -1.953   1.003  -1.164  0.00  0.00    -0.097 F 
ATOM      8  F1  UNL d   1      -0.101   2.318   0.313  0.00  0.00    -0.096 F 
ATOM      9  I   UNL d   1       2.545   1.304   1.799  0.00  0.00    -0.060 I 
ATOM     10  F2  UNL d   1       2.251  -1.768   0.949  0.00  0.00    -0.096 F 
ATOM     11  F3  UNL d   1       0.383  -3.054  -0.531  0.00  0.00    -0.097 F 
ATOM     12  F4  UNL d   1      -1.722  -1.681  -1.592  0.00  0.00    -0.092 F 
ENDROOT
TORSDOF 0
ENDMDL
