MODEL 1
REMARK minimizedAffinity 7.05503178
REMARK minimizedRMSD -1
REMARK  0 active torsions:
REMARK  status: ('A' for Active; 'I' for Inactive)
ROOT
ATOM      1  C   UNL d   1       2.030  -0.977   0.802  0.00  0.00     0.124 A 
ATOM      2  C1  UNL d   1       0.698  -0.786   0.460  0.00  0.00     0.062 A 
ATOM      3  C2  UNL d   1       0.327  -0.686  -0.878  0.00  0.00     0.162 A 
ATOM      4  C3  UNL d   1       1.289  -0.778  -1.884  0.00  0.00    -0.034 A 
ATOM      5  C4  UNL d   1       2.626  -0.969  -1.532  0.00  0.00     0.162 A 
ATOM      6  C5  UNL d   1       2.992  -1.069  -0.193  0.00  0.00     0.062 A 
ATOM      7  F   UNL d   1       4.279  -1.253   0.136  0.00  0.00    -0.097 F 
ATOM      8  F1  UNL d   1       3.577  -1.062  -2.474  0.00  0.00    -0.096 F 
ATOM      9  I   UNL d   1       0.738  -0.628  -3.885  0.00  0.00    -0.060 I 
ATOM     10  F2  UNL d   1      -0.967  -0.501  -1.180  0.00  0.00    -0.096 F 
ATOM     11  F3  UNL d   1      -0.233  -0.697   1.420  0.00  0.00    -0.097 F 
ATOM     12  F4  UNL d   1       2.384  -1.072   2.090  0.00  0.00    -0.092 F 
ENDROOT
TORSDOF 0
ENDMDL
