MODEL 1
REMARK minimizedAffinity 7.27693272
REMARK minimizedRMSD -1
REMARK  0 active torsions:
REMARK  status: ('A' for Active; 'I' for Inactive)
ROOT
ATOM      1  C   UNL d   1       1.851   1.412   2.857  0.00  0.00     0.124 A 
ATOM      2  C1  UNL d   1       0.669   0.693   2.970  0.00  0.00     0.062 A 
ATOM      3  C2  UNL d   1       0.246  -0.128   1.929  0.00  0.00     0.162 A 
ATOM      4  C3  UNL d   1       1.007  -0.236   0.765  0.00  0.00    -0.034 A 
ATOM      5  C4  UNL d   1       2.194   0.490   0.657  0.00  0.00     0.162 A 
ATOM      6  C5  UNL d   1       2.612   1.310   1.701  0.00  0.00     0.062 A 
ATOM      7  F   UNL d   1       3.754   2.004   1.589  0.00  0.00    -0.097 F 
ATOM      8  F1  UNL d   1       2.949   0.410  -0.448  0.00  0.00    -0.096 F 
ATOM      9  I   UNL d   1       0.378  -1.463  -0.794  0.00  0.00    -0.060 I 
ATOM     10  F2  UNL d   1      -0.900  -0.812   2.066  0.00  0.00    -0.096 F 
ATOM     11  F3  UNL d   1      -0.068   0.790   4.086  0.00  0.00    -0.097 F 
ATOM     12  F4  UNL d   1       2.255   2.202   3.860  0.00  0.00    -0.092 F 
ENDROOT
TORSDOF 0
ENDMDL
