MODEL 1
REMARK minimizedAffinity 17.9299259
REMARK minimizedRMSD -1
REMARK  0 active torsions:
REMARK  status: ('A' for Active; 'I' for Inactive)
ROOT
ATOM      1  C   UNL d   1       1.342   0.798   0.330  0.00  0.00     0.124 A 
ATOM      2  C1  UNL d   1       1.170   1.708   1.364  0.00  0.00     0.062 A 
ATOM      3  C2  UNL d   1       2.223   1.990   2.230  0.00  0.00     0.162 A 
ATOM      4  C3  UNL d   1       3.457   1.362   2.066  0.00  0.00    -0.034 A 
ATOM      5  C4  UNL d   1       3.622   0.447   1.024  0.00  0.00     0.162 A 
ATOM      6  C5  UNL d   1       2.567   0.169   0.161  0.00  0.00     0.062 A 
ATOM      7  F   UNL d   1       2.735  -0.710  -0.837  0.00  0.00    -0.097 F 
ATOM      8  F1  UNL d   1       4.796  -0.175   0.838  0.00  0.00    -0.096 F 
ATOM      9  I   UNL d   1       5.033   1.780   3.359  0.00  0.00    -0.060 I 
ATOM     10  F2  UNL d   1       2.028   2.873   3.221  0.00  0.00    -0.096 F 
ATOM     11  F3  UNL d   1      -0.013   2.317   1.530  0.00  0.00    -0.097 F 
ATOM     12  F4  UNL d   1       0.328   0.528  -0.502  0.00  0.00    -0.092 F 
ENDROOT
TORSDOF 0
ENDMDL
