MODEL 1
REMARK minimizedAffinity 8.30888653
REMARK minimizedRMSD -1
REMARK  0 active torsions:
REMARK  status: ('A' for Active; 'I' for Inactive)
ROOT
ATOM      1  C   UNL d   1      -1.089  -0.918  -0.742  0.00  0.00     0.124 A 
ATOM      2  C1  UNL d   1      -2.110  -1.252  -1.621  0.00  0.00     0.062 A 
ATOM      3  C2  UNL d   1      -2.084  -2.471  -2.292  0.00  0.00     0.162 A 
ATOM      4  C3  UNL d   1      -1.034  -3.366  -2.087  0.00  0.00    -0.034 A 
ATOM      5  C4  UNL d   1      -0.010  -3.022  -1.202  0.00  0.00     0.162 A 
ATOM      6  C5  UNL d   1      -0.041  -1.803  -0.533  0.00  0.00     0.062 A 
ATOM      7  F   UNL d   1       0.947  -1.482   0.316  0.00  0.00    -0.097 F 
ATOM      8  F1  UNL d   1       1.014  -3.859  -0.981  0.00  0.00    -0.096 F 
ATOM      9  I   UNL d   1      -0.992  -5.189  -3.089  0.00  0.00    -0.060 I 
ATOM     10  F2  UNL d   1      -3.084  -2.768  -3.136  0.00  0.00    -0.096 F 
ATOM     11  F3  UNL d   1      -3.123  -0.398  -1.825  0.00  0.00    -0.097 F 
ATOM     12  F4  UNL d   1      -1.115   0.256  -0.098  0.00  0.00    -0.092 F 
ENDROOT
TORSDOF 0
ENDMDL
