MODEL 1
REMARK minimizedAffinity 26.9818935
REMARK minimizedRMSD -1
REMARK  0 active torsions:
REMARK  status: ('A' for Active; 'I' for Inactive)
ROOT
ATOM      1  C   UNL d   1       3.542   1.442  -3.617  0.00  0.00     0.124 A 
ATOM      2  C1  UNL d   1       2.682   1.462  -4.706  0.00  0.00     0.062 A 
ATOM      3  C2  UNL d   1       1.661   0.521  -4.809  0.00  0.00     0.162 A 
ATOM      4  C3  UNL d   1       1.493  -0.447  -3.818  0.00  0.00    -0.034 A 
ATOM      5  C4  UNL d   1       2.363  -0.461  -2.726  0.00  0.00     0.162 A 
ATOM      6  C5  UNL d   1       3.382   0.481  -2.628  0.00  0.00     0.062 A 
ATOM      7  F   UNL d   1       4.212   0.460  -1.575  0.00  0.00    -0.097 F 
ATOM      8  F1  UNL d   1       2.230  -1.377  -1.756  0.00  0.00    -0.096 F 
ATOM      9  I   UNL d   1      -0.032  -1.854  -3.968  0.00  0.00    -0.060 I 
ATOM     10  F2  UNL d   1       0.845   0.564  -5.872  0.00  0.00    -0.096 F 
ATOM     11  F3  UNL d   1       2.836   2.388  -5.663  0.00  0.00    -0.097 F 
ATOM     12  F4  UNL d   1       4.525   2.347  -3.521  0.00  0.00    -0.092 F 
ENDROOT
TORSDOF 0
ENDMDL
