MODEL 1
REMARK minimizedAffinity 19.8089447
REMARK minimizedRMSD -1
REMARK  0 active torsions:
REMARK  status: ('A' for Active; 'I' for Inactive)
ROOT
ATOM      1  C   UNL d   1      -2.527  -1.901   4.604  0.00  0.00     0.124 A 
ATOM      2  C1  UNL d   1      -3.297  -1.908   3.449  0.00  0.00     0.062 A 
ATOM      3  C2  UNL d   1      -2.721  -1.596   2.222  0.00  0.00     0.162 A 
ATOM      4  C3  UNL d   1      -1.366  -1.273   2.142  0.00  0.00    -0.034 A 
ATOM      5  C4  UNL d   1      -0.598  -1.267   3.308  0.00  0.00     0.162 A 
ATOM      6  C5  UNL d   1      -1.179  -1.580   4.532  0.00  0.00     0.062 A 
ATOM      7  F   UNL d   1      -0.433  -1.573   5.647  0.00  0.00    -0.097 F 
ATOM      8  F1  UNL d   1       0.707  -0.962   3.267  0.00  0.00    -0.096 F 
ATOM      9  I   UNL d   1      -0.500  -0.805   0.308  0.00  0.00    -0.060 I 
ATOM     10  F2  UNL d   1      -3.489  -1.611   1.122  0.00  0.00    -0.096 F 
ATOM     11  F3  UNL d   1      -4.600  -2.217   3.516  0.00  0.00    -0.097 F 
ATOM     12  F4  UNL d   1      -3.084  -2.202   5.784  0.00  0.00    -0.092 F 
ENDROOT
TORSDOF 0
ENDMDL
