MODEL 1
REMARK minimizedAffinity -5.38262367
REMARK minimizedRMSD -1
REMARK  1 active torsions:
REMARK  status: ('A' for Active; 'I' for Inactive)
REMARK    1  A    between atoms: N_2  and  C1_3 
ROOT
ATOM      1  C1  UNL d   1       0.008  -0.088  -0.008  0.00  0.00     0.143 A 
ATOM      2  C2  UNL d   1       0.139  -1.265  -0.752  0.00  0.00    -0.057 A 
ATOM      3  C3  UNL d   1       1.293  -2.054  -0.665  0.00  0.00     0.033 A 
ATOM      4  C4  UNL d   1       2.352  -1.662   0.147  0.00  0.00    -0.042 A 
ATOM      5  C5  UNL d   1       2.253  -0.482   0.877  0.00  0.00     0.033 A 
ATOM      6  C6  UNL d   1       1.096   0.298   0.791  0.00  0.00    -0.057 A 
ENDROOT
BRANCH   1   7
ATOM      7  N   UNL d   1      -1.072   0.790  -0.125  0.00  0.00    -0.732 N 
ATOM      8  C   UNL d   1      -2.247   0.629   0.705  0.00  0.00     0.284 C 
ATOM      9  H3  UNL d   1      -0.777   1.756  -0.244  0.00  0.00     0.395 HD
ENDBRANCH   1   7
TORSDOF 1
ENDMDL
