MODEL 1
REMARK minimizedAffinity -3.71856928
REMARK minimizedRMSD -1
REMARK  1 active torsions:
REMARK  status: ('A' for Active; 'I' for Inactive)
REMARK    1  A    between atoms: N_2  and  C1_3 
ROOT
ATOM      1  C1  UNL d   1       0.026  -0.062   0.034  0.00  0.00     0.143 A 
ATOM      2  C2  UNL d   1       0.080  -1.303  -0.610  0.00  0.00    -0.057 A 
ATOM      3  C3  UNL d   1       1.119  -2.207  -0.357  0.00  0.00     0.033 A 
ATOM      4  C4  UNL d   1       2.141  -1.873   0.525  0.00  0.00    -0.042 A 
ATOM      5  C5  UNL d   1       2.121  -0.635   1.157  0.00  0.00     0.033 A 
ATOM      6  C6  UNL d   1       1.077   0.261   0.906  0.00  0.00    -0.057 A 
ENDROOT
BRANCH   1   7
ATOM      7  N   UNL d   1      -0.928   0.919  -0.248  0.00  0.00    -0.732 N 
ATOM      8  C   UNL d   1      -2.262   0.831   0.304  0.00  0.00     0.284 C 
ATOM      9  H3  UNL d   1      -0.534   1.857  -0.237  0.00  0.00     0.395 HD
ENDBRANCH   1   7
TORSDOF 1
ENDMDL
