MODEL 1
REMARK minimizedAffinity -1.37906682
REMARK minimizedRMSD -1
REMARK  1 active torsions:
REMARK  status: ('A' for Active; 'I' for Inactive)
REMARK    1  A    between atoms: N_2  and  C1_3 
ROOT
ATOM      1  C1  UNL d   1      -1.750   0.320  -0.222  0.00  0.00     0.143 A 
ATOM      2  C2  UNL d   1      -2.736  -0.557   0.243  0.00  0.00    -0.057 A 
ATOM      3  C3  UNL d   1      -3.939  -0.081   0.777  0.00  0.00     0.033 A 
ATOM      4  C4  UNL d   1      -4.166   1.287   0.884  0.00  0.00    -0.042 A 
ATOM      5  C5  UNL d   1      -3.190   2.178   0.452  0.00  0.00     0.033 A 
ATOM      6  C6  UNL d   1      -1.993   1.696  -0.087  0.00  0.00    -0.057 A 
ENDROOT
BRANCH   1   7
ATOM      7  N   UNL d   1      -0.493  -0.090  -0.673  0.00  0.00    -0.732 N 
ATOM      8  C   UNL d   1      -0.283  -1.445  -1.136  0.00  0.00     0.284 C 
ATOM      9  H3  UNL d   1      -0.033   0.619  -1.239  0.00  0.00     0.395 HD
ENDBRANCH   1   7
TORSDOF 1
ENDMDL
