MODEL 1
REMARK minimizedAffinity -2.96860051
REMARK minimizedRMSD -1
REMARK  1 active torsions:
REMARK  status: ('A' for Active; 'I' for Inactive)
REMARK    1  A    between atoms: N_2  and  C1_3 
ROOT
ATOM      1  C1  UNL d   1      -0.100  -0.094  -0.240  0.00  0.00     0.143 A 
ATOM      2  C2  UNL d   1      -0.013  -1.423  -0.671  0.00  0.00    -0.057 A 
ATOM      3  C3  UNL d   1       1.122  -2.199  -0.407  0.00  0.00     0.033 A 
ATOM      4  C4  UNL d   1       2.206  -1.649   0.269  0.00  0.00    -0.042 A 
ATOM      5  C5  UNL d   1       2.152  -0.323   0.685  0.00  0.00     0.033 A 
ATOM      6  C6  UNL d   1       1.013   0.445   0.424  0.00  0.00    -0.057 A 
ENDROOT
BRANCH   1   7
ATOM      7  N   UNL d   1      -1.160   0.758  -0.557  0.00  0.00    -0.732 N 
ATOM      8  C   UNL d   1      -2.365   0.767   0.245  0.00  0.00     0.284 C 
ATOM      9  H3  UNL d   1      -0.844   1.682  -0.842  0.00  0.00     0.395 HD
ENDBRANCH   1   7
TORSDOF 1
ENDMDL
