MODEL 1
REMARK minimizedAffinity -2.32794952
REMARK minimizedRMSD -1
REMARK  1 active torsions:
REMARK  status: ('A' for Active; 'I' for Inactive)
REMARK    1  A    between atoms: N_2  and  C1_3 
ROOT
ATOM      1  C1  UNL d   1      -1.321   0.323  -0.150  0.00  0.00     0.143 A 
ATOM      2  C2  UNL d   1      -2.247   0.301  -1.199  0.00  0.00    -0.057 A 
ATOM      3  C3  UNL d   1      -3.606   0.548  -0.972  0.00  0.00     0.033 A 
ATOM      4  C4  UNL d   1      -4.069   0.792   0.316  0.00  0.00    -0.042 A 
ATOM      5  C5  UNL d   1      -3.171   0.794   1.378  0.00  0.00     0.033 A 
ATOM      6  C6  UNL d   1      -1.814   0.554   1.144  0.00  0.00    -0.057 A 
ENDROOT
BRANCH   1   7
ATOM      7  N   UNL d   1       0.028  -0.011  -0.296  0.00  0.00    -0.732 N 
ATOM      8  C   UNL d   1       0.419  -1.359  -0.648  0.00  0.00     0.284 C 
ATOM      9  H3  UNL d   1       0.558   0.714  -0.774  0.00  0.00     0.395 HD
ENDBRANCH   1   7
TORSDOF 1
ENDMDL
