MODEL 1
REMARK minimizedAffinity -1.93423033
REMARK minimizedRMSD -1
REMARK  1 active torsions:
REMARK  status: ('A' for Active; 'I' for Inactive)
REMARK    1  A    between atoms: N_2  and  C1_3 
ROOT
ATOM      1  C1  UNL d   1       0.984   0.996   0.772  0.00  0.00     0.143 A 
ATOM      2  C2  UNL d   1       0.941  -0.370   0.472  0.00  0.00    -0.057 A 
ATOM      3  C3  UNL d   1       0.255  -0.844  -0.652  0.00  0.00     0.033 A 
ATOM      4  C4  UNL d   1      -0.428   0.039  -1.482  0.00  0.00    -0.042 A 
ATOM      5  C5  UNL d   1      -0.420   1.398  -1.189  0.00  0.00     0.033 A 
ATOM      6  C6  UNL d   1       0.273   1.866  -0.068  0.00  0.00    -0.057 A 
ENDROOT
BRANCH   1   7
ATOM      7  N   UNL d   1       1.567   1.520   1.929  0.00  0.00    -0.732 N 
ATOM      8  C   UNL d   1       1.715   0.703   3.115  0.00  0.00     0.284 C 
ATOM      9  H3  UNL d   1       2.371   2.109   1.726  0.00  0.00     0.395 HD
ENDBRANCH   1   7
TORSDOF 1
ENDMDL
