MODEL 1
REMARK minimizedAffinity -5.21994209
REMARK minimizedRMSD -1
REMARK  3 active torsions:
REMARK  status: ('A' for Active; 'I' for Inactive)
REMARK    1  A    between atoms: C3'_2  and  C2'_3 
REMARK    2  A    between atoms: C2'_3  and  C1'_4 
REMARK    3  A    between atoms: C1'_4  and  C1_5 
ROOT
ATOM      1  C1  N4B d   1      -0.212  -0.139   0.118  0.00  0.00    -0.075 A 
ATOM      2  C2  N4B d   1       0.966   0.118   0.852  0.00  0.00     0.002 A 
ATOM      3  C3  N4B d   1       1.017  -0.175   2.193  0.00  0.00     0.002 A 
ATOM      4  C4  N4B d   1      -0.099  -0.705   2.822  0.00  0.00    -0.004 A 
ATOM      5  C5  N4B d   1      -1.225  -0.975   2.100  0.00  0.00     0.002 A 
ATOM      6  C6  N4B d   1      -1.289  -0.689   0.751  0.00  0.00     0.002 A 
ENDROOT
BRANCH   1   7
ATOM      7  C1' N4B d   1      -0.344   0.244  -1.331  0.00  0.00     0.057 C 
BRANCH   7   8
ATOM      8  C2' N4B d   1       0.990   0.011  -2.034  0.00  0.00     0.009 C 
BRANCH   8   9
ATOM      9  C3' N4B d   1       0.967  -1.239  -2.897  0.00  0.00     0.004 C 
ATOM     10  C4' N4B d   1      -0.356  -1.944  -2.863  0.00  0.00     0.003 C 
ENDBRANCH   8   9
ENDBRANCH   7   8
ENDBRANCH   1   7
TORSDOF 3
ENDMDL
