MODEL 1
REMARK minimizedAffinity -5.51087093
REMARK minimizedRMSD -1
REMARK  3 active torsions:
REMARK  status: ('A' for Active; 'I' for Inactive)
REMARK    1  A    between atoms: C3'_2  and  C2'_3 
REMARK    2  A    between atoms: C2'_3  and  C1'_4 
REMARK    3  A    between atoms: C1'_4  and  C1_5 
ROOT
ATOM      1  C1  N4B d   1       0.563  -0.875   0.545  0.00  0.00    -0.075 A 
ATOM      2  C2  N4B d   1      -0.088  -1.737   1.454  0.00  0.00     0.002 A 
ATOM      3  C3  N4B d   1      -0.411  -1.291   2.712  0.00  0.00     0.002 A 
ATOM      4  C4  N4B d   1      -0.076   0.001   3.088  0.00  0.00    -0.004 A 
ATOM      5  C5  N4B d   1       0.530   0.836   2.196  0.00  0.00     0.002 A 
ATOM      6  C6  N4B d   1       0.856   0.402   0.926  0.00  0.00     0.002 A 
ENDROOT
BRANCH   1   7
ATOM      7  C1' N4B d   1       1.012  -1.345  -0.812  0.00  0.00     0.057 C 
BRANCH   7   8
ATOM      8  C2' N4B d   1       0.895  -0.193  -1.805  0.00  0.00     0.009 C 
BRANCH   8   9
ATOM      9  C3' N4B d   1       1.249  -0.622  -3.218  0.00  0.00     0.004 C 
ATOM     10  C4' N4B d   1       1.217  -2.111  -3.398  0.00  0.00     0.003 C 
ENDBRANCH   8   9
ENDBRANCH   7   8
ENDBRANCH   1   7
TORSDOF 3
ENDMDL
