MODEL 1
REMARK minimizedAffinity -5.38791752
REMARK minimizedRMSD -1
REMARK  3 active torsions:
REMARK  status: ('A' for Active; 'I' for Inactive)
REMARK    1  A    between atoms: C3'_2  and  C2'_3 
REMARK    2  A    between atoms: C2'_3  and  C1'_4 
REMARK    3  A    between atoms: C1'_4  and  C1_5 
ROOT
ATOM      1  C1  N4B d   1       0.146   0.122  -1.241  0.00  0.00    -0.075 A 
ATOM      2  C2  N4B d   1      -1.186   0.588  -1.187  0.00  0.00     0.002 A 
ATOM      3  C3  N4B d   1      -1.915   0.451  -0.032  0.00  0.00     0.002 A 
ATOM      4  C4  N4B d   1      -1.342  -0.163   1.072  0.00  0.00    -0.004 A 
ATOM      5  C5  N4B d   1      -0.047  -0.587   1.020  0.00  0.00     0.002 A 
ATOM      6  C6  N4B d   1       0.699  -0.452  -0.134  0.00  0.00     0.002 A 
ENDROOT
BRANCH   1   7
ATOM      7  C1' N4B d   1       0.954   0.173  -2.509  0.00  0.00     0.057 C 
BRANCH   7   8
ATOM      8  C2' N4B d   1       0.493  -0.943  -3.441  0.00  0.00     0.009 C 
BRANCH   8   9
ATOM      9  C3' N4B d   1       1.498  -2.080  -3.508  0.00  0.00     0.004 C 
ATOM     10  C4' N4B d   1       2.880  -1.658  -3.104  0.00  0.00     0.003 C 
ENDBRANCH   8   9
ENDBRANCH   7   8
ENDBRANCH   1   7
TORSDOF 3
ENDMDL
