MODEL 1
REMARK minimizedAffinity -1.6974715
REMARK minimizedRMSD -1
REMARK  3 active torsions:
REMARK  status: ('A' for Active; 'I' for Inactive)
REMARK    1  A    between atoms: C3'_2  and  C2'_3 
REMARK    2  A    between atoms: C2'_3  and  C1'_4 
REMARK    3  A    between atoms: C1'_4  and  C1_5 
ROOT
ATOM      1  C1  N4B d   1       0.145  -0.355  -1.977  0.00  0.00    -0.075 A 
ATOM      2  C2  N4B d   1      -0.232  -1.440  -2.798  0.00  0.00     0.002 A 
ATOM      3  C3  N4B d   1       0.591  -1.846  -3.821  0.00  0.00     0.002 A 
ATOM      4  C4  N4B d   1       1.780  -1.171  -4.052  0.00  0.00    -0.004 A 
ATOM      5  C5  N4B d   1       2.149  -0.140  -3.239  0.00  0.00     0.002 A 
ATOM      6  C6  N4B d   1       1.334   0.275  -2.205  0.00  0.00     0.002 A 
ENDROOT
BRANCH   1   7
ATOM      7  C1' N4B d   1      -0.761   0.179  -0.901  0.00  0.00     0.057 C 
BRANCH   7   8
ATOM      8  C2' N4B d   1      -0.273  -0.319   0.456  0.00  0.00     0.009 C 
BRANCH   8   9
ATOM      9  C3' N4B d   1      -1.124  -1.463   0.981  0.00  0.00     0.004 C 
ATOM     10  C4' N4B d   1      -1.406  -1.351   2.449  0.00  0.00     0.003 C 
ENDBRANCH   8   9
ENDBRANCH   7   8
ENDBRANCH   1   7
TORSDOF 3
ENDMDL
