MODEL 1
REMARK minimizedAffinity -2.28026462
REMARK minimizedRMSD -1
REMARK  3 active torsions:
REMARK  status: ('A' for Active; 'I' for Inactive)
REMARK    1  A    between atoms: C3'_2  and  C2'_3 
REMARK    2  A    between atoms: C2'_3  and  C1'_4 
REMARK    3  A    between atoms: C1'_4  and  C1_5 
ROOT
ATOM      1  C1  N4B d   1       0.527   0.011   0.430  0.00  0.00    -0.075 A 
ATOM      2  C2  N4B d   1       1.007   0.659   1.590  0.00  0.00     0.002 A 
ATOM      3  C3  N4B d   1       0.401   0.435   2.802  0.00  0.00     0.002 A 
ATOM      4  C4  N4B d   1      -0.692  -0.415   2.875  0.00  0.00    -0.004 A 
ATOM      5  C5  N4B d   1      -1.133  -1.057   1.755  0.00  0.00     0.002 A 
ATOM      6  C6  N4B d   1      -0.532  -0.844   0.531  0.00  0.00     0.002 A 
ENDROOT
BRANCH   1   7
ATOM      7  C1' N4B d   1       1.102   0.291  -0.931  0.00  0.00     0.057 C 
BRANCH   7   8
ATOM      8  C2' N4B d   1       0.282  -0.449  -1.983  0.00  0.00     0.009 C 
BRANCH   8   9
ATOM      9  C3' N4B d   1       1.159  -1.051  -3.068  0.00  0.00     0.004 C 
ATOM     10  C4' N4B d   1       0.446  -2.088  -3.883  0.00  0.00     0.003 C 
ENDBRANCH   8   9
ENDBRANCH   7   8
ENDBRANCH   1   7
TORSDOF 3
ENDMDL
