MODEL 1
REMARK minimizedAffinity -3.36795211
REMARK minimizedRMSD -1
REMARK  3 active torsions:
REMARK  status: ('A' for Active; 'I' for Inactive)
REMARK    1  A    between atoms: C3'_2  and  C2'_3 
REMARK    2  A    between atoms: C2'_3  and  C1'_4 
REMARK    3  A    between atoms: C1'_4  and  C1_5 
ROOT
ATOM      1  C1  N4B d   1       0.129  -0.071  -0.381  0.00  0.00    -0.075 A 
ATOM      2  C2  N4B d   1       0.929   0.327   0.714  0.00  0.00     0.002 A 
ATOM      3  C3  N4B d   1       0.409   0.310   1.985  0.00  0.00     0.002 A 
ATOM      4  C4  N4B d   1      -0.906  -0.081   2.183  0.00  0.00    -0.004 A 
ATOM      5  C5  N4B d   1      -1.664  -0.488   1.124  0.00  0.00     0.002 A 
ATOM      6  C6  N4B d   1      -1.154  -0.480  -0.158  0.00  0.00     0.002 A 
ENDROOT
BRANCH   1   7
ATOM      7  C1' N4B d   1       0.626   0.012  -1.798  0.00  0.00     0.057 C 
BRANCH   7   8
ATOM      8  C2' N4B d   1       0.226  -1.258  -2.544  0.00  0.00     0.009 C 
BRANCH   8   9
ATOM      9  C3' N4B d   1       1.072  -1.477  -3.787  0.00  0.00     0.004 C 
ATOM     10  C4' N4B d   1       1.821  -2.776  -3.757  0.00  0.00     0.003 C 
ENDBRANCH   8   9
ENDBRANCH   7   8
ENDBRANCH   1   7
TORSDOF 3
ENDMDL
