MODEL 1
REMARK minimizedAffinity -3.06713963
REMARK minimizedRMSD -1
REMARK  3 active torsions:
REMARK  status: ('A' for Active; 'I' for Inactive)
REMARK    1  A    between atoms: C3'_2  and  C2'_3 
REMARK    2  A    between atoms: C2'_3  and  C1'_4 
REMARK    3  A    between atoms: C1'_4  and  C1_5 
ROOT
ATOM      1  C1  N4B d   1       0.017   0.077   0.416  0.00  0.00    -0.075 A 
ATOM      2  C2  N4B d   1      -1.302  -0.427   0.388  0.00  0.00     0.002 A 
ATOM      3  C3  N4B d   1      -1.917  -0.808   1.555  0.00  0.00     0.002 A 
ATOM      4  C4  N4B d   1      -1.230  -0.711   2.755  0.00  0.00    -0.004 A 
ATOM      5  C5  N4B d   1       0.035  -0.200   2.778  0.00  0.00     0.002 A 
ATOM      6  C6  N4B d   1       0.664   0.190   1.613  0.00  0.00     0.002 A 
ENDROOT
BRANCH   1   7
ATOM      7  C1' N4B d   1       0.761   0.425  -0.844  0.00  0.00     0.057 C 
BRANCH   7   8
ATOM      8  C2' N4B d   1       0.467  -0.629  -1.907  0.00  0.00     0.009 C 
BRANCH   8   9
ATOM      9  C3' N4B d   1       1.680  -0.912  -2.777  0.00  0.00     0.004 C 
ATOM     10  C4' N4B d   1       1.491  -2.104  -3.667  0.00  0.00     0.003 C 
ENDBRANCH   8   9
ENDBRANCH   7   8
ENDBRANCH   1   7
TORSDOF 3
ENDMDL
