MODEL 1
REMARK minimizedAffinity -1.57230794
REMARK minimizedRMSD -1
REMARK  0 active torsions:
REMARK  status: ('A' for Active; 'I' for Inactive)
ROOT
ATOM      1  O1  BZF d   1       1.293   4.041   0.192  0.00  0.00    -0.204 OA
ATOM      2  C2  BZF d   1       1.255   3.567   1.489  0.00  0.00     0.174 A 
ATOM      3  C3  BZF d   1       1.006   2.242   1.506  0.00  0.00    -0.012 A 
ATOM      4  C3A BZF d   1       0.973   1.847   0.132  0.00  0.00    -0.107 A 
ATOM      5  C4  BZF d   1       0.783   0.650  -0.497  0.00  0.00     0.055 A 
ATOM      6  C5  BZF d   1       0.737   0.617  -1.855  0.00  0.00    -0.016 A 
ATOM      7  C6  BZF d   1       0.871   1.761  -2.614  0.00  0.00     0.022 A 
ATOM      8  C7  BZF d   1       1.067   2.971  -2.036  0.00  0.00     0.029 A 
ATOM      9  C7A BZF d   1       1.147   3.002  -0.665  0.00  0.00     0.058 A 
ENDROOT
TORSDOF 0
ENDMDL
