MODEL 1
REMARK minimizedAffinity -0.19695206
REMARK minimizedRMSD -1
REMARK  0 active torsions:
REMARK  status: ('A' for Active; 'I' for Inactive)
ROOT
ATOM      1  O1  BZF d   1       1.153   2.990   1.819  0.00  0.00    -0.204 OA
ATOM      2  C2  BZF d   1       1.477   2.152   2.869  0.00  0.00     0.174 A 
ATOM      3  C3  BZF d   1       1.709   0.899   2.427  0.00  0.00    -0.012 A 
ATOM      4  C3A BZF d   1       1.609   0.978   1.002  0.00  0.00    -0.107 A 
ATOM      5  C4  BZF d   1       1.753   0.063  -0.002  0.00  0.00     0.055 A 
ATOM      6  C5  BZF d   1       1.518   0.447  -1.284  0.00  0.00    -0.016 A 
ATOM      7  C6  BZF d   1       1.131   1.733  -1.598  0.00  0.00     0.022 A 
ATOM      8  C7  BZF d   1       0.980   2.677  -0.637  0.00  0.00     0.029 A 
ATOM      9  C7A BZF d   1       1.249   2.301   0.656  0.00  0.00     0.058 A 
ENDROOT
TORSDOF 0
ENDMDL
