MODEL 1
REMARK minimizedAffinity 0.561360717
REMARK minimizedRMSD -1
REMARK  0 active torsions:
REMARK  status: ('A' for Active; 'I' for Inactive)
ROOT
ATOM      1  O1  BZF d   1       1.585   4.690   0.189  0.00  0.00    -0.204 OA
ATOM      2  C2  BZF d   1       1.751   5.539  -0.889  0.00  0.00     0.174 A 
ATOM      3  C3  BZF d   1       1.574   4.877  -2.051  0.00  0.00    -0.012 A 
ATOM      4  C3A BZF d   1       1.189   3.552  -1.674  0.00  0.00    -0.107 A 
ATOM      5  C4  BZF d   1       0.860   2.432  -2.384  0.00  0.00     0.055 A 
ATOM      6  C5  BZF d   1       0.604   1.278  -1.715  0.00  0.00    -0.016 A 
ATOM      7  C6  BZF d   1       0.672   1.205  -0.339  0.00  0.00     0.022 A 
ATOM      8  C7  BZF d   1       0.989   2.291   0.408  0.00  0.00     0.029 A 
ATOM      9  C7A BZF d   1       1.216   3.467  -0.263  0.00  0.00     0.058 A 
ENDROOT
TORSDOF 0
ENDMDL
