MODEL 1
REMARK minimizedAffinity -4.08350134
REMARK minimizedRMSD -1
REMARK  0 active torsions:
REMARK  status: ('A' for Active; 'I' for Inactive)
ROOT
ATOM      1  O1  BZF d   1       1.472   3.386   1.093  0.00  0.00    -0.204 OA
ATOM      2  C2  BZF d   1       1.752   4.398   0.196  0.00  0.00     0.174 A 
ATOM      3  C3  BZF d   1       1.806   3.920  -1.064  0.00  0.00    -0.012 A 
ATOM      4  C3A BZF d   1       1.453   2.538  -0.957  0.00  0.00    -0.107 A 
ATOM      5  C4  BZF d   1       1.315   1.531  -1.869  0.00  0.00     0.055 A 
ATOM      6  C5  BZF d   1       1.030   0.276  -1.430  0.00  0.00    -0.016 A 
ATOM      7  C6  BZF d   1       0.883  -0.007  -0.088  0.00  0.00     0.022 A 
ATOM      8  C7  BZF d   1       1.006   0.960   0.853  0.00  0.00     0.029 A 
ATOM      9  C7A BZF d   1       1.260   2.235   0.411  0.00  0.00     0.058 A 
ENDROOT
TORSDOF 0
ENDMDL
