MODEL 1
REMARK minimizedAffinity 4.73609257
REMARK minimizedRMSD -1
REMARK  0 active torsions:
REMARK  status: ('A' for Active; 'I' for Inactive)
ROOT
ATOM      1  O1  BZF d   1       2.260   4.904  -2.335  0.00  0.00    -0.204 OA
ATOM      2  C2  BZF d   1       2.474   6.000  -1.520  0.00  0.00     0.174 A 
ATOM      3  C3  BZF d   1       2.218   5.695  -0.232  0.00  0.00    -0.012 A 
ATOM      4  C3A BZF d   1       1.908   4.298  -0.230  0.00  0.00    -0.107 A 
ATOM      5  C4  BZF d   1       1.582   3.410   0.755  0.00  0.00     0.055 A 
ATOM      6  C5  BZF d   1       1.266   2.133   0.415  0.00  0.00    -0.016 A 
ATOM      7  C6  BZF d   1       1.261   1.711  -0.899  0.00  0.00     0.022 A 
ATOM      8  C7  BZF d   1       1.583   2.555  -1.910  0.00  0.00     0.029 A 
ATOM      9  C7A BZF d   1       1.934   3.837  -1.566  0.00  0.00     0.058 A 
ENDROOT
TORSDOF 0
ENDMDL
