MODEL 1
REMARK minimizedAffinity 1.37497306
REMARK minimizedRMSD -1
REMARK  0 active torsions:
REMARK  status: ('A' for Active; 'I' for Inactive)
ROOT
ATOM      1  O1  BZF d   1       1.328   4.275   1.012  0.00  0.00    -0.204 OA
ATOM      2  C2  BZF d   1       1.515   5.424   0.268  0.00  0.00     0.174 A 
ATOM      3  C3  BZF d   1       1.585   5.137  -1.047  0.00  0.00    -0.012 A 
ATOM      4  C3A BZF d   1       1.340   3.730  -1.139  0.00  0.00    -0.107 A 
ATOM      5  C4  BZF d   1       1.265   2.857  -2.186  0.00  0.00     0.055 A 
ATOM      6  C5  BZF d   1       1.084   1.534  -1.931  0.00  0.00    -0.016 A 
ATOM      7  C6  BZF d   1       0.980   1.051  -0.643  0.00  0.00     0.022 A 
ATOM      8  C7  BZF d   1       1.043   1.880   0.428  0.00  0.00     0.029 A 
ATOM      9  C7A BZF d   1       1.193   3.221   0.172  0.00  0.00     0.058 A 
ENDROOT
TORSDOF 0
ENDMDL
