MODEL 1
REMARK minimizedAffinity -2.50846744
REMARK minimizedRMSD -1
REMARK  0 active torsions:
REMARK  status: ('A' for Active; 'I' for Inactive)
ROOT
ATOM      1  O1  BZF d   1       0.958   3.559   1.075  0.00  0.00    -0.204 OA
ATOM      2  C2  BZF d   1       1.179   4.610   0.205  0.00  0.00     0.174 A 
ATOM      3  C3  BZF d   1       1.425   4.156  -1.041  0.00  0.00    -0.012 A 
ATOM      4  C3A BZF d   1       1.263   2.736  -0.963  0.00  0.00    -0.107 A 
ATOM      5  C4  BZF d   1       1.360   1.729  -1.879  0.00  0.00     0.055 A 
ATOM      6  C5  BZF d   1       1.214   0.443  -1.465  0.00  0.00    -0.016 A 
ATOM      7  C6  BZF d   1       0.976   0.128  -0.143  0.00  0.00     0.022 A 
ATOM      8  C7  BZF d   1       0.866   1.094   0.802  0.00  0.00     0.029 A 
ATOM      9  C7A BZF d   1       0.980   2.396   0.380  0.00  0.00     0.058 A 
ENDROOT
TORSDOF 0
ENDMDL
