MODEL 1
REMARK minimizedAffinity -0.433985084
REMARK minimizedRMSD -1
REMARK  0 active torsions:
REMARK  status: ('A' for Active; 'I' for Inactive)
ROOT
ATOM      1  O1  BZF d   1       0.951   2.019  -2.600  0.00  0.00    -0.204 OA
ATOM      2  C2  BZF d   1       1.028   0.720  -2.134  0.00  0.00     0.174 A 
ATOM      3  C3  BZF d   1       1.232   0.701  -0.801  0.00  0.00    -0.012 A 
ATOM      4  C3A BZF d   1       1.194   2.073  -0.395  0.00  0.00    -0.107 A 
ATOM      5  C4  BZF d   1       1.317   2.698   0.813  0.00  0.00     0.055 A 
ATOM      6  C5  BZF d   1       1.306   4.056   0.857  0.00  0.00    -0.016 A 
ATOM      7  C6  BZF d   1       1.179   4.819  -0.285  0.00  0.00     0.022 A 
ATOM      8  C7  BZF d   1       1.049   4.244  -1.505  0.00  0.00     0.029 A 
ATOM      9  C7A BZF d   1       1.026   2.872  -1.550  0.00  0.00     0.058 A 
ENDROOT
TORSDOF 0
ENDMDL
