MODEL 1
REMARK minimizedAffinity 0.318039119
REMARK minimizedRMSD -1
REMARK  0 active torsions:
REMARK  status: ('A' for Active; 'I' for Inactive)
ROOT
ATOM      1  O1  BZF d   1       1.526   3.874   1.060  0.00  0.00    -0.204 OA
ATOM      2  C2  BZF d   1       1.486   4.963   0.211  0.00  0.00     0.174 A 
ATOM      3  C3  BZF d   1       1.452   4.565  -1.077  0.00  0.00    -0.012 A 
ATOM      4  C3A BZF d   1       1.378   3.137  -1.028  0.00  0.00    -0.107 A 
ATOM      5  C4  BZF d   1       1.303   2.167  -1.986  0.00  0.00     0.055 A 
ATOM      6  C5  BZF d   1       1.320   0.862  -1.608  0.00  0.00    -0.016 A 
ATOM      7  C6  BZF d   1       1.415   0.492  -0.282  0.00  0.00     0.022 A 
ATOM      8  C7  BZF d   1       1.486   1.418   0.704  0.00  0.00     0.029 A 
ATOM      9  C7A BZF d   1       1.437   2.738   0.327  0.00  0.00     0.058 A 
ENDROOT
TORSDOF 0
ENDMDL
