MODEL 1
REMARK minimizedAffinity 6.60077047
REMARK minimizedRMSD -1
REMARK  0 active torsions:
REMARK  status: ('A' for Active; 'I' for Inactive)
ROOT
ATOM      1  O1  BZF d   1       0.381   2.509  -2.685  0.00  0.00    -0.204 OA
ATOM      2  C2  BZF d   1       0.753   3.689  -2.070  0.00  0.00     0.174 A 
ATOM      3  C3  BZF d   1       1.628   3.452  -1.072  0.00  0.00    -0.012 A 
ATOM      4  C3A BZF d   1       1.884   2.045  -1.121  0.00  0.00    -0.107 A 
ATOM      5  C4  BZF d   1       2.682   1.210  -0.393  0.00  0.00     0.055 A 
ATOM      6  C5  BZF d   1       2.649  -0.125  -0.648  0.00  0.00    -0.016 A 
ATOM      7  C6  BZF d   1       1.827  -0.657  -1.620  0.00  0.00     0.022 A 
ATOM      8  C7  BZF d   1       1.022   0.132  -2.372  0.00  0.00     0.029 A 
ATOM      9  C7A BZF d   1       1.078   1.484  -2.138  0.00  0.00     0.058 A 
ENDROOT
TORSDOF 0
ENDMDL
