MODEL 1
REMARK minimizedAffinity -3.22749734
REMARK minimizedRMSD -1
REMARK  0 active torsions:
REMARK  status: ('A' for Active; 'I' for Inactive)
ROOT
ATOM      1  O1  BZF d   1       1.384   1.406  -2.202  0.00  0.00    -0.204 OA
ATOM      2  C2  BZF d   1       1.089   0.103  -1.852  0.00  0.00     0.174 A 
ATOM      3  C3  BZF d   1       0.713   0.028  -0.559  0.00  0.00    -0.012 A 
ATOM      4  C3A BZF d   1       0.689   1.382  -0.095  0.00  0.00    -0.107 A 
ATOM      5  C4  BZF d   1       0.377   1.958   1.103  0.00  0.00     0.055 A 
ATOM      6  C5  BZF d   1       0.526   3.301   1.248  0.00  0.00    -0.016 A 
ATOM      7  C6  BZF d   1       0.988   4.096   0.219  0.00  0.00     0.022 A 
ATOM      8  C7  BZF d   1       1.305   3.570  -0.989  0.00  0.00     0.029 A 
ATOM      9  C7A BZF d   1       1.124   2.218  -1.149  0.00  0.00     0.058 A 
ENDROOT
TORSDOF 0
ENDMDL
