MODEL 1
REMARK minimizedAffinity -3.13024282
REMARK minimizedRMSD -1
REMARK  0 active torsions:
REMARK  status: ('A' for Active; 'I' for Inactive)
ROOT
ATOM      1  O1  BZF d   1       1.524   2.510  -2.515  0.00  0.00    -0.204 OA
ATOM      2  C2  BZF d   1       1.433   1.172  -2.181  0.00  0.00     0.174 A 
ATOM      3  C3  BZF d   1       1.498   1.008  -0.844  0.00  0.00    -0.012 A 
ATOM      4  C3A BZF d   1       1.546   2.331  -0.303  0.00  0.00    -0.107 A 
ATOM      5  C4  BZF d   1       1.603   2.825   0.969  0.00  0.00     0.055 A 
ATOM      6  C5  BZF d   1       1.713   4.167   1.153  0.00  0.00    -0.016 A 
ATOM      7  C6  BZF d   1       1.774   5.043   0.089  0.00  0.00     0.022 A 
ATOM      8  C7  BZF d   1       1.715   4.601  -1.191  0.00  0.00     0.029 A 
ATOM      9  C7A BZF d   1       1.571   3.248  -1.380  0.00  0.00     0.058 A 
ENDROOT
TORSDOF 0
ENDMDL
