MODEL 1
REMARK minimizedAffinity 2.0846765
REMARK minimizedRMSD -1
REMARK  0 active torsions:
REMARK  status: ('A' for Active; 'I' for Inactive)
ROOT
ATOM      1  O1  BZF d   1       1.980   2.465   1.304  0.00  0.00    -0.204 OA
ATOM      2  C2  BZF d   1       2.878   1.653   1.970  0.00  0.00     0.174 A 
ATOM      3  C3  BZF d   1       3.097   0.515   1.279  0.00  0.00    -0.012 A 
ATOM      4  C3A BZF d   1       2.356   0.664   0.064  0.00  0.00    -0.107 A 
ATOM      5  C4  BZF d   1       2.188  -0.128  -1.036  0.00  0.00     0.055 A 
ATOM      6  C5  BZF d   1       1.341   0.278  -2.018  0.00  0.00    -0.016 A 
ATOM      7  C6  BZF d   1       0.642   1.464  -1.930  0.00  0.00     0.022 A 
ATOM      8  C7  BZF d   1       0.779   2.284  -0.861  0.00  0.00     0.029 A 
ATOM      9  C7A BZF d   1       1.660   1.894   0.118  0.00  0.00     0.058 A 
ENDROOT
TORSDOF 0
ENDMDL
