MODEL 1
REMARK minimizedAffinity -0.418775946
REMARK minimizedRMSD -1
REMARK  0 active torsions:
REMARK  status: ('A' for Active; 'I' for Inactive)
ROOT
ATOM      1  O1  BZF d   1       0.747  -1.982   0.251  0.00  0.00    -0.204 OA
ATOM      2  C2  BZF d   1       0.327  -2.861  -0.729  0.00  0.00     0.174 A 
ATOM      3  C3  BZF d   1       0.337  -2.267  -1.940  0.00  0.00    -0.012 A 
ATOM      4  C3A BZF d   1       0.879  -0.962  -1.715  0.00  0.00    -0.107 A 
ATOM      5  C4  BZF d   1       1.154   0.094  -2.536  0.00  0.00     0.055 A 
ATOM      6  C5  BZF d   1       1.611   1.252  -1.991  0.00  0.00    -0.016 A 
ATOM      7  C6  BZF d   1       1.800   1.390  -0.631  0.00  0.00     0.022 A 
ATOM      8  C7  BZF d   1       1.546   0.368   0.222  0.00  0.00     0.029 A 
ATOM      9  C7A BZF d   1       1.115  -0.814  -0.329  0.00  0.00     0.058 A 
ENDROOT
TORSDOF 0
ENDMDL
