MODEL 1
REMARK minimizedAffinity 6.03509617
REMARK minimizedRMSD -1
REMARK  0 active torsions:
REMARK  status: ('A' for Active; 'I' for Inactive)
ROOT
ATOM      1  O1  BZF d   1       1.448   3.935   1.138  0.00  0.00    -0.204 OA
ATOM      2  C2  BZF d   1       1.448   5.086   0.372  0.00  0.00     0.174 A 
ATOM      3  C3  BZF d   1       1.528   4.787  -0.940  0.00  0.00    -0.012 A 
ATOM      4  C3A BZF d   1       1.488   3.358  -1.004  0.00  0.00    -0.107 A 
ATOM      5  C4  BZF d   1       1.515   2.463  -2.035  0.00  0.00     0.055 A 
ATOM      6  C5  BZF d   1       1.534   1.133  -1.755  0.00  0.00    -0.016 A 
ATOM      7  C6  BZF d   1       1.532   0.664  -0.458  0.00  0.00     0.022 A 
ATOM      8  C7  BZF d   1       1.500   1.513   0.598  0.00  0.00     0.029 A 
ATOM      9  C7A BZF d   1       1.447   2.857   0.318  0.00  0.00     0.058 A 
ENDROOT
TORSDOF 0
ENDMDL
