MODEL 1
REMARK minimizedAffinity 2.70946431
REMARK minimizedRMSD -1
REMARK  0 active torsions:
REMARK  status: ('A' for Active; 'I' for Inactive)
ROOT
ATOM      1  O1  BZF d   1       2.249   1.364   1.007  0.00  0.00    -0.204 OA
ATOM      2  C2  BZF d   1       1.938   2.141   2.107  0.00  0.00     0.174 A 
ATOM      3  C3  BZF d   1       1.556   3.377   1.727  0.00  0.00    -0.012 A 
ATOM      4  C3A BZF d   1       1.544   3.345   0.297  0.00  0.00    -0.107 A 
ATOM      5  C4  BZF d   1       1.234   4.267  -0.661  0.00  0.00     0.055 A 
ATOM      6  C5  BZF d   1       1.396   3.941  -1.970  0.00  0.00    -0.016 A 
ATOM      7  C6  BZF d   1       1.872   2.705  -2.357  0.00  0.00     0.022 A 
ATOM      8  C7  BZF d   1       2.188   1.755  -1.443  0.00  0.00     0.029 A 
ATOM      9  C7A BZF d   1       1.994   2.071  -0.121  0.00  0.00     0.058 A 
ENDROOT
TORSDOF 0
ENDMDL
