MODEL 1
REMARK minimizedAffinity 5.35085249
REMARK minimizedRMSD -1
REMARK  0 active torsions:
REMARK  status: ('A' for Active; 'I' for Inactive)
ROOT
ATOM      1  O1  BZF d   1       1.289   3.603  -2.477  0.00  0.00    -0.204 OA
ATOM      2  C2  BZF d   1       1.806   4.442  -1.509  0.00  0.00     0.174 A 
ATOM      3  C3  BZF d   1       2.155   3.746  -0.409  0.00  0.00    -0.012 A 
ATOM      4  C3A BZF d   1       1.923   2.374  -0.742  0.00  0.00    -0.107 A 
ATOM      5  C4  BZF d   1       2.095   1.201  -0.065  0.00  0.00     0.055 A 
ATOM      6  C5  BZF d   1       1.702   0.038  -0.648  0.00  0.00    -0.016 A 
ATOM      7  C6  BZF d   1       1.131   0.011  -1.903  0.00  0.00     0.022 A 
ATOM      8  C7  BZF d   1       0.945   1.149  -2.616  0.00  0.00     0.029 A 
ATOM      9  C7A BZF d   1       1.371   2.322  -2.043  0.00  0.00     0.058 A 
ENDROOT
TORSDOF 0
ENDMDL
