MODEL 1
REMARK minimizedAffinity -4.20845413
REMARK minimizedRMSD -1
REMARK  0 active torsions:
REMARK  status: ('A' for Active; 'I' for Inactive)
ROOT
ATOM      1  O1  BZF d   1       1.980   2.372  -2.315  0.00  0.00    -0.204 OA
ATOM      2  C2  BZF d   1       1.894   1.012  -2.088  0.00  0.00     0.174 A 
ATOM      3  C3  BZF d   1       1.495   0.762  -0.824  0.00  0.00    -0.012 A 
ATOM      4  C3A BZF d   1       1.232   2.046  -0.252  0.00  0.00    -0.107 A 
ATOM      5  C4  BZF d   1       0.790   2.455   0.974  0.00  0.00     0.055 A 
ATOM      6  C5  BZF d   1       0.709   3.786   1.237  0.00  0.00    -0.016 A 
ATOM      7  C6  BZF d   1       1.066   4.734   0.300  0.00  0.00     0.022 A 
ATOM      8  C7  BZF d   1       1.505   4.377  -0.932  0.00  0.00     0.029 A 
ATOM      9  C7A BZF d   1       1.556   3.033  -1.211  0.00  0.00     0.058 A 
ENDROOT
TORSDOF 0
ENDMDL
