MODEL 1
REMARK minimizedAffinity 8.90099716
REMARK minimizedRMSD -1
REMARK  0 active torsions:
REMARK  status: ('A' for Active; 'I' for Inactive)
ROOT
ATOM      1  O1  BZF d   1       1.861   5.999   1.349  0.00  0.00    -0.204 OA
ATOM      2  C2  BZF d   1       1.570   5.013   2.272  0.00  0.00     0.174 A 
ATOM      3  C3  BZF d   1       1.433   3.816   1.666  0.00  0.00    -0.012 A 
ATOM      4  C3A BZF d   1       1.743   4.054   0.290  0.00  0.00    -0.107 A 
ATOM      5  C4  BZF d   1       1.798   3.249  -0.813  0.00  0.00     0.055 A 
ATOM      6  C5  BZF d   1       2.060   3.806  -2.024  0.00  0.00    -0.016 A 
ATOM      7  C6  BZF d   1       2.268   5.162  -2.170  0.00  0.00     0.022 A 
ATOM      8  C7  BZF d   1       2.229   5.999  -1.105  0.00  0.00     0.029 A 
ATOM      9  C7A BZF d   1       1.996   5.435   0.125  0.00  0.00     0.058 A 
ENDROOT
TORSDOF 0
ENDMDL
