MODEL 1
REMARK minimizedAffinity -4.4366374
REMARK minimizedRMSD -1
REMARK  0 active torsions:
REMARK  status: ('A' for Active; 'I' for Inactive)
ROOT
ATOM      1  C   UNL d   1       1.150  -2.965   1.326  0.00  0.00    -0.002 A 
ATOM      2  C1  UNL d   1       1.520  -2.430   0.101  0.00  0.00     0.010 A 
ATOM      3  C2  UNL d   1       0.892  -1.285  -0.392  0.00  0.00     0.041 A 
ATOM      4  C3  UNL d   1      -0.123  -0.680   0.375  0.00  0.00    -0.075 A 
ATOM      5  S   UNL d   1      -1.031   0.729  -0.028  0.00  0.00     0.015 SA
ATOM      6  C4  UNL d   1      -1.931   0.654   1.418  0.00  0.00     0.022 A 
ATOM      7  C5  UNL d   1      -1.561  -0.414   2.200  0.00  0.00     0.026 A 
ATOM      8  C6  UNL d   1      -0.512  -1.200   1.612  0.00  0.00    -0.082 A 
ATOM      9  C7  UNL d   1       0.143  -2.363   2.085  0.00  0.00     0.045 A 
ENDROOT
TORSDOF 0
ENDMDL
