MODEL 1
REMARK minimizedAffinity -3.835953
REMARK minimizedRMSD -1
REMARK  0 active torsions:
REMARK  status: ('A' for Active; 'I' for Inactive)
ROOT
ATOM      1  C   UNL d   1       0.910  -2.936   2.129  0.00  0.00    -0.002 A 
ATOM      2  C1  UNL d   1      -0.346  -2.445   2.458  0.00  0.00     0.010 A 
ATOM      3  C2  UNL d   1      -0.884  -1.354   1.774  0.00  0.00     0.041 A 
ATOM      4  C3  UNL d   1      -0.132  -0.758   0.742  0.00  0.00    -0.075 A 
ATOM      5  S   UNL d   1      -0.589   0.588  -0.233  0.00  0.00     0.015 SA
ATOM      6  C4  UNL d   1       0.871   0.543  -1.111  0.00  0.00     0.022 A 
ATOM      7  C5  UNL d   1       1.699  -0.468  -0.683  0.00  0.00     0.026 A 
ATOM      8  C6  UNL d   1       1.134  -1.235   0.391  0.00  0.00    -0.082 A 
ATOM      9  C7  UNL d   1       1.653  -2.343   1.104  0.00  0.00     0.045 A 
ENDROOT
TORSDOF 0
ENDMDL
