MODEL 1
REMARK minimizedAffinity -0.330978602
REMARK minimizedRMSD -1
REMARK  0 active torsions:
REMARK  status: ('A' for Active; 'I' for Inactive)
ROOT
ATOM      1  C   UNL d   1      -1.645   1.285  -3.970  0.00  0.00    -0.002 A 
ATOM      2  C1  UNL d   1      -2.827   1.397  -3.252  0.00  0.00     0.010 A 
ATOM      3  C2  UNL d   1      -2.858   1.110  -1.886  0.00  0.00     0.041 A 
ATOM      4  C3  UNL d   1      -1.669   0.708  -1.247  0.00  0.00    -0.075 A 
ATOM      5  S   UNL d   1      -1.468   0.306   0.418  0.00  0.00     0.015 SA
ATOM      6  C4  UNL d   1       0.192  -0.022   0.216  0.00  0.00     0.022 A 
ATOM      7  C5  UNL d   1       0.600   0.165  -1.084  0.00  0.00     0.026 A 
ATOM      8  C6  UNL d   1      -0.466   0.589  -1.948  0.00  0.00    -0.082 A 
ATOM      9  C7  UNL d   1      -0.467   0.886  -3.332  0.00  0.00     0.045 A 
ENDROOT
TORSDOF 0
ENDMDL
