MODEL 1
REMARK minimizedAffinity -2.3486414
REMARK minimizedRMSD -1
REMARK  0 active torsions:
REMARK  status: ('A' for Active; 'I' for Inactive)
ROOT
ATOM      1  C   UNL d   1       2.166  -1.903   0.286  0.00  0.00    -0.002 A 
ATOM      2  C1  UNL d   1       1.217  -2.283   1.224  0.00  0.00     0.010 A 
ATOM      3  C2  UNL d   1       0.055  -1.529   1.404  0.00  0.00     0.041 A 
ATOM      4  C3  UNL d   1      -0.139  -0.377   0.617  0.00  0.00    -0.075 A 
ATOM      5  S   UNL d   1      -1.485   0.699   0.663  0.00  0.00     0.015 SA
ATOM      6  C4  UNL d   1      -0.831   1.688  -0.562  0.00  0.00     0.022 A 
ATOM      7  C5  UNL d   1       0.384   1.223  -1.007  0.00  0.00     0.026 A 
ATOM      8  C6  UNL d   1       0.803   0.025  -0.335  0.00  0.00    -0.082 A 
ATOM      9  C7  UNL d   1       1.970  -0.760  -0.493  0.00  0.00     0.045 A 
ENDROOT
TORSDOF 0
ENDMDL
