MODEL 1
REMARK minimizedAffinity -4.32253122
REMARK minimizedRMSD -1
REMARK  0 active torsions:
REMARK  status: ('A' for Active; 'I' for Inactive)
ROOT
ATOM      1  C   UNL d   1       0.181  -2.508   2.228  0.00  0.00    -0.002 A 
ATOM      2  C1  UNL d   1       1.460  -2.692   1.720  0.00  0.00     0.010 A 
ATOM      3  C2  UNL d   1       1.944  -1.870   0.701  0.00  0.00     0.041 A 
ATOM      4  C3  UNL d   1       1.115  -0.848   0.198  0.00  0.00    -0.075 A 
ATOM      5  S   UNL d   1       1.497   0.281  -1.048  0.00  0.00     0.015 SA
ATOM      6  C4  UNL d   1      -0.028   1.035  -0.934  0.00  0.00     0.022 A 
ATOM      7  C5  UNL d   1      -0.821   0.452   0.025  0.00  0.00     0.026 A 
ATOM      8  C6  UNL d   1      -0.175  -0.642   0.694  0.00  0.00    -0.082 A 
ATOM      9  C7  UNL d   1      -0.638  -1.494   1.726  0.00  0.00     0.045 A 
ENDROOT
TORSDOF 0
ENDMDL
