MODEL 1
REMARK minimizedAffinity -1.69420755
REMARK minimizedRMSD -1
REMARK  0 active torsions:
REMARK  status: ('A' for Active; 'I' for Inactive)
ROOT
ATOM      1  C   UNL d   1       0.172  -2.735   2.179  0.00  0.00    -0.002 A 
ATOM      2  C1  UNL d   1       1.502  -2.782   1.787  0.00  0.00     0.010 A 
ATOM      3  C2  UNL d   1       2.020  -1.823   0.915  0.00  0.00     0.041 A 
ATOM      4  C3  UNL d   1       1.171  -0.804   0.440  0.00  0.00    -0.075 A 
ATOM      5  S   UNL d   1       1.586   0.479  -0.635  0.00  0.00     0.015 SA
ATOM      6  C4  UNL d   1       0.007   1.120  -0.598  0.00  0.00     0.022 A 
ATOM      7  C5  UNL d   1      -0.829   0.386   0.210  0.00  0.00     0.026 A 
ATOM      8  C6  UNL d   1      -0.172  -0.734   0.822  0.00  0.00    -0.082 A 
ATOM      9  C7  UNL d   1      -0.667  -1.722   1.706  0.00  0.00     0.045 A 
ENDROOT
TORSDOF 0
ENDMDL
