MODEL 1
REMARK minimizedAffinity -3.53559637
REMARK minimizedRMSD -1
REMARK  0 active torsions:
REMARK  status: ('A' for Active; 'I' for Inactive)
ROOT
ATOM      1  C   UNL d   1       1.463  -2.430   1.487  0.00  0.00    -0.002 A 
ATOM      2  C1  UNL d   1       0.599  -2.554   2.566  0.00  0.00     0.010 A 
ATOM      3  C2  UNL d   1      -0.496  -1.699   2.700  0.00  0.00     0.041 A 
ATOM      4  C3  UNL d   1      -0.712  -0.709   1.721  0.00  0.00    -0.075 A 
ATOM      5  S   UNL d   1      -1.989   0.449   1.678  0.00  0.00     0.015 SA
ATOM      6  C4  UNL d   1      -1.418   1.135   0.226  0.00  0.00     0.022 A 
ATOM      7  C5  UNL d   1      -0.281   0.508  -0.229  0.00  0.00     0.026 A 
ATOM      8  C6  UNL d   1       0.144  -0.565   0.625  0.00  0.00    -0.082 A 
ATOM      9  C7  UNL d   1       1.246  -1.446   0.518  0.00  0.00     0.045 A 
ENDROOT
TORSDOF 0
ENDMDL
