MODEL 1
REMARK minimizedAffinity -4.64918709
REMARK minimizedRMSD -1
REMARK  0 active torsions:
REMARK  status: ('A' for Active; 'I' for Inactive)
ROOT
ATOM      1  C   UNL d   1       0.223  -3.189   2.621  0.00  0.00    -0.002 A 
ATOM      2  C1  UNL d   1      -0.704  -2.173   2.803  0.00  0.00     0.010 A 
ATOM      3  C2  UNL d   1      -0.745  -1.084   1.931  0.00  0.00     0.041 A 
ATOM      4  C3  UNL d   1       0.170  -1.032   0.861  0.00  0.00    -0.075 A 
ATOM      5  S   UNL d   1       0.305   0.204  -0.333  0.00  0.00     0.015 SA
ATOM      6  C4  UNL d   1       1.597  -0.588  -1.114  0.00  0.00     0.022 A 
ATOM      7  C5  UNL d   1       1.930  -1.768  -0.492  0.00  0.00     0.026 A 
ATOM      8  C6  UNL d   1       1.113  -2.044   0.656  0.00  0.00    -0.082 A 
ATOM      9  C7  UNL d   1       1.130  -3.135   1.558  0.00  0.00     0.045 A 
ENDROOT
TORSDOF 0
ENDMDL
