MODEL 1
REMARK minimizedAffinity -4.91704226
REMARK minimizedRMSD -1
REMARK  0 active torsions:
REMARK  status: ('A' for Active; 'I' for Inactive)
ROOT
ATOM      1  C   UNL d   1       1.034  -3.128   1.678  0.00  0.00    -0.002 A 
ATOM      2  C1  UNL d   1      -0.124  -2.703   2.314  0.00  0.00     0.010 A 
ATOM      3  C2  UNL d   1      -0.714  -1.484   1.976  0.00  0.00     0.041 A 
ATOM      4  C3  UNL d   1      -0.116  -0.692   0.976  0.00  0.00    -0.075 A 
ATOM      5  S   UNL d   1      -0.663   0.837   0.396  0.00  0.00     0.015 SA
ATOM      6  C4  UNL d   1       0.627   0.963  -0.710  0.00  0.00     0.022 A 
ATOM      7  C5  UNL d   1       1.464  -0.126  -0.652  0.00  0.00     0.026 A 
ATOM      8  C6  UNL d   1       1.049  -1.098   0.320  0.00  0.00    -0.082 A 
ATOM      9  C7  UNL d   1       1.624  -2.339   0.686  0.00  0.00     0.045 A 
ENDROOT
TORSDOF 0
ENDMDL
