MODEL 1
REMARK minimizedAffinity -4.38798809
REMARK minimizedRMSD -1
REMARK  0 active torsions:
REMARK  status: ('A' for Active; 'I' for Inactive)
ROOT
ATOM      1  C   UNL d   1       1.543  -3.151   1.379  0.00  0.00    -0.002 A 
ATOM      2  C1  UNL d   1       0.616  -3.075   2.409  0.00  0.00     0.010 A 
ATOM      3  C2  UNL d   1      -0.288  -2.014   2.474  0.00  0.00     0.041 A 
ATOM      4  C3  UNL d   1      -0.246  -1.021   1.475  0.00  0.00    -0.075 A 
ATOM      5  S   UNL d   1      -1.257   0.370   1.349  0.00  0.00     0.015 SA
ATOM      6  C4  UNL d   1      -0.483   0.896  -0.075  0.00  0.00     0.022 A 
ATOM      7  C5  UNL d   1       0.525   0.043  -0.459  0.00  0.00     0.026 A 
ATOM      8  C6  UNL d   1       0.677  -1.076   0.427  0.00  0.00    -0.082 A 
ATOM      9  C7  UNL d   1       1.582  -2.164   0.390  0.00  0.00     0.045 A 
ENDROOT
TORSDOF 0
ENDMDL
