MODEL 1
REMARK minimizedAffinity -3.2989819
REMARK minimizedRMSD -1
REMARK  0 active torsions:
REMARK  status: ('A' for Active; 'I' for Inactive)
ROOT
ATOM      1  C   UNL d   1       2.106  -2.366   1.509  0.00  0.00    -0.002 A 
ATOM      2  C1  UNL d   1       1.113  -2.504   2.469  0.00  0.00     0.010 A 
ATOM      3  C2  UNL d   1      -0.045  -1.727   2.409  0.00  0.00     0.041 A 
ATOM      4  C3  UNL d   1      -0.191  -0.801   1.358  0.00  0.00    -0.075 A 
ATOM      5  S   UNL d   1      -1.524   0.257   1.082  0.00  0.00     0.015 SA
ATOM      6  C4  UNL d   1      -0.807   0.916  -0.317  0.00  0.00     0.022 A 
ATOM      7  C5  UNL d   1       0.419   0.355  -0.582  0.00  0.00     0.026 A 
ATOM      8  C6  UNL d   1       0.795  -0.645   0.379  0.00  0.00    -0.082 A 
ATOM      9  C7  UNL d   1       1.958  -1.447   0.467  0.00  0.00     0.045 A 
ENDROOT
TORSDOF 0
ENDMDL
