MODEL 1
REMARK minimizedAffinity 2.53195786
REMARK minimizedRMSD -1
REMARK  0 active torsions:
REMARK  status: ('A' for Active; 'I' for Inactive)
ROOT
ATOM      1  C4' PXY d   1      -4.510   3.105  -3.767  0.00  0.00     0.077 C 
ATOM      2  C1' PXY d   1      -4.782  -2.577  -2.738  0.00  0.00     0.077 C 
ATOM      3  C1  PXY d   1      -4.713  -1.084  -2.996  0.00  0.00    -0.082 A 
ATOM      4  C2  PXY d   1      -4.967  -0.617  -4.207  0.00  0.00     0.003 A 
ATOM      5  C3  PXY d   1      -4.877   0.727  -4.465  0.00  0.00     0.003 A 
ATOM      6  C4  PXY d   1      -4.577   1.607  -3.460  0.00  0.00    -0.082 A 
ATOM      7  C5  PXY d   1      -4.328   1.139  -2.218  0.00  0.00     0.003 A 
ATOM      8  C6  PXY d   1      -4.383  -0.233  -1.987  0.00  0.00     0.003 A 
ENDROOT
TORSDOF 0
ENDMDL
