MODEL 1
REMARK minimizedAffinity 9.86817169
REMARK minimizedRMSD -1
REMARK  0 active torsions:
REMARK  status: ('A' for Active; 'I' for Inactive)
ROOT
ATOM      1  C4' PXY d   1      -3.812  -0.506  -2.395  0.00  0.00     0.077 C 
ATOM      2  C1' PXY d   1      -4.714   4.803  -4.496  0.00  0.00     0.077 C 
ATOM      3  C1  PXY d   1      -4.488   3.406  -3.952  0.00  0.00    -0.082 A 
ATOM      4  C2  PXY d   1      -3.824   3.245  -2.818  0.00  0.00     0.003 A 
ATOM      5  C3  PXY d   1      -3.583   1.988  -2.328  0.00  0.00     0.003 A 
ATOM      6  C4  PXY d   1      -4.072   0.886  -2.977  0.00  0.00    -0.082 A 
ATOM      7  C5  PXY d   1      -4.760   1.042  -4.128  0.00  0.00     0.003 A 
ATOM      8  C6  PXY d   1      -4.958   2.325  -4.631  0.00  0.00     0.003 A 
ENDROOT
TORSDOF 0
ENDMDL
