MODEL 1
REMARK minimizedAffinity 8.94259357
REMARK minimizedRMSD -1
REMARK  0 active torsions:
REMARK  status: ('A' for Active; 'I' for Inactive)
ROOT
ATOM      1  C4' PXY d   1      -0.616  -1.311  -1.812  0.00  0.00     0.077 C 
ATOM      2  C1' PXY d   1      -5.999  -1.986  -3.807  0.00  0.00     0.077 C 
ATOM      3  C1  PXY d   1      -4.592  -1.801  -3.275  0.00  0.00    -0.082 A 
ATOM      4  C2  PXY d   1      -3.557  -2.036  -4.065  0.00  0.00     0.003 A 
ATOM      5  C3  PXY d   1      -2.277  -1.904  -3.591  0.00  0.00     0.003 A 
ATOM      6  C4  PXY d   1      -2.054  -1.476  -2.310  0.00  0.00    -0.082 A 
ATOM      7  C5  PXY d   1      -3.105  -1.224  -1.500  0.00  0.00     0.003 A 
ATOM      8  C6  PXY d   1      -4.396  -1.403  -1.988  0.00  0.00     0.003 A 
ENDROOT
TORSDOF 0
ENDMDL
