MODEL 1
REMARK minimizedAffinity 6.94178295
REMARK minimizedRMSD -1
REMARK  0 active torsions:
REMARK  status: ('A' for Active; 'I' for Inactive)
ROOT
ATOM      1  C4' PXY d   1       0.713   5.999   6.000  0.00  0.00     0.077 C 
ATOM      2  C1' PXY d   1       1.792   1.418   2.643  0.00  0.00     0.077 C 
ATOM      3  C1  PXY d   1       1.517   2.615   3.533  0.00  0.00    -0.082 A 
ATOM      4  C2  PXY d   1       0.389   3.291   3.389  0.00  0.00     0.003 A 
ATOM      5  C3  PXY d   1       0.139   4.395   4.163  0.00  0.00     0.003 A 
ATOM      6  C4  PXY d   1       1.029   4.779   5.131  0.00  0.00    -0.082 A 
ATOM      7  C5  PXY d   1       2.177   4.088   5.290  0.00  0.00     0.003 A 
ATOM      8  C6  PXY d   1       2.431   2.995   4.467  0.00  0.00     0.003 A 
ENDROOT
TORSDOF 0
ENDMDL
