MODEL 1
REMARK minimizedAffinity 1.83797824
REMARK minimizedRMSD -1
REMARK  0 active torsions:
REMARK  status: ('A' for Active; 'I' for Inactive)
ROOT
ATOM      1  C4' PXY d   1      -0.527  -1.278   3.233  0.00  0.00     0.077 C 
ATOM      2  C1' PXY d   1       4.184  -4.441   2.134  0.00  0.00     0.077 C 
ATOM      3  C1  PXY d   1       2.951  -3.612   2.435  0.00  0.00    -0.082 A 
ATOM      4  C2  PXY d   1       1.951  -3.590   1.569  0.00  0.00     0.003 A 
ATOM      5  C3  PXY d   1       0.842  -2.820   1.811  0.00  0.00     0.003 A 
ATOM      6  C4  PXY d   1       0.733  -2.108   2.975  0.00  0.00    -0.082 A 
ATOM      7  C5  PXY d   1       1.745  -2.135   3.869  0.00  0.00     0.003 A 
ATOM      8  C6  PXY d   1       2.879  -2.890   3.586  0.00  0.00     0.003 A 
ENDROOT
TORSDOF 0
ENDMDL
