MODEL 1
REMARK minimizedAffinity 1.81173992
REMARK minimizedRMSD -1
REMARK  0 active torsions:
REMARK  status: ('A' for Active; 'I' for Inactive)
ROOT
ATOM      1  C4' PXY d   1       0.955  -2.428   3.085  0.00  0.00     0.077 C 
ATOM      2  C1' PXY d   1      -3.893   0.716   3.244  0.00  0.00     0.077 C 
ATOM      3  C1  PXY d   1      -2.615  -0.098   3.206  0.00  0.00    -0.082 A 
ATOM      4  C2  PXY d   1      -2.549  -1.177   2.443  0.00  0.00     0.003 A 
ATOM      5  C3  PXY d   1      -1.412  -1.942   2.421  0.00  0.00     0.003 A 
ATOM      6  C4  PXY d   1      -0.312  -1.571   3.147  0.00  0.00    -0.082 A 
ATOM      7  C5  PXY d   1      -0.368  -0.466   3.921  0.00  0.00     0.003 A 
ATOM      8  C6  PXY d   1      -1.546   0.275   3.961  0.00  0.00     0.003 A 
ENDROOT
TORSDOF 0
ENDMDL
