MODEL 1
REMARK minimizedAffinity 3.62711668
REMARK minimizedRMSD -1
REMARK  0 active torsions:
REMARK  status: ('A' for Active; 'I' for Inactive)
ROOT
ATOM      1  C4' PXY d   1       4.215  -4.130   0.675  0.00  0.00     0.077 C 
ATOM      2  C1' PXY d   1      -0.814  -2.706   3.145  0.00  0.00     0.077 C 
ATOM      3  C1  PXY d   1       0.507  -3.089   2.506  0.00  0.00    -0.082 A 
ATOM      4  C2  PXY d   1       1.155  -2.205   1.765  0.00  0.00     0.003 A 
ATOM      5  C3  PXY d   1       2.335  -2.545   1.154  0.00  0.00     0.003 A 
ATOM      6  C4  PXY d   1       2.883  -3.784   1.347  0.00  0.00    -0.082 A 
ATOM      7  C5  PXY d   1       2.233  -4.688   2.111  0.00  0.00     0.003 A 
ATOM      8  C6  PXY d   1       1.017  -4.337   2.688  0.00  0.00     0.003 A 
ENDROOT
TORSDOF 0
ENDMDL
