MODEL 1
REMARK minimizedAffinity 14.4406929
REMARK minimizedRMSD -1
REMARK  0 active torsions:
REMARK  status: ('A' for Active; 'I' for Inactive)
ROOT
ATOM      1  C4' PXY d   1       1.152  -1.737   0.840  0.00  0.00     0.077 C 
ATOM      2  C1' PXY d   1       1.630   2.953   4.186  0.00  0.00     0.077 C 
ATOM      3  C1  PXY d   1       1.503   1.731   3.298  0.00  0.00    -0.082 A 
ATOM      4  C2  PXY d   1       1.141   0.573   3.827  0.00  0.00     0.003 A 
ATOM      5  C3  PXY d   1       1.052  -0.549   3.044  0.00  0.00     0.003 A 
ATOM      6  C4  PXY d   1       1.284  -0.475   1.697  0.00  0.00    -0.082 A 
ATOM      7  C5  PXY d   1       1.643   0.705   1.148  0.00  0.00     0.003 A 
ATOM      8  C6  PXY d   1       1.768   1.824   1.967  0.00  0.00     0.003 A 
ENDROOT
TORSDOF 0
ENDMDL
