MODEL 1
REMARK minimizedAffinity 4.70145082
REMARK minimizedRMSD -1
REMARK  0 active torsions:
REMARK  status: ('A' for Active; 'I' for Inactive)
ROOT
ATOM      1  C4' PXY d   1       3.826  -3.984   4.761  0.00  0.00     0.077 C 
ATOM      2  C1' PXY d   1       0.232  -2.024   0.680  0.00  0.00     0.077 C 
ATOM      3  C1  PXY d   1       1.171  -2.550   1.747  0.00  0.00    -0.082 A 
ATOM      4  C2  PXY d   1       1.482  -1.785   2.780  0.00  0.00     0.003 A 
ATOM      5  C3  PXY d   1       2.355  -2.233   3.738  0.00  0.00     0.003 A 
ATOM      6  C4  PXY d   1       2.874  -3.498   3.664  0.00  0.00    -0.082 A 
ATOM      7  C5  PXY d   1       2.554  -4.289   2.619  0.00  0.00     0.003 A 
ATOM      8  C6  PXY d   1       1.698  -3.800   1.636  0.00  0.00     0.003 A 
ENDROOT
TORSDOF 0
ENDMDL
