MODEL 1
REMARK minimizedAffinity 0.748094141
REMARK minimizedRMSD -1
REMARK  1 active torsions:
REMARK  status: ('A' for Active; 'I' for Inactive)
REMARK    1  A    between atoms: C1_2  and  C2_3 
ROOT
ATOM      1  C2  UNL d   1      -3.252   4.530   1.419  0.00  0.00    -0.076 A 
ATOM      2  C3  UNL d   1      -3.223   3.277   2.054  0.00  0.00     0.004 A 
ATOM      3  C4  UNL d   1      -2.958   2.113   1.334  0.00  0.00    -0.003 A 
ATOM      4  C5  UNL d   1      -2.716   2.184  -0.033  0.00  0.00     0.000 A 
ATOM      5  C6  UNL d   1      -2.723   3.421  -0.677  0.00  0.00     0.000 A 
ATOM      6  C7  UNL d   1      -2.973   4.606   0.037  0.00  0.00    -0.073 A 
ATOM      7  C8  UNL d   1      -2.974   5.912  -0.709  0.00  0.00     0.078 C 
ENDROOT
BRANCH   1   8
ATOM      8  C1  UNL d   1      -3.573   5.755   2.246  0.00  0.00     0.053 C 
ATOM      9  C   UNL d   1      -4.593   5.470   3.338  0.00  0.00     0.018 C 
ENDBRANCH   1   8
TORSDOF 1
ENDMDL
