MODEL 1
REMARK minimizedAffinity 5.27988911
REMARK minimizedRMSD -1
REMARK  1 active torsions:
REMARK  status: ('A' for Active; 'I' for Inactive)
REMARK    1  A    between atoms: C1_2  and  C2_3 
ROOT
ATOM      1  C2  UNL d   1      -2.988   1.276   1.154  0.00  0.00    -0.076 A 
ATOM      2  C3  UNL d   1      -2.538   1.602   2.446  0.00  0.00     0.004 A 
ATOM      3  C4  UNL d   1      -2.260   0.607   3.381  0.00  0.00    -0.003 A 
ATOM      4  C5  UNL d   1      -2.426  -0.730   3.040  0.00  0.00     0.000 A 
ATOM      5  C6  UNL d   1      -2.854  -1.073   1.758  0.00  0.00     0.000 A 
ATOM      6  C7  UNL d   1      -3.123  -0.082   0.798  0.00  0.00    -0.073 A 
ATOM      7  C8  UNL d   1      -3.588  -0.508  -0.568  0.00  0.00     0.078 C 
ENDROOT
BRANCH   1   8
ATOM      8  C1  UNL d   1      -3.299   2.399   0.191  0.00  0.00     0.053 C 
ATOM      9  C   UNL d   1      -3.320   3.760   0.869  0.00  0.00     0.018 C 
ENDBRANCH   1   8
TORSDOF 1
ENDMDL
