MODEL 1
REMARK minimizedAffinity -0.897116244
REMARK minimizedRMSD -1
REMARK  1 active torsions:
REMARK  status: ('A' for Active; 'I' for Inactive)
REMARK    1  A    between atoms: C1_2  and  C2_3 
ROOT
ATOM      1  C2  UNL d   1      -2.567   0.790   1.980  0.00  0.00    -0.076 A 
ATOM      2  C3  UNL d   1      -2.619   2.188   2.118  0.00  0.00     0.004 A 
ATOM      3  C4  UNL d   1      -2.845   3.010   1.016  0.00  0.00    -0.003 A 
ATOM      4  C5  UNL d   1      -3.025   2.447  -0.243  0.00  0.00     0.000 A 
ATOM      5  C6  UNL d   1      -2.995   1.061  -0.396  0.00  0.00     0.000 A 
ATOM      6  C7  UNL d   1      -2.784   0.218   0.708  0.00  0.00    -0.073 A 
ATOM      7  C8  UNL d   1      -2.755  -1.270   0.485  0.00  0.00     0.078 C 
ENDROOT
BRANCH   1   8
ATOM      8  C1  UNL d   1      -2.291  -0.050   3.207  0.00  0.00     0.053 C 
ATOM      9  C   UNL d   1      -3.531  -0.774   3.709  0.00  0.00     0.018 C 
ENDBRANCH   1   8
TORSDOF 1
ENDMDL
