MODEL 1
REMARK minimizedAffinity -2.93114543
REMARK minimizedRMSD -1
REMARK  1 active torsions:
REMARK  status: ('A' for Active; 'I' for Inactive)
REMARK    1  A    between atoms: C1_2  and  C2_3 
ROOT
ATOM      1  C2  UNL d   1      -2.396   0.747   1.416  0.00  0.00    -0.076 A 
ATOM      2  C3  UNL d   1      -2.630   2.105   1.694  0.00  0.00     0.004 A 
ATOM      3  C4  UNL d   1      -2.380   3.087   0.736  0.00  0.00    -0.003 A 
ATOM      4  C5  UNL d   1      -1.892   2.726  -0.515  0.00  0.00     0.000 A 
ATOM      5  C6  UNL d   1      -1.671   1.382  -0.814  0.00  0.00     0.000 A 
ATOM      6  C7  UNL d   1      -1.934   0.378   0.135  0.00  0.00    -0.073 A 
ATOM      7  C8  UNL d   1      -1.671  -1.055  -0.239  0.00  0.00     0.078 C 
ENDROOT
BRANCH   1   8
ATOM      8  C1  UNL d   1      -2.660  -0.270   2.503  0.00  0.00     0.053 C 
ATOM      9  C   UNL d   1      -2.612   0.340   3.896  0.00  0.00     0.018 C 
ENDBRANCH   1   8
TORSDOF 1
ENDMDL
