MODEL 1
REMARK minimizedAffinity 5.50902224
REMARK minimizedRMSD -1
REMARK  1 active torsions:
REMARK  status: ('A' for Active; 'I' for Inactive)
REMARK    1  A    between atoms: C1_2  and  C2_3 
ROOT
ATOM      1  C2  UNL d   1      -3.341   1.638   3.228  0.00  0.00    -0.076 A 
ATOM      2  C3  UNL d   1      -3.645   1.681   4.600  0.00  0.00     0.004 A 
ATOM      3  C4  UNL d   1      -4.201   0.579   5.247  0.00  0.00    -0.003 A 
ATOM      4  C5  UNL d   1      -4.461  -0.585   4.532  0.00  0.00     0.000 A 
ATOM      5  C6  UNL d   1      -4.150  -0.652   3.175  0.00  0.00     0.000 A 
ATOM      6  C7  UNL d   1      -3.574   0.445   2.511  0.00  0.00    -0.073 A 
ATOM      7  C8  UNL d   1      -3.265   0.320   1.044  0.00  0.00     0.078 C 
ENDROOT
BRANCH   1   8
ATOM      8  C1  UNL d   1      -2.765   2.874   2.574  0.00  0.00     0.053 C 
ATOM      9  C   UNL d   1      -3.474   4.147   3.008  0.00  0.00     0.018 C 
ENDBRANCH   1   8
TORSDOF 1
ENDMDL
