MODEL 1
REMARK minimizedAffinity 1.9846195
REMARK minimizedRMSD -1
REMARK  1 active torsions:
REMARK  status: ('A' for Active; 'I' for Inactive)
REMARK    1  A    between atoms: C1_2  and  C2_3 
ROOT
ATOM      1  C2  UNL d   1      -2.933   1.899   1.983  0.00  0.00    -0.076 A 
ATOM      2  C3  UNL d   1      -2.951   1.012   0.892  0.00  0.00     0.004 A 
ATOM      3  C4  UNL d   1      -2.993   1.486  -0.418  0.00  0.00    -0.003 A 
ATOM      4  C5  UNL d   1      -3.018   2.855  -0.658  0.00  0.00     0.000 A 
ATOM      5  C6  UNL d   1      -2.983   3.750   0.411  0.00  0.00     0.000 A 
ATOM      6  C7  UNL d   1      -2.924   3.288   1.737  0.00  0.00    -0.073 A 
ATOM      7  C8  UNL d   1      -2.894   4.298   2.852  0.00  0.00     0.078 C 
ENDROOT
BRANCH   1   8
ATOM      8  C1  UNL d   1      -2.915   1.326   3.382  0.00  0.00     0.053 C 
ATOM      9  C   UNL d   1      -2.921  -0.195   3.389  0.00  0.00     0.018 C 
ENDBRANCH   1   8
TORSDOF 1
ENDMDL
