MODEL 1
REMARK minimizedAffinity 7.29234552
REMARK minimizedRMSD -1
REMARK  1 active torsions:
REMARK  status: ('A' for Active; 'I' for Inactive)
REMARK    1  A    between atoms: C1_2  and  C2_3 
ROOT
ATOM      1  C2  UNL d   1      -3.862   0.080   1.069  0.00  0.00    -0.076 A 
ATOM      2  C3  UNL d   1      -4.530  -0.681   2.045  0.00  0.00     0.004 A 
ATOM      3  C4  UNL d   1      -4.086  -0.701   3.366  0.00  0.00    -0.003 A 
ATOM      4  C5  UNL d   1      -2.968   0.040   3.733  0.00  0.00     0.000 A 
ATOM      5  C6  UNL d   1      -2.304   0.814   2.782  0.00  0.00     0.000 A 
ATOM      6  C7  UNL d   1      -2.748   0.858   1.450  0.00  0.00    -0.073 A 
ATOM      7  C8  UNL d   1      -1.991   1.706   0.464  0.00  0.00     0.078 C 
ENDROOT
BRANCH   1   8
ATOM      8  C1  UNL d   1      -4.373   0.042  -0.353  0.00  0.00     0.053 C 
ATOM      9  C   UNL d   1      -5.826   0.476  -0.463  0.00  0.00     0.018 C 
ENDBRANCH   1   8
TORSDOF 1
ENDMDL
