MODEL 1
REMARK minimizedAffinity -2.4779942
REMARK minimizedRMSD -1
REMARK  1 active torsions:
REMARK  status: ('A' for Active; 'I' for Inactive)
REMARK    1  A    between atoms: C1_2  and  C2_3 
ROOT
ATOM      1  C2  UNL d   1      -2.514   0.485   2.113  0.00  0.00    -0.076 A 
ATOM      2  C3  UNL d   1      -2.592   1.883   2.238  0.00  0.00     0.004 A 
ATOM      3  C4  UNL d   1      -2.529   2.708   1.116  0.00  0.00    -0.003 A 
ATOM      4  C5  UNL d   1      -2.387   2.149  -0.149  0.00  0.00     0.000 A 
ATOM      5  C6  UNL d   1      -2.326   0.763  -0.293  0.00  0.00     0.000 A 
ATOM      6  C7  UNL d   1      -2.405  -0.084   0.826  0.00  0.00    -0.073 A 
ATOM      7  C8  UNL d   1      -2.327  -1.571   0.613  0.00  0.00     0.078 C 
ENDROOT
BRANCH   1   8
ATOM      8  C1  UNL d   1      -2.561  -0.358   3.367  0.00  0.00     0.053 C 
ATOM      9  C   UNL d   1      -3.972  -0.807   3.715  0.00  0.00     0.018 C 
ENDBRANCH   1   8
TORSDOF 1
ENDMDL
