MODEL 1
REMARK minimizedAffinity -2.65074372
REMARK minimizedRMSD -1
REMARK  0 active torsions:
REMARK  status: ('A' for Active; 'I' for Inactive)
ROOT
ATOM      1  C1  BNZ d   1      -0.873   1.200   1.412  0.00  0.00     0.000 A 
ATOM      2  C2  BNZ d   1      -1.087  -0.072   0.953  0.00  0.00     0.000 A 
ATOM      3  C3  BNZ d   1      -0.328  -0.587  -0.061  0.00  0.00     0.000 A 
ATOM      4  C4  BNZ d   1       0.615   0.184  -0.640  0.00  0.00     0.000 A 
ATOM      5  C5  BNZ d   1       0.837   1.472  -0.195  0.00  0.00     0.000 A 
ATOM      6  C6  BNZ d   1       0.097   1.973   0.852  0.00  0.00     0.000 A 
ENDROOT
TORSDOF 0
ENDMDL
