MODEL 1
REMARK minimizedAffinity -4.84298134
REMARK minimizedRMSD -1
REMARK  0 active torsions:
REMARK  status: ('A' for Active; 'I' for Inactive)
ROOT
ATOM      1  C1  BNZ d   1      -0.003   2.049   1.887  0.00  0.00     0.000 A 
ATOM      2  C2  BNZ d   1      -0.727   0.964   1.470  0.00  0.00     0.000 A 
ATOM      3  C3  BNZ d   1      -0.336   0.238   0.380  0.00  0.00     0.000 A 
ATOM      4  C4  BNZ d   1       0.754   0.621  -0.315  0.00  0.00     0.000 A 
ATOM      5  C5  BNZ d   1       1.490   1.718   0.087  0.00  0.00     0.000 A 
ATOM      6  C6  BNZ d   1       1.115   2.423   1.207  0.00  0.00     0.000 A 
ENDROOT
TORSDOF 0
ENDMDL
