MODEL 1
REMARK minimizedAffinity -4.28765726
REMARK minimizedRMSD -1
REMARK  0 active torsions:
REMARK  status: ('A' for Active; 'I' for Inactive)
ROOT
ATOM      1  C1  BNZ d   1       0.918   0.446  -0.468  0.00  0.00     0.000 A 
ATOM      2  C2  BNZ d   1      -0.158   0.006   0.256  0.00  0.00     0.000 A 
ATOM      3  C3  BNZ d   1      -0.536   0.643   1.405  0.00  0.00     0.000 A 
ATOM      4  C4  BNZ d   1       0.185   1.693   1.849  0.00  0.00     0.000 A 
ATOM      5  C5  BNZ d   1       1.278   2.142   1.135  0.00  0.00     0.000 A 
ATOM      6  C6  BNZ d   1       1.632   1.523  -0.042  0.00  0.00     0.000 A 
ENDROOT
TORSDOF 0
ENDMDL
