MODEL 1
REMARK minimizedAffinity -2.52876687
REMARK minimizedRMSD -1
REMARK  0 active torsions:
REMARK  status: ('A' for Active; 'I' for Inactive)
ROOT
ATOM      1  C1  BNZ d   1       0.816   0.894  -0.625  0.00  0.00     0.000 A 
ATOM      2  C2  BNZ d   1       0.544   1.567   0.536  0.00  0.00     0.000 A 
ATOM      3  C3  BNZ d   1      -0.292   1.031   1.476  0.00  0.00     0.000 A 
ATOM      4  C4  BNZ d   1      -0.885  -0.156   1.236  0.00  0.00     0.000 A 
ATOM      5  C5  BNZ d   1      -0.628  -0.842   0.066  0.00  0.00     0.000 A 
ATOM      6  C6  BNZ d   1       0.244  -0.318  -0.861  0.00  0.00     0.000 A 
ENDROOT
TORSDOF 0
ENDMDL
