MODEL 1
REMARK minimizedAffinity -2.81061482
REMARK minimizedRMSD -1
REMARK  0 active torsions:
REMARK  status: ('A' for Active; 'I' for Inactive)
ROOT
ATOM      1  C1  BNZ d   1       0.362   0.344  -0.041  0.00  0.00     0.000 A 
ATOM      2  C2  BNZ d   1       0.676   1.651   0.218  0.00  0.00     0.000 A 
ATOM      3  C3  BNZ d   1       0.456   2.193   1.453  0.00  0.00     0.000 A 
ATOM      4  C4  BNZ d   1      -0.114   1.439   2.415  0.00  0.00     0.000 A 
ATOM      5  C5  BNZ d   1      -0.446   0.122   2.167  0.00  0.00     0.000 A 
ATOM      6  C6  BNZ d   1      -0.187  -0.431   0.934  0.00  0.00     0.000 A 
ENDROOT
TORSDOF 0
ENDMDL
