MODEL 1
REMARK minimizedAffinity -4.91748142
REMARK minimizedRMSD -1
REMARK  0 active torsions:
REMARK  status: ('A' for Active; 'I' for Inactive)
ROOT
ATOM      1  C1  BNZ d   1       1.113   1.924  -0.040  0.00  0.00     0.000 A 
ATOM      2  C2  BNZ d   1       0.638   2.583   1.063  0.00  0.00     0.000 A 
ATOM      3  C3  BNZ d   1      -0.289   2.001   1.881  0.00  0.00     0.000 A 
ATOM      4  C4  BNZ d   1      -0.771   0.779   1.573  0.00  0.00     0.000 A 
ATOM      5  C5  BNZ d   1      -0.309   0.106   0.459  0.00  0.00     0.000 A 
ATOM      6  C6  BNZ d   1       0.654   0.679  -0.340  0.00  0.00     0.000 A 
ENDROOT
TORSDOF 0
ENDMDL
