MODEL 1
REMARK minimizedAffinity -2.36775613
REMARK minimizedRMSD -1
REMARK  0 active torsions:
REMARK  status: ('A' for Active; 'I' for Inactive)
ROOT
ATOM      1  C1  BNZ d   1       0.009   0.733   0.088  0.00  0.00     0.000 A 
ATOM      2  C2  BNZ d   1       0.858   1.698   0.562  0.00  0.00     0.000 A 
ATOM      3  C3  BNZ d   1       1.026   1.884   1.906  0.00  0.00     0.000 A 
ATOM      4  C4  BNZ d   1       0.315   1.134   2.773  0.00  0.00     0.000 A 
ATOM      5  C5  BNZ d   1      -0.552   0.164   2.311  0.00  0.00     0.000 A 
ATOM      6  C6  BNZ d   1      -0.689  -0.047   0.958  0.00  0.00     0.000 A 
ENDROOT
TORSDOF 0
ENDMDL
