MODEL 1
REMARK minimizedAffinity -2.7475481
REMARK minimizedRMSD -1
REMARK  0 active torsions:
REMARK  status: ('A' for Active; 'I' for Inactive)
ROOT
ATOM      1  C1  BNZ d   1       1.374   0.534  -0.408  0.00  0.00     0.000 A 
ATOM      2  C2  BNZ d   1       1.535  -0.630  -1.112  0.00  0.00     0.000 A 
ATOM      3  C3  BNZ d   1       0.510  -1.526  -1.228  0.00  0.00     0.000 A 
ATOM      4  C4  BNZ d   1      -0.662  -1.276  -0.607  0.00  0.00     0.000 A 
ATOM      5  C5  BNZ d   1      -0.837  -0.112   0.114  0.00  0.00     0.000 A 
ATOM      6  C6  BNZ d   1       0.185   0.806   0.196  0.00  0.00     0.000 A 
ENDROOT
TORSDOF 0
ENDMDL
