MODEL 1
REMARK minimizedAffinity -2.26551533
REMARK minimizedRMSD -1
REMARK  0 active torsions:
REMARK  status: ('A' for Active; 'I' for Inactive)
ROOT
ATOM      1  C1  BNZ d   1      -1.452  -1.347  -3.580  0.00  0.00     0.000 A 
ATOM      2  C2  BNZ d   1      -0.668  -1.634  -2.495  0.00  0.00     0.000 A 
ATOM      3  C3  BNZ d   1      -1.227  -1.860  -1.268  0.00  0.00     0.000 A 
ATOM      4  C4  BNZ d   1      -2.564  -1.758  -1.119  0.00  0.00     0.000 A 
ATOM      5  C5  BNZ d   1      -3.367  -1.460  -2.202  0.00  0.00     0.000 A 
ATOM      6  C6  BNZ d   1      -2.804  -1.272  -3.444  0.00  0.00     0.000 A 
ENDROOT
TORSDOF 0
ENDMDL
