MODEL 1
REMARK minimizedAffinity -4.14578962
REMARK minimizedRMSD -1
REMARK  0 active torsions:
REMARK  status: ('A' for Active; 'I' for Inactive)
ROOT
ATOM      1  C1  BNZ d   1       1.204   0.700  -0.399  0.00  0.00     0.000 A 
ATOM      2  C2  BNZ d   1       0.820   1.794   0.330  0.00  0.00     0.000 A 
ATOM      3  C3  BNZ d   1      -0.314   1.765   1.091  0.00  0.00     0.000 A 
ATOM      4  C4  BNZ d   1      -1.085   0.658   1.092  0.00  0.00     0.000 A 
ATOM      5  C5  BNZ d   1      -0.717  -0.450   0.354  0.00  0.00     0.000 A 
ATOM      6  C6  BNZ d   1       0.447  -0.431  -0.380  0.00  0.00     0.000 A 
ENDROOT
TORSDOF 0
ENDMDL
