MODEL 1
REMARK minimizedAffinity -4.4811945
REMARK minimizedRMSD -1
REMARK  0 active torsions:
REMARK  status: ('A' for Active; 'I' for Inactive)
ROOT
ATOM      1  C1  BNZ d   1       0.961   0.012   0.212  0.00  0.00     0.000 A 
ATOM      2  C2  BNZ d   1       0.749   0.937   1.198  0.00  0.00     0.000 A 
ATOM      3  C3  BNZ d   1      -0.490   1.482   1.393  0.00  0.00     0.000 A 
ATOM      4  C4  BNZ d   1      -1.504   1.131   0.577  0.00  0.00     0.000 A 
ATOM      5  C5  BNZ d   1      -1.304   0.206  -0.429  0.00  0.00     0.000 A 
ATOM      6  C6  BNZ d   1      -0.065  -0.369  -0.597  0.00  0.00     0.000 A 
ENDROOT
TORSDOF 0
ENDMDL
