MODEL 1
REMARK minimizedAffinity -3.7960093
REMARK minimizedRMSD -1
REMARK  0 active torsions:
REMARK  status: ('A' for Active; 'I' for Inactive)
ROOT
ATOM      1  C1  BNZ d   1       0.290  -1.924  -0.933  0.00  0.00     0.000 A 
ATOM      2  C2  BNZ d   1       0.520  -0.869  -0.091  0.00  0.00     0.000 A 
ATOM      3  C3  BNZ d   1      -0.350   0.184  -0.035  0.00  0.00     0.000 A 
ATOM      4  C4  BNZ d   1      -1.426   0.200  -0.848  0.00  0.00     0.000 A 
ATOM      5  C5  BNZ d   1      -1.666  -0.852  -1.709  0.00  0.00     0.000 A 
ATOM      6  C6  BNZ d   1      -0.810  -1.929  -1.735  0.00  0.00     0.000 A 
ENDROOT
TORSDOF 0
ENDMDL
