MODEL 1
REMARK minimizedAffinity -1.69831705
REMARK minimizedRMSD -1
REMARK  0 active torsions:
REMARK  status: ('A' for Active; 'I' for Inactive)
ROOT
ATOM      1  C1  BNZ d   1       1.328   0.521   0.349  0.00  0.00     0.000 A 
ATOM      2  C2  BNZ d   1       1.388  -0.496  -0.566  0.00  0.00     0.000 A 
ATOM      3  C3  BNZ d   1       0.277  -1.233  -0.867  0.00  0.00     0.000 A 
ATOM      4  C4  BNZ d   1      -0.881  -0.979  -0.224  0.00  0.00     0.000 A 
ATOM      5  C5  BNZ d   1      -0.955   0.037   0.708  0.00  0.00     0.000 A 
ATOM      6  C6  BNZ d   1       0.156   0.802   0.980  0.00  0.00     0.000 A 
ENDROOT
TORSDOF 0
ENDMDL
