MODEL 1
REMARK minimizedAffinity -4.00391436
REMARK minimizedRMSD -1
REMARK  0 active torsions:
REMARK  status: ('A' for Active; 'I' for Inactive)
ROOT
ATOM      1  C1  BNZ d   1      -0.053  -0.969  -0.015  0.00  0.00     0.000 A 
ATOM      2  C2  BNZ d   1      -0.632  -0.170   0.934  0.00  0.00     0.000 A 
ATOM      3  C3  BNZ d   1      -0.135   1.076   1.198  0.00  0.00     0.000 A 
ATOM      4  C4  BNZ d   1       0.962   1.505   0.541  0.00  0.00     0.000 A 
ATOM      5  C5  BNZ d   1       1.563   0.707  -0.412  0.00  0.00     0.000 A 
ATOM      6  C6  BNZ d   1       1.037  -0.531  -0.702  0.00  0.00     0.000 A 
ENDROOT
TORSDOF 0
ENDMDL
