MODEL 1
REMARK minimizedAffinity -3.29420042
REMARK minimizedRMSD -1
REMARK  0 active torsions:
REMARK  status: ('A' for Active; 'I' for Inactive)
ROOT
ATOM      1  C1  BNZ d   1       0.979   0.757  -0.031  0.00  0.00     0.000 A 
ATOM      2  C2  BNZ d   1       1.591   1.845   0.534  0.00  0.00     0.000 A 
ATOM      3  C3  BNZ d   1       0.985   2.544   1.540  0.00  0.00     0.000 A 
ATOM      4  C4  BNZ d   1      -0.246   2.181   1.953  0.00  0.00     0.000 A 
ATOM      5  C5  BNZ d   1      -0.880   1.092   1.387  0.00  0.00     0.000 A 
ATOM      6  C6  BNZ d   1      -0.251   0.367   0.401  0.00  0.00     0.000 A 
ENDROOT
TORSDOF 0
ENDMDL
