MODEL 1
REMARK minimizedAffinity -2.96204615
REMARK minimizedRMSD -1
REMARK  0 active torsions:
REMARK  status: ('A' for Active; 'I' for Inactive)
ROOT
ATOM      1  C1  BNZ d   1       0.862   0.195  -0.705  0.00  0.00     0.000 A 
ATOM      2  C2  BNZ d   1       0.889   1.304   0.097  0.00  0.00     0.000 A 
ATOM      3  C3  BNZ d   1       0.076   1.396   1.192  0.00  0.00     0.000 A 
ATOM      4  C4  BNZ d   1      -0.792   0.398   1.459  0.00  0.00     0.000 A 
ATOM      5  C5  BNZ d   1      -0.838  -0.722   0.654  0.00  0.00     0.000 A 
ATOM      6  C6  BNZ d   1       0.011  -0.829  -0.425  0.00  0.00     0.000 A 
ENDROOT
TORSDOF 0
ENDMDL
