MODEL 1
REMARK minimizedAffinity -2.484442
REMARK minimizedRMSD -1
REMARK  0 active torsions:
REMARK  status: ('A' for Active; 'I' for Inactive)
ROOT
ATOM      1  C1  BNZ d   1      -1.037  -0.121   0.915  0.00  0.00     0.000 A 
ATOM      2  C2  BNZ d   1      -0.825   1.034   1.619  0.00  0.00     0.000 A 
ATOM      3  C3  BNZ d   1       0.229   1.851   1.321  0.00  0.00     0.000 A 
ATOM      4  C4  BNZ d   1       1.091   1.493   0.348  0.00  0.00     0.000 A 
ATOM      5  C5  BNZ d   1       0.896   0.327  -0.365  0.00  0.00     0.000 A 
ATOM      6  C6  BNZ d   1      -0.188  -0.474  -0.089  0.00  0.00     0.000 A 
ENDROOT
TORSDOF 0
ENDMDL
