MODEL 1
REMARK minimizedAffinity -4.86098766
REMARK minimizedRMSD -1
REMARK  0 active torsions:
REMARK  status: ('A' for Active; 'I' for Inactive)
ROOT
ATOM      1  C1  BNZ d   1      -0.264   0.213   0.249  0.00  0.00     0.000 A 
ATOM      2  C2  BNZ d   1      -0.600   1.130   1.210  0.00  0.00     0.000 A 
ATOM      3  C3  BNZ d   1       0.295   2.081   1.612  0.00  0.00     0.000 A 
ATOM      4  C4  BNZ d   1       1.535   2.091   1.083  0.00  0.00     0.000 A 
ATOM      5  C5  BNZ d   1       1.892   1.168   0.121  0.00  0.00     0.000 A 
ATOM      6  C6  BNZ d   1       0.976   0.236  -0.310  0.00  0.00     0.000 A 
ENDROOT
TORSDOF 0
ENDMDL
