MODEL 1
REMARK minimizedAffinity -2.20005631
REMARK minimizedRMSD -1
REMARK  0 active torsions:
REMARK  status: ('A' for Active; 'I' for Inactive)
ROOT
ATOM      1  C1  BNZ d   1       1.691   2.266  -0.002  0.00  0.00     0.000 A 
ATOM      2  C2  BNZ d   1       1.122   2.664   1.179  0.00  0.00     0.000 A 
ATOM      3  C3  BNZ d   1       0.256   1.846   1.848  0.00  0.00     0.000 A 
ATOM      4  C4  BNZ d   1      -0.071   0.650   1.318  0.00  0.00     0.000 A 
ATOM      5  C5  BNZ d   1       0.487   0.239   0.124  0.00  0.00     0.000 A 
ATOM      6  C6  BNZ d   1       1.389   1.048  -0.528  0.00  0.00     0.000 A 
ENDROOT
TORSDOF 0
ENDMDL
