MODEL 1
REMARK minimizedAffinity -4.31879377
REMARK minimizedRMSD -1
REMARK  0 active torsions:
REMARK  status: ('A' for Active; 'I' for Inactive)
ROOT
ATOM      1  C1  BNZ d   1       0.379   1.642   1.949  0.00  0.00     0.000 A 
ATOM      2  C2  BNZ d   1       0.959   2.661   1.242  0.00  0.00     0.000 A 
ATOM      3  C3  BNZ d   1       1.048   2.605  -0.121  0.00  0.00     0.000 A 
ATOM      4  C4  BNZ d   1       0.594   1.514  -0.770  0.00  0.00     0.000 A 
ATOM      5  C5  BNZ d   1       0.015   0.474  -0.071  0.00  0.00     0.000 A 
ATOM      6  C6  BNZ d   1      -0.108   0.551   1.298  0.00  0.00     0.000 A 
ENDROOT
TORSDOF 0
ENDMDL
