MODEL 1
REMARK minimizedAffinity -6.30308628
REMARK minimizedRMSD -1
REMARK  3 active torsions:
REMARK  status: ('A' for Active; 'I' for Inactive)
REMARK    1  A    between atoms: C3'_2  and  C2'_3 
REMARK    2  A    between atoms: C2'_3  and  C1'_4 
REMARK    3  A    between atoms: C1'_4  and  C1_5 
ROOT
ATOM      1  C1  N4B d   1       0.290  -0.309   0.781  0.00  0.00    -0.075 A 
ATOM      2  C2  N4B d   1       1.158   0.011   1.849  0.00  0.00     0.002 A 
ATOM      3  C3  N4B d   1       0.680   0.690   2.942  0.00  0.00     0.002 A 
ATOM      4  C4  N4B d   1      -0.652   1.075   2.982  0.00  0.00    -0.004 A 
ATOM      5  C5  N4B d   1      -1.489   0.741   1.958  0.00  0.00     0.002 A 
ATOM      6  C6  N4B d   1      -1.023   0.055   0.855  0.00  0.00     0.002 A 
ENDROOT
BRANCH   1   7
ATOM      7  C1' N4B d   1       0.786  -0.974  -0.473  0.00  0.00     0.057 C 
BRANCH   7   8
ATOM      8  C2' N4B d   1       0.374  -0.137  -1.681  0.00  0.00     0.009 C 
BRANCH   8   9
ATOM      9  C3' N4B d   1       1.102  -0.565  -2.944  0.00  0.00     0.004 C 
ATOM     10  C4' N4B d   1       1.838   0.564  -3.601  0.00  0.00     0.003 C 
ENDBRANCH   8   9
ENDBRANCH   7   8
ENDBRANCH   1   7
TORSDOF 3
ENDMDL
