MODEL 1
REMARK minimizedAffinity -6.15107536
REMARK minimizedRMSD -1
REMARK  3 active torsions:
REMARK  status: ('A' for Active; 'I' for Inactive)
REMARK    1  A    between atoms: C3'_2  and  C2'_3 
REMARK    2  A    between atoms: C2'_3  and  C1'_4 
REMARK    3  A    between atoms: C1'_4  and  C1_5 
ROOT
ATOM      1  C1  N4B d   1       0.379   0.161   0.850  0.00  0.00    -0.075 A 
ATOM      2  C2  N4B d   1      -0.891   0.769   0.962  0.00  0.00     0.002 A 
ATOM      3  C3  N4B d   1      -1.304   1.278   2.169  0.00  0.00     0.002 A 
ATOM      4  C4  N4B d   1      -0.476   1.174   3.277  0.00  0.00    -0.004 A 
ATOM      5  C5  N4B d   1       0.759   0.608   3.154  0.00  0.00     0.002 A 
ATOM      6  C6  N4B d   1       1.189   0.096   1.946  0.00  0.00     0.002 A 
ENDROOT
BRANCH   1   7
ATOM      7  C1' N4B d   1       0.839  -0.486  -0.428  0.00  0.00     0.057 C 
BRANCH   7   8
ATOM      8  C2' N4B d   1      -0.260  -0.357  -1.479  0.00  0.00     0.009 C 
BRANCH   8   9
ATOM      9  C3' N4B d   1       0.303  -0.330  -2.889  0.00  0.00     0.004 C 
ATOM     10  C4' N4B d   1       1.561   0.479  -2.997  0.00  0.00     0.003 C 
ENDBRANCH   8   9
ENDBRANCH   7   8
ENDBRANCH   1   7
TORSDOF 3
ENDMDL
