MODEL 1
REMARK minimizedAffinity -5.39194822
REMARK minimizedRMSD -1
REMARK  3 active torsions:
REMARK  status: ('A' for Active; 'I' for Inactive)
REMARK    1  A    between atoms: C3'_2  and  C2'_3 
REMARK    2  A    between atoms: C2'_3  and  C1'_4 
REMARK    3  A    between atoms: C1'_4  and  C1_5 
ROOT
ATOM      1  C1  N4B d   1      -0.181   0.342   0.822  0.00  0.00    -0.075 A 
ATOM      2  C2  N4B d   1      -1.077   0.981   1.708  0.00  0.00     0.002 A 
ATOM      3  C3  N4B d   1      -0.748   1.120   3.034  0.00  0.00     0.002 A 
ATOM      4  C4  N4B d   1       0.457   0.613   3.499  0.00  0.00    -0.004 A 
ATOM      5  C5  N4B d   1       1.327   0.020   2.632  0.00  0.00     0.002 A 
ATOM      6  C6  N4B d   1       1.011  -0.123   1.295  0.00  0.00     0.002 A 
ENDROOT
BRANCH   1   7
ATOM      7  C1' N4B d   1      -0.534   0.090  -0.619  0.00  0.00     0.057 C 
BRANCH   7   8
ATOM      8  C2' N4B d   1       0.653  -0.566  -1.318  0.00  0.00     0.009 C 
BRANCH   8   9
ATOM      9  C3' N4B d   1       0.667  -0.275  -2.808  0.00  0.00     0.004 C 
ATOM     10  C4' N4B d   1       1.424   0.974  -3.150  0.00  0.00     0.003 C 
ENDBRANCH   8   9
ENDBRANCH   7   8
ENDBRANCH   1   7
TORSDOF 3
ENDMDL
