MODEL 1
REMARK minimizedAffinity 11.5989218
REMARK minimizedRMSD -1
REMARK  0 active torsions:
REMARK  status: ('A' for Active; 'I' for Inactive)
ROOT
ATOM      1  C   UNL d   1      -6.000   0.359  -1.870  0.00  0.00    -0.002 A 
ATOM      2  C1  UNL d   1      -6.000   1.012  -0.645  0.00  0.00     0.010 A 
ATOM      3  C2  UNL d   1      -5.880   2.402  -0.581  0.00  0.00     0.041 A 
ATOM      4  C3  UNL d   1      -5.761   3.131  -1.780  0.00  0.00    -0.075 A 
ATOM      5  S   UNL d   1      -5.604   4.840  -1.946  0.00  0.00     0.015 SA
ATOM      6  C4  UNL d   1      -5.534   4.744  -3.646  0.00  0.00     0.022 A 
ATOM      7  C5  UNL d   1      -5.626   3.447  -4.093  0.00  0.00     0.026 A 
ATOM      8  C6  UNL d   1      -5.759   2.496  -3.026  0.00  0.00    -0.082 A 
ATOM      9  C7  UNL d   1      -5.881   1.086  -3.057  0.00  0.00     0.045 A 
ENDROOT
TORSDOF 0
ENDMDL
