MODEL 1
REMARK minimizedAffinity 16.4810028
REMARK minimizedRMSD -1
REMARK  0 active torsions:
REMARK  status: ('A' for Active; 'I' for Inactive)
ROOT
ATOM      1  C   UNL d   1       4.107   1.711  -0.360  0.00  0.00    -0.002 A 
ATOM      2  C1  UNL d   1       4.603   2.405   0.735  0.00  0.00     0.010 A 
ATOM      3  C2  UNL d   1       3.820   2.581   1.877  0.00  0.00     0.041 A 
ATOM      4  C3  UNL d   1       2.519   2.042   1.903  0.00  0.00    -0.075 A 
ATOM      5  S   UNL d   1       1.381   2.133   3.194  0.00  0.00     0.015 SA
ATOM      6  C4  UNL d   1       0.210   1.251   2.324  0.00  0.00     0.022 A 
ATOM      7  C5  UNL d   1       0.660   0.889   1.076  0.00  0.00     0.026 A 
ATOM      8  C6  UNL d   1       1.998   1.338   0.813  0.00  0.00    -0.082 A 
ATOM      9  C7  UNL d   1       2.816   1.177  -0.331  0.00  0.00     0.045 A 
ENDROOT
TORSDOF 0
ENDMDL
