MODEL 1
REMARK minimizedAffinity -5.62372017
REMARK minimizedRMSD -1
REMARK  1 active torsions:
REMARK  status: ('A' for Active; 'I' for Inactive)
REMARK    1  A    between atoms: C1_2  and  C2_3 
ROOT
ATOM      1  C2  UNL d   1       1.003  -0.551   0.922  0.00  0.00    -0.077 A 
ATOM      2  C3  UNL d   1       2.350  -0.426   0.556  0.00  0.00     0.002 A 
ATOM      3  C4  UNL d   1       3.326  -1.208   1.177  0.00  0.00     0.002 A 
ATOM      4  C5  UNL d   1       2.965  -2.122   2.164  0.00  0.00    -0.004 A 
ATOM      5  C6  UNL d   1       1.628  -2.252   2.537  0.00  0.00     0.002 A 
ATOM      6  C7  UNL d   1       0.651  -1.471   1.918  0.00  0.00     0.002 A 
ENDROOT
BRANCH   1   7
ATOM      7  C1  UNL d   1      -0.058   0.256   0.220  0.00  0.00     0.055 C 
ATOM      8  C   UNL d   1      -0.089   1.690   0.728  0.00  0.00     0.019 C 
ENDBRANCH   1   7
TORSDOF 1
ENDMDL
