MODEL 1
REMARK minimizedAffinity -1.62995505
REMARK minimizedRMSD -1
REMARK  1 active torsions:
REMARK  status: ('A' for Active; 'I' for Inactive)
REMARK    1  A    between atoms: C1_2  and  C2_3 
ROOT
ATOM      1  C2  UNL d   1      -0.284   0.300   0.870  0.00  0.00    -0.077 A 
ATOM      2  C3  UNL d   1       1.051  -0.021   0.588  0.00  0.00     0.002 A 
ATOM      3  C4  UNL d   1       1.428  -1.348   0.373  0.00  0.00     0.002 A 
ATOM      4  C5  UNL d   1       0.476  -2.363   0.433  0.00  0.00    -0.004 A 
ATOM      5  C6  UNL d   1      -0.854  -2.055   0.714  0.00  0.00     0.002 A 
ATOM      6  C7  UNL d   1      -1.233  -0.729   0.931  0.00  0.00     0.002 A 
ENDROOT
BRANCH   1   7
ATOM      7  C1  UNL d   1      -0.702   1.735   1.053  0.00  0.00     0.055 C 
ATOM      8  C   UNL d   1      -2.216   1.864   1.145  0.00  0.00     0.019 C 
ENDBRANCH   1   7
TORSDOF 1
ENDMDL
