MODEL 1
REMARK minimizedAffinity -1.23470807
REMARK minimizedRMSD -1
REMARK  1 active torsions:
REMARK  status: ('A' for Active; 'I' for Inactive)
REMARK    1  A    between atoms: C1_2  and  C2_3 
ROOT
ATOM      1  C2  UNL d   1      -1.220  -0.410  -1.443  0.00  0.00    -0.077 A 
ATOM      2  C3  UNL d   1      -2.165  -1.442  -1.533  0.00  0.00     0.002 A 
ATOM      3  C4  UNL d   1      -2.962  -1.573  -2.672  0.00  0.00     0.002 A 
ATOM      4  C5  UNL d   1      -2.820  -0.679  -3.730  0.00  0.00    -0.004 A 
ATOM      5  C6  UNL d   1      -1.885   0.352  -3.650  0.00  0.00     0.002 A 
ATOM      6  C7  UNL d   1      -1.088   0.486  -2.512  0.00  0.00     0.002 A 
ENDROOT
BRANCH   1   7
ATOM      7  C1  UNL d   1      -0.326  -0.296  -0.237  0.00  0.00     0.055 C 
ATOM      8  C   UNL d   1      -0.332  -1.580   0.580  0.00  0.00     0.019 C 
ENDBRANCH   1   7
TORSDOF 1
ENDMDL
