MODEL 1
REMARK minimizedAffinity -1.52081215
REMARK minimizedRMSD -1
REMARK  1 active torsions:
REMARK  status: ('A' for Active; 'I' for Inactive)
REMARK    1  A    between atoms: C1_2  and  C2_3 
ROOT
ATOM      1  C2  UNL d   1       1.487  -0.779   0.239  0.00  0.00    -0.077 A 
ATOM      2  C3  UNL d   1       0.719   0.268  -0.290  0.00  0.00     0.002 A 
ATOM      3  C4  UNL d   1      -0.675   0.205  -0.264  0.00  0.00     0.002 A 
ATOM      4  C5  UNL d   1      -1.314  -0.901   0.293  0.00  0.00    -0.004 A 
ATOM      5  C6  UNL d   1      -0.560  -1.948   0.820  0.00  0.00     0.002 A 
ATOM      6  C7  UNL d   1       0.834  -1.887   0.794  0.00  0.00     0.002 A 
ENDROOT
BRANCH   1   7
ATOM      7  C1  UNL d   1       2.990  -0.690   0.257  0.00  0.00     0.055 C 
ATOM      8  C   UNL d   1       3.479   0.208   1.384  0.00  0.00     0.019 C 
ENDBRANCH   1   7
TORSDOF 1
ENDMDL
