MODEL 1
REMARK minimizedAffinity -5.41784048
REMARK minimizedRMSD -1
REMARK  1 active torsions:
REMARK  status: ('A' for Active; 'I' for Inactive)
REMARK    1  A    between atoms: C1_2  and  C2_3 
ROOT
ATOM      1  C2  UNL d   1       0.757   1.810   0.733  0.00  0.00    -0.077 A 
ATOM      2  C3  UNL d   1       2.065   1.652   1.213  0.00  0.00     0.002 A 
ATOM      3  C4  UNL d   1       2.739   0.442   1.040  0.00  0.00     0.002 A 
ATOM      4  C5  UNL d   1       2.116  -0.618   0.384  0.00  0.00    -0.004 A 
ATOM      5  C6  UNL d   1       0.815  -0.471  -0.095  0.00  0.00     0.002 A 
ATOM      6  C7  UNL d   1       0.139   0.737   0.078  0.00  0.00     0.002 A 
ENDROOT
BRANCH   1   7
ATOM      7  C1  UNL d   1       0.046   3.130   0.875  0.00  0.00     0.055 C 
ATOM      8  C   UNL d   1      -1.356   2.947   1.439  0.00  0.00     0.019 C 
ENDBRANCH   1   7
TORSDOF 1
ENDMDL
