MODEL 1
REMARK minimizedAffinity -5.05152369
REMARK minimizedRMSD -1
REMARK  1 active torsions:
REMARK  status: ('A' for Active; 'I' for Inactive)
REMARK    1  A    between atoms: C1_2  and  C2_3 
ROOT
ATOM      1  C2  UNL d   1       0.771   1.469   0.540  0.00  0.00    -0.077 A 
ATOM      2  C3  UNL d   1       2.102   1.415   0.978  0.00  0.00     0.002 A 
ATOM      3  C4  UNL d   1       2.739   0.185   1.150  0.00  0.00     0.002 A 
ATOM      4  C5  UNL d   1       2.055  -0.999   0.882  0.00  0.00    -0.004 A 
ATOM      5  C6  UNL d   1       0.731  -0.956   0.448  0.00  0.00     0.002 A 
ATOM      6  C7  UNL d   1       0.092   0.273   0.277  0.00  0.00     0.002 A 
ENDROOT
BRANCH   1   7
ATOM      7  C1  UNL d   1       0.098   2.797   0.307  0.00  0.00     0.055 C 
ATOM      8  C   UNL d   1      -0.823   3.161   1.462  0.00  0.00     0.019 C 
ENDBRANCH   1   7
TORSDOF 1
ENDMDL
