MODEL 1
REMARK minimizedAffinity -3.15522528
REMARK minimizedRMSD -1
REMARK  1 active torsions:
REMARK  status: ('A' for Active; 'I' for Inactive)
REMARK    1  A    between atoms: C1_2  and  C2_3 
ROOT
ATOM      1  C2  UNL d   1       0.633   0.233   0.314  0.00  0.00    -0.077 A 
ATOM      2  C3  UNL d   1      -0.376  -0.687   0.632  0.00  0.00     0.002 A 
ATOM      3  C4  UNL d   1      -0.059  -2.021   0.894  0.00  0.00     0.002 A 
ATOM      4  C5  UNL d   1       1.267  -2.446   0.846  0.00  0.00    -0.004 A 
ATOM      5  C6  UNL d   1       2.278  -1.539   0.529  0.00  0.00     0.002 A 
ATOM      6  C7  UNL d   1       1.962  -0.205   0.265  0.00  0.00     0.002 A 
ENDROOT
BRANCH   1   7
ATOM      7  C1  UNL d   1       0.298   1.683   0.079  0.00  0.00     0.055 C 
ATOM      8  C   UNL d   1      -0.909   2.112   0.900  0.00  0.00     0.019 C 
ENDBRANCH   1   7
TORSDOF 1
ENDMDL
