MODEL 1
REMARK minimizedAffinity 10.0132599
REMARK minimizedRMSD -1
REMARK  1 active torsions:
REMARK  status: ('A' for Active; 'I' for Inactive)
REMARK    1  A    between atoms: C1_2  and  C2_3 
ROOT
ATOM      1  C2  UNL d   1       2.931   1.290  -5.249  0.00  0.00    -0.073 A 
ATOM      2  C3  UNL d   1       3.204   0.393  -4.210  0.00  0.00    -0.002 A 
ATOM      3  C4  UNL d   1       2.212  -0.474  -3.749  0.00  0.00     0.004 A 
ATOM      4  C5  UNL d   1       0.941  -0.456  -4.324  0.00  0.00    -0.004 A 
ATOM      5  C6  UNL d   1       0.653   0.425  -5.371  0.00  0.00    -0.075 A 
ATOM      6  C7  UNL d   1      -0.709   0.457  -6.000  0.00  0.00     0.076 C 
ATOM      7  C8  UNL d   1       1.654   1.294  -5.827  0.00  0.00     0.001 A 
ENDROOT
BRANCH   1   8
ATOM      8  C1  UNL d   1       4.001   2.223  -5.755  0.00  0.00     0.053 C 
ATOM      9  C   UNL d   1       4.154   3.449  -4.870  0.00  0.00     0.018 C 
ENDBRANCH   1   8
TORSDOF 1
ENDMDL
