MODEL 1
REMARK minimizedAffinity 11.6158648
REMARK minimizedRMSD -1
REMARK  1 active torsions:
REMARK  status: ('A' for Active; 'I' for Inactive)
REMARK    1  A    between atoms: C1_2  and  C2_3 
ROOT
ATOM      1  C2  UNL d   1       2.017   1.346  -2.857  0.00  0.00    -0.073 A 
ATOM      2  C3  UNL d   1       1.461   2.213  -1.909  0.00  0.00    -0.002 A 
ATOM      3  C4  UNL d   1       1.868   3.546  -1.849  0.00  0.00     0.004 A 
ATOM      4  C5  UNL d   1       2.828   4.028  -2.738  0.00  0.00    -0.004 A 
ATOM      5  C6  UNL d   1       3.387   3.181  -3.701  0.00  0.00    -0.075 A 
ATOM      6  C7  UNL d   1       4.422   3.683  -4.663  0.00  0.00     0.076 C 
ATOM      7  C8  UNL d   1       2.975   1.842  -3.753  0.00  0.00     0.001 A 
ENDROOT
BRANCH   1   8
ATOM      8  C1  UNL d   1       1.576  -0.093  -2.931  0.00  0.00     0.053 C 
ATOM      9  C   UNL d   1       2.325  -0.865  -4.005  0.00  0.00     0.018 C 
ENDBRANCH   1   8
TORSDOF 1
ENDMDL
