MODEL 1
REMARK minimizedAffinity 13.2706175
REMARK minimizedRMSD -1
REMARK  1 active torsions:
REMARK  status: ('A' for Active; 'I' for Inactive)
REMARK    1  A    between atoms: C1_2  and  C2_3 
ROOT
ATOM      1  C2  UNL d   1       2.630   3.310  -2.856  0.00  0.00    -0.073 A 
ATOM      2  C3  UNL d   1       1.779   3.385  -3.965  0.00  0.00    -0.002 A 
ATOM      3  C4  UNL d   1       2.252   3.872  -5.185  0.00  0.00     0.004 A 
ATOM      4  C5  UNL d   1       3.580   4.281  -5.310  0.00  0.00    -0.004 A 
ATOM      5  C6  UNL d   1       4.448   4.203  -4.216  0.00  0.00    -0.075 A 
ATOM      6  C7  UNL d   1       5.878   4.642  -4.333  0.00  0.00     0.076 C 
ATOM      7  C8  UNL d   1       3.965   3.716  -2.994  0.00  0.00     0.001 A 
ENDROOT
BRANCH   1   8
ATOM      8  C1  UNL d   1       2.125   2.779  -1.540  0.00  0.00     0.053 C 
ATOM      9  C   UNL d   1       1.320   1.500  -1.711  0.00  0.00     0.018 C 
ENDBRANCH   1   8
TORSDOF 1
ENDMDL
