MODEL 1
REMARK minimizedAffinity 16.4945526
REMARK minimizedRMSD -1
REMARK  1 active torsions:
REMARK  status: ('A' for Active; 'I' for Inactive)
REMARK    1  A    between atoms: C1_2  and  C2_3 
ROOT
ATOM      1  C2  UNL d   1       3.855   3.303  -5.427  0.00  0.00    -0.073 A 
ATOM      2  C3  UNL d   1       4.940   3.919  -4.794  0.00  0.00    -0.002 A 
ATOM      3  C4  UNL d   1       4.809   5.202  -4.260  0.00  0.00     0.004 A 
ATOM      4  C5  UNL d   1       3.592   5.878  -4.347  0.00  0.00    -0.004 A 
ATOM      5  C6  UNL d   1       2.492   5.274  -4.966  0.00  0.00    -0.075 A 
ATOM      6  C7  UNL d   1       1.177   5.988  -5.069  0.00  0.00     0.076 C 
ATOM      7  C8  UNL d   1       2.633   3.987  -5.502  0.00  0.00     0.001 A 
ENDROOT
BRANCH   1   8
ATOM      8  C1  UNL d   1       3.990   1.916  -6.000  0.00  0.00     0.053 C 
ATOM      9  C   UNL d   1       2.667   1.166  -5.994  0.00  0.00     0.018 C 
ENDBRANCH   1   8
TORSDOF 1
ENDMDL
