MODEL 1
REMARK minimizedAffinity 6.8110323
REMARK minimizedRMSD -1
REMARK  1 active torsions:
REMARK  status: ('A' for Active; 'I' for Inactive)
REMARK    1  A    between atoms: C1_2  and  C2_3 
ROOT
ATOM      1  C2  UNL d   1       2.380   1.488  -2.599  0.00  0.00    -0.073 A 
ATOM      2  C3  UNL d   1       1.786   2.043  -1.460  0.00  0.00    -0.002 A 
ATOM      3  C4  UNL d   1       1.784   3.426  -1.270  0.00  0.00     0.004 A 
ATOM      4  C5  UNL d   1       2.368   4.266  -2.217  0.00  0.00    -0.004 A 
ATOM      5  C6  UNL d   1       2.956   3.731  -3.368  0.00  0.00    -0.075 A 
ATOM      6  C7  UNL d   1       3.590   4.621  -4.396  0.00  0.00     0.076 C 
ATOM      7  C8  UNL d   1       2.956   2.341  -3.551  0.00  0.00     0.001 A 
ENDROOT
BRANCH   1   8
ATOM      8  C1  UNL d   1       2.379  -0.004  -2.813  0.00  0.00     0.053 C 
ATOM      9  C   UNL d   1       1.739  -0.390  -4.137  0.00  0.00     0.018 C 
ENDBRANCH   1   8
TORSDOF 1
ENDMDL
