MODEL 1
REMARK minimizedAffinity 13.4767141
REMARK minimizedRMSD -1
REMARK  1 active torsions:
REMARK  status: ('A' for Active; 'I' for Inactive)
REMARK    1  A    between atoms: C1_2  and  C2_3 
ROOT
ATOM      1  C2  UNL d   1       0.830  -2.110  -4.579  0.00  0.00    -0.073 A 
ATOM      2  C3  UNL d   1       2.065  -1.876  -5.194  0.00  0.00    -0.002 A 
ATOM      3  C4  UNL d   1       2.829  -0.763  -4.839  0.00  0.00     0.004 A 
ATOM      4  C5  UNL d   1       2.371   0.120  -3.862  0.00  0.00    -0.004 A 
ATOM      5  C6  UNL d   1       1.145  -0.103  -3.227  0.00  0.00    -0.075 A 
ATOM      6  C7  UNL d   1       0.637   0.839  -2.176  0.00  0.00     0.076 C 
ATOM      7  C8  UNL d   1       0.382  -1.221  -3.591  0.00  0.00     0.001 A 
ENDROOT
BRANCH   1   8
ATOM      8  C1  UNL d   1       0.004  -3.313  -4.955  0.00  0.00     0.053 C 
ATOM      9  C   UNL d   1      -1.049  -2.978  -6.000  0.00  0.00     0.018 C 
ENDBRANCH   1   8
TORSDOF 1
ENDMDL
