MODEL 1
REMARK minimizedAffinity 12.7233534
REMARK minimizedRMSD -1
REMARK  1 active torsions:
REMARK  status: ('A' for Active; 'I' for Inactive)
REMARK    1  A    between atoms: C1_2  and  C2_3 
ROOT
ATOM      1  C2  UNL d   1      -4.372  -2.711  -4.082  0.00  0.00    -0.073 A 
ATOM      2  C3  UNL d   1      -4.850  -1.544  -3.475  0.00  0.00    -0.002 A 
ATOM      3  C4  UNL d   1      -5.587  -1.616  -2.292  0.00  0.00     0.004 A 
ATOM      4  C5  UNL d   1      -5.847  -2.852  -1.701  0.00  0.00    -0.004 A 
ATOM      5  C6  UNL d   1      -5.367  -4.029  -2.286  0.00  0.00    -0.075 A 
ATOM      6  C7  UNL d   1      -5.640  -5.366  -1.663  0.00  0.00     0.076 C 
ATOM      7  C8  UNL d   1      -4.630  -3.949  -3.475  0.00  0.00     0.001 A 
ENDROOT
BRANCH   1   8
ATOM      8  C1  UNL d   1      -3.571  -2.638  -5.356  0.00  0.00     0.053 C 
ATOM      9  C   UNL d   1      -2.647  -3.835  -5.518  0.00  0.00     0.018 C 
ENDBRANCH   1   8
TORSDOF 1
ENDMDL
