MODEL 1
REMARK minimizedAffinity 4.55620337
REMARK minimizedRMSD -1
REMARK  1 active torsions:
REMARK  status: ('A' for Active; 'I' for Inactive)
REMARK    1  A    between atoms: C1_2  and  C2_3 
ROOT
ATOM      1  C2  UNL d   1       2.548   3.553  -2.337  0.00  0.00    -0.073 A 
ATOM      2  C3  UNL d   1       1.828   4.572  -2.972  0.00  0.00    -0.002 A 
ATOM      3  C4  UNL d   1       2.407   5.302  -4.010  0.00  0.00     0.004 A 
ATOM      4  C5  UNL d   1       3.707   5.018  -4.429  0.00  0.00    -0.004 A 
ATOM      5  C6  UNL d   1       4.438   3.995  -3.815  0.00  0.00    -0.075 A 
ATOM      6  C7  UNL d   1       5.838   3.678  -4.253  0.00  0.00     0.076 C 
ATOM      7  C8  UNL d   1       3.850   3.268  -2.771  0.00  0.00     0.001 A 
ENDROOT
BRANCH   1   8
ATOM      8  C1  UNL d   1       1.924   2.758  -1.220  0.00  0.00     0.053 C 
ATOM      9  C   UNL d   1       1.119   1.578  -1.740  0.00  0.00     0.018 C 
ENDBRANCH   1   8
TORSDOF 1
ENDMDL
