MODEL 1
REMARK minimizedAffinity 2.8668015
REMARK minimizedRMSD -1
REMARK  1 active torsions:
REMARK  status: ('A' for Active; 'I' for Inactive)
REMARK    1  A    between atoms: C1_2  and  C2_3 
ROOT
ATOM      1  C2  UNL d   1       0.559  -0.014  -2.632  0.00  0.00    -0.073 A 
ATOM      2  C3  UNL d   1       1.817   0.308  -3.155  0.00  0.00    -0.002 A 
ATOM      3  C4  UNL d   1       2.359  -0.442  -4.200  0.00  0.00     0.004 A 
ATOM      4  C5  UNL d   1       1.647  -1.516  -4.736  0.00  0.00    -0.004 A 
ATOM      5  C6  UNL d   1       0.384  -1.845  -4.235  0.00  0.00    -0.075 A 
ATOM      6  C7  UNL d   1      -0.393  -2.998  -4.799  0.00  0.00     0.076 C 
ATOM      7  C8  UNL d   1      -0.152  -1.089  -3.184  0.00  0.00     0.001 A 
ENDROOT
BRANCH   1   8
ATOM      8  C1  UNL d   1      -0.033   0.798  -1.509  0.00  0.00     0.053 C 
ATOM      9  C   UNL d   1      -1.311   1.506  -1.929  0.00  0.00     0.018 C 
ENDBRANCH   1   8
TORSDOF 1
ENDMDL
