MODEL 1
REMARK minimizedAffinity 11.7675838
REMARK minimizedRMSD -1
REMARK  1 active torsions:
REMARK  status: ('A' for Active; 'I' for Inactive)
REMARK    1  A    between atoms: C1_2  and  C2_3 
ROOT
ATOM      1  C2  UNL d   1       0.004  -1.263  -4.629  0.00  0.00    -0.073 A 
ATOM      2  C3  UNL d   1      -0.121  -0.824  -3.306  0.00  0.00    -0.002 A 
ATOM      3  C4  UNL d   1       0.990  -0.334  -2.618  0.00  0.00     0.004 A 
ATOM      4  C5  UNL d   1       2.233  -0.271  -3.246  0.00  0.00    -0.004 A 
ATOM      5  C6  UNL d   1       2.376  -0.693  -4.572  0.00  0.00    -0.075 A 
ATOM      6  C7  UNL d   1       3.707  -0.634  -5.262  0.00  0.00     0.076 C 
ATOM      7  C8  UNL d   1       1.256  -1.187  -5.255  0.00  0.00     0.001 A 
ENDROOT
BRANCH   1   8
ATOM      8  C1  UNL d   1      -1.194  -1.787  -5.378  0.00  0.00     0.053 C 
ATOM      9  C   UNL d   1      -1.026  -3.246  -5.771  0.00  0.00     0.018 C 
ENDBRANCH   1   8
TORSDOF 1
ENDMDL
