MODEL 1
REMARK minimizedAffinity 13.1660175
REMARK minimizedRMSD -1
REMARK  1 active torsions:
REMARK  status: ('A' for Active; 'I' for Inactive)
REMARK    1  A    between atoms: C1_2  and  C2_3 
ROOT
ATOM      1  C2  UNL d   1       0.190   0.877  -1.446  0.00  0.00    -0.073 A 
ATOM      2  C3  UNL d   1       1.449   1.481  -1.354  0.00  0.00    -0.002 A 
ATOM      3  C4  UNL d   1       2.539   0.949  -2.045  0.00  0.00     0.004 A 
ATOM      4  C5  UNL d   1       2.380  -0.186  -2.839  0.00  0.00    -0.004 A 
ATOM      5  C6  UNL d   1       1.127  -0.797  -2.954  0.00  0.00    -0.075 A 
ATOM      6  C7  UNL d   1       0.940  -2.020  -3.803  0.00  0.00     0.076 C 
ATOM      7  C8  UNL d   1       0.038  -0.258  -2.255  0.00  0.00     0.001 A 
ENDROOT
BRANCH   1   8
ATOM      8  C1  UNL d   1      -0.991   1.452  -0.707  0.00  0.00     0.053 C 
ATOM      9  C   UNL d   1      -1.213   0.767   0.632  0.00  0.00     0.018 C 
ENDBRANCH   1   8
TORSDOF 1
ENDMDL
