MODEL 1
REMARK minimizedAffinity 2.39845467
REMARK minimizedRMSD -1
REMARK  0 active torsions:
REMARK  status: ('A' for Active; 'I' for Inactive)
ROOT
ATOM      1  C2' OXE d   1       2.184  -2.522  -0.424  0.00  0.00     0.078 C 
ATOM      2  C1' OXE d   1       3.248   0.055  -0.095  0.00  0.00     0.078 C 
ATOM      3  C1  OXE d   1       1.927  -0.250   0.565  0.00  0.00    -0.078 A 
ATOM      4  C2  OXE d   1       1.391  -1.498   0.360  0.00  0.00    -0.078 A 
ATOM      5  C3  OXE d   1       0.201  -1.850   0.991  0.00  0.00     0.003 A 
ATOM      6  C4  OXE d   1      -0.531  -0.894   1.707  0.00  0.00    -0.002 A 
ATOM      7  C5  OXE d   1      -0.022   0.395   1.895  0.00  0.00    -0.002 A 
ATOM      8  C6  OXE d   1       1.223   0.720   1.368  0.00  0.00     0.003 A 
ENDROOT
TORSDOF 0
ENDMDL
