MODEL 1
REMARK minimizedAffinity 1.6391778
REMARK minimizedRMSD -1
REMARK  0 active torsions:
REMARK  status: ('A' for Active; 'I' for Inactive)
ROOT
ATOM      1  C2' OXE d   1       0.041  -0.146   1.889  0.00  0.00     0.078 C 
ATOM      2  C1' OXE d   1      -1.290  -2.617   1.809  0.00  0.00     0.078 C 
ATOM      3  C1  OXE d   1       0.074  -2.531   1.171  0.00  0.00    -0.078 A 
ATOM      4  C2  OXE d   1       0.698  -1.307   1.174  0.00  0.00    -0.078 A 
ATOM      5  C3  OXE d   1       1.981  -1.186   0.648  0.00  0.00     0.003 A 
ATOM      6  C4  OXE d   1       2.577  -2.262  -0.021  0.00  0.00    -0.002 A 
ATOM      7  C5  OXE d   1       1.942  -3.507  -0.071  0.00  0.00    -0.002 A 
ATOM      8  C6  OXE d   1       0.712  -3.670   0.556  0.00  0.00     0.003 A 
ENDROOT
TORSDOF 0
ENDMDL
