MODEL 1
REMARK minimizedAffinity 2.01941633
REMARK minimizedRMSD -1
REMARK  0 active torsions:
REMARK  status: ('A' for Active; 'I' for Inactive)
ROOT
ATOM      1  C2' OXE d   1       2.343  -3.560   0.117  0.00  0.00     0.078 C 
ATOM      2  C1' OXE d   1       0.074  -4.295   1.597  0.00  0.00     0.078 C 
ATOM      3  C1  OXE d   1       0.382  -2.824   1.466  0.00  0.00    -0.078 A 
ATOM      4  C2  OXE d   1       1.521  -2.476   0.780  0.00  0.00    -0.078 A 
ATOM      5  C3  OXE d   1       1.822  -1.131   0.583  0.00  0.00     0.003 A 
ATOM      6  C4  OXE d   1       1.062  -0.135   1.207  0.00  0.00    -0.002 A 
ATOM      7  C5  OXE d   1      -0.079  -0.470   1.944  0.00  0.00    -0.002 A 
ATOM      8  C6  OXE d   1      -0.456  -1.805   2.047  0.00  0.00     0.003 A 
ENDROOT
TORSDOF 0
ENDMDL
