MODEL 1
REMARK minimizedAffinity -1.76250339
REMARK minimizedRMSD -1
REMARK  0 active torsions:
REMARK  status: ('A' for Active; 'I' for Inactive)
ROOT
ATOM      1  C2' OXE d   1       3.449  -3.889  -0.569  0.00  0.00     0.078 C 
ATOM      2  C1' OXE d   1       1.713  -4.797   1.442  0.00  0.00     0.078 C 
ATOM      3  C1  OXE d   1       1.573  -3.367   0.985  0.00  0.00    -0.078 A 
ATOM      4  C2  OXE d   1       2.457  -2.917   0.034  0.00  0.00    -0.078 A 
ATOM      5  C3  OXE d   1       2.337  -1.622  -0.462  0.00  0.00     0.003 A 
ATOM      6  C4  OXE d   1       1.424  -0.727   0.108  0.00  0.00    -0.002 A 
ATOM      7  C5  OXE d   1       0.541  -1.153   1.106  0.00  0.00    -0.002 A 
ATOM      8  C6  OXE d   1       0.574  -2.478   1.524  0.00  0.00     0.003 A 
ENDROOT
TORSDOF 0
ENDMDL
