MODEL 1
REMARK minimizedAffinity 5.61486053
REMARK minimizedRMSD -1
REMARK  0 active torsions:
REMARK  status: ('A' for Active; 'I' for Inactive)
ROOT
ATOM      1  C2' OXE d   1      -0.521  -3.072   2.216  0.00  0.00     0.078 C 
ATOM      2  C1' OXE d   1       2.148  -3.649   1.566  0.00  0.00     0.078 C 
ATOM      3  C1  OXE d   1       1.672  -2.228   1.391  0.00  0.00    -0.078 A 
ATOM      4  C2  OXE d   1       0.352  -1.965   1.667  0.00  0.00    -0.078 A 
ATOM      5  C3  OXE d   1      -0.125  -0.660   1.575  0.00  0.00     0.003 A 
ATOM      6  C4  OXE d   1       0.687   0.356   1.057  0.00  0.00    -0.002 A 
ATOM      7  C5  OXE d   1       2.024   0.101   0.732  0.00  0.00    -0.002 A 
ATOM      8  C6  OXE d   1       2.543  -1.174   0.933  0.00  0.00     0.003 A 
ENDROOT
TORSDOF 0
ENDMDL
