MODEL 1
REMARK minimizedAffinity 3.92331314
REMARK minimizedRMSD -1
REMARK  0 active torsions:
REMARK  status: ('A' for Active; 'I' for Inactive)
ROOT
ATOM      1  C2' OXE d   1      -3.628   1.510   3.738  0.00  0.00     0.078 C 
ATOM      2  C1' OXE d   1      -6.000   1.848   5.202  0.00  0.00     0.078 C 
ATOM      3  C1  OXE d   1      -4.989   2.967   5.233  0.00  0.00    -0.078 A 
ATOM      4  C2  OXE d   1      -3.811   2.773   4.551  0.00  0.00    -0.078 A 
ATOM      5  C3  OXE d   1      -2.868   3.796   4.502  0.00  0.00     0.003 A 
ATOM      6  C4  OXE d   1      -3.040   4.957   5.265  0.00  0.00    -0.002 A 
ATOM      7  C5  OXE d   1      -4.215   5.157   5.998  0.00  0.00    -0.002 A 
ATOM      8  C6  OXE d   1      -5.216   4.192   5.958  0.00  0.00     0.003 A 
ENDROOT
TORSDOF 0
ENDMDL
