MODEL 1
REMARK minimizedAffinity 4.32926035
REMARK minimizedRMSD -1
REMARK  0 active torsions:
REMARK  status: ('A' for Active; 'I' for Inactive)
ROOT
ATOM      1  C2' OXE d   1       2.105  -2.316   0.387  0.00  0.00     0.078 C 
ATOM      2  C1' OXE d   1       0.802  -4.538   1.503  0.00  0.00     0.078 C 
ATOM      3  C1  OXE d   1       2.258  -4.686   1.138  0.00  0.00    -0.078 A 
ATOM      4  C2  OXE d   1       2.875  -3.609   0.549  0.00  0.00    -0.078 A 
ATOM      5  C3  OXE d   1       4.231  -3.675   0.242  0.00  0.00     0.003 A 
ATOM      6  C4  OXE d   1       4.933  -4.877   0.387  0.00  0.00    -0.002 A 
ATOM      7  C5  OXE d   1       4.313  -5.999   0.948  0.00  0.00    -0.002 A 
ATOM      8  C6  OXE d   1       2.990  -5.907   1.367  0.00  0.00     0.003 A 
ENDROOT
TORSDOF 0
ENDMDL
