MODEL 1
REMARK minimizedAffinity -0.136029601
REMARK minimizedRMSD -1
REMARK  0 active torsions:
REMARK  status: ('A' for Active; 'I' for Inactive)
ROOT
ATOM      1  C2' OXE d   1      -4.124   1.591  -4.125  0.00  0.00     0.078 C 
ATOM      2  C1' OXE d   1      -5.798   0.341  -6.000  0.00  0.00     0.078 C 
ATOM      3  C1  OXE d   1      -4.696  -0.483  -5.382  0.00  0.00    -0.078 A 
ATOM      4  C2  OXE d   1      -3.853   0.150  -4.500  0.00  0.00    -0.078 A 
ATOM      5  C3  OXE d   1      -2.854  -0.578  -3.860  0.00  0.00     0.003 A 
ATOM      6  C4  OXE d   1      -2.603  -1.907  -4.220  0.00  0.00    -0.002 A 
ATOM      7  C5  OXE d   1      -3.426  -2.559  -5.145  0.00  0.00    -0.002 A 
ATOM      8  C6  OXE d   1      -4.500  -1.875  -5.702  0.00  0.00     0.003 A 
ENDROOT
TORSDOF 0
ENDMDL
