MODEL 1
REMARK minimizedAffinity 3.05662203
REMARK minimizedRMSD -1
REMARK  0 active torsions:
REMARK  status: ('A' for Active; 'I' for Inactive)
ROOT
ATOM      1  C2' OXE d   1      -5.997   1.347   5.007  0.00  0.00     0.078 C 
ATOM      2  C1' OXE d   1      -3.907   1.477   3.137  0.00  0.00     0.078 C 
ATOM      3  C1  OXE d   1      -4.026   2.598   4.139  0.00  0.00    -0.078 A 
ATOM      4  C2  OXE d   1      -5.079   2.550   5.020  0.00  0.00    -0.078 A 
ATOM      5  C3  OXE d   1      -5.204   3.531   6.000  0.00  0.00     0.003 A 
ATOM      6  C4  OXE d   1      -4.357   4.646   5.999  0.00  0.00    -0.002 A 
ATOM      7  C5  OXE d   1      -3.301   4.734   5.084  0.00  0.00    -0.002 A 
ATOM      8  C6  OXE d   1      -3.097   3.701   4.177  0.00  0.00     0.003 A 
ENDROOT
TORSDOF 0
ENDMDL
