MODEL 1
REMARK minimizedAffinity 2.06357384
REMARK minimizedRMSD -1
REMARK  0 active torsions:
REMARK  status: ('A' for Active; 'I' for Inactive)
ROOT
ATOM      1  C4' PXY d   1       4.129  -1.025  -1.848  0.00  0.00     0.077 C 
ATOM      2  C1' PXY d   1      -0.470  -0.400   1.597  0.00  0.00     0.077 C 
ATOM      3  C1  PXY d   1       0.740  -0.574   0.701  0.00  0.00    -0.082 A 
ATOM      4  C2  PXY d   1       1.215   0.465   0.034  0.00  0.00     0.003 A 
ATOM      5  C3  PXY d   1       2.288   0.318  -0.806  0.00  0.00     0.003 A 
ATOM      6  C4  PXY d   1       2.915  -0.893  -0.924  0.00  0.00    -0.082 A 
ATOM      7  C5  PXY d   1       2.443  -1.956  -0.238  0.00  0.00     0.003 A 
ATOM      8  C6  PXY d   1       1.327  -1.796   0.577  0.00  0.00     0.003 A 
ENDROOT
TORSDOF 0
ENDMDL
