MODEL 1
REMARK minimizedAffinity -6.66271114
REMARK minimizedRMSD -1
REMARK  0 active torsions:
REMARK  status: ('A' for Active; 'I' for Inactive)
ROOT
ATOM      1  C4' PXY d   1      -0.795  -0.648   1.675  0.00  0.00     0.077 C 
ATOM      2  C1' PXY d   1       3.911  -0.141  -1.643  0.00  0.00     0.077 C 
ATOM      3  C1  PXY d   1       2.675  -0.286  -0.778  0.00  0.00    -0.082 A 
ATOM      4  C2  PXY d   1       2.043   0.796  -0.353  0.00  0.00     0.003 A 
ATOM      5  C3  PXY d   1       0.942   0.684   0.456  0.00  0.00     0.003 A 
ATOM      6  C4  PXY d   1       0.451  -0.550   0.791  0.00  0.00    -0.082 A 
ATOM      7  C5  PXY d   1       1.084  -1.659   0.353  0.00  0.00     0.003 A 
ATOM      8  C6  PXY d   1       2.224  -1.523  -0.434  0.00  0.00     0.003 A 
ENDROOT
TORSDOF 0
ENDMDL
