MODEL 1
REMARK minimizedAffinity 6.18700647
REMARK minimizedRMSD -1
REMARK  0 active torsions:
REMARK  status: ('A' for Active; 'I' for Inactive)
ROOT
ATOM      1  C4' PXY d   1       1.570   0.773   3.088  0.00  0.00     0.077 C 
ATOM      2  C1' PXY d   1       2.511  -2.649  -1.474  0.00  0.00     0.077 C 
ATOM      3  C1  PXY d   1       2.254  -1.747  -0.284  0.00  0.00    -0.082 A 
ATOM      4  C2  PXY d   1       3.254  -1.424   0.520  0.00  0.00     0.003 A 
ATOM      5  C3  PXY d   1       3.033  -0.634   1.620  0.00  0.00     0.003 A 
ATOM      6  C4  PXY d   1       1.785  -0.128   1.869  0.00  0.00    -0.082 A 
ATOM      7  C5  PXY d   1       0.762  -0.444   1.048  0.00  0.00     0.003 A 
ATOM      8  C6  PXY d   1       0.999  -1.280  -0.040  0.00  0.00     0.003 A 
ENDROOT
TORSDOF 0
ENDMDL
