MODEL 1
REMARK minimizedAffinity -4.70408154
REMARK minimizedRMSD -1
REMARK  0 active torsions:
REMARK  status: ('A' for Active; 'I' for Inactive)
ROOT
ATOM      1  C4' PXY d   1       4.593  -0.715  -2.500  0.00  0.00     0.077 C 
ATOM      2  C1' PXY d   1       0.118  -0.183   1.119  0.00  0.00     0.077 C 
ATOM      3  C1  PXY d   1       1.287  -0.312   0.163  0.00  0.00    -0.082 A 
ATOM      4  C2  PXY d   1       1.941  -1.460   0.081  0.00  0.00     0.003 A 
ATOM      5  C3  PXY d   1       3.020  -1.585  -0.755  0.00  0.00     0.003 A 
ATOM      6  C4  PXY d   1       3.401  -0.541  -1.555  0.00  0.00    -0.082 A 
ATOM      7  C5  PXY d   1       2.732   0.629  -1.486  0.00  0.00     0.003 A 
ATOM      8  C6  PXY d   1       1.665   0.749  -0.600  0.00  0.00     0.003 A 
ENDROOT
TORSDOF 0
ENDMDL
