MODEL 1
REMARK minimizedAffinity -2.04209352
REMARK minimizedRMSD -1
REMARK  0 active torsions:
REMARK  status: ('A' for Active; 'I' for Inactive)
ROOT
ATOM      1  C4' PXY d   1       4.960   0.356  -2.835  0.00  0.00     0.077 C 
ATOM      2  C1' PXY d   1       0.582  -0.571   0.824  0.00  0.00     0.077 C 
ATOM      3  C1  PXY d   1       1.725  -0.317  -0.140  0.00  0.00    -0.082 A 
ATOM      4  C2  PXY d   1       2.438  -1.335  -0.592  0.00  0.00     0.003 A 
ATOM      5  C3  PXY d   1       3.495  -1.120  -1.438  0.00  0.00     0.003 A 
ATOM      6  C4  PXY d   1       3.792   0.145  -1.869  0.00  0.00    -0.082 A 
ATOM      7  C5  PXY d   1       3.062   1.189  -1.420  0.00  0.00     0.003 A 
ATOM      8  C6  PXY d   1       2.019   0.954  -0.529  0.00  0.00     0.003 A 
ENDROOT
TORSDOF 0
ENDMDL
