MODEL 1
REMARK minimizedAffinity -5.18428946
REMARK minimizedRMSD -1
REMARK  0 active torsions:
REMARK  status: ('A' for Active; 'I' for Inactive)
ROOT
ATOM      1  C4' PXY d   1       4.915  -0.023  -2.714  0.00  0.00     0.077 C 
ATOM      2  C1' PXY d   1       0.343  -1.073   0.663  0.00  0.00     0.077 C 
ATOM      3  C1  PXY d   1       1.535  -0.788  -0.228  0.00  0.00    -0.082 A 
ATOM      4  C2  PXY d   1       2.406  -1.751  -0.484  0.00  0.00     0.003 A 
ATOM      5  C3  PXY d   1       3.507  -1.502  -1.262  0.00  0.00     0.003 A 
ATOM      6  C4  PXY d   1       3.691  -0.269  -1.827  0.00  0.00    -0.082 A 
ATOM      7  C5  PXY d   1       2.802   0.716  -1.579  0.00  0.00     0.003 A 
ATOM      8  C6  PXY d   1       1.713   0.454  -0.754  0.00  0.00     0.003 A 
ENDROOT
TORSDOF 0
ENDMDL
