MODEL 1
REMARK minimizedAffinity -0.863024354
REMARK minimizedRMSD -1
REMARK  0 active torsions:
REMARK  status: ('A' for Active; 'I' for Inactive)
ROOT
ATOM      1  C4' PXY d   1      -0.407  -0.443   1.096  0.00  0.00     0.077 C 
ATOM      2  C1' PXY d   1       4.834  -1.055  -1.264  0.00  0.00     0.077 C 
ATOM      3  C1  PXY d   1       3.463  -0.882  -0.642  0.00  0.00    -0.082 A 
ATOM      4  C2  PXY d   1       2.790  -1.947  -0.235  0.00  0.00     0.003 A 
ATOM      5  C3  PXY d   1       1.535  -1.811   0.301  0.00  0.00     0.003 A 
ATOM      6  C4  PXY d   1       0.985  -0.569   0.471  0.00  0.00    -0.082 A 
ATOM      7  C5  PXY d   1       1.669   0.523   0.068  0.00  0.00     0.003 A 
ATOM      8  C6  PXY d   1       2.924   0.360  -0.511  0.00  0.00     0.003 A 
ENDROOT
TORSDOF 0
ENDMDL
