MODEL 1
REMARK minimizedAffinity 5.47359419
REMARK minimizedRMSD -1
REMARK  0 active torsions:
REMARK  status: ('A' for Active; 'I' for Inactive)
ROOT
ATOM      1  C4' PXY d   1       5.018  -1.074  -2.495  0.00  0.00     0.077 C 
ATOM      2  C1' PXY d   1       0.269  -0.534   0.756  0.00  0.00     0.077 C 
ATOM      3  C1  PXY d   1       1.519  -0.686  -0.089  0.00  0.00    -0.082 A 
ATOM      4  C2  PXY d   1       1.980   0.353  -0.766  0.00  0.00     0.003 A 
ATOM      5  C3  PXY d   1       3.091   0.225  -1.561  0.00  0.00     0.003 A 
ATOM      6  C4  PXY d   1       3.766  -0.965  -1.621  0.00  0.00    -0.082 A 
ATOM      7  C5  PXY d   1       3.307  -2.026  -0.925  0.00  0.00     0.003 A 
ATOM      8  C6  PXY d   1       2.155  -1.887  -0.157  0.00  0.00     0.003 A 
ENDROOT
TORSDOF 0
ENDMDL
