MODEL 1
REMARK minimizedAffinity 0.139970526
REMARK minimizedRMSD -1
REMARK  0 active torsions:
REMARK  status: ('A' for Active; 'I' for Inactive)
ROOT
ATOM      1  C4' PXY d   1       0.304  -0.131   0.944  0.00  0.00     0.077 C 
ATOM      2  C1' PXY d   1       5.077  -0.416  -2.305  0.00  0.00     0.077 C 
ATOM      3  C1  PXY d   1       3.828  -0.329  -1.450  0.00  0.00    -0.082 A 
ATOM      4  C2  PXY d   1       3.309  -1.432  -0.936  0.00  0.00     0.003 A 
ATOM      5  C3  PXY d   1       2.161  -1.375  -0.187  0.00  0.00     0.003 A 
ATOM      6  C4  PXY d   1       1.570  -0.170   0.083  0.00  0.00    -0.082 A 
ATOM      7  C5  PXY d   1       2.100   0.961  -0.429  0.00  0.00     0.003 A 
ATOM      8  C6  PXY d   1       3.241   0.877  -1.220  0.00  0.00     0.003 A 
ENDROOT
TORSDOF 0
ENDMDL
