MODEL 1
REMARK minimizedAffinity 3.76445079
REMARK minimizedRMSD -1
REMARK  0 active torsions:
REMARK  status: ('A' for Active; 'I' for Inactive)
ROOT
ATOM      1  C4' PXY d   1       3.120   1.892  -0.647  0.00  0.00     0.077 C 
ATOM      2  C1' PXY d   1      -0.863  -1.587   1.687  0.00  0.00     0.077 C 
ATOM      3  C1  PXY d   1       0.176  -0.664   1.080  0.00  0.00    -0.082 A 
ATOM      4  C2  PXY d   1       0.847  -1.050   0.008  0.00  0.00     0.003 A 
ATOM      5  C3  PXY d   1       1.813  -0.242  -0.535  0.00  0.00     0.003 A 
ATOM      6  C4  PXY d   1       2.056   0.997  -0.006  0.00  0.00    -0.082 A 
ATOM      7  C5  PXY d   1       1.368   1.403   1.082  0.00  0.00     0.003 A 
ATOM      8  C6  PXY d   1       0.421   0.551   1.642  0.00  0.00     0.003 A 
ENDROOT
TORSDOF 0
ENDMDL
