MODEL 1
REMARK minimizedAffinity 2.96140909
REMARK minimizedRMSD -1
REMARK  0 active torsions:
REMARK  status: ('A' for Active; 'I' for Inactive)
ROOT
ATOM      1  C4' PXY d   1       1.528  -3.740   1.232  0.00  0.00     0.077 C 
ATOM      2  C1' PXY d   1       1.514   1.753  -0.569  0.00  0.00     0.077 C 
ATOM      3  C1  PXY d   1       1.529   0.311  -0.103  0.00  0.00    -0.082 A 
ATOM      4  C2  PXY d   1       0.395  -0.276   0.244  0.00  0.00     0.003 A 
ATOM      5  C3  PXY d   1       0.394  -1.570   0.698  0.00  0.00     0.003 A 
ATOM      6  C4  PXY d   1       1.559  -2.288   0.746  0.00  0.00    -0.082 A 
ATOM      7  C5  PXY d   1       2.719  -1.699   0.383  0.00  0.00     0.003 A 
ATOM      8  C6  PXY d   1       2.704  -0.372  -0.035  0.00  0.00     0.003 A 
ENDROOT
TORSDOF 0
ENDMDL
