MODEL 1
REMARK minimizedAffinity -6.76214123
REMARK minimizedRMSD -1
REMARK  0 active torsions:
REMARK  status: ('A' for Active; 'I' for Inactive)
ROOT
ATOM      1  C4' PXY d   1       0.080  -0.403   0.918  0.00  0.00     0.077 C 
ATOM      2  C1' PXY d   1       4.802  -0.257  -2.414  0.00  0.00     0.077 C 
ATOM      3  C1  PXY d   1       3.566  -0.283  -1.537  0.00  0.00    -0.082 A 
ATOM      4  C2  PXY d   1       3.113  -1.439  -1.078  0.00  0.00     0.003 A 
ATOM      5  C3  PXY d   1       1.978  -1.483  -0.310  0.00  0.00     0.003 A 
ATOM      6  C4  PXY d   1       1.330  -0.328   0.037  0.00  0.00    -0.082 A 
ATOM      7  C5  PXY d   1       1.792   0.856  -0.419  0.00  0.00     0.003 A 
ATOM      8  C6  PXY d   1       2.922   0.876  -1.231  0.00  0.00     0.003 A 
ENDROOT
TORSDOF 0
ENDMDL
