MODEL 1
REMARK minimizedAffinity -3.69804955
REMARK minimizedRMSD -1
REMARK  0 active torsions:
REMARK  status: ('A' for Active; 'I' for Inactive)
ROOT
ATOM      1  C4' PXY d   1       4.802  -0.371  -2.453  0.00  0.00     0.077 C 
ATOM      2  C1' PXY d   1       0.339  -0.517   1.218  0.00  0.00     0.077 C 
ATOM      3  C1  PXY d   1       1.516  -0.488   0.262  0.00  0.00    -0.082 A 
ATOM      4  C2  PXY d   1       1.754   0.602  -0.449  0.00  0.00     0.003 A 
ATOM      5  C3  PXY d   1       2.795   0.634  -1.341  0.00  0.00     0.003 A 
ATOM      6  C4  PXY d   1       3.632  -0.442  -1.469  0.00  0.00    -0.082 A 
ATOM      7  C5  PXY d   1       3.401  -1.554  -0.739  0.00  0.00     0.003 A 
ATOM      8  C6  PXY d   1       2.315  -1.581   0.131  0.00  0.00     0.003 A 
ENDROOT
TORSDOF 0
ENDMDL
