MODEL 1
REMARK minimizedAffinity 3.42563748
REMARK minimizedRMSD -1
REMARK  0 active torsions:
REMARK  status: ('A' for Active; 'I' for Inactive)
ROOT
ATOM      1  C4' PXY d   1       1.044   2.455   1.149  0.00  0.00     0.077 C 
ATOM      2  C1' PXY d   1       2.424  -2.658  -1.168  0.00  0.00     0.077 C 
ATOM      3  C1  PXY d   1       2.052  -1.322  -0.554  0.00  0.00    -0.082 A 
ATOM      4  C2  PXY d   1       2.450  -0.202  -1.135  0.00  0.00     0.003 A 
ATOM      5  C3  PXY d   1       2.149   1.014  -0.576  0.00  0.00     0.003 A 
ATOM      6  C4  PXY d   1       1.388   1.085   0.560  0.00  0.00    -0.082 A 
ATOM      7  C5  PXY d   1       0.969  -0.054   1.152  0.00  0.00     0.003 A 
ATOM      8  C6  PXY d   1       1.320  -1.278   0.592  0.00  0.00     0.003 A 
ENDROOT
TORSDOF 0
ENDMDL
