MODEL 1
REMARK minimizedAffinity -6.28395653
REMARK minimizedRMSD -1
REMARK  0 active torsions:
REMARK  status: ('A' for Active; 'I' for Inactive)
ROOT
ATOM      1  C4' PXY d   1       4.603  -0.388  -2.379  0.00  0.00     0.077 C 
ATOM      2  C1' PXY d   1      -0.133  -0.499   0.934  0.00  0.00     0.077 C 
ATOM      3  C1  PXY d   1       1.105  -0.459   0.060  0.00  0.00    -0.082 A 
ATOM      4  C2  PXY d   1       1.784  -1.572  -0.164  0.00  0.00     0.003 A 
ATOM      5  C3  PXY d   1       2.923  -1.548  -0.926  0.00  0.00     0.003 A 
ATOM      6  C4  PXY d   1       3.342  -0.383  -1.510  0.00  0.00    -0.082 A 
ATOM      7  C5  PXY d   1       2.648   0.755  -1.295  0.00  0.00     0.003 A 
ATOM      8  C6  PXY d   1       1.518   0.718  -0.485  0.00  0.00     0.003 A 
ENDROOT
TORSDOF 0
ENDMDL
