MODEL 1
REMARK minimizedAffinity -2.91811085
REMARK minimizedRMSD -1
REMARK  0 active torsions:
REMARK  status: ('A' for Active; 'I' for Inactive)
ROOT
ATOM      1  C4' PXY d   1       4.877  -0.400  -2.530  0.00  0.00     0.077 C 
ATOM      2  C1' PXY d   1       0.292  -0.161   0.982  0.00  0.00     0.077 C 
ATOM      3  C1  PXY d   1       1.499  -0.233   0.069  0.00  0.00    -0.082 A 
ATOM      4  C2  PXY d   1       1.842   0.825  -0.648  0.00  0.00     0.003 A 
ATOM      5  C3  PXY d   1       2.912   0.767  -1.503  0.00  0.00     0.003 A 
ATOM      6  C4  PXY d   1       3.671  -0.369  -1.587  0.00  0.00    -0.082 A 
ATOM      7  C5  PXY d   1       3.335  -1.450  -0.851  0.00  0.00     0.003 A 
ATOM      8  C6  PXY d   1       2.220  -1.384  -0.019  0.00  0.00     0.003 A 
ENDROOT
TORSDOF 0
ENDMDL
