MODEL 1
REMARK minimizedAffinity 0.890424192
REMARK minimizedRMSD -1
REMARK  0 active torsions:
REMARK  status: ('A' for Active; 'I' for Inactive)
ROOT
ATOM      1  C4' PXY d   1       4.466  -0.673  -1.675  0.00  0.00     0.077 C 
ATOM      2  C1' PXY d   1      -0.402  -0.318   1.423  0.00  0.00     0.077 C 
ATOM      3  C1  PXY d   1       0.875  -0.398   0.610  0.00  0.00    -0.082 A 
ATOM      4  C2  PXY d   1       1.148  -1.498  -0.073  0.00  0.00     0.003 A 
ATOM      5  C3  PXY d   1       2.313  -1.600  -0.788  0.00  0.00     0.003 A 
ATOM      6  C4  PXY d   1       3.184  -0.544  -0.848  0.00  0.00    -0.082 A 
ATOM      7  C5  PXY d   1       2.907   0.586  -0.163  0.00  0.00     0.003 A 
ATOM      8  C6  PXY d   1       1.738   0.653   0.590  0.00  0.00     0.003 A 
ENDROOT
TORSDOF 0
ENDMDL
