MODEL 1
REMARK minimizedAffinity -1.41035032
REMARK minimizedRMSD -1
REMARK  0 active torsions:
REMARK  status: ('A' for Active; 'I' for Inactive)
ROOT
ATOM      1  C4' PXY d   1       4.912  -0.649  -2.222  0.00  0.00     0.077 C 
ATOM      2  C1' PXY d   1       0.155  -0.341   1.048  0.00  0.00     0.077 C 
ATOM      3  C1  PXY d   1       1.401  -0.410   0.186  0.00  0.00    -0.082 A 
ATOM      4  C2  PXY d   1       1.851  -1.586  -0.221  0.00  0.00     0.003 A 
ATOM      5  C3  PXY d   1       2.993  -1.668  -0.974  0.00  0.00     0.003 A 
ATOM      6  C4  PXY d   1       3.653  -0.532  -1.359  0.00  0.00    -0.082 A 
ATOM      7  C5  PXY d   1       3.194   0.672  -0.956  0.00  0.00     0.003 A 
ATOM      8  C6  PXY d   1       2.056   0.732  -0.158  0.00  0.00     0.003 A 
ENDROOT
TORSDOF 0
ENDMDL
