MODEL 1
REMARK minimizedAffinity 0.11823222
REMARK minimizedRMSD -1
REMARK  0 active torsions:
REMARK  status: ('A' for Active; 'I' for Inactive)
ROOT
ATOM      1  C4' PXY d   1       4.412  -0.709  -2.075  0.00  0.00     0.077 C 
ATOM      2  C1' PXY d   1      -0.125   0.099   1.414  0.00  0.00     0.077 C 
ATOM      3  C1  PXY d   1       1.063  -0.101   0.494  0.00  0.00    -0.082 A 
ATOM      4  C2  PXY d   1       1.445  -1.327   0.176  0.00  0.00     0.003 A 
ATOM      5  C3  PXY d   1       2.537  -1.526  -0.630  0.00  0.00     0.003 A 
ATOM      6  C4  PXY d   1       3.213  -0.459  -1.157  0.00  0.00    -0.082 A 
ATOM      7  C5  PXY d   1       2.823   0.795  -0.846  0.00  0.00     0.003 A 
ATOM      8  C6  PXY d   1       1.737   0.976   0.006  0.00  0.00     0.003 A 
ENDROOT
TORSDOF 0
ENDMDL
