MODEL 1
REMARK minimizedAffinity -1.17011094
REMARK minimizedRMSD -1
REMARK  0 active torsions:
REMARK  status: ('A' for Active; 'I' for Inactive)
ROOT
ATOM      1  C   UNL d   1       1.724   5.003  -5.918  0.00  0.00     0.172 C 
ATOM      2  N   UNL d   1       3.165   4.920  -5.948  0.00  0.00    -0.070 N 
ATOM      3  C1  UNL d   1       3.898   3.764  -5.976  0.00  0.00    -0.004 A 
ATOM      4  C2  UNL d   1       5.232   4.110  -5.999  0.00  0.00    -0.047 A 
ATOM      5  C3  UNL d   1       5.303   5.524  -5.984  0.00  0.00    -0.047 A 
ATOM      6  C4  UNL d   1       4.009   5.999  -5.952  0.00  0.00    -0.004 A 
ENDROOT
TORSDOF 0
ENDMDL
