MODEL 1
REMARK minimizedAffinity -2.99838185
REMARK minimizedRMSD -1
REMARK  0 active torsions:
REMARK  status: ('A' for Active; 'I' for Inactive)
ROOT
ATOM      1  C   UNL d   1       5.952   5.297  -6.000  0.00  0.00     0.172 C 
ATOM      2  N   UNL d   1       4.965   4.326  -5.589  0.00  0.00    -0.070 N 
ATOM      3  C1  UNL d   1       3.684   4.608  -5.196  0.00  0.00    -0.004 A 
ATOM      4  C2  UNL d   1       3.065   3.416  -4.886  0.00  0.00    -0.047 A 
ATOM      5  C3  UNL d   1       4.008   2.382  -5.101  0.00  0.00    -0.047 A 
ATOM      6  C4  UNL d   1       5.175   2.974  -5.535  0.00  0.00    -0.004 A 
ENDROOT
TORSDOF 0
ENDMDL
