MODEL 1
REMARK minimizedAffinity -1.56252635
REMARK minimizedRMSD -1
REMARK  0 active torsions:
REMARK  status: ('A' for Active; 'I' for Inactive)
ROOT
ATOM      1  C   UNL d   1       5.689   4.730  -6.000  0.00  0.00     0.172 C 
ATOM      2  N   UNL d   1       4.479   3.949  -5.884  0.00  0.00    -0.070 N 
ATOM      3  C1  UNL d   1       4.418   2.603  -5.645  0.00  0.00    -0.004 A 
ATOM      4  C2  UNL d   1       3.088   2.241  -5.606  0.00  0.00    -0.047 A 
ATOM      5  C3  UNL d   1       2.325   3.411  -5.831  0.00  0.00    -0.047 A 
ATOM      6  C4  UNL d   1       3.211   4.454  -6.000  0.00  0.00    -0.004 A 
ENDROOT
TORSDOF 0
ENDMDL
