MODEL 1
REMARK minimizedAffinity -2.55504203
REMARK minimizedRMSD -1
REMARK  0 active torsions:
REMARK  status: ('A' for Active; 'I' for Inactive)
ROOT
ATOM      1  C   UNL d   1       4.125   1.876  -4.876  0.00  0.00     0.172 C 
ATOM      2  N   UNL d   1       3.878   3.262  -5.200  0.00  0.00    -0.070 N 
ATOM      3  C1  UNL d   1       2.752   3.969  -4.874  0.00  0.00    -0.004 A 
ATOM      4  C2  UNL d   1       2.903   5.250  -5.360  0.00  0.00    -0.047 A 
ATOM      5  C3  UNL d   1       4.164   5.314  -5.999  0.00  0.00    -0.047 A 
ATOM      6  C4  UNL d   1       4.746   4.070  -5.886  0.00  0.00    -0.004 A 
ENDROOT
TORSDOF 0
ENDMDL
