MODEL 1
REMARK minimizedAffinity -1.16758847
REMARK minimizedRMSD -1
REMARK  0 active torsions:
REMARK  status: ('A' for Active; 'I' for Inactive)
ROOT
ATOM      1  C   UNL d   1       2.437   5.298  -5.996  0.00  0.00     0.172 C 
ATOM      2  N   UNL d   1       3.351   4.212  -5.729  0.00  0.00    -0.070 N 
ATOM      3  C1  UNL d   1       3.018   3.006  -5.173  0.00  0.00    -0.004 A 
ATOM      4  C2  UNL d   1       4.166   2.249  -5.086  0.00  0.00    -0.047 A 
ATOM      5  C3  UNL d   1       5.227   3.028  -5.608  0.00  0.00    -0.047 A 
ATOM      6  C4  UNL d   1       4.694   4.238  -5.998  0.00  0.00    -0.004 A 
ENDROOT
TORSDOF 0
ENDMDL
