MODEL 1
REMARK minimizedAffinity -2.39372706
REMARK minimizedRMSD -1
REMARK  0 active torsions:
REMARK  status: ('A' for Active; 'I' for Inactive)
ROOT
ATOM      1  C   UNL d   1       3.739   2.428  -5.632  0.00  0.00     0.172 C 
ATOM      2  N   UNL d   1       3.205   3.762  -5.767  0.00  0.00    -0.070 N 
ATOM      3  C1  UNL d   1       1.876   4.092  -5.789  0.00  0.00    -0.004 A 
ATOM      4  C2  UNL d   1       1.782   5.459  -5.932  0.00  0.00    -0.047 A 
ATOM      5  C3  UNL d   1       3.100   5.969  -6.000  0.00  0.00    -0.047 A 
ATOM      6  C4  UNL d   1       3.961   4.897  -5.895  0.00  0.00    -0.004 A 
ENDROOT
TORSDOF 0
ENDMDL
