MODEL 1
REMARK minimizedAffinity -1.92137563
REMARK minimizedRMSD -1
REMARK  0 active torsions:
REMARK  status: ('A' for Active; 'I' for Inactive)
ROOT
ATOM      1  C   UNL d   1       1.175   4.115  -5.595  0.00  0.00     0.172 C 
ATOM      2  N   UNL d   1       2.547   3.676  -5.693  0.00  0.00    -0.070 N 
ATOM      3  C1  UNL d   1       2.992   2.395  -5.498  0.00  0.00    -0.004 A 
ATOM      4  C2  UNL d   1       4.357   2.390  -5.683  0.00  0.00    -0.047 A 
ATOM      5  C3  UNL d   1       4.747   3.713  -6.000  0.00  0.00    -0.047 A 
ATOM      6  C4  UNL d   1       3.607   4.488  -5.999  0.00  0.00    -0.004 A 
ENDROOT
TORSDOF 0
ENDMDL
