MODEL 1
REMARK minimizedAffinity -0.774089754
REMARK minimizedRMSD -1
REMARK  0 active torsions:
REMARK  status: ('A' for Active; 'I' for Inactive)
ROOT
ATOM      1  C   UNL d   1       0.172   4.807  -5.998  0.00  0.00     0.172 C 
ATOM      2  N   UNL d   1       1.407   4.372  -5.390  0.00  0.00    -0.070 N 
ATOM      3  C1  UNL d   1       1.830   4.688  -4.126  0.00  0.00    -0.004 A 
ATOM      4  C2  UNL d   1       3.050   4.081  -3.925  0.00  0.00    -0.047 A 
ATOM      5  C3  UNL d   1       3.374   3.377  -5.110  0.00  0.00    -0.047 A 
ATOM      6  C4  UNL d   1       2.339   3.574  -6.000  0.00  0.00    -0.004 A 
ENDROOT
TORSDOF 0
ENDMDL
