MODEL 1
REMARK minimizedAffinity -2.76656795
REMARK minimizedRMSD -1
REMARK  0 active torsions:
REMARK  status: ('A' for Active; 'I' for Inactive)
ROOT
ATOM      1  C   UNL d   1       3.689   1.997  -5.725  0.00  0.00     0.172 C 
ATOM      2  N   UNL d   1       3.287   3.384  -5.762  0.00  0.00    -0.070 N 
ATOM      3  C1  UNL d   1       2.006   3.848  -5.623  0.00  0.00    -0.004 A 
ATOM      4  C2  UNL d   1       2.043   5.222  -5.716  0.00  0.00    -0.047 A 
ATOM      5  C3  UNL d   1       3.392   5.597  -5.919  0.00  0.00    -0.047 A 
ATOM      6  C4  UNL d   1       4.141   4.440  -5.943  0.00  0.00    -0.004 A 
ENDROOT
TORSDOF 0
ENDMDL
