MODEL 1
REMARK minimizedAffinity -2.61220884
REMARK minimizedRMSD -1
REMARK  0 active torsions:
REMARK  status: ('A' for Active; 'I' for Inactive)
ROOT
ATOM      1  C   UNL d   1       5.981   3.285  -5.951  0.00  0.00     0.172 C 
ATOM      2  N   UNL d   1       4.566   3.570  -5.910  0.00  0.00    -0.070 N 
ATOM      3  C1  UNL d   1       4.000   4.814  -5.997  0.00  0.00    -0.004 A 
ATOM      4  C2  UNL d   1       2.632   4.661  -5.919  0.00  0.00    -0.047 A 
ATOM      5  C3  UNL d   1       2.368   3.278  -5.780  0.00  0.00    -0.047 A 
ATOM      6  C4  UNL d   1       3.582   2.626  -5.777  0.00  0.00    -0.004 A 
ENDROOT
TORSDOF 0
ENDMDL
