MODEL 1
REMARK minimizedAffinity -2.53190684
REMARK minimizedRMSD -1
REMARK  0 active torsions:
REMARK  status: ('A' for Active; 'I' for Inactive)
ROOT
ATOM      1  C   UNL d   1       5.777   5.578  -5.999  0.00  0.00     0.172 C 
ATOM      2  N   UNL d   1       4.704   4.640  -5.768  0.00  0.00    -0.070 N 
ATOM      3  C1  UNL d   1       3.375   4.874  -6.000  0.00  0.00    -0.004 A 
ATOM      4  C2  UNL d   1       2.679   3.736  -5.654  0.00  0.00    -0.047 A 
ATOM      5  C3  UNL d   1       3.623   2.785  -5.197  0.00  0.00    -0.047 A 
ATOM      6  C4  UNL d   1       4.868   3.371  -5.279  0.00  0.00    -0.004 A 
ENDROOT
TORSDOF 0
ENDMDL
