MODEL 1
REMARK minimizedAffinity -1.91380048
REMARK minimizedRMSD -1
REMARK  0 active torsions:
REMARK  status: ('A' for Active; 'I' for Inactive)
ROOT
ATOM      1  C   UNL d   1       4.036   2.438  -5.624  0.00  0.00     0.172 C 
ATOM      2  N   UNL d   1       3.010   3.384  -5.253  0.00  0.00    -0.070 N 
ATOM      3  C1  UNL d   1       2.996   4.138  -4.110  0.00  0.00    -0.004 A 
ATOM      4  C2  UNL d   1       1.854   4.910  -4.128  0.00  0.00    -0.047 A 
ATOM      5  C3  UNL d   1       1.158   4.609  -5.323  0.00  0.00    -0.047 A 
ATOM      6  C4  UNL d   1       1.896   3.661  -6.000  0.00  0.00    -0.004 A 
ENDROOT
TORSDOF 0
ENDMDL
