MODEL 1
REMARK minimizedAffinity -2.17339969
REMARK minimizedRMSD -1
REMARK  0 active torsions:
REMARK  status: ('A' for Active; 'I' for Inactive)
ROOT
ATOM      1  C   UNL d   1       4.090   1.866  -4.876  0.00  0.00     0.172 C 
ATOM      2  N   UNL d   1       4.114   3.236  -5.329  0.00  0.00    -0.070 N 
ATOM      3  C1  UNL d   1       3.014   4.019  -5.562  0.00  0.00    -0.004 A 
ATOM      4  C2  UNL d   1       3.458   5.256  -5.980  0.00  0.00    -0.047 A 
ATOM      5  C3  UNL d   1       4.872   5.214  -6.000  0.00  0.00    -0.047 A 
ATOM      6  C4  UNL d   1       5.251   3.952  -5.593  0.00  0.00    -0.004 A 
ENDROOT
TORSDOF 0
ENDMDL
