MODEL 1
REMARK minimizedAffinity -3.62983608
REMARK minimizedRMSD -1
REMARK  0 active torsions:
REMARK  status: ('A' for Active; 'I' for Inactive)
ROOT
ATOM      1  C   UNL d   1       0.429   3.136   0.280  0.00  0.00     0.124 A 
ATOM      2  C1  UNL d   1       1.578   2.361   0.199  0.00  0.00     0.062 A 
ATOM      3  C2  UNL d   1       1.487   0.972   0.210  0.00  0.00     0.162 A 
ATOM      4  C3  UNL d   1       0.242   0.348   0.302  0.00  0.00    -0.034 A 
ATOM      5  C4  UNL d   1      -0.908   1.134   0.384  0.00  0.00     0.162 A 
ATOM      6  C5  UNL d   1      -0.812   2.522   0.372  0.00  0.00     0.062 A 
ATOM      7  F   UNL d   1      -1.923   3.269   0.450  0.00  0.00    -0.097 F 
ATOM      8  F1  UNL d   1      -2.121   0.568   0.473  0.00  0.00    -0.096 F 
ATOM      9  I   UNL d   1       0.103  -1.728   0.320  0.00  0.00    -0.060 I 
ATOM     10  F2  UNL d   1       2.613   0.248   0.131  0.00  0.00    -0.096 F 
ATOM     11  F3  UNL d   1       2.778   2.951   0.110  0.00  0.00    -0.097 F 
ATOM     12  F4  UNL d   1       0.519   4.472   0.270  0.00  0.00    -0.092 F 
ENDROOT
TORSDOF 0
ENDMDL
