MODEL 1
REMARK minimizedAffinity -5.07132435
REMARK minimizedRMSD -1
REMARK  0 active torsions:
REMARK  status: ('A' for Active; 'I' for Inactive)
ROOT
ATOM      1  C   UNL d   1       1.383   2.990   0.259  0.00  0.00     0.124 A 
ATOM      2  C1  UNL d   1       2.379   2.026   0.319  0.00  0.00     0.062 A 
ATOM      3  C2  UNL d   1       2.056   0.678   0.194  0.00  0.00     0.162 A 
ATOM      4  C3  UNL d   1       0.731   0.286   0.006  0.00  0.00    -0.034 A 
ATOM      5  C4  UNL d   1      -0.266   1.261  -0.052  0.00  0.00     0.162 A 
ATOM      6  C5  UNL d   1       0.062   2.608   0.074  0.00  0.00     0.062 A 
ATOM      7  F   UNL d   1      -0.902   3.538   0.016  0.00  0.00    -0.097 F 
ATOM      8  F1  UNL d   1      -1.550   0.920  -0.231  0.00  0.00    -0.096 F 
ATOM      9  I   UNL d   1       0.244  -1.729  -0.181  0.00  0.00    -0.060 I 
ATOM     10  F2  UNL d   1       3.039  -0.233   0.255  0.00  0.00    -0.096 F 
ATOM     11  F3  UNL d   1       3.656   2.393   0.499  0.00  0.00    -0.097 F 
ATOM     12  F4  UNL d   1       1.696   4.287   0.381  0.00  0.00    -0.092 F 
ENDROOT
TORSDOF 0
ENDMDL
