MODEL 1
REMARK minimizedAffinity -2.18343115
REMARK minimizedRMSD -1
REMARK  0 active torsions:
REMARK  status: ('A' for Active; 'I' for Inactive)
ROOT
ATOM      1  C   UNL d   1       0.976   1.907   0.781  0.00  0.00     0.124 A 
ATOM      2  C1  UNL d   1       1.836   0.884   0.406  0.00  0.00     0.062 A 
ATOM      3  C2  UNL d   1       1.329  -0.365   0.060  0.00  0.00     0.162 A 
ATOM      4  C3  UNL d   1      -0.046  -0.598   0.086  0.00  0.00    -0.034 A 
ATOM      5  C4  UNL d   1      -0.904   0.435   0.466  0.00  0.00     0.162 A 
ATOM      6  C5  UNL d   1      -0.393   1.682   0.810  0.00  0.00     0.062 A 
ATOM      7  F   UNL d   1      -1.225   2.669   1.173  0.00  0.00    -0.097 F 
ATOM      8  F1  UNL d   1      -2.232   0.245   0.502  0.00  0.00    -0.096 F 
ATOM      9  I   UNL d   1      -0.807  -2.465  -0.430  0.00  0.00    -0.060 I 
ATOM     10  F2  UNL d   1       2.184  -1.335  -0.298  0.00  0.00    -0.096 F 
ATOM     11  F3  UNL d   1       3.159   1.100   0.378  0.00  0.00    -0.097 F 
ATOM     12  F4  UNL d   1       1.467   3.108   1.114  0.00  0.00    -0.092 F 
ENDROOT
TORSDOF 0
ENDMDL
