MODEL 1
REMARK minimizedAffinity -3.06368709
REMARK minimizedRMSD -1
REMARK  0 active torsions:
REMARK  status: ('A' for Active; 'I' for Inactive)
ROOT
ATOM      1  C   UNL d   1       0.769   3.274   0.339  0.00  0.00     0.124 A 
ATOM      2  C1  UNL d   1      -0.509   2.738   0.253  0.00  0.00     0.062 A 
ATOM      3  C2  UNL d   1      -0.690   1.358   0.252  0.00  0.00     0.162 A 
ATOM      4  C3  UNL d   1       0.409   0.504   0.338  0.00  0.00    -0.034 A 
ATOM      5  C4  UNL d   1       1.691   1.050   0.424  0.00  0.00     0.162 A 
ATOM      6  C5  UNL d   1       1.867   2.430   0.424  0.00  0.00     0.062 A 
ATOM      7  F   UNL d   1       3.102   2.946   0.508  0.00  0.00    -0.097 F 
ATOM      8  F1  UNL d   1       2.770   0.257   0.508  0.00  0.00    -0.096 F 
ATOM      9  I   UNL d   1       0.142  -1.560   0.337  0.00  0.00    -0.060 I 
ATOM     10  F2  UNL d   1      -1.936   0.868   0.167  0.00  0.00    -0.096 F 
ATOM     11  F3  UNL d   1      -1.571   3.552   0.169  0.00  0.00    -0.097 F 
ATOM     12  F4  UNL d   1       0.941   4.602   0.339  0.00  0.00    -0.092 F 
ENDROOT
TORSDOF 0
ENDMDL
