MODEL 1
REMARK minimizedAffinity -2.57488942
REMARK minimizedRMSD -1
REMARK  0 active torsions:
REMARK  status: ('A' for Active; 'I' for Inactive)
ROOT
ATOM      1  C   UNL d   1       0.394   3.187   0.373  0.00  0.00     0.124 A 
ATOM      2  C1  UNL d   1       1.519   2.380   0.466  0.00  0.00     0.062 A 
ATOM      3  C2  UNL d   1       1.396   0.996   0.393  0.00  0.00     0.162 A 
ATOM      4  C3  UNL d   1       0.141   0.409   0.224  0.00  0.00    -0.034 A 
ATOM      5  C4  UNL d   1      -0.986   1.227   0.133  0.00  0.00     0.162 A 
ATOM      6  C5  UNL d   1      -0.857   2.610   0.207  0.00  0.00     0.062 A 
ATOM      7  F   UNL d   1      -1.946   3.389   0.117  0.00  0.00    -0.097 F 
ATOM      8  F1  UNL d   1      -2.207   0.696  -0.029  0.00  0.00    -0.096 F 
ATOM      9  I   UNL d   1      -0.047  -1.661   0.114  0.00  0.00    -0.060 I 
ATOM     10  F2  UNL d   1       2.500   0.241   0.485  0.00  0.00    -0.096 F 
ATOM     11  F3  UNL d   1       2.729   2.935   0.628  0.00  0.00    -0.097 F 
ATOM     12  F4  UNL d   1       0.515   4.519   0.445  0.00  0.00    -0.092 F 
ENDROOT
TORSDOF 0
ENDMDL
