MODEL 1
REMARK minimizedAffinity -1.58818495
REMARK minimizedRMSD -1
REMARK  0 active torsions:
REMARK  status: ('A' for Active; 'I' for Inactive)
ROOT
ATOM      1  C   UNL d   1       0.353   2.006   0.545  0.00  0.00     0.124 A 
ATOM      2  C1  UNL d   1      -1.017   1.781   0.565  0.00  0.00     0.062 A 
ATOM      3  C2  UNL d   1      -1.523   0.514   0.291  0.00  0.00     0.162 A 
ATOM      4  C3  UNL d   1      -0.658  -0.540  -0.005  0.00  0.00    -0.034 A 
ATOM      5  C4  UNL d   1       0.718  -0.307  -0.024  0.00  0.00     0.162 A 
ATOM      6  C5  UNL d   1       1.219   0.962   0.250  0.00  0.00     0.062 A 
ATOM      7  F   UNL d   1       2.542   1.176   0.230  0.00  0.00    -0.097 F 
ATOM      8  F1  UNL d   1       1.577  -1.298  -0.305  0.00  0.00    -0.096 F 
ATOM      9  I   UNL d   1      -1.411  -2.437  -0.415  0.00  0.00    -0.060 I 
ATOM     10  F2  UNL d   1      -2.850   0.326   0.317  0.00  0.00    -0.096 F 
ATOM     11  F3  UNL d   1      -1.855   2.789   0.848  0.00  0.00    -0.097 F 
ATOM     12  F4  UNL d   1       0.837   3.226   0.807  0.00  0.00    -0.092 F 
ENDROOT
TORSDOF 0
ENDMDL
