MODEL 1
REMARK minimizedAffinity -0.511142254
REMARK minimizedRMSD -1
REMARK  0 active torsions:
REMARK  status: ('A' for Active; 'I' for Inactive)
ROOT
ATOM      1  C   UNL d   1       0.084   3.103   0.129  0.00  0.00     0.124 A 
ATOM      2  C1  UNL d   1       1.012   2.448  -0.669  0.00  0.00     0.062 A 
ATOM      3  C2  UNL d   1       1.039   1.057  -0.713  0.00  0.00     0.162 A 
ATOM      4  C3  UNL d   1       0.135   0.311   0.043  0.00  0.00    -0.034 A 
ATOM      5  C4  UNL d   1      -0.795   0.976   0.844  0.00  0.00     0.162 A 
ATOM      6  C5  UNL d   1      -0.818   2.367   0.884  0.00  0.00     0.062 A 
ATOM      7  F   UNL d   1      -1.715   2.998   1.656  0.00  0.00    -0.097 F 
ATOM      8  F1  UNL d   1      -1.679   0.290   1.583  0.00  0.00    -0.096 F 
ATOM      9  I   UNL d   1       0.173  -1.769  -0.021  0.00  0.00    -0.060 I 
ATOM     10  F2  UNL d   1       1.946   0.450  -1.493  0.00  0.00    -0.096 F 
ATOM     11  F3  UNL d   1       1.885   3.156  -1.399  0.00  0.00    -0.097 F 
ATOM     12  F4  UNL d   1       0.060   4.441   0.170  0.00  0.00    -0.092 F 
ENDROOT
TORSDOF 0
ENDMDL
