MODEL 1
REMARK minimizedAffinity -0.570471168
REMARK minimizedRMSD -1
REMARK  0 active torsions:
REMARK  status: ('A' for Active; 'I' for Inactive)
ROOT
ATOM      1  C   UNL d   1       0.750   2.726   0.461  0.00  0.00     0.124 A 
ATOM      2  C1  UNL d   1       1.677   1.804  -0.006  0.00  0.00     0.062 A 
ATOM      3  C2  UNL d   1       1.321   0.466  -0.149  0.00  0.00     0.162 A 
ATOM      4  C3  UNL d   1       0.033   0.042   0.175  0.00  0.00    -0.034 A 
ATOM      5  C4  UNL d   1      -0.893   0.975   0.645  0.00  0.00     0.162 A 
ATOM      6  C5  UNL d   1      -0.533   2.311   0.786  0.00  0.00     0.062 A 
ATOM      7  F   UNL d   1      -1.430   3.200   1.238  0.00  0.00    -0.097 F 
ATOM      8  F1  UNL d   1      -2.141   0.601   0.965  0.00  0.00    -0.096 F 
ATOM      9  I   UNL d   1      -0.503  -1.958  -0.038  0.00  0.00    -0.060 I 
ATOM     10  F2  UNL d   1       2.237  -0.403  -0.603  0.00  0.00    -0.096 F 
ATOM     11  F3  UNL d   1       2.918   2.203  -0.320  0.00  0.00    -0.097 F 
ATOM     12  F4  UNL d   1       1.095   4.013   0.599  0.00  0.00    -0.092 F 
ENDROOT
TORSDOF 0
ENDMDL
