MODEL 1
REMARK minimizedAffinity -2.09685802
REMARK minimizedRMSD -1
REMARK  0 active torsions:
REMARK  status: ('A' for Active; 'I' for Inactive)
ROOT
ATOM      1  C   UNL d   1      -1.006  -1.076   0.513  0.00  0.00     0.124 A 
ATOM      2  C1  UNL d   1       0.247  -0.815  -0.024  0.00  0.00     0.062 A 
ATOM      3  C2  UNL d   1       0.686   0.498  -0.171  0.00  0.00     0.162 A 
ATOM      4  C3  UNL d   1      -0.128   1.560   0.222  0.00  0.00    -0.034 A 
ATOM      5  C4  UNL d   1      -1.387   1.290   0.760  0.00  0.00     0.162 A 
ATOM      6  C5  UNL d   1      -1.822  -0.024   0.904  0.00  0.00     0.062 A 
ATOM      7  F   UNL d   1      -3.033  -0.274   1.423  0.00  0.00    -0.097 F 
ATOM      8  F1  UNL d   1      -2.196   2.287   1.148  0.00  0.00    -0.096 F 
ATOM      9  I   UNL d   1       0.525   3.524   0.005  0.00  0.00    -0.060 I 
ATOM     10  F2  UNL d   1       1.902   0.721  -0.693  0.00  0.00    -0.096 F 
ATOM     11  F3  UNL d   1       1.037  -1.830  -0.404  0.00  0.00    -0.097 F 
ATOM     12  F4  UNL d   1      -1.426  -2.340   0.651  0.00  0.00    -0.092 F 
ENDROOT
TORSDOF 0
ENDMDL
