MODEL 1
REMARK minimizedAffinity -5.11848736
REMARK minimizedRMSD -1
REMARK  0 active torsions:
REMARK  status: ('A' for Active; 'I' for Inactive)
ROOT
ATOM      1  C   UNL d   1       1.212   3.194   0.262  0.00  0.00     0.124 A 
ATOM      2  C1  UNL d   1       2.249   2.276   0.171  0.00  0.00     0.062 A 
ATOM      3  C2  UNL d   1       1.975   0.912   0.137  0.00  0.00     0.162 A 
ATOM      4  C3  UNL d   1       0.658   0.457   0.194  0.00  0.00    -0.034 A 
ATOM      5  C4  UNL d   1      -0.380   1.386   0.286  0.00  0.00     0.162 A 
ATOM      6  C5  UNL d   1      -0.101   2.748   0.320  0.00  0.00     0.062 A 
ATOM      7  F   UNL d   1      -1.104   3.634   0.408  0.00  0.00    -0.097 F 
ATOM      8  F1  UNL d   1      -1.658   0.983   0.343  0.00  0.00    -0.096 F 
ATOM      9  I   UNL d   1       0.245  -1.582   0.143  0.00  0.00    -0.060 I 
ATOM     10  F2  UNL d   1       2.997   0.047   0.048  0.00  0.00    -0.096 F 
ATOM     11  F3  UNL d   1       3.519   2.704   0.115  0.00  0.00    -0.097 F 
ATOM     12  F4  UNL d   1       1.479   4.506   0.295  0.00  0.00    -0.092 F 
ENDROOT
TORSDOF 0
ENDMDL
