MODEL 1
REMARK minimizedAffinity 0.071279794
REMARK minimizedRMSD -1
REMARK  0 active torsions:
REMARK  status: ('A' for Active; 'I' for Inactive)
ROOT
ATOM      1  C   UNL d   1       0.690   1.895   0.716  0.00  0.00     0.124 A 
ATOM      2  C1  UNL d   1      -0.609   1.645   0.295  0.00  0.00     0.062 A 
ATOM      3  C2  UNL d   1      -0.979   0.367  -0.114  0.00  0.00     0.162 A 
ATOM      4  C3  UNL d   1      -0.048  -0.673  -0.102  0.00  0.00    -0.034 A 
ATOM      5  C4  UNL d   1       1.256  -0.413   0.322  0.00  0.00     0.162 A 
ATOM      6  C5  UNL d   1       1.621   0.866   0.730  0.00  0.00     0.062 A 
ATOM      7  F   UNL d   1       2.876   1.105   1.136  0.00  0.00    -0.097 F 
ATOM      8  F1  UNL d   1       2.176  -1.389   0.346  0.00  0.00    -0.096 F 
ATOM      9  I   UNL d   1      -0.597  -2.585  -0.712  0.00  0.00    -0.060 I 
ATOM     10  F2  UNL d   1      -2.241   0.154  -0.516  0.00  0.00    -0.096 F 
ATOM     11  F3  UNL d   1      -1.510   2.637   0.281  0.00  0.00    -0.097 F 
ATOM     12  F4  UNL d   1       1.043   3.126   1.108  0.00  0.00    -0.092 F 
ENDROOT
TORSDOF 0
ENDMDL
