MODEL 1
REMARK minimizedAffinity -3.60067606
REMARK minimizedRMSD -1
REMARK  0 active torsions:
REMARK  status: ('A' for Active; 'I' for Inactive)
ROOT
ATOM      1  C   UNL d   1       1.709   3.129  -0.375  0.00  0.00     0.124 A 
ATOM      2  C1  UNL d   1       2.537   2.109   0.074  0.00  0.00     0.062 A 
ATOM      3  C2  UNL d   1       2.060   0.804   0.153  0.00  0.00     0.162 A 
ATOM      4  C3  UNL d   1       0.748   0.510  -0.219  0.00  0.00    -0.034 A 
ATOM      5  C4  UNL d   1      -0.079   1.541  -0.669  0.00  0.00     0.162 A 
ATOM      6  C5  UNL d   1       0.402   2.844  -0.746  0.00  0.00     0.062 A 
ATOM      7  F   UNL d   1      -0.399   3.828  -1.180  0.00  0.00    -0.097 F 
ATOM      8  F1  UNL d   1      -1.346   1.294  -1.034  0.00  0.00    -0.096 F 
ATOM      9  I   UNL d   1       0.031  -1.440  -0.102  0.00  0.00    -0.060 I 
ATOM     10  F2  UNL d   1       2.882  -0.162   0.591  0.00  0.00    -0.096 F 
ATOM     11  F3  UNL d   1       3.799   2.382   0.434  0.00  0.00    -0.097 F 
ATOM     12  F4  UNL d   1       2.170   4.384  -0.448  0.00  0.00    -0.092 F 
ENDROOT
TORSDOF 0
ENDMDL
