MODEL 1
REMARK minimizedAffinity -4.6876173
REMARK minimizedRMSD -1
REMARK  0 active torsions:
REMARK  status: ('A' for Active; 'I' for Inactive)
ROOT
ATOM      1  C   UNL d   1       0.360   3.130   0.188  0.00  0.00     0.124 A 
ATOM      2  C1  UNL d   1       1.426   2.242   0.172  0.00  0.00     0.062 A 
ATOM      3  C2  UNL d   1       1.196   0.874   0.057  0.00  0.00     0.162 A 
ATOM      4  C3  UNL d   1      -0.106   0.385  -0.043  0.00  0.00    -0.034 A 
ATOM      5  C4  UNL d   1      -1.174   1.285  -0.025  0.00  0.00     0.162 A 
ATOM      6  C5  UNL d   1      -0.939   2.651   0.090  0.00  0.00     0.062 A 
ATOM      7  F   UNL d   1      -1.970   3.508   0.106  0.00  0.00    -0.097 F 
ATOM      8  F1  UNL d   1      -2.439   0.849  -0.119  0.00  0.00    -0.096 F 
ATOM      9  I   UNL d   1      -0.454  -1.659  -0.215  0.00  0.00    -0.060 I 
ATOM     10  F2  UNL d   1       2.246   0.039   0.043  0.00  0.00    -0.096 F 
ATOM     11  F3  UNL d   1       2.682   2.702   0.267  0.00  0.00    -0.097 F 
ATOM     12  F4  UNL d   1       0.584   4.446   0.300  0.00  0.00    -0.092 F 
ENDROOT
TORSDOF 0
ENDMDL
