MODEL 1
REMARK minimizedAffinity -5.74848413
REMARK minimizedRMSD -1
REMARK  0 active torsions:
REMARK  status: ('A' for Active; 'I' for Inactive)
ROOT
ATOM      1  C   UNL d   1       1.456   3.161   0.132  0.00  0.00     0.124 A 
ATOM      2  C1  UNL d   1       0.165   2.809  -0.236  0.00  0.00     0.062 A 
ATOM      3  C2  UNL d   1      -0.245   1.481  -0.170  0.00  0.00     0.162 A 
ATOM      4  C3  UNL d   1       0.638   0.493   0.267  0.00  0.00    -0.034 A 
ATOM      5  C4  UNL d   1       1.936   0.854   0.634  0.00  0.00     0.162 A 
ATOM      6  C5  UNL d   1       2.340   2.183   0.567  0.00  0.00     0.062 A 
ATOM      7  F   UNL d   1       3.588   2.521   0.923  0.00  0.00    -0.097 F 
ATOM      8  F1  UNL d   1       2.810  -0.071   1.059  0.00  0.00    -0.096 F 
ATOM      9  I   UNL d   1       0.029  -1.495   0.367  0.00  0.00    -0.060 I 
ATOM     10  F2  UNL d   1      -1.498   1.170  -0.532  0.00  0.00    -0.096 F 
ATOM     11  F3  UNL d   1      -0.690   3.752  -0.658  0.00  0.00    -0.097 F 
ATOM     12  F4  UNL d   1       1.848   4.439   0.067  0.00  0.00    -0.092 F 
ENDROOT
TORSDOF 0
ENDMDL
